
 Created by Python create_sdf_string function

 29  0  0  0  0  0  0  0  0  0999 V2000
    0.0000    0.0000    0.0000 C   0  0  0  0  0  0  0  0  0  0  0  0
   -0.7945   -1.5607    1.7401 C   0  0  0  0  0  0  0  0  0  0  0  0
   -0.4909   -1.1848   -1.0228 C   0  0  0  0  0  0  0  0  0  0  0  0
   -2.3909    1.1050    0.3816 C   0  0  0  0  0  0  0  0  0  0  0  0
    0.4892   -1.4528    1.8118 C   0  0  0  0  0  0  0  0  0  0  0  0
   -0.3728    1.7694   -0.8899 C   0  0  0  0  0  0  0  0  0  0  0  0
   -0.7740   -1.0304   -0.8942 C   0  0  0  0  0  0  0  0  0  0  0  0
    0.2614    0.2088    1.8229 C   0  0  0  0  0  0  0  0  0  0  0  0
    0.8544   -1.4941    0.8856 C   0  0  0  0  0  0  0  0  0  0  0  0
    0.8152    0.9835   -0.0152 C   0  0  0  0  0  0  0  0  0  0  0  0
   -1.3521   -0.6022    1.3024 C   0  0  0  0  0  0  0  0  0  0  0  0
   -1.3612    1.7327   -0.0704 C   0  0  0  0  0  0  0  0  0  0  0  0
   -2.4189   -1.0307   -0.1165 C   0  0  0  0  0  0  0  0  0  0  0  0
   -1.2673   -0.1397    0.1430 C   0  0  0  0  0  0  0  0  0  0  0  0
    0.3443   -0.1378   -2.3895 C   0  0  0  0  0  0  0  0  0  0  0  0
   -0.7943    1.7288    0.3646 C   0  0  0  0  0  0  0  0  0  0  0  0
   -1.7566   -0.0512    1.0068 C   0  0  0  0  0  0  0  0  0  0  0  0
   -0.3751   -0.6488    1.2116 C   0  0  0  0  0  0  0  0  0  0  0  0
   -0.3081    2.3061   -1.0129 C   0  0  0  0  0  0  0  0  0  0  0  0
    0.0955    1.0331    1.6926 C   0  0  0  0  0  0  0  0  0  0  0  0
    0.0643   -1.5552    1.3045 C   0  0  0  0  0  0  0  0  0  0  0  0
    1.2213    0.1111    0.7773 C   0  0  0  0  0  0  0  0  0  0  0  0
   -0.9384    0.9342    0.5147 C   0  0  0  0  0  0  0  0  0  0  0  0
    0.7645   -0.4891   -0.9278 C   0  0  0  0  0  0  0  0  0  0  0  0
   -1.1058    0.0849    0.7367 C   0  0  0  0  0  0  0  0  0  0  0  0
    1.1470    2.5324    0.3431 C   0  0  0  0  0  0  0  0  0  0  0  0
    1.4368    0.4565    0.8500 C   0  0  0  0  0  0  0  0  0  0  0  0
   -1.5166    0.7583   -0.9601 C   0  0  0  0  0  0  0  0  0  0  0  0
   -1.4646    0.1389    0.1674 C   0  0  0  0  0  0  0  0  0  0  0  0
M  END
$$$$

 Created by Python create_sdf_string function

 29 59  0  0  0  0  0  0  0  0999 V2000
    8.0883    8.3574   21.5616 N   0  0  0  0  0  0  0  0  0  0  0  0
    8.6275    7.5591   21.0792 N   0  0  0  0  0  0  0  0  0  0  0  0
    9.3851    6.5959   20.8988 B   0  0  0  0  0  0  0  0  0  0  0  0
   10.1349    8.6384   21.0133 P   0  0  0  0  0  0  0  0  0  0  0  0
    9.6977    7.9082   19.7594 B   0  0  0  0  0  0  0  0  0  0  0  0
    9.3028    5.5970   21.3620 F   0  0  0  0  0  0  0  0  0  0  0  0
    7.3991    7.7633   22.7417 O   0  0  0  0  0  0  0  0  0  0  0  0
    8.5385    7.0836   22.0193 N   0  0  0  0  0  0  0  0  0  0  0  0
    8.6917    7.7786   22.3859 N   0  0  0  0  0  0  0  0  0  0  0  0
   11.1339    8.1104   23.2674 P   0  0  0  0  0  0  0  0  0  0  0  0
    9.7820    5.2834   21.0871 S   0  0  0  0  0  0  0  0  0  0  0  0
    9.5485    5.6381   21.6158 C   0  0  0  0  0  0  0  0  0  0  0  0
   10.3372    7.1211   19.5534 Cl  0  0  0  0  0  0  0  0  0  0  0  0
    8.0197    7.2425   20.9603 O   0  0  0  0  0  0  0  0  0  0  0  0
   10.5033    6.4202   22.5850 I   0  0  0  0  0  0  0  0  0  0  0  0
    7.5431    9.1112   22.1860 P   0  0  0  0  0  0  0  0  0  0  0  0
    9.2503    6.7356   20.3149 Cl  0  0  0  0  0  0  0  0  0  0  0  0
    8.7390    8.7119   21.2525 N   0  0  0  0  0  0  0  0  0  0  0  0
    8.7870    8.3096   24.3330 He  0  0  0  0  0  0  0  0  0  0  0  0
    9.6058    8.9126   21.2189 He  0  0  0  0  0  0  0  0  0  0  0  0
    9.3739    5.4777   20.8962 He  0  0  0  0  0  0  0  0  0  0  0  0
    9.3278    8.3369   19.6942 He  0  0  0  0  0  0  0  0  0  0  0  0
    9.2440    7.2578   21.5272 He  0  0  0  0  0  0  0  0  0  0  0  0
    8.9244    7.1669   19.9279 He  0  0  0  0  0  0  0  0  0  0  0  0
    9.4084    9.0568   20.8365 He  0  0  0  0  0  0  0  0  0  0  0  0
    8.0724    8.7044   19.6651 He  0  0  0  0  0  0  0  0  0  0  0  0
   10.5117    5.5063   21.4496 He  0  0  0  0  0  0  0  0  0  0  0  0
    9.7084    7.5813   21.1122 He  0  0  0  0  0  0  0  0  0  0  0  0
   10.7351    7.0907   21.5067 He  0  0  0  0  0  0  0  0  0  0  0  0
  1  2  4  0
  1  3  1  0
  1  4  1  0
  1  5  3  0
  1  9  2  0
  1 13  2  0
  1 16  2  0
  1 17  1  0
  2  3  2  0
  2  4  3  0
  2  6  2  0
  2  7  4  0
  2 10  2  0
  2 14  3  0
  2 15  1  0
  2 16  3  0
  2 17  1  0
  3 10  3  0
  3 15  3  0
  3 16  1  0
  3 17  4  0
  4  8  3  0
  4 13  1  0
  5  8  1  0
  5 11  2  0
  5 13  3  0
  5 18  2  0
  6  8  1  0
  6  9  3  0
  6 13  2  0
  6 17  1  0
  7  9  1  0
  7 11  1  0
  7 15  1  0
  7 17  4  0
  8  9  1  0
  8 12  1  0
  8 13  3  0
  8 16  2  0
  8 17  3  0
  9 10  4  0
  9 11  4  0
  9 12  3  0
  9 15  4  0
  9 18  1  0
 10 12  1  0
 10 16  2  0
 11 12  3  0
 11 13  4  0
 11 14  1  0
 11 15  4  0
 11 16  4  0
 12 14  2  0
 12 15  3  0
 12 16  3  0
 13 16  2  0
 13 18  3  0
 14 18  1  0
 16 18  2  0
M  END
$$$$

 Created by Python create_sdf_string function

 29  0  0  0  0  0  0  0  0  0999 V2000
    7.4977    8.8573   21.9533 C   0  0  0  0  0  0  0  0  0  0  0  0
    8.6073    8.2505   24.3442 C   0  0  0  0  0  0  0  0  0  0  0  0
    9.9636    9.8611   21.1479 C   0  0  0  0  0  0  0  0  0  0  0  0
    8.0670    8.0014   21.0676 C   0  0  0  0  0  0  0  0  0  0  0  0
    9.5913    4.4457   20.6776 C   0  0  0  0  0  0  0  0  0  0  0  0
    9.4854    8.7853   18.9032 C   0  0  0  0  0  0  0  0  0  0  0  0
    9.6000    5.7306   20.6233 C   0  0  0  0  0  0  0  0  0  0  0  0
   10.7653    9.4778   20.8321 C   0  0  0  0  0  0  0  0  0  0  0  0
   10.0230    8.2511   18.7869 C   0  0  0  0  0  0  0  0  0  0  0  0
    9.4043    4.6609   21.3547 C   0  0  0  0  0  0  0  0  0  0  0  0
    6.8898    7.9611   23.2614 C   0  0  0  0  0  0  0  0  0  0  0  0
    9.5093    7.2374   22.2562 C   0  0  0  0  0  0  0  0  0  0  0  0
    8.9877    7.2111   19.0028 C   0  0  0  0  0  0  0  0  0  0  0  0
    8.0609    7.1360   22.8084 C   0  0  0  0  0  0  0  0  0  0  0  0
    8.2940    8.0239   23.2429 C   0  0  0  0  0  0  0  0  0  0  0  0
   11.3523    7.8779   23.3389 C   0  0  0  0  0  0  0  0  0  0  0  0
    9.6354   10.0431   20.4660 C   0  0  0  0  0  0  0  0  0  0  0  0
   10.0548    4.2966   21.0091 C   0  0  0  0  0  0  0  0  0  0  0  0
    9.8942    4.8785   21.9457 C   0  0  0  0  0  0  0  0  0  0  0  0
   10.6187    7.1812   18.6740 C   0  0  0  0  0  0  0  0  0  0  0  0
    7.9860    9.1353   19.1945 C   0  0  0  0  0  0  0  0  0  0  0  0
   10.8262    4.8732   21.6883 C   0  0  0  0  0  0  0  0  0  0  0  0
    7.2394    7.3320   20.9508 C   0  0  0  0  0  0  0  0  0  0  0  0
   10.3589    8.0411   21.1983 C   0  0  0  0  0  0  0  0  0  0  0  0
   11.1390    6.0777   23.0827 C   0  0  0  0  0  0  0  0  0  0  0  0
    7.1083    9.4639   22.4746 C   0  0  0  0  0  0  0  0  0  0  0  0
   11.5329    7.0163   22.0525 C   0  0  0  0  0  0  0  0  0  0  0  0
    9.4300    6.2879   19.6861 C   0  0  0  0  0  0  0  0  0  0  0  0
    8.5237    9.5049   21.2687 C   0  0  0  0  0  0  0  0  0  0  0  0
M  END
$$$$

 Created by Python create_sdf_string function

 29 45  0  0  0  0  0  0  0  0999 V2000
   12.2976    9.2568   21.3268 Cl  0  0  0  0  0  0  0  0  0  0  0  0
   10.0494    9.0526   20.7320 B   0  0  0  0  0  0  0  0  0  0  0  0
   12.2460    9.2347   21.0145 I   0  0  0  0  0  0  0  0  0  0  0  0
    8.6543    8.9431   18.5230 C   0  0  0  0  0  0  0  0  0  0  0  0
   11.1081    5.0785   21.3632 F   0  0  0  0  0  0  0  0  0  0  0  0
    8.5642    5.6178   22.1168 C   0  0  0  0  0  0  0  0  0  0  0  0
    8.9087    7.8801   19.4634 F   0  0  0  0  0  0  0  0  0  0  0  0
    7.7642    7.5583   23.8007 N   0  0  0  0  0  0  0  0  0  0  0  0
   12.5312    8.8125   21.3786 C   0  0  0  0  0  0  0  0  0  0  0  0
    9.2720    9.3123   19.7642 C   0  0  0  0  0  0  0  0  0  0  0  0
   10.2440    6.8943   18.4383 C   0  0  0  0  0  0  0  0  0  0  0  0
    8.3811    9.5019   20.0120 C   0  0  0  0  0  0  0  0  0  0  0  0
   11.8211    6.5905   24.1955 N   0  0  0  0  0  0  0  0  0  0  0  0
    9.6782    6.2061   22.2435 S   0  0  0  0  0  0  0  0  0  0  0  0
    8.0921    9.0763   21.4111 S   0  0  0  0  0  0  0  0  0  0  0  0
    8.1735    8.7340   22.3753 He  0  0  0  0  0  0  0  0  0  0  0  0
    9.0235   10.3578   24.5816 He  0  0  0  0  0  0  0  0  0  0  0  0
    7.5539    8.5012   22.2307 He  0  0  0  0  0  0  0  0  0  0  0  0
   11.1351    3.5327   18.8885 He  0  0  0  0  0  0  0  0  0  0  0  0
    7.5939    4.7087   21.0697 He  0  0  0  0  0  0  0  0  0  0  0  0
    7.6564    7.3503   23.1553 He  0  0  0  0  0  0  0  0  0  0  0  0
    6.9002    6.5759   23.6523 He  0  0  0  0  0  0  0  0  0  0  0  0
   10.1898    3.8739   20.5955 He  0  0  0  0  0  0  0  0  0  0  0  0
   10.9924    4.1219   22.2924 He  0  0  0  0  0  0  0  0  0  0  0  0
   10.6537    4.7258   20.8452 He  0  0  0  0  0  0  0  0  0  0  0  0
    7.6841    8.7516   22.5014 He  0  0  0  0  0  0  0  0  0  0  0  0
   10.2793    7.5248   22.2947 He  0  0  0  0  0  0  0  0  0  0  0  0
    7.6956    7.8971   23.0514 He  0  0  0  0  0  0  0  0  0  0  0  0
    9.1676    5.9848   18.4161 He  0  0  0  0  0  0  0  0  0  0  0  0
  1  2  4  0
  1  7  3  0
  1  8  4  0
  1  9  3  0
  1 10  1  0
  1 14  2  0
  2  4  4  0
  2  9  2  0
  2 10  2  0
  2 12  1  0
  2 13  3  0
  2 14  4  0
  3 11  3  0
  3 13  4  0
  4  5  1  0
  4 10  1  0
  4 12  4  0
  4 13  4  0
  5  6  4  0
  5  7  2  0
  5  9  1  0
  5 11  1  0
  5 12  2  0
  5 14  1  0
  6  7  1  0
  6  8  2  0
  6 10  1  0
  6 12  2  0
  6 13  1  0
  7  9  3  0
  7 10  1  0
  7 11  2  0
  7 12  2  0
  7 13  3  0
  8 12  4  0
  8 13  3  0
  9 10  1  0
  9 11  3  0
  9 12  1  0
  9 13  1  0
 10 13  3  0
 12 15  4  0
 13 14  2  0
 13 15  1  0
 14 15  4  0
M  END
$$$$

 Created by Python create_sdf_string function

 29  0  0  0  0  0  0  0  0  0999 V2000
    8.1134    8.9976   22.5025 C   0  0  0  0  0  0  0  0  0  0  0  0
    8.7153    9.7805   24.0880 O   0  0  0  0  0  0  0  0  0  0  0  0
   12.0596    9.0656   21.4155 C   0  0  0  0  0  0  0  0  0  0  0  0
    7.5445    8.7202   22.4173 C   0  0  0  0  0  0  0  0  0  0  0  0
   10.5465    4.0232   19.2596 C   0  0  0  0  0  0  0  0  0  0  0  0
   10.3176    9.1778   20.6267 C   0  0  0  0  0  0  0  0  0  0  0  0
    8.2421    4.8329   21.3281 C   0  0  0  0  0  0  0  0  0  0  0  0
   12.0251    9.0748   21.1852 C   0  0  0  0  0  0  0  0  0  0  0  0
    8.7780    8.8933   18.6756 C   0  0  0  0  0  0  0  0  0  0  0  0
   10.8408    5.2221   21.3131 C   0  0  0  0  0  0  0  0  0  0  0  0
    7.5871    7.1568   23.3404 C   0  0  0  0  0  0  0  0  0  0  0  0
    8.8383    5.5556   22.2300 C   0  0  0  0  0  0  0  0  0  0  0  0
    9.0680    8.0599   19.1492 C   0  0  0  0  0  0  0  0  0  0  0  0
    7.7419    7.5893   23.8349 C   0  0  0  0  0  0  0  0  0  0  0  0
    6.9704    6.5588   23.6066 C   0  0  0  0  0  0  0  0  0  0  0  0
   12.1837    8.7153   21.5735 C   0  0  0  0  0  0  0  0  0  0  0  0
    9.3917    9.2823   19.6394 C   0  0  0  0  0  0  0  0  0  0  0  0
   10.1392    4.0427   20.3319 C   0  0  0  0  0  0  0  0  0  0  0  0
   10.8121    4.6680   22.0769 C   0  0  0  0  0  0  0  0  0  0  0  0
    9.9580    6.9833   18.7859 C   0  0  0  0  0  0  0  0  0  0  0  0
    8.5258    9.4528   19.9329 C   0  0  0  0  0  0  0  0  0  0  0  0
   10.5400    4.7147   20.6525 C   0  0  0  0  0  0  0  0  0  0  0  0
    7.7084    9.0068   22.7138 C   0  0  0  0  0  0  0  0  0  0  0  0
   10.8111    7.6075   22.3737 C   0  0  0  0  0  0  0  0  0  0  0  0
   11.5246    6.6594   23.4732 C   0  0  0  0  0  0  0  0  0  0  0  0
    7.6523    7.9075   23.3172 C   0  0  0  0  0  0  0  0  0  0  0  0
   10.0466    6.1097   22.4856 C   0  0  0  0  0  0  0  0  0  0  0  0
    9.6351    6.0082   18.8135 C   0  0  0  0  0  0  0  0  0  0  0  0
    8.1725    9.3153   21.3626 C   0  0  0  0  0  0  0  0  0  0  0  0
M  END
$$$$

 Created by Python create_sdf_string function

 29 50  0  0  0  0  0  0  0  0999 V2000
    9.4537   10.7799   25.4523 F   0  0  0  0  0  0  0  0  0  0  0  0
   12.7976    8.2269   21.5756 C   0  0  0  0  0  0  0  0  0  0  0  0
    8.6464    7.4426   24.7921 Cl  0  0  0  0  0  0  0  0  0  0  0  0
   10.8646    2.0448   20.0176 C   0  0  0  0  0  0  0  0  0  0  0  0
    8.2779    4.4875   22.6266 O   0  0  0  0  0  0  0  0  0  0  0  0
   12.1375   11.0678   21.7584 N   0  0  0  0  0  0  0  0  0  0  0  0
    8.3868    8.5756   19.8952 Se  0  0  0  0  0  0  0  0  0  0  0  0
    9.7456    4.8398   21.0173 P   0  0  0  0  0  0  0  0  0  0  0  0
    8.1493    7.8047   24.4385 F   0  0  0  0  0  0  0  0  0  0  0  0
    8.8329    5.5559   22.5359 O   0  0  0  0  0  0  0  0  0  0  0  0
    8.6138    7.2170   23.1956 O   0  0  0  0  0  0  0  0  0  0  0  0
   10.5178    1.2384   20.8546 O   0  0  0  0  0  0  0  0  0  0  0  0
   10.6069    4.1271   23.8254 F   0  0  0  0  0  0  0  0  0  0  0  0
   10.6922    4.4055   20.1612 F   0  0  0  0  0  0  0  0  0  0  0  0
   12.1235    5.9126   24.5123 N   0  0  0  0  0  0  0  0  0  0  0  0
    9.5821    5.9024   24.2361 P   0  0  0  0  0  0  0  0  0  0  0  0
   11.8491    6.8800   18.7362 N   0  0  0  0  0  0  0  0  0  0  0  0
    7.6850   10.2900   21.8620 He  0  0  0  0  0  0  0  0  0  0  0  0
    9.5447    9.1754   20.2555 He  0  0  0  0  0  0  0  0  0  0  0  0
    9.8903    7.2483   17.4212 He  0  0  0  0  0  0  0  0  0  0  0  0
    7.2159    6.3515   22.8135 He  0  0  0  0  0  0  0  0  0  0  0  0
   12.3313    9.2728   20.2995 He  0  0  0  0  0  0  0  0  0  0  0  0
   10.3364    8.3462   19.2036 He  0  0  0  0  0  0  0  0  0  0  0  0
   10.2879    6.3081   16.8937 He  0  0  0  0  0  0  0  0  0  0  0  0
    7.7931    7.3431   19.4410 He  0  0  0  0  0  0  0  0  0  0  0  0
    7.0957    7.2170   23.9632 He  0  0  0  0  0  0  0  0  0  0  0  0
   10.0720    6.9873   22.3687 He  0  0  0  0  0  0  0  0  0  0  0  0
    8.8900    9.2952   22.3401 He  0  0  0  0  0  0  0  0  0  0  0  0
    7.9370    9.1996   20.7602 He  0  0  0  0  0  0  0  0  0  0  0  0
  1  4  4  0
  1  5  1  0
  1  7  4  0
  1  9  2  0
  1 12  1  0
  1 14  4  0
  1 16  1  0
  1 17  2  0
  2  4  2  0
  2  7  2  0
  2 10  4  0
  2 13  4  0
  2 14  2  0
  2 16  1  0
  3  7  1  0
  3 11  3  0
  3 12  3  0
  3 13  1  0
  3 14  3  0
  3 17  2  0
  4  7  1  0
  4  8  2  0
  4 10  1  0
  4 14  1  0
  4 16  4  0
  5  8  4  0
  5 11  3  0
  5 12  4  0
  5 14  1  0
  6 10  2  0
  6 15  3  0
  6 16  3  0
  6 17  3  0
  7  8  2  0
  7 11  2  0
  7 12  4  0
  7 13  2  0
  7 14  2  0
  7 17  2  0
  8 14  1  0
  9 16  4  0
 10 13  3  0
 10 14  1  0
 11 12  3  0
 11 13  2  0
 12 13  3  0
 13 14  4  0
 13 15  1  0
 13 16  1  0
 14 15  4  0
M  END
$$$$

 Created by Python create_sdf_string function

 29  1  0  0  0  0  0  0  0  0999 V2000
    8.0878    9.9075   22.1005 C   0  0  0  0  0  0  0  0  0  0  0  0
    8.9660    9.7731   24.5488 O   0  0  0  0  0  0  0  0  0  0  0  0
   12.0756    8.6044   21.1974 C   0  0  0  0  0  0  0  0  0  0  0  0
    8.7811    7.6937   24.5464 C   0  0  0  0  0  0  0  0  0  0  0  0
   10.4294    2.8714   20.3439 C   0  0  0  0  0  0  0  0  0  0  0  0
    9.8882    9.0914   20.3517 C   0  0  0  0  0  0  0  0  0  0  0  0
    8.8039    4.3304   22.0514 C   0  0  0  0  0  0  0  0  0  0  0  0
   11.6278   10.0482   21.3801 C   0  0  0  0  0  0  0  0  0  0  0  0
    8.7457    8.5758   19.9805 C   0  0  0  0  0  0  0  0  0  0  0  0
    9.8357    4.2197   21.0889 C   0  0  0  0  0  0  0  0  0  0  0  0
    8.3237    8.2241   24.2478 C   0  0  0  0  0  0  0  0  0  0  0  0
    9.0895    5.2490   22.4532 C   0  0  0  0  0  0  0  0  0  0  0  0
   10.0110    7.3140   18.2354 C   0  0  0  0  0  0  0  0  0  0  0  0
    8.5814    7.3255   23.2677 C   0  0  0  0  0  0  0  0  0  0  0  0
    7.5874    6.5767   22.9757 C   0  0  0  0  0  0  0  0  0  0  0  0
   11.7707    9.1517   20.5073 C   0  0  0  0  0  0  0  0  0  0  0  0
   10.5114    8.2430   19.3628 C   0  0  0  0  0  0  0  0  0  0  0  0
   10.2876    2.2557   20.8830 O   0  0  0  0  0  0  0  0  0  0  0  0
   10.5416    4.5688   23.1887 C   0  0  0  0  0  0  0  0  0  0  0  0
   10.3172    6.6628   17.9699 C   0  0  0  0  0  0  0  0  0  0  0  0
    8.3732    7.6882   19.3048 C   0  0  0  0  0  0  0  0  0  0  0  0
   10.3539    4.0666   20.4112 C   0  0  0  0  0  0  0  0  0  0  0  0
    7.4098    7.4808   23.7434 C   0  0  0  0  0  0  0  0  0  0  0  0
   10.2039    6.6526   22.8006 C   0  0  0  0  0  0  0  0  0  0  0  0
   11.4085    5.7825   24.0679 C   0  0  0  0  0  0  0  0  0  0  0  0
    8.7993    9.2877   22.4991 C   0  0  0  0  0  0  0  0  0  0  0  0
    9.9292    5.9584   23.9924 C   0  0  0  0  0  0  0  0  0  0  0  0
   11.3441    7.0667   18.8921 C   0  0  0  0  0  0  0  0  0  0  0  0
    8.4021    9.0938   20.8736 C   0  0  0  0  0  0  0  0  0  0  0  0
  5 18  1  0
M  END
$$$$

 Created by Python create_sdf_string function

 29 24  0  0  0  0  0  0  0  0999 V2000
   10.5612    2.9000   20.1905 N   0  0  0  0  0  0  0  0  0  0  0  0
    7.8926    8.9047   19.9334 C   0  0  0  0  0  0  0  0  0  0  0  0
   10.6081   10.6616   21.4945 C   0  0  0  0  0  0  0  0  0  0  0  0
    9.4438    6.0396   21.7407 S   0  0  0  0  0  0  0  0  0  0  0  0
   11.2751   10.9194   19.8618 N   0  0  0  0  0  0  0  0  0  0  0  0
   11.0219    6.3549   22.1709 F   0  0  0  0  0  0  0  0  0  0  0  0
    6.8033    7.0014   21.2877 O   0  0  0  0  0  0  0  0  0  0  0  0
    9.5054    9.0536   22.8243 O   0  0  0  0  0  0  0  0  0  0  0  0
   10.4126    6.4758   23.2734 C   0  0  0  0  0  0  0  0  0  0  0  0
    9.9061    9.1276   20.9358 F   0  0  0  0  0  0  0  0  0  0  0  0
    7.3385    8.9629   21.9579 He  0  0  0  0  0  0  0  0  0  0  0  0
    8.2640    9.8398   24.1650 He  0  0  0  0  0  0  0  0  0  0  0  0
   12.0677   10.7462   21.4084 He  0  0  0  0  0  0  0  0  0  0  0  0
    9.6609    9.6617   25.9287 He  0  0  0  0  0  0  0  0  0  0  0  0
    9.7077    5.6618   22.4016 He  0  0  0  0  0  0  0  0  0  0  0  0
    9.5717    8.2783   19.2282 He  0  0  0  0  0  0  0  0  0  0  0  0
   10.0369    4.9929   20.1317 He  0  0  0  0  0  0  0  0  0  0  0  0
    6.5808    9.1191   24.6010 He  0  0  0  0  0  0  0  0  0  0  0  0
   11.3836    6.6231   18.2343 He  0  0  0  0  0  0  0  0  0  0  0  0
    7.4437    7.9556   23.9636 He  0  0  0  0  0  0  0  0  0  0  0  0
    7.2424    6.4251   22.2906 He  0  0  0  0  0  0  0  0  0  0  0  0
   10.6596    6.8890   19.5750 He  0  0  0  0  0  0  0  0  0  0  0  0
    8.3047    2.5339   21.5019 He  0  0  0  0  0  0  0  0  0  0  0  0
    9.6766    5.6665   23.6031 He  0  0  0  0  0  0  0  0  0  0  0  0
   10.7567    5.8812   17.9645 He  0  0  0  0  0  0  0  0  0  0  0  0
    7.4568    7.7127   19.4780 He  0  0  0  0  0  0  0  0  0  0  0  0
    9.9466    6.1223   23.3611 He  0  0  0  0  0  0  0  0  0  0  0  0
   12.0887    7.6692   23.2621 He  0  0  0  0  0  0  0  0  0  0  0  0
   11.6929    6.3872   18.4649 He  0  0  0  0  0  0  0  0  0  0  0  0
  1  2  3  0
  1  3  1  0
  1  5  2  0
  1  6  4  0
  1  8  3  0
  2  5  1  0
  2  6  2  0
  2  7  3  0
  2  8  1  0
  3  6  1  0
  3  9  4  0
  3 10  2  0
  4  5  4  0
  4  6  3  0
  4  7  1  0
  4 10  3  0
  5  6  3  0
  5  7  4  0
  5  9  4  0
  6  9  1  0
  6 10  1  0
  7  8  1  0
  7 10  4  0
  9 10  1  0
M  END
$$$$

 Created by Python create_sdf_string function

 29  0  0  0  0  0  0  0  0  0999 V2000
    7.6200    8.7465   22.1121 C   0  0  0  0  0  0  0  0  0  0  0  0
    8.3902    9.4280   24.0666 C   0  0  0  0  0  0  0  0  0  0  0  0
   11.4069   10.2737   21.3367 C   0  0  0  0  0  0  0  0  0  0  0  0
    9.1591    9.3487   24.9808 C   0  0  0  0  0  0  0  0  0  0  0  0
   10.0931    3.6341   20.2131 C   0  0  0  0  0  0  0  0  0  0  0  0
    8.2147    8.6773   20.2418 C   0  0  0  0  0  0  0  0  0  0  0  0
    9.6520    5.3716   22.2768 C   0  0  0  0  0  0  0  0  0  0  0  0
   10.6115   10.1597   21.3937 C   0  0  0  0  0  0  0  0  0  0  0  0
    9.6855    8.3667   19.4981 C   0  0  0  0  0  0  0  0  0  0  0  0
   10.1030    4.8003   20.2246 C   0  0  0  0  0  0  0  0  0  0  0  0
    7.2792    9.0619   24.2985 C   0  0  0  0  0  0  0  0  0  0  0  0
    9.4387    5.5721   21.6737 C   0  0  0  0  0  0  0  0  0  0  0  0
   11.1627    6.6415   18.5993 C   0  0  0  0  0  0  0  0  0  0  0  0
    7.6466    8.2411   23.7040 C   0  0  0  0  0  0  0  0  0  0  0  0
    7.4246    6.7570   22.2061 C   0  0  0  0  0  0  0  0  0  0  0  0
   10.9867   10.2584   20.2657 C   0  0  0  0  0  0  0  0  0  0  0  0
   10.6086    6.9636   19.4623 C   0  0  0  0  0  0  0  0  0  0  0  0
    8.9190    3.3296   21.2153 C   0  0  0  0  0  0  0  0  0  0  0  0
    9.6907    5.8026   23.4326 C   0  0  0  0  0  0  0  0  0  0  0  0
   10.9351    5.9270   18.6016 C   0  0  0  0  0  0  0  0  0  0  0  0
    7.7972    7.8389   19.8687 C   0  0  0  0  0  0  0  0  0  0  0  0
   10.9255    6.3065   22.2764 C   0  0  0  0  0  0  0  0  0  0  0  0
    7.1737    7.2917   21.3165 C   0  0  0  0  0  0  0  0  0  0  0  0
   10.0034    6.1745   23.4239 C   0  0  0  0  0  0  0  0  0  0  0  0
   11.5906    7.6640   23.2460 C   0  0  0  0  0  0  0  0  0  0  0  0
    9.3423    9.2324   22.9232 C   0  0  0  0  0  0  0  0  0  0  0  0
   10.5097    6.5818   23.3577 C   0  0  0  0  0  0  0  0  0  0  0  0
   11.3458    6.3755   18.7299 C   0  0  0  0  0  0  0  0  0  0  0  0
   10.0210    9.3358   20.8349 C   0  0  0  0  0  0  0  0  0  0  0  0
M  END
$$$$

 Created by Python create_sdf_string function

 29 25  0  0  0  0  0  0  0  0999 V2000
    7.5102    8.6189   22.6763 N   0  0  0  0  0  0  0  0  0  0  0  0
   10.5562    9.8160   25.3165 S   0  0  0  0  0  0  0  0  0  0  0  0
    9.6013    5.0718   21.9930 N   0  0  0  0  0  0  0  0  0  0  0  0
   10.3730    9.0272   21.9725 Cl  0  0  0  0  0  0  0  0  0  0  0  0
    6.8207    8.0937   22.8140 Cl  0  0  0  0  0  0  0  0  0  0  0  0
    7.8662    6.2576   22.2261 C   0  0  0  0  0  0  0  0  0  0  0  0
    8.8980    4.0997   19.4720 I   0  0  0  0  0  0  0  0  0  0  0  0
   10.1496    6.9240   19.1037 N   0  0  0  0  0  0  0  0  0  0  0  0
    5.5836    7.3851   19.7388 Cl  0  0  0  0  0  0  0  0  0  0  0  0
   12.3989    5.8949   23.8772 C   0  0  0  0  0  0  0  0  0  0  0  0
   13.0140    6.9234   22.4484 C   0  0  0  0  0  0  0  0  0  0  0  0
    9.7009    7.1184   17.7587 C   0  0  0  0  0  0  0  0  0  0  0  0
    7.0570    9.0072   23.7774 He  0  0  0  0  0  0  0  0  0  0  0  0
   11.6735    8.0238   21.8015 He  0  0  0  0  0  0  0  0  0  0  0  0
   10.3911    3.9834   20.8648 He  0  0  0  0  0  0  0  0  0  0  0  0
    8.8068    8.3343   19.5159 He  0  0  0  0  0  0  0  0  0  0  0  0
   10.1750    8.8376   20.5536 He  0  0  0  0  0  0  0  0  0  0  0  0
    8.5504    4.5500   21.7466 He  0  0  0  0  0  0  0  0  0  0  0  0
    7.0876    8.0865   25.0595 He  0  0  0  0  0  0  0  0  0  0  0  0
   10.8161    5.5751   21.2853 He  0  0  0  0  0  0  0  0  0  0  0  0
   11.7297    5.8349   17.6887 He  0  0  0  0  0  0  0  0  0  0  0  0
   10.7811    8.8737   20.0604 He  0  0  0  0  0  0  0  0  0  0  0  0
   10.7892    5.8904   19.3203 He  0  0  0  0  0  0  0  0  0  0  0  0
    9.1484    5.4184   24.9460 He  0  0  0  0  0  0  0  0  0  0  0  0
   11.7634    7.2699   23.8780 He  0  0  0  0  0  0  0  0  0  0  0  0
    5.1328    6.8142   21.7103 He  0  0  0  0  0  0  0  0  0  0  0  0
   10.6930    9.4295   19.5499 He  0  0  0  0  0  0  0  0  0  0  0  0
    9.9102    8.5746   23.9444 He  0  0  0  0  0  0  0  0  0  0  0  0
    9.8432    7.8240   19.9239 He  0  0  0  0  0  0  0  0  0  0  0  0
  1  3  1  0
  1  4  3  0
  1  5  2  0
  1  6  1  0
  1  8  3  0
  1 11  3  0
  1 12  3  0
  2  4  2  0
  2 10  1  0
  2 11  3  0
  2 12  4  0
  3  6  1  0
  3  7  4  0
  3 12  1  0
  4  9  3  0
  5  8  3  0
  6  9  3  0
  6 10  4  0
  6 11  2  0
  7 12  4  0
  8  9  1  0
  8 10  4  0
  8 12  1  0
  9 10  4  0
  9 12  4  0
M  END
$$$$

 Created by Python create_sdf_string function

 29  1  0  0  0  0  0  0  0  0999 V2000
    7.5205    8.2188   22.7944 C   0  0  0  0  0  0  0  0  0  0  0  0
    7.2956    8.4718   23.5134 C   0  0  0  0  0  0  0  0  0  0  0  0
   11.5179    8.1219   22.1252 C   0  0  0  0  0  0  0  0  0  0  0  0
   10.3673    8.9781   24.5966 O   0  0  0  0  0  0  0  0  0  0  0  0
   10.2217    4.1855   20.8654 C   0  0  0  0  0  0  0  0  0  0  0  0
    8.9255    8.2722   19.5433 C   0  0  0  0  0  0  0  0  0  0  0  0
    9.6024    4.9914   21.9111 C   0  0  0  0  0  0  0  0  0  0  0  0
   10.2809    8.9655   20.7227 C   0  0  0  0  0  0  0  0  0  0  0  0
   10.4719    8.9073   22.4567 C   0  0  0  0  0  0  0  0  0  0  0  0
    8.8610    4.6019   21.5689 C   0  0  0  0  0  0  0  0  0  0  0  0
    7.5098    8.0730   24.3868 C   0  0  0  0  0  0  0  0  0  0  0  0
   10.7479    5.4042   21.6568 C   0  0  0  0  0  0  0  0  0  0  0  0
   11.2503    5.7935   18.1608 C   0  0  0  0  0  0  0  0  0  0  0  0
    6.8690    7.8881   22.7031 C   0  0  0  0  0  0  0  0  0  0  0  0
    7.5484    6.6530   22.3947 C   0  0  0  0  0  0  0  0  0  0  0  0
   10.7399    8.8987   20.0118 C   0  0  0  0  0  0  0  0  0  0  0  0
   10.6075    5.7418   19.1895 C   0  0  0  0  0  0  0  0  0  0  0  0
    9.3255    4.2637   19.8241 C   0  0  0  0  0  0  0  0  0  0  0  0
    9.5128    5.8797   24.0806 C   0  0  0  0  0  0  0  0  0  0  0  0
   10.2723    6.7113   18.9710 C   0  0  0  0  0  0  0  0  0  0  0  0
    6.2181    7.3744   20.5463 C   0  0  0  0  0  0  0  0  0  0  0  0
   11.5539    7.3570   23.6777 C   0  0  0  0  0  0  0  0  0  0  0  0
    5.9196    7.1397   21.7477 C   0  0  0  0  0  0  0  0  0  0  0  0
   11.7415    6.2215   23.5806 C   0  0  0  0  0  0  0  0  0  0  0  0
   12.2616    7.0263   22.7320 C   0  0  0  0  0  0  0  0  0  0  0  0
   10.6446    9.2098   19.7289 C   0  0  0  0  0  0  0  0  0  0  0  0
    9.8040    8.4150   23.7636 C   0  0  0  0  0  0  0  0  0  0  0  0
    9.9603    6.9915   18.2312 C   0  0  0  0  0  0  0  0  0  0  0  0
    9.7860    7.9448   19.6321 C   0  0  0  0  0  0  0  0  0  0  0  0
  6 29  4  0
M  END
$$$$

 Created by Python create_sdf_string function

 29 58  0  0  0  0  0  0  0  0999 V2000
    6.7456    8.0381   22.7914 C   0  0  0  0  0  0  0  0  0  0  0  0
    7.2894    9.0561   22.1857 Br  0  0  0  0  0  0  0  0  0  0  0  0
   12.7347    7.6151   22.2379 Se  0  0  0  0  0  0  0  0  0  0  0  0
    8.4690    8.7245   23.9699 N   0  0  0  0  0  0  0  0  0  0  0  0
    9.0675    6.4466   19.0440 N   0  0  0  0  0  0  0  0  0  0  0  0
    9.7294    4.3486   23.1449 O   0  0  0  0  0  0  0  0  0  0  0  0
   10.9053    9.5763   23.5234 O   0  0  0  0  0  0  0  0  0  0  0  0
   10.8081    9.9834   21.1709 F   0  0  0  0  0  0  0  0  0  0  0  0
    9.3418    4.5382   22.7315 O   0  0  0  0  0  0  0  0  0  0  0  0
    5.6682    7.3474   24.8073 Br  0  0  0  0  0  0  0  0  0  0  0  0
   12.0509    2.8602   22.7609 S   0  0  0  0  0  0  0  0  0  0  0  0
    9.9743    4.8884   20.1923 C   0  0  0  0  0  0  0  0  0  0  0  0
    9.6685    6.7545   19.7670 C   0  0  0  0  0  0  0  0  0  0  0  0
    3.1223    5.7949   19.5688 Cl  0  0  0  0  0  0  0  0  0  0  0  0
    9.4792    7.4053   23.8260 N   0  0  0  0  0  0  0  0  0  0  0  0
    7.4682    6.8993   22.4321 O   0  0  0  0  0  0  0  0  0  0  0  0
    8.5287    9.8389   23.4615 P   0  0  0  0  0  0  0  0  0  0  0  0
    9.2537    8.5017   18.8120 C   0  0  0  0  0  0  0  0  0  0  0  0
   10.1765    4.9313   21.6822 He  0  0  0  0  0  0  0  0  0  0  0  0
   12.5500    5.4789   18.5773 He  0  0  0  0  0  0  0  0  0  0  0  0
    7.3356    8.0403   21.5441 He  0  0  0  0  0  0  0  0  0  0  0  0
    7.7962    7.5943   22.8274 He  0  0  0  0  0  0  0  0  0  0  0  0
    8.8188   10.5184   21.6761 He  0  0  0  0  0  0  0  0  0  0  0  0
   11.7742    7.1343   17.9409 He  0  0  0  0  0  0  0  0  0  0  0  0
   10.8063    5.6155   25.8164 He  0  0  0  0  0  0  0  0  0  0  0  0
   10.4230    6.5629   22.9622 He  0  0  0  0  0  0  0  0  0  0  0  0
   11.4456    5.5042   21.2353 He  0  0  0  0  0  0  0  0  0  0  0  0
   11.2752    9.9141   19.3489 He  0  0  0  0  0  0  0  0  0  0  0  0
    9.4743    8.8512   20.3252 He  0  0  0  0  0  0  0  0  0  0  0  0
  1  2  2  0
  1  3  1  0
  1  4  3  0
  1  6  4  0
  1  8  4  0
  1 11  1  0
  1 18  3  0
  2  3  3  0
  2  8  4  0
  2 10  1  0
  2 13  2  0
  2 16  2  0
  2 17  1  0
  2 18  3  0
  3  5  2  0
  3  7  2  0
  3  8  2  0
  3 15  1  0
  3 16  3  0
  3 17  2  0
  4  5  4  0
  4  6  1  0
  4  9  3  0
  4 10  3  0
  4 13  3  0
  4 14  4  0
  4 16  2  0
  5  7  1  0
  5  9  2  0
  5 16  3  0
  5 17  3  0
  6  8  2  0
  6  9  1  0
  6 16  4  0
  6 17  1  0
  6 18  3  0
  7  9  4  0
  7 10  4  0
  7 18  1  0
  8  9  1  0
  9 12  4  0
  9 17  4  0
 10 12  4  0
 10 13  3  0
 10 14  2  0
 10 16  2  0
 10 18  2  0
 11 12  1  0
 11 15  1  0
 11 16  3  0
 11 18  3  0
 12 13  2  0
 12 14  1  0
 12 15  1  0
 13 14  4  0
 15 17  1  0
 16 17  1  0
 17 18  2  0
M  END
$$$$

 Created by Python create_sdf_string function

 29  0  0  0  0  0  0  0  0  0999 V2000
    6.5063    7.7819   22.6668 C   0  0  0  0  0  0  0  0  0  0  0  0
    7.3618    8.7520   22.2132 C   0  0  0  0  0  0  0  0  0  0  0  0
   11.7435    7.6885   22.4777 C   0  0  0  0  0  0  0  0  0  0  0  0
    8.5905    8.4973   23.7389 C   0  0  0  0  0  0  0  0  0  0  0  0
   10.4882    5.1081   21.7796 C   0  0  0  0  0  0  0  0  0  0  0  0
    9.6885    6.7170   19.2527 C   0  0  0  0  0  0  0  0  0  0  0  0
   10.1666    4.6083   23.2779 C   0  0  0  0  0  0  0  0  0  0  0  0
   10.5991    9.2609   23.1338 O   0  0  0  0  0  0  0  0  0  0  0  0
   10.5694    9.7705   21.1323 C   0  0  0  0  0  0  0  0  0  0  0  0
    9.8636    4.7133   22.7655 C   0  0  0  0  0  0  0  0  0  0  0  0
    5.9799    7.3657   23.9335 C   0  0  0  0  0  0  0  0  0  0  0  0
   11.2400    3.8668   22.6510 C   0  0  0  0  0  0  0  0  0  0  0  0
   11.8126    5.8877   18.9256 C   0  0  0  0  0  0  0  0  0  0  0  0
    6.9784    7.9655   21.5704 C   0  0  0  0  0  0  0  0  0  0  0  0
    7.5657    7.6990   22.9659 C   0  0  0  0  0  0  0  0  0  0  0  0
    9.2296   10.1023   21.5800 C   0  0  0  0  0  0  0  0  0  0  0  0
   11.4144    6.9292   18.5627 C   0  0  0  0  0  0  0  0  0  0  0  0
   10.4761    5.2603   20.2458 C   0  0  0  0  0  0  0  0  0  0  0  0
   10.5944    5.7203   24.8349 C   0  0  0  0  0  0  0  0  0  0  0  0
   10.1449    6.9209   19.5784 C   0  0  0  0  0  0  0  0  0  0  0  0
    5.2340    6.7460   20.9000 Cl  0  0  0  0  0  0  0  0  0  0  0  0
    9.7242    7.4813   23.7847 C   0  0  0  0  0  0  0  0  0  0  0  0
    7.0008    7.1063   22.5545 C   0  0  0  0  0  0  0  0  0  0  0  0
   10.5968    6.4295   23.1144 C   0  0  0  0  0  0  0  0  0  0  0  0
   11.2457    5.5107   21.0482 C   0  0  0  0  0  0  0  0  0  0  0  0
   10.7973    9.5984   19.7998 C   0  0  0  0  0  0  0  0  0  0  0  0
    8.7472    9.4399   23.2093 C   0  0  0  0  0  0  0  0  0  0  0  0
    9.6591    9.1123   20.3834 C   0  0  0  0  0  0  0  0  0  0  0  0
    9.6766    8.5584   19.2711 C   0  0  0  0  0  0  0  0  0  0  0  0
M  END
$$$$

 Created by Python create_sdf_string function

 29 72  0  0  0  0  0  0  0  0999 V2000
   10.4467    5.9584   21.3773 O   0  0  0  0  0  0  0  0  0  0  0  0
   11.3124    5.2466   19.7343 O   0  0  0  0  0  0  0  0  0  0  0  0
    9.3236    4.4724   22.7352 O   0  0  0  0  0  0  0  0  0  0  0  0
   10.6075    9.9121   22.1769 O   0  0  0  0  0  0  0  0  0  0  0  0
   10.6740   10.5939   21.7410 S   0  0  0  0  0  0  0  0  0  0  0  0
    9.3913    3.9453   22.5032 C   0  0  0  0  0  0  0  0  0  0  0  0
    6.4019    7.7990   23.9499 O   0  0  0  0  0  0  0  0  0  0  0  0
    8.3335    9.0275   22.3422 P   0  0  0  0  0  0  0  0  0  0  0  0
    6.9705   10.1786   23.8909 F   0  0  0  0  0  0  0  0  0  0  0  0
   10.1610    4.5963   20.9192 P   0  0  0  0  0  0  0  0  0  0  0  0
   10.4368    6.6127   25.1947 Cl  0  0  0  0  0  0  0  0  0  0  0  0
    9.9695    5.6619   21.5878 N   0  0  0  0  0  0  0  0  0  0  0  0
    6.4130    5.9006   21.8875 Cl  0  0  0  0  0  0  0  0  0  0  0  0
   10.7217    5.8229   22.7505 N   0  0  0  0  0  0  0  0  0  0  0  0
   11.5771    6.0392   20.8947 S   0  0  0  0  0  0  0  0  0  0  0  0
   10.9309    9.7950   18.7002 F   0  0  0  0  0  0  0  0  0  0  0  0
    8.3855    9.1126   22.2543 Se  0  0  0  0  0  0  0  0  0  0  0  0
   11.0321    9.2140   21.6135 P   0  0  0  0  0  0  0  0  0  0  0  0
    5.8205    8.5048   22.0743 He  0  0  0  0  0  0  0  0  0  0  0  0
    5.3690    9.8715   20.8575 He  0  0  0  0  0  0  0  0  0  0  0  0
    8.5932    7.4505   22.5668 He  0  0  0  0  0  0  0  0  0  0  0  0
   10.2107    5.2615   19.9472 He  0  0  0  0  0  0  0  0  0  0  0  0
   11.6222    3.6767   21.1833 He  0  0  0  0  0  0  0  0  0  0  0  0
   11.7682    5.5940   17.9837 He  0  0  0  0  0  0  0  0  0  0  0  0
    8.2357    7.9875   24.3819 He  0  0  0  0  0  0  0  0  0  0  0  0
   10.7778    7.9344   17.9253 He  0  0  0  0  0  0  0  0  0  0  0  0
    5.8366    6.8089   21.8131 He  0  0  0  0  0  0  0  0  0  0  0  0
   10.6226    7.6193   24.9198 He  0  0  0  0  0  0  0  0  0  0  0  0
   10.5387    8.3669   19.7123 He  0  0  0  0  0  0  0  0  0  0  0  0
  1  2  3  0
  1  3  2  0
  1  4  1  0
  1  6  1  0
  1  8  2  0
  1 12  2  0
  1 13  3  0
  1 17  4  0
  2  3  3  0
  2  6  2  0
  2  9  1  0
  2 10  3  0
  2 11  1  0
  2 12  1  0
  2 13  1  0
  2 14  2  0
  2 17  3  0
  2 18  4  0
  3  4  1  0
  3  6  2  0
  3  9  3  0
  3 12  3  0
  3 13  2  0
  3 16  1  0
  3 17  4  0
  4  6  3  0
  4  7  1  0
  4  8  2  0
  4 10  4  0
  4 13  1  0
  4 16  2  0
  4 17  2  0
  5  7  1  0
  5  9  1  0
  5 10  4  0
  5 12  4  0
  5 14  1  0
  5 16  4  0
  5 17  4  0
  5 18  1  0
  6 11  1  0
  6 12  2  0
  6 18  1  0
  7 10  3  0
  7 11  4  0
  7 12  4  0
  7 15  1  0
  7 18  2  0
  8 11  2  0
  8 12  3  0
  8 16  2  0
  9 10  1  0
  9 12  3  0
  9 18  4  0
 10 14  1  0
 10 16  1  0
 10 18  4  0
 11 12  1  0
 11 14  3  0
 11 15  3  0
 11 17  2  0
 11 18  4  0
 12 13  1  0
 12 14  3  0
 12 15  2  0
 12 16  4  0
 12 18  4  0
 13 15  4  0
 13 18  4  0
 14 16  1  0
 16 17  2  0
 17 18  2  0
M  END
$$$$

 Created by Python create_sdf_string function

 29  0  0  0  0  0  0  0  0  0999 V2000
    6.0800    8.4427   22.2498 C   0  0  0  0  0  0  0  0  0  0  0  0
    5.9013    9.2876   21.5727 C   0  0  0  0  0  0  0  0  0  0  0  0
   10.4719    6.0093   21.5341 C   0  0  0  0  0  0  0  0  0  0  0  0
    8.4286    7.5245   22.9359 C   0  0  0  0  0  0  0  0  0  0  0  0
   11.3959    5.4879   19.3356 C   0  0  0  0  0  0  0  0  0  0  0  0
   10.8020    5.4182   19.8507 C   0  0  0  0  0  0  0  0  0  0  0  0
    9.3345    4.4982   22.8207 C   0  0  0  0  0  0  0  0  0  0  0  0
   10.3954    9.7359   22.0588 C   0  0  0  0  0  0  0  0  0  0  0  0
   10.4607   10.0971   21.5275 C   0  0  0  0  0  0  0  0  0  0  0  0
    9.4284    4.0488   22.4732 C   0  0  0  0  0  0  0  0  0  0  0  0
    6.7764    7.8592   23.5069 C   0  0  0  0  0  0  0  0  0  0  0  0
   11.0955    3.9634   20.9309 C   0  0  0  0  0  0  0  0  0  0  0  0
   11.6406    5.9411   18.2821 C   0  0  0  0  0  0  0  0  0  0  0  0
    8.2146    9.0894   22.5457 C   0  0  0  0  0  0  0  0  0  0  0  0
    8.4290    8.0201   24.0113 C   0  0  0  0  0  0  0  0  0  0  0  0
    7.1861    9.8480   23.3762 C   0  0  0  0  0  0  0  0  0  0  0  0
   11.0947    7.7580   18.6036 C   0  0  0  0  0  0  0  0  0  0  0  0
   10.2058    4.3191   21.0832 C   0  0  0  0  0  0  0  0  0  0  0  0
   10.1680    6.6937   24.7055 C   0  0  0  0  0  0  0  0  0  0  0  0
    9.9533    5.6371   21.8819 C   0  0  0  0  0  0  0  0  0  0  0  0
    6.0767    7.2621   22.0502 C   0  0  0  0  0  0  0  0  0  0  0  0
   10.2720    7.5534   24.5035 C   0  0  0  0  0  0  0  0  0  0  0  0
    6.5797    6.5495   22.2361 C   0  0  0  0  0  0  0  0  0  0  0  0
   10.4022    5.9987   23.1648 C   0  0  0  0  0  0  0  0  0  0  0  0
   11.2672    6.2526   20.5220 C   0  0  0  0  0  0  0  0  0  0  0  0
   10.9122    9.3521   19.3373 C   0  0  0  0  0  0  0  0  0  0  0  0
    8.5147    9.2171   22.4146 C   0  0  0  0  0  0  0  0  0  0  0  0
   10.6997    9.3263   21.4040 C   0  0  0  0  0  0  0  0  0  0  0  0
   10.8088    8.4787   19.7306 C   0  0  0  0  0  0  0  0  0  0  0  0
M  END
$$$$

 Created by Python create_sdf_string function

 29 47  0  0  0  0  0  0  0  0999 V2000
   10.0421    7.8526   21.6233 S   0  0  0  0  0  0  0  0  0  0  0  0
    9.2259    3.3354   19.3641 N   0  0  0  0  0  0  0  0  0  0  0  0
    8.3947    4.4467   23.9133 N   0  0  0  0  0  0  0  0  0  0  0  0
    9.2328    9.2388   22.1757 P   0  0  0  0  0  0  0  0  0  0  0  0
    6.2223    6.7727   24.4130 C   0  0  0  0  0  0  0  0  0  0  0  0
   12.0628    5.4114   20.7579 P   0  0  0  0  0  0  0  0  0  0  0  0
    8.4199    8.4903   21.8267 P   0  0  0  0  0  0  0  0  0  0  0  0
    7.1175    8.5833   23.3000 C   0  0  0  0  0  0  0  0  0  0  0  0
   11.7495    7.9279   19.8343 N   0  0  0  0  0  0  0  0  0  0  0  0
   10.8986    3.5892   21.8465 C   0  0  0  0  0  0  0  0  0  0  0  0
    9.8904    6.8110   24.0888 O   0  0  0  0  0  0  0  0  0  0  0  0
   11.1454    7.3440   21.7898 Se  0  0  0  0  0  0  0  0  0  0  0  0
    5.7928    7.0039   23.0813 C   0  0  0  0  0  0  0  0  0  0  0  0
    9.0760    5.4858   24.6264 N   0  0  0  0  0  0  0  0  0  0  0  0
    6.6068    5.9144   22.4589 B   0  0  0  0  0  0  0  0  0  0  0  0
   11.2183    6.4753   20.9148 Cl  0  0  0  0  0  0  0  0  0  0  0  0
   10.7051   10.0823   23.5281 F   0  0  0  0  0  0  0  0  0  0  0  0
    5.9666    8.8655   22.0769 He  0  0  0  0  0  0  0  0  0  0  0  0
    5.6199    8.2747   20.5650 He  0  0  0  0  0  0  0  0  0  0  0  0
    7.6093    8.2408   23.4218 He  0  0  0  0  0  0  0  0  0  0  0  0
    9.0325    4.3959   19.0254 He  0  0  0  0  0  0  0  0  0  0  0  0
   11.5775    8.5012   21.4017 He  0  0  0  0  0  0  0  0  0  0  0  0
    9.1677    3.6621   22.3270 He  0  0  0  0  0  0  0  0  0  0  0  0
   10.6017    6.5379   18.1211 He  0  0  0  0  0  0  0  0  0  0  0  0
    7.0670    8.2404   24.3299 He  0  0  0  0  0  0  0  0  0  0  0  0
   10.6753    6.0521   22.8200 He  0  0  0  0  0  0  0  0  0  0  0  0
   11.5239    9.6295   20.0553 He  0  0  0  0  0  0  0  0  0  0  0  0
   10.1037    8.9177   20.6973 He  0  0  0  0  0  0  0  0  0  0  0  0
   11.1465    8.4298   19.0727 He  0  0  0  0  0  0  0  0  0  0  0  0
  1  2  1  0
  1  6  4  0
  1 11  1  0
  1 12  4  0
  1 14  4  0
  2  6  4  0
  2  9  4  0
  2 11  2  0
  2 12  4  0
  2 14  3  0
  3  7  3  0
  3  9  4  0
  3 10  3  0
  3 11  4  0
  3 12  2  0
  4  6  2  0
  4 11  3  0
  4 12  1  0
  4 13  4  0
  4 14  2  0
  4 15  2  0
  5  7  3  0
  5 11  1  0
  5 17  3  0
  6 11  1  0
  6 13  1  0
  6 14  2  0
  7 15  1  0
  8  9  2  0
  8 13  3  0
  9 10  1  0
  9 13  2  0
  9 14  3  0
  9 15  4  0
  9 17  3  0
 10 11  2  0
 10 13  1  0
 10 14  3  0
 11 12  1  0
 11 17  3  0
 12 14  2  0
 12 16  2  0
 12 17  1  0
 13 14  4  0
 13 16  1  0
 14 16  4  0
 14 17  1  0
M  END
$$$$

 Created by Python create_sdf_string function

 29  1  0  0  0  0  0  0  0  0999 V2000
    6.2380    8.6306   22.2707 C   0  0  0  0  0  0  0  0  0  0  0  0
    6.0452    8.1878   21.2049 C   0  0  0  0  0  0  0  0  0  0  0  0
   10.1081    8.0187   21.9498 C   0  0  0  0  0  0  0  0  0  0  0  0
    7.5775    8.1874   23.4227 C   0  0  0  0  0  0  0  0  0  0  0  0
    9.8207    4.4043   19.7602 C   0  0  0  0  0  0  0  0  0  0  0  0
    9.7263    3.7403   19.9752 C   0  0  0  0  0  0  0  0  0  0  0  0
    8.7154    4.7573   23.5874 C   0  0  0  0  0  0  0  0  0  0  0  0
    9.2012    9.2166   22.2079 C   0  0  0  0  0  0  0  0  0  0  0  0
   11.3959    8.6291   21.2281 C   0  0  0  0  0  0  0  0  0  0  0  0
    9.3372    3.8787   22.1098 C   0  0  0  0  0  0  0  0  0  0  0  0
    6.4935    6.9012   24.2905 C   0  0  0  0  0  0  0  0  0  0  0  0
   11.3456    5.3970   20.7273 C   0  0  0  0  0  0  0  0  0  0  0  0
   10.9249    6.3208   18.8012 C   0  0  0  0  0  0  0  0  0  0  0  0
    8.2614    8.6742   21.9492 C   0  0  0  0  0  0  0  0  0  0  0  0
    7.0445    8.0347   24.1870 C   0  0  0  0  0  0  0  0  0  0  0  0
    7.1203    8.4601   23.2164 C   0  0  0  0  0  0  0  0  0  0  0  0
   11.5662    7.8897   19.6491 C   0  0  0  0  0  0  0  0  0  0  0  0
   10.2030    3.9972   21.6623 C   0  0  0  0  0  0  0  0  0  0  0  0
    9.6828    6.6475   23.9276 C   0  0  0  0  0  0  0  0  0  0  0  0
   10.9541    7.4186   21.8293 C   0  0  0  0  0  0  0  0  0  0  0  0
    6.0199    7.1782   23.1127 C   0  0  0  0  0  0  0  0  0  0  0  0
    9.0276    5.5877   24.1771 C   0  0  0  0  0  0  0  0  0  0  0  0
    6.6075    6.3219   22.7190 C   0  0  0  0  0  0  0  0  0  0  0  0
   10.3592    5.7132   22.8344 C   0  0  0  0  0  0  0  0  0  0  0  0
   11.1784    6.1872   20.8106 C   0  0  0  0  0  0  0  0  0  0  0  0
   11.3965    9.4744   20.1601 C   0  0  0  0  0  0  0  0  0  0  0  0
   10.3332    9.6238   23.0689 C   0  0  0  0  0  0  0  0  0  0  0  0
   10.2312    9.0516   20.9060 C   0  0  0  0  0  0  0  0  0  0  0  0
   11.2332    8.3271   19.1301 C   0  0  0  0  0  0  0  0  0  0  0  0
  5  6  4  0
M  END
$$$$

 Created by Python create_sdf_string function

 29 41  0  0  0  0  0  0  0  0999 V2000
    8.1326    7.2719   22.2038 F   0  0  0  0  0  0  0  0  0  0  0  0
    8.7671    6.0876   23.4376 S   0  0  0  0  0  0  0  0  0  0  0  0
   10.4202    4.8335   20.2741 N   0  0  0  0  0  0  0  0  0  0  0  0
   10.6389    7.9509   19.6091 C   0  0  0  0  0  0  0  0  0  0  0  0
    6.9857    7.0823   23.7465 Cl  0  0  0  0  0  0  0  0  0  0  0  0
   11.4482    4.7444   21.8637 O   0  0  0  0  0  0  0  0  0  0  0  0
    7.8886    9.6562   22.6022 F   0  0  0  0  0  0  0  0  0  0  0  0
    8.0823    9.5556   24.1327 F   0  0  0  0  0  0  0  0  0  0  0  0
   13.8036    8.4255   19.1083 P   0  0  0  0  0  0  0  0  0  0  0  0
   10.6668    3.8555   22.6693 C   0  0  0  0  0  0  0  0  0  0  0  0
   10.6878    7.0438   21.7122 F   0  0  0  0  0  0  0  0  0  0  0  0
    8.6890    6.7928   24.8710 F   0  0  0  0  0  0  0  0  0  0  0  0
    7.4798    7.3091   22.2985 F   0  0  0  0  0  0  0  0  0  0  0  0
   11.3152    6.1117   22.3365 Cl  0  0  0  0  0  0  0  0  0  0  0  0
   10.1583    9.2779   22.0268 C   0  0  0  0  0  0  0  0  0  0  0  0
   10.8436    9.2143   20.0464 F   0  0  0  0  0  0  0  0  0  0  0  0
    7.0410    8.1402   23.1121 He  0  0  0  0  0  0  0  0  0  0  0  0
    6.7293    7.2206   20.8358 He  0  0  0  0  0  0  0  0  0  0  0  0
    8.9561    4.9255   20.1601 He  0  0  0  0  0  0  0  0  0  0  0  0
    7.5337    4.4374   23.8107 He  0  0  0  0  0  0  0  0  0  0  0  0
   11.0089    8.9112   21.6921 He  0  0  0  0  0  0  0  0  0  0  0  0
    9.8328    3.8705   20.5780 He  0  0  0  0  0  0  0  0  0  0  0  0
   10.2625    6.4803   19.0332 He  0  0  0  0  0  0  0  0  0  0  0  0
    6.7879    9.4188   25.7359 He  0  0  0  0  0  0  0  0  0  0  0  0
    8.5107    6.9123   24.8156 He  0  0  0  0  0  0  0  0  0  0  0  0
    7.6385    6.5985   24.0199 He  0  0  0  0  0  0  0  0  0  0  0  0
    8.1344    5.5879   20.6671 He  0  0  0  0  0  0  0  0  0  0  0  0
   12.9989    7.8859   21.0859 He  0  0  0  0  0  0  0  0  0  0  0  0
   10.9355    9.0187   18.7315 He  0  0  0  0  0  0  0  0  0  0  0  0
  1  2  4  0
  1  5  3  0
  1  6  2  0
  1  8  2  0
  1  9  4  0
  1 12  1  0
  1 14  4  0
  1 15  4  0
  2  4  4  0
  2  5  2  0
  2  7  1  0
  2 10  1  0
  2 11  2  0
  2 14  2  0
  3  5  2  0
  3  8  2  0
  3  9  1  0
  3 10  2  0
  3 13  1  0
  3 14  4  0
  4  6  2  0
  4  8  1  0
  4 10  2  0
  4 16  4  0
  6 12  4  0
  6 14  3  0
  6 15  2  0
  7 12  3  0
  7 13  4  0
  7 16  4  0
  8  9  2  0
  9 10  4  0
  9 11  2  0
  9 15  3  0
 10 11  4  0
 10 13  2  0
 11 12  4  0
 11 13  2  0
 11 14  1  0
 12 15  3  0
 13 15  1  0
M  END
$$$$

 Created by Python create_sdf_string function

 29  0  0  0  0  0  0  0  0  0999 V2000
    7.1576    8.3153   23.2337 C   0  0  0  0  0  0  0  0  0  0  0  0
    6.9676    7.1622   21.0622 C   0  0  0  0  0  0  0  0  0  0  0  0
    7.9987    7.4045   22.2915 C   0  0  0  0  0  0  0  0  0  0  0  0
    8.8649    5.9432   23.7005 C   0  0  0  0  0  0  0  0  0  0  0  0
    9.0696    4.9099   20.3482 C   0  0  0  0  0  0  0  0  0  0  0  0
   10.2939    4.8000   20.4624 C   0  0  0  0  0  0  0  0  0  0  0  0
    7.7540    4.8199   23.8015 C   0  0  0  0  0  0  0  0  0  0  0  0
   10.8338    8.8735   21.5880 C   0  0  0  0  0  0  0  0  0  0  0  0
   10.7696    8.0621   19.8797 C   0  0  0  0  0  0  0  0  0  0  0  0
    9.7916    3.9482   20.6866 C   0  0  0  0  0  0  0  0  0  0  0  0
    7.0506    7.0947   23.9581 C   0  0  0  0  0  0  0  0  0  0  0  0
   11.0940    4.8449   21.8279 C   0  0  0  0  0  0  0  0  0  0  0  0
   10.2379    6.3533   19.3377 C   0  0  0  0  0  0  0  0  0  0  0  0
    8.0142    9.5685   22.8711 C   0  0  0  0  0  0  0  0  0  0  0  0
    7.0451    9.0776   25.2152 O   0  0  0  0  0  0  0  0  0  0  0  0
    7.9093    9.4541   24.0254 C   0  0  0  0  0  0  0  0  0  0  0  0
   12.9029    8.3731   19.5337 C   0  0  0  0  0  0  0  0  0  0  0  0
   10.4059    4.2770   22.4401 C   0  0  0  0  0  0  0  0  0  0  0  0
    8.3077    6.8855   24.8834 C   0  0  0  0  0  0  0  0  0  0  0  0
   10.8406    7.0899   21.7452 C   0  0  0  0  0  0  0  0  0  0  0  0
    7.5858    6.6147   24.1399 C   0  0  0  0  0  0  0  0  0  0  0  0
    8.5363    6.5827   24.9539 C   0  0  0  0  0  0  0  0  0  0  0  0
    7.3976    7.4827   22.2749 C   0  0  0  0  0  0  0  0  0  0  0  0
    8.2645    5.5722   20.6260 C   0  0  0  0  0  0  0  0  0  0  0  0
   11.2124    6.0732   22.2176 C   0  0  0  0  0  0  0  0  0  0  0  0
   12.4202    7.9833   20.8344 C   0  0  0  0  0  0  0  0  0  0  0  0
   10.0393    9.0682   22.0529 C   0  0  0  0  0  0  0  0  0  0  0  0
   10.9761    9.1590   20.0177 C   0  0  0  0  0  0  0  0  0  0  0  0
   11.2322    8.7926   19.2156 C   0  0  0  0  0  0  0  0  0  0  0  0
M  END
$$$$

 Created by Python create_sdf_string function

 29 52  0  0  0  0  0  0  0  0999 V2000
    7.1141    8.9191   23.3640 C   0  0  0  0  0  0  0  0  0  0  0  0
    9.0002    7.3537   21.0040 C   0  0  0  0  0  0  0  0  0  0  0  0
    6.5826    6.5379   21.7029 Br  0  0  0  0  0  0  0  0  0  0  0  0
   10.0056    3.9551   18.4234 S   0  0  0  0  0  0  0  0  0  0  0  0
    8.7557    5.1745   24.9587 F   0  0  0  0  0  0  0  0  0  0  0  0
   12.2894    9.5853   22.3244 F   0  0  0  0  0  0  0  0  0  0  0  0
    9.4300    6.7371   18.4702 C   0  0  0  0  0  0  0  0  0  0  0  0
    9.7419    4.1378   20.3770 C   0  0  0  0  0  0  0  0  0  0  0  0
    6.5934    7.2026   23.4625 C   0  0  0  0  0  0  0  0  0  0  0  0
   10.2806    7.4125   20.3050 I   0  0  0  0  0  0  0  0  0  0  0  0
    6.7252    8.8374   24.3276 O   0  0  0  0  0  0  0  0  0  0  0  0
    9.3250   10.0640   25.3611 C   0  0  0  0  0  0  0  0  0  0  0  0
   13.2072    8.4343   20.4717 C   0  0  0  0  0  0  0  0  0  0  0  0
   11.3424    6.2738   22.1159 S   0  0  0  0  0  0  0  0  0  0  0  0
    8.1874    4.5811   20.1575 N   0  0  0  0  0  0  0  0  0  0  0  0
   12.9010    9.8350   21.5639 B   0  0  0  0  0  0  0  0  0  0  0  0
   10.2632    8.6773   20.8506 P   0  0  0  0  0  0  0  0  0  0  0  0
   12.0240    7.7964   18.8261 N   0  0  0  0  0  0  0  0  0  0  0  0
    7.9807    5.7746   26.8167 He  0  0  0  0  0  0  0  0  0  0  0  0
    7.5476    3.9801   21.2308 He  0  0  0  0  0  0  0  0  0  0  0  0
   10.7019    6.1846   21.1239 He  0  0  0  0  0  0  0  0  0  0  0  0
    9.6226   10.9613   23.4974 He  0  0  0  0  0  0  0  0  0  0  0  0
    9.6054    6.4924   24.1463 He  0  0  0  0  0  0  0  0  0  0  0  0
    9.8192    7.2965   22.4092 He  0  0  0  0  0  0  0  0  0  0  0  0
    7.6973    4.7804   23.4079 He  0  0  0  0  0  0  0  0  0  0  0  0
    9.2327    5.4983   24.1854 He  0  0  0  0  0  0  0  0  0  0  0  0
    7.3715    8.0273   22.1758 He  0  0  0  0  0  0  0  0  0  0  0  0
   10.8705    4.6413   21.8124 He  0  0  0  0  0  0  0  0  0  0  0  0
    9.7154    9.6447   20.3540 He  0  0  0  0  0  0  0  0  0  0  0  0
  1  6  4  0
  1 11  2  0
  1 12  1  0
  1 16  3  0
  1 17  1  0
  2  3  3  0
  2  5  2  0
  2  9  2  0
  2 13  3  0
  3  8  1  0
  3 11  2  0
  3 13  4  0
  3 14  4  0
  4  5  2  0
  4  7  2  0
  4 10  3  0
  4 13  1  0
  4 15  2  0
  4 17  4  0
  5  7  3  0
  5  9  3  0
  5 11  2  0
  5 12  4  0
  5 17  4  0
  6 13  1  0
  6 14  1  0
  6 16  4  0
  6 18  4  0
  7  9  3  0
  7 10  2  0
  7 18  4  0
  8 10  4  0
  8 11  3  0
  8 14  3  0
  8 15  2  0
  8 17  1  0
  8 18  4  0
  9 12  2  0
  9 14  4  0
  9 15  4  0
 10 11  3  0
 10 13  1  0
 11 12  3  0
 11 18  2  0
 12 14  2  0
 12 17  4  0
 13 14  2  0
 13 15  2  0
 13 17  3  0
 13 18  1  0
 15 16  4  0
 17 18  1  0
M  END
$$$$

 Created by Python create_sdf_string function

 29  5  0  0  0  0  0  0  0  0999 V2000
    7.5538    8.9171   23.5766 C   0  0  0  0  0  0  0  0  0  0  0  0
    9.0528    7.4875   21.2557 C   0  0  0  0  0  0  0  0  0  0  0  0
    6.7919    6.5605   22.0389 C   0  0  0  0  0  0  0  0  0  0  0  0
    8.1994    5.8220   25.8746 O   0  0  0  0  0  0  0  0  0  0  0  0
    8.0451    4.1618   21.2151 C   0  0  0  0  0  0  0  0  0  0  0  0
    9.9066    4.2368   18.9577 C   0  0  0  0  0  0  0  0  0  0  0  0
    8.6533    5.4293   24.9050 C   0  0  0  0  0  0  0  0  0  0  0  0
   12.0126    9.4615   21.7674 C   0  0  0  0  0  0  0  0  0  0  0  0
    9.9634    6.3169   19.0208 C   0  0  0  0  0  0  0  0  0  0  0  0
    9.6078    4.1430   20.2723 C   0  0  0  0  0  0  0  0  0  0  0  0
    7.0538    7.1704   23.4779 C   0  0  0  0  0  0  0  0  0  0  0  0
   10.5381    6.0831   20.7843 C   0  0  0  0  0  0  0  0  0  0  0  0
   10.3938    7.2643   20.0788 C   0  0  0  0  0  0  0  0  0  0  0  0
    9.4542   10.1239   23.2751 C   0  0  0  0  0  0  0  0  0  0  0  0
    7.0169    8.8853   24.1515 O   0  0  0  0  0  0  0  0  0  0  0  0
    8.7860    9.6154   24.3679 C   0  0  0  0  0  0  0  0  0  0  0  0
   12.4592    8.5325   20.4528 C   0  0  0  0  0  0  0  0  0  0  0  0
   11.1750    6.4538   22.0370 C   0  0  0  0  0  0  0  0  0  0  0  0
    9.4035    6.4310   24.2516 C   0  0  0  0  0  0  0  0  0  0  0  0
    9.4833    7.4825   22.7273 C   0  0  0  0  0  0  0  0  0  0  0  0
    7.8321    5.1280   23.6833 C   0  0  0  0  0  0  0  0  0  0  0  0
    8.9876    5.5764   24.4484 C   0  0  0  0  0  0  0  0  0  0  0  0
    7.4825    8.0988   22.5331 C   0  0  0  0  0  0  0  0  0  0  0  0
    8.5537    4.4180   20.3490 C   0  0  0  0  0  0  0  0  0  0  0  0
   10.5037    4.7159   21.5396 C   0  0  0  0  0  0  0  0  0  0  0  0
   12.4198    9.6432   21.4983 C   0  0  0  0  0  0  0  0  0  0  0  0
   10.0023    9.3657   20.7680 C   0  0  0  0  0  0  0  0  0  0  0  0
   10.5340    9.0260   20.8946 C   0  0  0  0  0  0  0  0  0  0  0  0
   11.8325    7.9273   19.3394 C   0  0  0  0  0  0  0  0  0  0  0  0
  1 23  1  0
  8 26  1  0
 14 16  1  0
 17 29  1  0
 27 28  1  0
M  END
$$$$

 Created by Python create_sdf_string function

 29 41  0  0  0  0  0  0  0  0999 V2000
    8.9804    7.7948   21.5958 C   0  0  0  0  0  0  0  0  0  0  0  0
    6.2784    5.2028   22.4808 Cl  0  0  0  0  0  0  0  0  0  0  0  0
    9.2302    4.1086   24.3782 Cl  0  0  0  0  0  0  0  0  0  0  0  0
    9.9972    7.0750   21.1318 F   0  0  0  0  0  0  0  0  0  0  0  0
    7.4056    7.7246   23.6820 Cl  0  0  0  0  0  0  0  0  0  0  0  0
    7.8399    9.6521   25.8351 C   0  0  0  0  0  0  0  0  0  0  0  0
   11.5550    7.3854   23.1850 F   0  0  0  0  0  0  0  0  0  0  0  0
   10.5389    5.9383   23.0036 N   0  0  0  0  0  0  0  0  0  0  0  0
    9.6836    7.7462   22.0194 B   0  0  0  0  0  0  0  0  0  0  0  0
    7.7243    5.5589   21.7964 N   0  0  0  0  0  0  0  0  0  0  0  0
    6.7903    8.0344   22.6670 F   0  0  0  0  0  0  0  0  0  0  0  0
   11.3356    5.1485   20.7277 C   0  0  0  0  0  0  0  0  0  0  0  0
   10.0344   10.3399   20.4707 P   0  0  0  0  0  0  0  0  0  0  0  0
   11.1117   10.8444   20.3436 Cl  0  0  0  0  0  0  0  0  0  0  0  0
    6.9278    7.6430   23.3282 He  0  0  0  0  0  0  0  0  0  0  0  0
    7.4224    5.0640   27.7309 He  0  0  0  0  0  0  0  0  0  0  0  0
    6.6422    5.3549   20.6827 He  0  0  0  0  0  0  0  0  0  0  0  0
    9.7196    3.5719   18.2570 He  0  0  0  0  0  0  0  0  0  0  0  0
   12.1919   10.5111   22.5563 He  0  0  0  0  0  0  0  0  0  0  0  0
   11.4170    5.5577   19.8719 He  0  0  0  0  0  0  0  0  0  0  0  0
   11.8448    4.7775   19.9202 He  0  0  0  0  0  0  0  0  0  0  0  0
    8.4078    5.6561   22.7916 He  0  0  0  0  0  0  0  0  0  0  0  0
    8.3750    7.5615   19.8720 He  0  0  0  0  0  0  0  0  0  0  0  0
    9.3702   10.7876   22.3952 He  0  0  0  0  0  0  0  0  0  0  0  0
   13.0672   10.5539   20.0085 He  0  0  0  0  0  0  0  0  0  0  0  0
    9.4848    5.7907   24.0152 He  0  0  0  0  0  0  0  0  0  0  0  0
    7.0388    3.0408   20.2950 He  0  0  0  0  0  0  0  0  0  0  0  0
   13.2834   10.1620   21.0066 He  0  0  0  0  0  0  0  0  0  0  0  0
   13.2180    8.8673   19.7472 He  0  0  0  0  0  0  0  0  0  0  0  0
  1  2  1  0
  1  4  2  0
  1  7  1  0
  1  8  4  0
  1 11  1  0
  1 12  2  0
  1 14  4  0
  2  7  1  0
  2  8  1  0
  2 12  2  0
  2 13  4  0
  3  4  1  0
  3 11  2  0
  4  7  3  0
  4 11  3  0
  4 12  1  0
  4 13  3  0
  5  8  4  0
  5 11  3  0
  5 12  3  0
  6  7  1  0
  6  8  2  0
  6  9  2  0
  6 10  2  0
  6 12  4  0
  6 13  4  0
  6 14  3  0
  7 10  2  0
  7 11  3  0
  7 12  1  0
  8  9  4  0
  8 10  2  0
  8 12  1  0
  8 13  3  0
  9 10  2  0
  9 11  4  0
  9 14  2  0
 11 14  4  0
 12 13  3  0
 12 14  3  0
 13 14  2  0
M  END
$$$$

 Created by Python create_sdf_string function

 29  1  0  0  0  0  0  0  0  0999 V2000
    7.2235    7.5410   23.6336 C   0  0  0  0  0  0  0  0  0  0  0  0
    9.1668    7.7998   21.8455 C   0  0  0  0  0  0  0  0  0  0  0  0
    6.6989    5.2772   22.2211 C   0  0  0  0  0  0  0  0  0  0  0  0
    7.7831    5.8277   25.9952 O   0  0  0  0  0  0  0  0  0  0  0  0
    7.2534    5.0605   21.1441 C   0  0  0  0  0  0  0  0  0  0  0  0
    9.8466    3.9659   19.3655 C   0  0  0  0  0  0  0  0  0  0  0  0
    8.9003    4.8350   24.3157 C   0  0  0  0  0  0  0  0  0  0  0  0
   11.7979   10.1773   21.9278 C   0  0  0  0  0  0  0  0  0  0  0  0
   11.1851    5.3707   19.9414 C   0  0  0  0  0  0  0  0  0  0  0  0
   11.4228    5.0384   19.9035 C   0  0  0  0  0  0  0  0  0  0  0  0
    8.2115    5.6733   22.9111 C   0  0  0  0  0  0  0  0  0  0  0  0
   10.3735    6.8318   20.9569 C   0  0  0  0  0  0  0  0  0  0  0  0
    8.7084    7.1680   20.4680 C   0  0  0  0  0  0  0  0  0  0  0  0
    9.7411   10.1136   22.1695 C   0  0  0  0  0  0  0  0  0  0  0  0
    7.5179    7.6847   23.9503 C   0  0  0  0  0  0  0  0  0  0  0  0
    7.7320    8.7123   24.9393 O   0  0  0  0  0  0  0  0  0  0  0  0
   12.7621   10.2996   20.3515 C   0  0  0  0  0  0  0  0  0  0  0  0
   11.2019    7.4994   22.7075 C   0  0  0  0  0  0  0  0  0  0  0  0
   10.4933    6.1294   22.7198 C   0  0  0  0  0  0  0  0  0  0  0  0
    9.8320    8.1508   21.9845 C   0  0  0  0  0  0  0  0  0  0  0  0
    7.8402    5.3412   21.8349 C   0  0  0  0  0  0  0  0  0  0  0  0
    9.0387    5.8849   24.2046 C   0  0  0  0  0  0  0  0  0  0  0  0
    7.2034    7.9130   22.9617 C   0  0  0  0  0  0  0  0  0  0  0  0
    7.6374    3.6635   20.6106 C   0  0  0  0  0  0  0  0  0  0  0  0
   10.9584    5.3184   20.5124 C   0  0  0  0  0  0  0  0  0  0  0  0
   12.8943   10.1637   20.8748 C   0  0  0  0  0  0  0  0  0  0  0  0
   10.3267   10.1167   20.8243 C   0  0  0  0  0  0  0  0  0  0  0  0
   11.2523   10.4298   20.6893 C   0  0  0  0  0  0  0  0  0  0  0  0
   12.7284    9.1460   20.1419 C   0  0  0  0  0  0  0  0  0  0  0  0
 17 26  1  0
M  END
$$$$

 Created by Python create_sdf_string function

 29 28  0  0  0  0  0  0  0  0999 V2000
    6.6030    6.9567   24.4404 N   0  0  0  0  0  0  0  0  0  0  0  0
    9.5765    4.3673   18.4153 S   0  0  0  0  0  0  0  0  0  0  0  0
    7.5607    7.4662   21.1969 F   0  0  0  0  0  0  0  0  0  0  0  0
    9.2052    8.1392   26.1437 F   0  0  0  0  0  0  0  0  0  0  0  0
   12.7413   10.6021   19.6837 I   0  0  0  0  0  0  0  0  0  0  0  0
   12.0589    7.0726   23.1772 O   0  0  0  0  0  0  0  0  0  0  0  0
   10.0038    6.1592   22.4637 C   0  0  0  0  0  0  0  0  0  0  0  0
    8.7273    8.3219   19.5377 O   0  0  0  0  0  0  0  0  0  0  0  0
    7.9009    5.6311   23.0799 S   0  0  0  0  0  0  0  0  0  0  0  0
    6.2960    7.8619   22.0659 N   0  0  0  0  0  0  0  0  0  0  0  0
    8.0398    3.0605   20.0834 C   0  0  0  0  0  0  0  0  0  0  0  0
   10.3107    5.8511   21.1428 C   0  0  0  0  0  0  0  0  0  0  0  0
   13.4234    9.4170   20.1116 C   0  0  0  0  0  0  0  0  0  0  0  0
    8.9964    7.1858   21.5334 He  0  0  0  0  0  0  0  0  0  0  0  0
    6.0659    4.4602   20.3167 He  0  0  0  0  0  0  0  0  0  0  0  0
    7.5181    5.8860   26.0667 He  0  0  0  0  0  0  0  0  0  0  0  0
    7.0112    4.8610   19.1956 He  0  0  0  0  0  0  0  0  0  0  0  0
    8.6020    5.7360   25.5211 He  0  0  0  0  0  0  0  0  0  0  0  0
   11.6058    9.3316   22.5859 He  0  0  0  0  0  0  0  0  0  0  0  0
   10.4059    6.4314   19.5096 He  0  0  0  0  0  0  0  0  0  0  0  0
   12.2870    6.2564   18.8750 He  0  0  0  0  0  0  0  0  0  0  0  0
    7.7281    5.3069   24.2231 He  0  0  0  0  0  0  0  0  0  0  0  0
   11.1797    8.0740   21.4763 He  0  0  0  0  0  0  0  0  0  0  0  0
    9.6772   10.2226   21.1466 He  0  0  0  0  0  0  0  0  0  0  0  0
    9.2362    8.8789   24.5318 He  0  0  0  0  0  0  0  0  0  0  0  0
    8.1168    6.6878   24.3877 He  0  0  0  0  0  0  0  0  0  0  0  0
   11.6719    9.6103   21.4307 He  0  0  0  0  0  0  0  0  0  0  0  0
    8.2495   10.4169   19.7693 He  0  0  0  0  0  0  0  0  0  0  0  0
   11.2433    9.5254   20.2851 He  0  0  0  0  0  0  0  0  0  0  0  0
  1  5  4  0
  2  6  3  0
  2 11  1  0
  2 13  3  0
  3  8  4  0
  3  9  3  0
  3 12  3  0
  4  5  4  0
  4  6  1  0
  4  7  3  0
  4  8  4  0
  4  9  3  0
  4 10  3  0
  4 13  2  0
  5  6  3  0
  5  7  3  0
  5 10  1  0
  5 11  3  0
  6  7  3  0
  6 12  2  0
  7  8  1  0
  7 11  2  0
  8  9  2  0
  8 11  2  0
  9 10  1  0
  9 13  2  0
 11 12  1  0
 11 13  4  0
M  END
$$$$

 Created by Python create_sdf_string function

 29  3  0  0  0  0  0  0  0  0999 V2000
    7.0009    6.8233   24.2379 C   0  0  0  0  0  0  0  0  0  0  0  0
    9.0538    7.2687   21.5024 C   0  0  0  0  0  0  0  0  0  0  0  0
    7.0536    4.6978   20.4563 C   0  0  0  0  0  0  0  0  0  0  0  0
    7.7102    6.1847   25.8570 C   0  0  0  0  0  0  0  0  0  0  0  0
    7.6128    4.7914   19.6869 C   0  0  0  0  0  0  0  0  0  0  0  0
    9.2990    4.3881   19.1068 C   0  0  0  0  0  0  0  0  0  0  0  0
    8.4296    6.1064   25.4665 C   0  0  0  0  0  0  0  0  0  0  0  0
   11.6225    9.3748   22.2338 C   0  0  0  0  0  0  0  0  0  0  0  0
   10.5805    6.3232   19.8857 C   0  0  0  0  0  0  0  0  0  0  0  0
   11.6949    6.4050   19.2860 C   0  0  0  0  0  0  0  0  0  0  0  0
    7.7408    5.6274   23.8552 C   0  0  0  0  0  0  0  0  0  0  0  0
   11.0281    7.9042   21.4307 C   0  0  0  0  0  0  0  0  0  0  0  0
    7.6013    7.0901   21.1557 C   0  0  0  0  0  0  0  0  0  0  0  0
    9.8365    9.8331   20.7876 C   0  0  0  0  0  0  0  0  0  0  0  0
    9.0709    7.7679   25.6468 C   0  0  0  0  0  0  0  0  0  0  0  0
    9.2243    8.1510   24.4214 C   0  0  0  0  0  0  0  0  0  0  0  0
   12.3389   10.2312   20.0356 C   0  0  0  0  0  0  0  0  0  0  0  0
   11.6028    7.2910   22.9168 O   0  0  0  0  0  0  0  0  0  0  0  0
    9.8946    6.5227   22.1039 C   0  0  0  0  0  0  0  0  0  0  0  0
    8.8035    8.3635   19.9858 C   0  0  0  0  0  0  0  0  0  0  0  0
    7.7086    5.8950   22.9040 C   0  0  0  0  0  0  0  0  0  0  0  0
    8.3030    6.8647   24.4174 C   0  0  0  0  0  0  0  0  0  0  0  0
    6.8084    7.3606   22.0726 C   0  0  0  0  0  0  0  0  0  0  0  0
    8.3192    3.8956   19.9531 C   0  0  0  0  0  0  0  0  0  0  0  0
   10.1395    5.8381   20.6991 C   0  0  0  0  0  0  0  0  0  0  0  0
   11.6599    9.6101   21.3166 C   0  0  0  0  0  0  0  0  0  0  0  0
    8.8006    9.9989   20.2207 C   0  0  0  0  0  0  0  0  0  0  0  0
   11.2526    9.6297   20.3960 C   0  0  0  0  0  0  0  0  0  0  0  0
   12.7315    9.5071   20.2887 C   0  0  0  0  0  0  0  0  0  0  0  0
  3  5  1  0
  4  7  1  0
 11 21  1  0
M  END
$$$$

 Created by Python create_sdf_string function

 29 31  0  0  0  0  0  0  0  0999 V2000
    6.6278    6.3720   23.8242 F   0  0  0  0  0  0  0  0  0  0  0  0
    8.9117    5.7128   21.2186 N   0  0  0  0  0  0  0  0  0  0  0  0
    6.3929    5.7797   27.7647 Cl  0  0  0  0  0  0  0  0  0  0  0  0
    9.4397    3.9146   20.1529 C   0  0  0  0  0  0  0  0  0  0  0  0
   11.7812    9.0382   21.7898 C   0  0  0  0  0  0  0  0  0  0  0  0
   10.7723    5.0607   19.2338 N   0  0  0  0  0  0  0  0  0  0  0  0
   12.8771    8.5300   21.3390 Cl  0  0  0  0  0  0  0  0  0  0  0  0
    7.4743    7.3848   22.3742 C   0  0  0  0  0  0  0  0  0  0  0  0
    9.8818   10.3443   20.5672 C   0  0  0  0  0  0  0  0  0  0  0  0
    8.5994    7.9915   24.2740 C   0  0  0  0  0  0  0  0  0  0  0  0
    8.4455    6.7039   20.6605 O   0  0  0  0  0  0  0  0  0  0  0  0
    8.9460    5.1179   22.8706 C   0  0  0  0  0  0  0  0  0  0  0  0
    8.2927    3.3087   18.6238 I   0  0  0  0  0  0  0  0  0  0  0  0
   11.4441    6.6366   19.2380 C   0  0  0  0  0  0  0  0  0  0  0  0
    7.1560    4.6933   19.9992 He  0  0  0  0  0  0  0  0  0  0  0  0
    8.4982    4.0513   20.6798 He  0  0  0  0  0  0  0  0  0  0  0  0
    9.2459    6.1176   25.3020 He  0  0  0  0  0  0  0  0  0  0  0  0
   11.3760    5.7936   19.0257 He  0  0  0  0  0  0  0  0  0  0  0  0
    6.9965    5.1837   22.3108 He  0  0  0  0  0  0  0  0  0  0  0  0
    9.1932    9.0053   26.4913 He  0  0  0  0  0  0  0  0  0  0  0  0
   12.2236    8.7864   23.3665 He  0  0  0  0  0  0  0  0  0  0  0  0
   12.2346    8.8176   24.4613 He  0  0  0  0  0  0  0  0  0  0  0  0
    7.3681    8.3990   20.2760 He  0  0  0  0  0  0  0  0  0  0  0  0
    5.9788    8.1774   23.9660 He  0  0  0  0  0  0  0  0  0  0  0  0
    7.9145    9.0088   21.9793 He  0  0  0  0  0  0  0  0  0  0  0  0
   13.8275    9.3777   21.6588 He  0  0  0  0  0  0  0  0  0  0  0  0
   10.0652   10.8222   18.8889 He  0  0  0  0  0  0  0  0  0  0  0  0
   12.4112   10.5165   21.2351 He  0  0  0  0  0  0  0  0  0  0  0  0
   12.7715   10.1966   20.3142 He  0  0  0  0  0  0  0  0  0  0  0  0
  1  2  1  0
  1  7  1  0
  1  9  3  0
  1 10  4  0
  1 11  2  0
  1 12  2  0
  2  4  3  0
  3  5  2  0
  3  6  1  0
  3 14  4  0
  4  6  4  0
  4  8  2  0
  4 11  1  0
  4 14  2  0
  5  9  4  0
  5 12  4  0
  6 11  3  0
  6 13  3  0
  7  8  1  0
  7  9  1  0
  7 12  2  0
  7 13  1  0
  8 13  2  0
  8 14  3  0
  9 10  3  0
  9 11  2  0
  9 13  4  0
 10 12  3  0
 10 14  2  0
 12 13  4  0
 13 14  4  0
M  END
$$$$

 Created by Python create_sdf_string function

 29  6  0  0  0  0  0  0  0  0999 V2000
    7.2131    6.6502   24.1739 C   0  0  0  0  0  0  0  0  0  0  0  0
    8.9156    5.8631   20.8307 C   0  0  0  0  0  0  0  0  0  0  0  0
    7.9983    4.6753   20.2690 C   0  0  0  0  0  0  0  0  0  0  0  0
    7.1273    6.3583   26.4561 O   0  0  0  0  0  0  0  0  0  0  0  0
    8.7830    4.0422   20.4338 C   0  0  0  0  0  0  0  0  0  0  0  0
    9.4476    4.1032   19.8345 C   0  0  0  0  0  0  0  0  0  0  0  0
    8.4962    6.5617   25.2578 C   0  0  0  0  0  0  0  0  0  0  0  0
   11.3999    9.0599   21.8113 C   0  0  0  0  0  0  0  0  0  0  0  0
   10.5688    5.0438   19.3789 C   0  0  0  0  0  0  0  0  0  0  0  0
   10.9984    5.9480   19.4456 C   0  0  0  0  0  0  0  0  0  0  0  0
    7.4205    5.8497   22.5413 C   0  0  0  0  0  0  0  0  0  0  0  0
   12.4195    8.8449   21.4757 C   0  0  0  0  0  0  0  0  0  0  0  0
    7.5166    7.5679   22.4359 C   0  0  0  0  0  0  0  0  0  0  0  0
   10.1110    9.6297   20.7292 C   0  0  0  0  0  0  0  0  0  0  0  0
    8.8638    8.0703   25.8662 O   0  0  0  0  0  0  0  0  0  0  0  0
    8.2699    7.6536   24.5201 C   0  0  0  0  0  0  0  0  0  0  0  0
   11.9511    8.8440   22.8713 C   0  0  0  0  0  0  0  0  0  0  0  0
   11.9007    8.7956   23.6843 C   0  0  0  0  0  0  0  0  0  0  0  0
    8.6313    6.4606   20.8008 C   0  0  0  0  0  0  0  0  0  0  0  0
    8.0226    8.4870   20.8118 C   0  0  0  0  0  0  0  0  0  0  0  0
    8.3354    5.7888   23.0770 C   0  0  0  0  0  0  0  0  0  0  0  0
    6.8410    7.7361   24.1203 C   0  0  0  0  0  0  0  0  0  0  0  0
    8.3170    8.6745   21.7983 C   0  0  0  0  0  0  0  0  0  0  0  0
    8.9189    3.6301   19.1618 C   0  0  0  0  0  0  0  0  0  0  0  0
   11.0867    6.4952   19.6524 C   0  0  0  0  0  0  0  0  0  0  0  0
   13.3343    9.3575   21.8097 C   0  0  0  0  0  0  0  0  0  0  0  0
   10.3043   10.2649   19.6791 C   0  0  0  0  0  0  0  0  0  0  0  0
   11.9747    9.9953   21.0231 C   0  0  0  0  0  0  0  0  0  0  0  0
   12.4034    9.9279   20.4383 C   0  0  0  0  0  0  0  0  0  0  0  0
  2 19  4  0
  5  6  4  0
  6  9  4  0
 10 25  4  0
 11 21  4  0
 17 18  1  0
M  END
$$$$

 Created by Python create_sdf_string function

 29 16  0  0  0  0  0  0  0  0999 V2000
    8.4098    8.8608   23.8418 F   0  0  0  0  0  0  0  0  0  0  0  0
    6.8773    4.2349   19.4982 C   0  0  0  0  0  0  0  0  0  0  0  0
    7.7565    6.9730   25.2991 F   0  0  0  0  0  0  0  0  0  0  0  0
   10.5230    5.2827   19.0492 F   0  0  0  0  0  0  0  0  0  0  0  0
    9.7807   11.3543   21.1318 C   0  0  0  0  0  0  0  0  0  0  0  0
   11.6619    9.7110   23.9816 Cl  0  0  0  0  0  0  0  0  0  0  0  0
    9.1616    5.1052   21.4259 N   0  0  0  0  0  0  0  0  0  0  0  0
    6.6057    7.2569   22.5896 N   0  0  0  0  0  0  0  0  0  0  0  0
    9.9394    9.8726   23.1859 F   0  0  0  0  0  0  0  0  0  0  0  0
    9.6914    3.8066   20.4688 Se  0  0  0  0  0  0  0  0  0  0  0  0
   10.2170   10.2121   20.6089 Cl  0  0  0  0  0  0  0  0  0  0  0  0
    6.3546    4.1948   20.8735 He  0  0  0  0  0  0  0  0  0  0  0  0
    7.4748    6.1242   22.1339 He  0  0  0  0  0  0  0  0  0  0  0  0
   10.4963    4.7107   18.4248 He  0  0  0  0  0  0  0  0  0  0  0  0
    8.7505    6.7921   24.4720 He  0  0  0  0  0  0  0  0  0  0  0  0
   10.6227    9.4003   23.3807 He  0  0  0  0  0  0  0  0  0  0  0  0
   12.4851    6.0360   19.9238 He  0  0  0  0  0  0  0  0  0  0  0  0
    8.4385    5.1422   22.6219 He  0  0  0  0  0  0  0  0  0  0  0  0
   12.4399    7.6812   22.5429 He  0  0  0  0  0  0  0  0  0  0  0  0
    7.2334    7.4359   22.5569 He  0  0  0  0  0  0  0  0  0  0  0  0
    7.6579    6.3740   25.1935 He  0  0  0  0  0  0  0  0  0  0  0  0
    6.4493    7.9481   25.1667 He  0  0  0  0  0  0  0  0  0  0  0  0
   11.1259    9.3073   22.2646 He  0  0  0  0  0  0  0  0  0  0  0  0
    7.6831    9.3651   19.3312 He  0  0  0  0  0  0  0  0  0  0  0  0
    8.7919    4.5764   21.8757 He  0  0  0  0  0  0  0  0  0  0  0  0
   11.8572    6.2422   20.1836 He  0  0  0  0  0  0  0  0  0  0  0  0
   12.9329    7.8332   22.4820 He  0  0  0  0  0  0  0  0  0  0  0  0
   11.4450   10.4642   20.2575 He  0  0  0  0  0  0  0  0  0  0  0  0
   10.8223    9.8692   19.6508 He  0  0  0  0  0  0  0  0  0  0  0  0
  1  7  2  0
  1 11  2  0
  2  8  3  0
  2  9  4  0
  3  5  4  0
  3 11  1  0
  4  6  4  0
  4  7  2  0
  4 11  1  0
  5  9  3  0
  6  7  3  0
  6 11  1  0
  7  9  1  0
  8  9  1  0
  8 11  2  0
  9 10  2  0
M  END
$$$$

 Created by Python create_sdf_string function

 29  4  0  0  0  0  0  0  0  0999 V2000
    8.7641    8.7447   23.7011 C   0  0  0  0  0  0  0  0  0  0  0  0
    7.7010    4.3383   20.1644 C   0  0  0  0  0  0  0  0  0  0  0  0
    7.1574    4.3955   20.9791 C   0  0  0  0  0  0  0  0  0  0  0  0
    7.5870    7.0581   25.1102 C   0  0  0  0  0  0  0  0  0  0  0  0
    7.6144    6.0425   22.0037 C   0  0  0  0  0  0  0  0  0  0  0  0
   10.7399    4.8811   19.2138 C   0  0  0  0  0  0  0  0  0  0  0  0
    8.6810    7.1102   24.1937 C   0  0  0  0  0  0  0  0  0  0  0  0
   10.6891    9.0986   23.2292 C   0  0  0  0  0  0  0  0  0  0  0  0
   10.6846    5.2553   19.6030 C   0  0  0  0  0  0  0  0  0  0  0  0
   12.0450    6.2248   20.2271 C   0  0  0  0  0  0  0  0  0  0  0  0
    8.2355    5.4531   22.5036 C   0  0  0  0  0  0  0  0  0  0  0  0
   12.1238    7.7913   22.1103 C   0  0  0  0  0  0  0  0  0  0  0  0
    7.4658    7.4141   22.6891 C   0  0  0  0  0  0  0  0  0  0  0  0
    9.7861   10.7657   20.9292 C   0  0  0  0  0  0  0  0  0  0  0  0
    7.6579    6.5406   25.0426 C   0  0  0  0  0  0  0  0  0  0  0  0
    6.8529    7.8070   25.0447 C   0  0  0  0  0  0  0  0  0  0  0  0
   11.2056    9.0164   22.2221 C   0  0  0  0  0  0  0  0  0  0  0  0
   11.5182    9.3420   23.7214 O   0  0  0  0  0  0  0  0  0  0  0  0
    9.2970    5.2015   20.9174 C   0  0  0  0  0  0  0  0  0  0  0  0
    8.5974    9.3601   20.0898 C   0  0  0  0  0  0  0  0  0  0  0  0
    8.6523    4.6466   21.3952 C   0  0  0  0  0  0  0  0  0  0  0  0
    7.0833    7.1018   22.6953 C   0  0  0  0  0  0  0  0  0  0  0  0
    9.8804    9.6036   22.8227 C   0  0  0  0  0  0  0  0  0  0  0  0
    9.6433    4.1178   20.1122 C   0  0  0  0  0  0  0  0  0  0  0  0
   11.6266    6.2535   20.3442 C   0  0  0  0  0  0  0  0  0  0  0  0
   12.4179    7.7950   22.1372 C   0  0  0  0  0  0  0  0  0  0  0  0
   11.0464   10.0883   20.4336 C   0  0  0  0  0  0  0  0  0  0  0  0
   10.1828   10.0736   20.7307 C   0  0  0  0  0  0  0  0  0  0  0  0
   10.4988    9.7744   20.0101 C   0  0  0  0  0  0  0  0  0  0  0  0
  4 15  1  0
  4 16  1  0
 10 25  1  0
 12 26  1  0
M  END
$$$$

 Created by Python create_sdf_string function

 29 48  0  0  0  0  0  0  0  0999 V2000
    8.6054    8.4924   23.8207 C   0  0  0  0  0  0  0  0  0  0  0  0
    7.0318    4.9157   21.8493 F   0  0  0  0  0  0  0  0  0  0  0  0
    8.5826    7.6558   21.3785 F   0  0  0  0  0  0  0  0  0  0  0  0
   12.1806    6.0005   17.5341 C   0  0  0  0  0  0  0  0  0  0  0  0
   11.7437   10.5775   23.7133 N   0  0  0  0  0  0  0  0  0  0  0  0
   10.1858    5.8367   18.4024 Cl  0  0  0  0  0  0  0  0  0  0  0  0
   13.5729    6.0234   20.1302 Br  0  0  0  0  0  0  0  0  0  0  0  0
    8.6991    5.1953   22.6003 F   0  0  0  0  0  0  0  0  0  0  0  0
   11.5382    7.4790   21.7022 S   0  0  0  0  0  0  0  0  0  0  0  0
    8.5353    7.6160   21.5339 C   0  0  0  0  0  0  0  0  0  0  0  0
    9.0123    5.3083   20.9307 C   0  0  0  0  0  0  0  0  0  0  0  0
    9.3537    9.2310   23.4416 F   0  0  0  0  0  0  0  0  0  0  0  0
   10.5136    3.9622   22.1611 S   0  0  0  0  0  0  0  0  0  0  0  0
    9.2696    9.0469   21.1805 O   0  0  0  0  0  0  0  0  0  0  0  0
    9.1347   11.4169   19.5092 O   0  0  0  0  0  0  0  0  0  0  0  0
    9.6301    9.8095   21.8988 C   0  0  0  0  0  0  0  0  0  0  0  0
    7.2055    2.3197   20.7087 He  0  0  0  0  0  0  0  0  0  0  0  0
    9.2513    7.9650   25.1976 He  0  0  0  0  0  0  0  0  0  0  0  0
    7.9356    6.0874   24.7752 He  0  0  0  0  0  0  0  0  0  0  0  0
   10.7818   10.8041   22.0201 He  0  0  0  0  0  0  0  0  0  0  0  0
    6.4487    6.2894   24.1636 He  0  0  0  0  0  0  0  0  0  0  0  0
    6.9109    7.0300   24.3148 He  0  0  0  0  0  0  0  0  0  0  0  0
   11.4052    8.6611   21.5819 He  0  0  0  0  0  0  0  0  0  0  0  0
   11.5983   10.8897   24.8646 He  0  0  0  0  0  0  0  0  0  0  0  0
    7.6011    4.6537   22.1292 He  0  0  0  0  0  0  0  0  0  0  0  0
    9.5596    9.6500   16.8090 He  0  0  0  0  0  0  0  0  0  0  0  0
    5.8540    8.0615   22.7109 He  0  0  0  0  0  0  0  0  0  0  0  0
   11.8415    6.9796   20.0201 He  0  0  0  0  0  0  0  0  0  0  0  0
   13.5386    7.6749   20.9863 He  0  0  0  0  0  0  0  0  0  0  0  0
  1  2  4  0
  1  3  1  0
  1  7  3  0
  1  8  3  0
  1 10  2  0
  1 11  1  0
  1 14  4  0
  1 15  2  0
  1 16  4  0
  2  3  4  0
  2  4  4  0
  2  5  4  0
  2  9  3  0
  2 10  3  0
  2 11  3  0
  2 15  3  0
  3  5  4  0
  3  7  4  0
  3  8  4  0
  3 13  4  0
  3 14  1  0
  3 15  1  0
  4  6  2  0
  4 10  1  0
  4 13  2  0
  4 14  4  0
  5  9  4  0
  5 14  4  0
  5 16  4  0
  6  7  4  0
  6  8  4  0
  6 11  1  0
  6 12  4  0
  6 13  4  0
  7  9  1  0
  7 12  1  0
  7 13  4  0
  7 14  2  0
  7 15  3  0
  8 12  2  0
  9 13  2  0
 10 12  4  0
 10 14  4  0
 11 16  2  0
 12 15  3  0
 13 14  3  0
 13 16  1  0
 15 16  4  0
M  END
$$$$

 Created by Python create_sdf_string function

 29  3  0  0  0  0  0  0  0  0999 V2000
    8.7839    8.4480   23.7603 C   0  0  0  0  0  0  0  0  0  0  0  0
    7.3683    4.8790   21.9641 C   0  0  0  0  0  0  0  0  0  0  0  0
    7.7315    3.1165   21.1169 C   0  0  0  0  0  0  0  0  0  0  0  0
    8.9509    8.1407   24.7304 O   0  0  0  0  0  0  0  0  0  0  0  0
    8.8897    7.6363   21.4153 C   0  0  0  0  0  0  0  0  0  0  0  0
   11.8462    6.3868   18.5178 C   0  0  0  0  0  0  0  0  0  0  0  0
    7.8572    6.4571   24.5582 C   0  0  0  0  0  0  0  0  0  0  0  0
   11.2143   10.2478   23.4638 C   0  0  0  0  0  0  0  0  0  0  0  0
   10.7959    6.0952   19.0739 C   0  0  0  0  0  0  0  0  0  0  0  0
   12.7974    6.3282   19.9518 C   0  0  0  0  0  0  0  0  0  0  0  0
    8.4007    5.3541   22.5222 C   0  0  0  0  0  0  0  0  0  0  0  0
   11.6757    7.6004   21.2682 C   0  0  0  0  0  0  0  0  0  0  0  0
    8.6955    7.7253   21.7800 C   0  0  0  0  0  0  0  0  0  0  0  0
   10.6935   10.4799   22.1568 C   0  0  0  0  0  0  0  0  0  0  0  0
    6.7039    6.4009   23.9230 C   0  0  0  0  0  0  0  0  0  0  0  0
    7.1098    6.9684   24.2127 C   0  0  0  0  0  0  0  0  0  0  0  0
   11.3641    8.5998   21.4340 C   0  0  0  0  0  0  0  0  0  0  0  0
   11.1351   10.4905   24.2594 O   0  0  0  0  0  0  0  0  0  0  0  0
    7.8908    4.4489   21.9291 C   0  0  0  0  0  0  0  0  0  0  0  0
    9.8085    9.1614   18.5679 C   0  0  0  0  0  0  0  0  0  0  0  0
    8.9886    5.0656   21.1135 C   0  0  0  0  0  0  0  0  0  0  0  0
    6.4919    7.6123   23.0671 C   0  0  0  0  0  0  0  0  0  0  0  0
    9.5896    9.2754   23.3796 C   0  0  0  0  0  0  0  0  0  0  0  0
    9.8054    4.3356   21.5391 C   0  0  0  0  0  0  0  0  0  0  0  0
   11.6954    6.9498   19.8989 C   0  0  0  0  0  0  0  0  0  0  0  0
   12.7715    7.4542   20.7524 C   0  0  0  0  0  0  0  0  0  0  0  0
    9.4494    8.9313   20.9458 C   0  0  0  0  0  0  0  0  0  0  0  0
    9.4920   10.3774   19.8801 O   0  0  0  0  0  0  0  0  0  0  0  0
    9.8925    9.8636   21.9269 C   0  0  0  0  0  0  0  0  0  0  0  0
  1  4  1  0
  8 18  1  0
 14 29  1  0
M  END
$$$$

 Created by Python create_sdf_string function

 29 63  0  0  0  0  0  0  0  0999 V2000
    7.9581    2.7982   21.5277 Br  0  0  0  0  0  0  0  0  0  0  0  0
    9.3772    6.4316   24.6320 N   0  0  0  0  0  0  0  0  0  0  0  0
    8.1641    7.4100   21.2763 Br  0  0  0  0  0  0  0  0  0  0  0  0
   10.7371    5.7891   20.3071 F   0  0  0  0  0  0  0  0  0  0  0  0
   10.3589    7.0483   26.1582 C   0  0  0  0  0  0  0  0  0  0  0  0
   11.5719    9.0989   24.7670 Cl  0  0  0  0  0  0  0  0  0  0  0  0
   13.1565    7.7323   19.3344 N   0  0  0  0  0  0  0  0  0  0  0  0
    9.7837    7.7709   22.4902 C   0  0  0  0  0  0  0  0  0  0  0  0
    7.2588    5.8107   23.2876 C   0  0  0  0  0  0  0  0  0  0  0  0
   11.7421    8.8261   21.6121 C   0  0  0  0  0  0  0  0  0  0  0  0
   11.3229   10.5606   23.9987 O   0  0  0  0  0  0  0  0  0  0  0  0
    8.1614    5.9940   20.3595 C   0  0  0  0  0  0  0  0  0  0  0  0
   10.9191   10.6183   17.7905 F   0  0  0  0  0  0  0  0  0  0  0  0
    9.5770    5.4374   21.5844 O   0  0  0  0  0  0  0  0  0  0  0  0
    9.7256    8.4921   23.1492 N   0  0  0  0  0  0  0  0  0  0  0  0
   10.6838    6.7694   21.0703 N   0  0  0  0  0  0  0  0  0  0  0  0
   13.4639    7.5437   21.6561 C   0  0  0  0  0  0  0  0  0  0  0  0
   10.1173    9.1919   20.3388 N   0  0  0  0  0  0  0  0  0  0  0  0
   10.9503    8.7785   20.0964 P   0  0  0  0  0  0  0  0  0  0  0  0
   11.7471    8.8967   21.3248 P   0  0  0  0  0  0  0  0  0  0  0  0
    8.9758    9.7475   24.0955 He  0  0  0  0  0  0  0  0  0  0  0  0
    8.8300    4.6665   23.5426 He  0  0  0  0  0  0  0  0  0  0  0  0
   11.5569    6.2840   20.5770 He  0  0  0  0  0  0  0  0  0  0  0  0
    8.6556    4.5172   22.2851 He  0  0  0  0  0  0  0  0  0  0  0  0
   12.4538    6.9894   22.4653 He  0  0  0  0  0  0  0  0  0  0  0  0
    9.6296   11.4196   22.4234 He  0  0  0  0  0  0  0  0  0  0  0  0
    6.5491    6.6554   24.9590 He  0  0  0  0  0  0  0  0  0  0  0  0
    6.6096    6.4901   23.1660 He  0  0  0  0  0  0  0  0  0  0  0  0
    7.9813    2.7380   21.5546 He  0  0  0  0  0  0  0  0  0  0  0  0
  1  2  4  0
  1  4  3  0
  1  5  1  0
  1 11  3  0
  1 12  4  0
  1 14  4  0
  1 15  4  0
  1 18  4  0
  1 20  1  0
  2  5  3  0
  2  9  2  0
  2 11  1  0
  2 12  4  0
  3  6  2  0
  3  8  2  0
  3  9  2  0
  3 10  3  0
  3 11  2  0
  3 16  1  0
  3 18  1  0
  3 19  3  0
  4  8  2  0
  4  9  2  0
  4 11  4  0
  4 12  2  0
  4 15  1  0
  4 16  2  0
  5  6  2  0
  5 12  3  0
  5 13  4  0
  5 19  1  0
  6  7  3  0
  6  8  3  0
  6 18  3  0
  7  9  1  0
  7 10  1  0
  7 12  4  0
  7 13  1  0
  7 18  2  0
  7 20  1  0
  8 12  3  0
  8 15  2  0
  8 16  4  0
  8 18  3  0
  8 19  3  0
  9 10  2  0
  9 15  1  0
  9 16  2  0
 10 12  3  0
 12 14  2  0
 12 15  3  0
 12 18  2  0
 13 14  4  0
 13 16  3  0
 14 16  1  0
 15 16  4  0
 15 17  4  0
 15 19  3  0
 15 20  1  0
 16 19  1  0
 16 20  3  0
 17 20  4  0
 19 20  2  0
M  END
$$$$

 Created by Python create_sdf_string function

 29  1  0  0  0  0  0  0  0  0999 V2000
    9.4630    9.4244   23.8927 C   0  0  0  0  0  0  0  0  0  0  0  0
    8.4526    4.9072   23.2259 C   0  0  0  0  0  0  0  0  0  0  0  0
    8.1990    3.1673   21.5233 C   0  0  0  0  0  0  0  0  0  0  0  0
    9.1074    6.7682   24.6096 C   0  0  0  0  0  0  0  0  0  0  0  0
    8.2513    7.1864   21.5183 C   0  0  0  0  0  0  0  0  0  0  0  0
   10.6368    5.6971   20.4311 C   0  0  0  0  0  0  0  0  0  0  0  0
   10.1020    7.4058   25.3547 C   0  0  0  0  0  0  0  0  0  0  0  0
   10.9492    8.9815   24.5170 C   0  0  0  0  0  0  0  0  0  0  0  0
   11.7861    6.3789   20.5292 C   0  0  0  0  0  0  0  0  0  0  0  0
   12.6228    7.9780   19.6444 C   0  0  0  0  0  0  0  0  0  0  0  0
    8.3925    4.2690   22.2020 C   0  0  0  0  0  0  0  0  0  0  0  0
   12.5095    7.2536   22.2715 C   0  0  0  0  0  0  0  0  0  0  0  0
    9.4796    7.8522   22.8672 C   0  0  0  0  0  0  0  0  0  0  0  0
    9.9113   10.5815   22.5713 O   0  0  0  0  0  0  0  0  0  0  0  0
    7.0962    6.5371   24.6744 C   0  0  0  0  0  0  0  0  0  0  0  0
    7.5167    5.8198   23.4012 C   0  0  0  0  0  0  0  0  0  0  0  0
   11.7801    8.8579   21.5518 C   0  0  0  0  0  0  0  0  0  0  0  0
   11.1166   10.2769   23.8596 O   0  0  0  0  0  0  0  0  0  0  0  0
    8.4668    5.6351   20.9466 C   0  0  0  0  0  0  0  0  0  0  0  0
   11.1864    9.9072   18.6884 O   0  0  0  0  0  0  0  0  0  0  0  0
    9.3940    5.1380   21.3681 C   0  0  0  0  0  0  0  0  0  0  0  0
    6.9585    6.4423   23.4250 C   0  0  0  0  0  0  0  0  0  0  0  0
    9.7418    8.5133   23.4783 C   0  0  0  0  0  0  0  0  0  0  0  0
    8.1962    3.0682   21.5133 C   0  0  0  0  0  0  0  0  0  0  0  0
   10.7291    6.5913   20.8950 C   0  0  0  0  0  0  0  0  0  0  0  0
   13.0470    7.5301   21.4374 C   0  0  0  0  0  0  0  0  0  0  0  0
   10.3949    9.3673   20.3119 C   0  0  0  0  0  0  0  0  0  0  0  0
   11.0821    9.1529   19.7647 C   0  0  0  0  0  0  0  0  0  0  0  0
   11.8188    8.9108   21.0646 C   0  0  0  0  0  0  0  0  0  0  0  0
  3 24  4  0
M  END
$$$$

 Created by Python create_sdf_string function

 29 34  0  0  0  0  0  0  0  0999 V2000
    8.5015    6.1534   22.9830 N   0  0  0  0  0  0  0  0  0  0  0  0
    8.5379    6.6508   21.4603 O   0  0  0  0  0  0  0  0  0  0  0  0
   11.4984    7.8993   26.0394 Cl  0  0  0  0  0  0  0  0  0  0  0  0
   13.1356    7.8919   22.0238 C   0  0  0  0  0  0  0  0  0  0  0  0
   11.4885    8.9444   20.9764 O   0  0  0  0  0  0  0  0  0  0  0  0
    5.6409    5.3724   24.2511 N   0  0  0  0  0  0  0  0  0  0  0  0
    7.7757    5.5163   23.4665 S   0  0  0  0  0  0  0  0  0  0  0  0
   11.2181    8.4090   23.0321 O   0  0  0  0  0  0  0  0  0  0  0  0
    6.4393    5.1078   20.9753 F   0  0  0  0  0  0  0  0  0  0  0  0
   10.7916    9.3807   17.8356 O   0  0  0  0  0  0  0  0  0  0  0  0
   10.1192    5.6037   21.8361 O   0  0  0  0  0  0  0  0  0  0  0  0
    6.6921    6.9786   21.6470 C   0  0  0  0  0  0  0  0  0  0  0  0
   11.1127    7.8700   23.0422 F   0  0  0  0  0  0  0  0  0  0  0  0
    8.3265    3.2652   21.6015 P   0  0  0  0  0  0  0  0  0  0  0  0
   11.2358    7.6606   21.6192 F   0  0  0  0  0  0  0  0  0  0  0  0
    9.3920    9.0088   22.9862 He  0  0  0  0  0  0  0  0  0  0  0  0
    7.9952    5.7533   22.6418 He  0  0  0  0  0  0  0  0  0  0  0  0
    7.9396    4.6461   20.4683 He  0  0  0  0  0  0  0  0  0  0  0  0
   10.1302    6.6249   20.6611 He  0  0  0  0  0  0  0  0  0  0  0  0
    9.4724    6.7967   25.5280 He  0  0  0  0  0  0  0  0  0  0  0  0
    8.2134    5.2241   21.4624 He  0  0  0  0  0  0  0  0  0  0  0  0
   12.8484    8.0890   22.8394 He  0  0  0  0  0  0  0  0  0  0  0  0
    8.2380    7.2050   22.4812 He  0  0  0  0  0  0  0  0  0  0  0  0
    8.7915   10.0635   20.7038 He  0  0  0  0  0  0  0  0  0  0  0  0
   11.3788   11.3682   22.4754 He  0  0  0  0  0  0  0  0  0  0  0  0
    8.7597    7.6208   20.0433 He  0  0  0  0  0  0  0  0  0  0  0  0
   11.8588    6.4730   21.9536 He  0  0  0  0  0  0  0  0  0  0  0  0
   11.5312    8.6243   20.2761 He  0  0  0  0  0  0  0  0  0  0  0  0
   10.6662    8.7811   18.9168 He  0  0  0  0  0  0  0  0  0  0  0  0
  1  5  2  0
  1 10  3  0
  2  4  2  0
  2  6  2  0
  2  8  2  0
  2  9  2  0
  3  6  4  0
  3 10  1  0
  3 11  4  0
  4  6  4  0
  4  7  1  0
  4  8  3  0
  5  9  3  0
  5 10  2  0
  5 15  1  0
  6  7  1  0
  6  8  2  0
  6 10  3  0
  6 11  4  0
  6 13  1  0
  7  8  4  0
  7  9  3  0
  7 12  2  0
  8  9  2  0
  8 11  1  0
  8 13  2  0
  9 10  3  0
  9 11  3  0
  9 13  3  0
  9 14  2  0
 10 12  3  0
 11 12  2  0
 13 14  1  0
 14 15  3  0
M  END
$$$$

 Created by Python create_sdf_string function

 29  2  0  0  0  0  0  0  0  0999 V2000
    9.7048    8.8938   23.2650 C   0  0  0  0  0  0  0  0  0  0  0  0
    7.7341    5.8064   22.8721 C   0  0  0  0  0  0  0  0  0  0  0  0
    8.0858    4.2304   20.7226 C   0  0  0  0  0  0  0  0  0  0  0  0
    8.3315    6.4499   23.4052 C   0  0  0  0  0  0  0  0  0  0  0  0
    8.5549    6.6049   21.3726 C   0  0  0  0  0  0  0  0  0  0  0  0
   10.4201    6.6429   20.5781 C   0  0  0  0  0  0  0  0  0  0  0  0
    9.4556    7.0112   24.9267 C   0  0  0  0  0  0  0  0  0  0  0  0
   11.2484    7.9096   25.2448 O   0  0  0  0  0  0  0  0  0  0  0  0
   12.9340    7.8698   21.8602 C   0  0  0  0  0  0  0  0  0  0  0  0
   11.6813    8.9516   20.8733 C   0  0  0  0  0  0  0  0  0  0  0  0
    7.9496    4.7788   21.4658 C   0  0  0  0  0  0  0  0  0  0  0  0
   12.4216    8.1237   23.1195 C   0  0  0  0  0  0  0  0  0  0  0  0
    8.3037    7.0324   22.8842 C   0  0  0  0  0  0  0  0  0  0  0  0
    9.2539    9.7270   20.4912 C   0  0  0  0  0  0  0  0  0  0  0  0
    6.1533    5.4818   24.1062 O   0  0  0  0  0  0  0  0  0  0  0  0
    7.3320    5.6977   23.8252 C   0  0  0  0  0  0  0  0  0  0  0  0
   11.2216    8.6830   23.4654 O   0  0  0  0  0  0  0  0  0  0  0  0
   11.2105   10.5191   22.4116 O   0  0  0  0  0  0  0  0  0  0  0  0
    6.7356    4.7922   21.1981 C   0  0  0  0  0  0  0  0  0  0  0  0
   10.6610    9.1699   18.4524 O   0  0  0  0  0  0  0  0  0  0  0  0
   10.1970    5.5836   21.5069 C   0  0  0  0  0  0  0  0  0  0  0  0
    6.7576    6.5735   21.9216 C   0  0  0  0  0  0  0  0  0  0  0  0
   11.0492    8.1437   23.5883 C   0  0  0  0  0  0  0  0  0  0  0  0
    8.0906    3.2316   21.3255 O   0  0  0  0  0  0  0  0  0  0  0  0
    9.0978    7.9743   19.8050 C   0  0  0  0  0  0  0  0  0  0  0  0
   12.0462    6.6428   21.8997 C   0  0  0  0  0  0  0  0  0  0  0  0
   11.3213    8.5932   20.2315 C   0  0  0  0  0  0  0  0  0  0  0  0
   10.3145    8.9276   19.0541 C   0  0  0  0  0  0  0  0  0  0  0  0
   11.4344    7.8456   21.1342 C   0  0  0  0  0  0  0  0  0  0  0  0
 15 16  1  0
 20 28  1  0
M  END
$$$$

 Created by Python create_sdf_string function

 29 60  0  0  0  0  0  0  0  0999 V2000
    7.9341    4.1773   23.4286 N   0  0  0  0  0  0  0  0  0  0  0  0
    6.9080    6.1576   22.3359 P   0  0  0  0  0  0  0  0  0  0  0  0
   10.4688    5.9913   22.0117 Cl  0  0  0  0  0  0  0  0  0  0  0  0
   12.4070    7.5354   24.3067 S   0  0  0  0  0  0  0  0  0  0  0  0
   13.9117    8.4030   20.9014 C   0  0  0  0  0  0  0  0  0  0  0  0
    8.7530    4.5847   19.8421 S   0  0  0  0  0  0  0  0  0  0  0  0
   12.2363    7.5028   23.5348 C   0  0  0  0  0  0  0  0  0  0  0  0
    7.7543    7.0500   23.9248 C   0  0  0  0  0  0  0  0  0  0  0  0
    9.3223    9.5426   20.9210 S   0  0  0  0  0  0  0  0  0  0  0  0
    6.8242    5.3949   24.3343 O   0  0  0  0  0  0  0  0  0  0  0  0
   10.1559   10.0882   22.7769 Br  0  0  0  0  0  0  0  0  0  0  0  0
    8.3786    7.3468   20.7736 S   0  0  0  0  0  0  0  0  0  0  0  0
   10.8123    6.6937   21.9000 O   0  0  0  0  0  0  0  0  0  0  0  0
    5.5483    7.3945   22.8375 N   0  0  0  0  0  0  0  0  0  0  0  0
    9.7887    7.1176   23.1368 C   0  0  0  0  0  0  0  0  0  0  0  0
    7.9008    3.0925   20.2215 C   0  0  0  0  0  0  0  0  0  0  0  0
   11.1511    8.3128   20.5082 F   0  0  0  0  0  0  0  0  0  0  0  0
   12.3382    6.3539   22.7342 C   0  0  0  0  0  0  0  0  0  0  0  0
    7.2680    8.1916   23.9448 He  0  0  0  0  0  0  0  0  0  0  0  0
    6.5344    3.9206   21.6684 He  0  0  0  0  0  0  0  0  0  0  0  0
    7.7855    7.1622   20.4723 He  0  0  0  0  0  0  0  0  0  0  0  0
   11.6328    8.2775   25.7361 He  0  0  0  0  0  0  0  0  0  0  0  0
   11.0719    8.7460   21.5294 He  0  0  0  0  0  0  0  0  0  0  0  0
    6.3255    4.6553   24.2994 He  0  0  0  0  0  0  0  0  0  0  0  0
   11.1479    9.0290   21.8629 He  0  0  0  0  0  0  0  0  0  0  0  0
    9.8588    9.3736   19.7899 He  0  0  0  0  0  0  0  0  0  0  0  0
    9.3225    7.5773   21.3083 He  0  0  0  0  0  0  0  0  0  0  0  0
   12.9835    7.1207   21.1073 He  0  0  0  0  0  0  0  0  0  0  0  0
   12.3683    8.5080   17.1232 He  0  0  0  0  0  0  0  0  0  0  0  0
  1  3  4  0
  1  5  2  0
  1  7  3  0
  1 11  4  0
  1 12  2  0
  1 14  2  0
  1 16  2  0
  1 17  4  0
  1 18  4  0
  2  5  3  0
  2  8  1  0
  3  4  4  0
  3  7  2  0
  3 11  4  0
  3 13  3  0
  3 15  1  0
  3 17  4  0
  3 18  2  0
  4  5  1  0
  4  6  2  0
  4 10  1  0
  4 13  4  0
  4 15  4  0
  5  9  3  0
  5 12  2  0
  5 15  4  0
  5 16  4  0
  6 11  2  0
  6 13  1  0
  6 14  1  0
  6 16  3  0
  6 17  2  0
  6 18  2  0
  7  8  4  0
  7 11  2  0
  7 12  2  0
  7 17  2  0
  8 10  1  0
  8 14  1  0
  8 15  4  0
  9 11  1  0
  9 12  2  0
  9 16  2  0
 10 13  2  0
 10 14  2  0
 10 16  2  0
 10 17  1  0
 10 18  3  0
 11 12  2  0
 12 15  4  0
 12 16  3  0
 12 17  4  0
 13 14  3  0
 13 15  1  0
 13 18  4  0
 14 17  4  0
 15 16  4  0
 16 17  3  0
 16 18  3  0
 17 18  1  0
M  END
$$$$

 Created by Python create_sdf_string function

 29  5  0  0  0  0  0  0  0  0999 V2000
    7.2761    7.8708   23.7621 C   0  0  0  0  0  0  0  0  0  0  0  0
    7.6952    4.2079   22.8807 C   0  0  0  0  0  0  0  0  0  0  0  0
    7.0339    4.0356   21.8234 C   0  0  0  0  0  0  0  0  0  0  0  0
    7.1863    5.9699   22.3124 C   0  0  0  0  0  0  0  0  0  0  0  0
    7.7522    6.9750   20.7185 C   0  0  0  0  0  0  0  0  0  0  0  0
   10.3423    5.8812   22.2046 C   0  0  0  0  0  0  0  0  0  0  0  0
   11.6483    8.0007   24.9815 O   0  0  0  0  0  0  0  0  0  0  0  0
   12.2084    7.5143   24.2369 C   0  0  0  0  0  0  0  0  0  0  0  0
   13.1829    8.2421   20.6882 C   0  0  0  0  0  0  0  0  0  0  0  0
   11.2923    8.7299   21.1927 C   0  0  0  0  0  0  0  0  0  0  0  0
    8.4300    4.4836   20.5292 C   0  0  0  0  0  0  0  0  0  0  0  0
   12.2148    7.5914   23.7969 C   0  0  0  0  0  0  0  0  0  0  0  0
    7.2926    6.8332   23.6817 C   0  0  0  0  0  0  0  0  0  0  0  0
    9.3204    9.5274   21.0251 C   0  0  0  0  0  0  0  0  0  0  0  0
    6.6192    4.8780   23.8012 C   0  0  0  0  0  0  0  0  0  0  0  0
    6.8861    5.5510   24.1857 C   0  0  0  0  0  0  0  0  0  0  0  0
   11.3793    8.9513   21.8147 C   0  0  0  0  0  0  0  0  0  0  0  0
    9.9408    9.8452   22.4151 C   0  0  0  0  0  0  0  0  0  0  0  0
    8.3526    7.2303   20.8890 C   0  0  0  0  0  0  0  0  0  0  0  0
   10.0867    9.1636   19.7744 C   0  0  0  0  0  0  0  0  0  0  0  0
   10.9485    6.4692   22.1710 C   0  0  0  0  0  0  0  0  0  0  0  0
    6.0764    7.0914   23.1470 C   0  0  0  0  0  0  0  0  0  0  0  0
    9.9687    6.8708   23.2057 C   0  0  0  0  0  0  0  0  0  0  0  0
    8.0133    3.6359   20.8121 C   0  0  0  0  0  0  0  0  0  0  0  0
    9.0812    7.8998   21.1766 C   0  0  0  0  0  0  0  0  0  0  0  0
   12.7896    7.5600   21.0135 C   0  0  0  0  0  0  0  0  0  0  0  0
   12.1176    8.5509   18.6002 C   0  0  0  0  0  0  0  0  0  0  0  0
   11.3810    8.5086   19.9895 C   0  0  0  0  0  0  0  0  0  0  0  0
   12.1799    6.6489   22.8330 C   0  0  0  0  0  0  0  0  0  0  0  0
  1 13  1  0
  8 12  1  0
 11 24  1  0
 13 16  1  0
 15 16  1  0
M  END
$$$$

 Created by Python create_sdf_string function

 29 45  0  0  0  0  0  0  0  0999 V2000
    7.5649    8.2312   22.2547 C   0  0  0  0  0  0  0  0  0  0  0  0
    8.4649    4.5281   22.4384 N   0  0  0  0  0  0  0  0  0  0  0  0
    7.5943    6.0673   23.5135 C   0  0  0  0  0  0  0  0  0  0  0  0
    8.7725    7.0183   22.0933 C   0  0  0  0  0  0  0  0  0  0  0  0
    8.7531    6.9132   22.1943 S   0  0  0  0  0  0  0  0  0  0  0  0
   11.6015    7.3686   25.3557 O   0  0  0  0  0  0  0  0  0  0  0  0
   11.5256   10.7942   20.8522 F   0  0  0  0  0  0  0  0  0  0  0  0
   10.2553    8.6630   21.5930 N   0  0  0  0  0  0  0  0  0  0  0  0
    6.1967    4.6953   23.1661 O   0  0  0  0  0  0  0  0  0  0  0  0
    8.2825    4.7650   23.4472 C   0  0  0  0  0  0  0  0  0  0  0  0
   12.3543    8.1084   20.3235 C   0  0  0  0  0  0  0  0  0  0  0  0
    9.4039   12.1522   23.6812 F   0  0  0  0  0  0  0  0  0  0  0  0
    6.1419    7.0023   24.0320 P   0  0  0  0  0  0  0  0  0  0  0  0
    8.1474    2.8270   20.7006 C   0  0  0  0  0  0  0  0  0  0  0  0
   11.6996    6.1077   22.9309 Cl  0  0  0  0  0  0  0  0  0  0  0  0
    7.6710    8.0994   22.9753 He  0  0  0  0  0  0  0  0  0  0  0  0
   13.1252    8.1487   23.1004 He  0  0  0  0  0  0  0  0  0  0  0  0
   11.2217    7.2442   20.5776 He  0  0  0  0  0  0  0  0  0  0  0  0
    7.9642    5.2372   19.3864 He  0  0  0  0  0  0  0  0  0  0  0  0
   10.9902    7.2539   23.7123 He  0  0  0  0  0  0  0  0  0  0  0  0
    7.0216    7.4840   23.0705 He  0  0  0  0  0  0  0  0  0  0  0  0
    8.0671    6.1842   21.2416 He  0  0  0  0  0  0  0  0  0  0  0  0
    8.5466    9.9744   19.1673 He  0  0  0  0  0  0  0  0  0  0  0  0
    9.4792    3.7191   23.0768 He  0  0  0  0  0  0  0  0  0  0  0  0
    8.4280    7.6520   23.4277 He  0  0  0  0  0  0  0  0  0  0  0  0
    9.3367    8.1699   20.7540 He  0  0  0  0  0  0  0  0  0  0  0  0
   13.2216    7.9484   22.9012 He  0  0  0  0  0  0  0  0  0  0  0  0
   11.9883    9.6385   18.9519 He  0  0  0  0  0  0  0  0  0  0  0  0
   11.2473    9.3371   21.3971 He  0  0  0  0  0  0  0  0  0  0  0  0
  1  2  1  0
  1  3  1  0
  1  4  4  0
  1  6  4  0
  1  7  1  0
  1  8  4  0
  1 11  2  0
  1 12  4  0
  1 14  1  0
  2  3  4  0
  2  4  4  0
  2  6  2  0
  2  7  2  0
  3  4  2  0
  3  5  2  0
  3 13  1  0
  4  7  2  0
  4 10  2  0
  4 12  1  0
  5  6  3  0
  5  8  3  0
  5 11  4  0
  5 13  2  0
  6  7  1  0
  6 11  2  0
  6 12  1  0
  6 13  4  0
  6 15  2  0
  7  9  4  0
  7 10  2  0
  7 13  2  0
  7 15  2  0
  8 12  4  0
  8 14  1  0
  9 12  3  0
  9 14  3  0
  9 15  3  0
 10 14  4  0
 11 15  3  0
 12 13  3  0
 12 14  2  0
 12 15  3  0
 13 14  1  0
 13 15  2  0
 14 15  1  0
M  END
$$$$

 Created by Python create_sdf_string function

 29  2  0  0  0  0  0  0  0  0999 V2000
    7.6606    8.4948   22.4951 C   0  0  0  0  0  0  0  0  0  0  0  0
    8.2457    4.3586   22.0389 C   0  0  0  0  0  0  0  0  0  0  0  0
    7.2272    5.9870   23.5379 C   0  0  0  0  0  0  0  0  0  0  0  0
    7.5256    8.4491   22.9656 C   0  0  0  0  0  0  0  0  0  0  0  0
    8.8848    7.0038   22.0039 C   0  0  0  0  0  0  0  0  0  0  0  0
    8.7639    6.8000   22.1458 C   0  0  0  0  0  0  0  0  0  0  0  0
   11.6500    7.3337   24.7031 O   0  0  0  0  0  0  0  0  0  0  0  0
   12.7563    8.0094   23.2071 C   0  0  0  0  0  0  0  0  0  0  0  0
   11.1649    7.4842   20.7065 C   0  0  0  0  0  0  0  0  0  0  0  0
   11.2193   10.4719   20.9479 C   0  0  0  0  0  0  0  0  0  0  0  0
    8.3228    5.0284   20.3144 C   0  0  0  0  0  0  0  0  0  0  0  0
   11.3588    7.3278   23.7022 C   0  0  0  0  0  0  0  0  0  0  0  0
    6.8412    7.5970   23.2348 C   0  0  0  0  0  0  0  0  0  0  0  0
   10.3678    8.9531   21.4997 C   0  0  0  0  0  0  0  0  0  0  0  0
    6.6164    4.6206   23.2294 C   0  0  0  0  0  0  0  0  0  0  0  0
    8.2021    4.4402   23.2014 C   0  0  0  0  0  0  0  0  0  0  0  0
   12.0849    8.5391   20.4927 C   0  0  0  0  0  0  0  0  0  0  0  0
    9.3127   10.7779   22.7938 O   0  0  0  0  0  0  0  0  0  0  0  0
    8.2020    6.0598   21.3782 C   0  0  0  0  0  0  0  0  0  0  0  0
    9.1453    9.6935   19.8965 C   0  0  0  0  0  0  0  0  0  0  0  0
    9.0102    3.7337   22.7743 C   0  0  0  0  0  0  0  0  0  0  0  0
    6.2055    6.9825   24.0377 C   0  0  0  0  0  0  0  0  0  0  0  0
    8.5964    7.9362   23.4416 C   0  0  0  0  0  0  0  0  0  0  0  0
    8.1948    3.3350   21.1301 C   0  0  0  0  0  0  0  0  0  0  0  0
    9.6214    8.5336   20.6125 C   0  0  0  0  0  0  0  0  0  0  0  0
   12.8934    7.8592   22.9994 C   0  0  0  0  0  0  0  0  0  0  0  0
   11.6581    9.5228   19.4703 C   0  0  0  0  0  0  0  0  0  0  0  0
   11.1441    9.4868   21.1809 C   0  0  0  0  0  0  0  0  0  0  0  0
   11.7794    6.5536   23.1443 C   0  0  0  0  0  0  0  0  0  0  0  0
  1  4  1  0
  8 26  1  0
M  END
$$$$

 Created by Python create_sdf_string function

 29 37  0  0  0  0  0  0  0  0999 V2000
    6.7787    4.0495   21.6219 F   0  0  0  0  0  0  0  0  0  0  0  0
    7.8359    6.2838   22.6571 P   0  0  0  0  0  0  0  0  0  0  0  0
    8.0072    8.5086   21.9110 S   0  0  0  0  0  0  0  0  0  0  0  0
   11.9187   10.6695   19.0881 C   0  0  0  0  0  0  0  0  0  0  0  0
    8.2055    4.7515   20.0722 S   0  0  0  0  0  0  0  0  0  0  0  0
    7.2679    5.4692   23.7600 C   0  0  0  0  0  0  0  0  0  0  0  0
    7.7175    5.2917   23.5201 Cl  0  0  0  0  0  0  0  0  0  0  0  0
    7.4335    5.1135   20.4782 C   0  0  0  0  0  0  0  0  0  0  0  0
    9.0293   10.1988   20.0554 C   0  0  0  0  0  0  0  0  0  0  0  0
    6.6553    6.3432   24.0500 I   0  0  0  0  0  0  0  0  0  0  0  0
   12.0316    6.2257   19.2103 O   0  0  0  0  0  0  0  0  0  0  0  0
   10.8597   11.3901   20.3605 O   0  0  0  0  0  0  0  0  0  0  0  0
   12.6468    5.7899   23.3481 F   0  0  0  0  0  0  0  0  0  0  0  0
    6.8950    8.2004   22.7166 He  0  0  0  0  0  0  0  0  0  0  0  0
    8.9207    8.6320   22.5063 He  0  0  0  0  0  0  0  0  0  0  0  0
    8.3527    7.2528   22.6413 He  0  0  0  0  0  0  0  0  0  0  0  0
   10.9434    8.0963   25.1782 He  0  0  0  0  0  0  0  0  0  0  0  0
   11.8722    8.6056   23.1252 He  0  0  0  0  0  0  0  0  0  0  0  0
   11.6466    6.4920   21.1155 He  0  0  0  0  0  0  0  0  0  0  0  0
    9.4937    7.4841   23.9815 He  0  0  0  0  0  0  0  0  0  0  0  0
    6.0994    7.4523   24.1738 He  0  0  0  0  0  0  0  0  0  0  0  0
   10.8170    7.5697   20.3276 He  0  0  0  0  0  0  0  0  0  0  0  0
   11.1754    8.8444   17.9934 He  0  0  0  0  0  0  0  0  0  0  0  0
   10.2398   11.0112   24.3829 He  0  0  0  0  0  0  0  0  0  0  0  0
    8.5968    3.6743   23.9238 He  0  0  0  0  0  0  0  0  0  0  0  0
    7.5073    8.3288   25.6008 He  0  0  0  0  0  0  0  0  0  0  0  0
    7.4159    4.5886   21.0308 He  0  0  0  0  0  0  0  0  0  0  0  0
   10.2794    8.6663   20.2180 He  0  0  0  0  0  0  0  0  0  0  0  0
   11.8597    9.4129   20.0978 He  0  0  0  0  0  0  0  0  0  0  0  0
  1  2  3  0
  1  4  3  0
  1 11  1  0
  1 12  3  0
  1 13  4  0
  2  8  1  0
  2 12  1  0
  3  5  1  0
  3  7  4  0
  3  8  2  0
  3 10  4  0
  3 13  1  0
  4  6  2  0
  4  7  3  0
  4  8  1  0
  4 10  1  0
  4 11  1  0
  4 12  4  0
  5  6  3  0
  5  7  3  0
  5  8  4  0
  5 12  2  0
  6  7  3  0
  6 10  1  0
  6 11  4  0
  6 12  4  0
  7 10  2  0
  7 11  1  0
  8  9  3  0
  8 11  2  0
  8 12  1  0
  9 11  1  0
  9 12  3  0
  9 13  4  0
 10 12  2  0
 11 12  2  0
 11 13  3  0
M  END
$$$$

 Created by Python create_sdf_string function

 29  4  0  0  0  0  0  0  0  0999 V2000
    7.1200    8.0909   22.9762 C   0  0  0  0  0  0  0  0  0  0  0  0
    7.1104    3.6239   21.7802 C   0  0  0  0  0  0  0  0  0  0  0  0
    7.6242    6.1641   22.1529 C   0  0  0  0  0  0  0  0  0  0  0  0
    9.2313    8.8079   22.7074 C   0  0  0  0  0  0  0  0  0  0  0  0
    8.2391    8.5250   22.0179 C   0  0  0  0  0  0  0  0  0  0  0  0
    8.5969    7.3034   22.7897 C   0  0  0  0  0  0  0  0  0  0  0  0
   10.9575    7.9792   24.4892 C   0  0  0  0  0  0  0  0  0  0  0  0
   11.4158    8.2819   23.4833 C   0  0  0  0  0  0  0  0  0  0  0  0
   11.4131    6.8346   20.9445 C   0  0  0  0  0  0  0  0  0  0  0  0
   11.4523   10.3019   19.2751 C   0  0  0  0  0  0  0  0  0  0  0  0
    8.1433    4.7902   20.5058 C   0  0  0  0  0  0  0  0  0  0  0  0
    9.8335    7.8425   23.8347 C   0  0  0  0  0  0  0  0  0  0  0  0
    6.3514    7.3444   24.2841 C   0  0  0  0  0  0  0  0  0  0  0  0
   11.0579    7.5061   20.1759 C   0  0  0  0  0  0  0  0  0  0  0  0
    7.1767    5.3983   23.7665 C   0  0  0  0  0  0  0  0  0  0  0  0
    7.6332    5.2666   23.4750 C   0  0  0  0  0  0  0  0  0  0  0  0
   11.3460    8.9182   18.5471 C   0  0  0  0  0  0  0  0  0  0  0  0
   10.2326    9.9244   24.0434 O   0  0  0  0  0  0  0  0  0  0  0  0
    7.5995    5.3102   20.8883 C   0  0  0  0  0  0  0  0  0  0  0  0
    9.6094    9.8833   20.3185 C   0  0  0  0  0  0  0  0  0  0  0  0
    8.2268    3.7896   23.4969 C   0  0  0  0  0  0  0  0  0  0  0  0
    6.6406    6.2927   24.0575 C   0  0  0  0  0  0  0  0  0  0  0  0
    7.5883    8.3198   25.0449 O   0  0  0  0  0  0  0  0  0  0  0  0
    7.5614    4.5109   21.2444 C   0  0  0  0  0  0  0  0  0  0  0  0
   10.3614    8.7789   20.4006 C   0  0  0  0  0  0  0  0  0  0  0  0
   11.6242    6.5734   19.4662 O   0  0  0  0  0  0  0  0  0  0  0  0
   10.7725   10.8145   20.2869 O   0  0  0  0  0  0  0  0  0  0  0  0
   11.4077    9.1482   19.8221 C   0  0  0  0  0  0  0  0  0  0  0  0
   11.8342    6.6924   23.3185 O   0  0  0  0  0  0  0  0  0  0  0  0
  7  8  1  0
 11 24  1  0
 14 26  1  0
 15 22  1  0
M  END
$$$$

 Created by Python create_sdf_string function

 29 67  0  0  0  0  0  0  0  0999 V2000
    7.2147    7.1263   23.5417 C   0  0  0  0  0  0  0  0  0  0  0  0
    7.7129    5.4271   20.5001 S   0  0  0  0  0  0  0  0  0  0  0  0
    9.0629    9.6008   22.2233 N   0  0  0  0  0  0  0  0  0  0  0  0
   11.5119    7.2599   25.2400 Br  0  0  0  0  0  0  0  0  0  0  0  0
   10.0666    6.5421   24.5929 C   0  0  0  0  0  0  0  0  0  0  0  0
   10.4195    8.4982   19.9470 N   0  0  0  0  0  0  0  0  0  0  0  0
   11.2415    9.3368   19.0594 O   0  0  0  0  0  0  0  0  0  0  0  0
    9.5975    6.3229   24.0835 N   0  0  0  0  0  0  0  0  0  0  0  0
    6.9683    8.2246   24.1757 C   0  0  0  0  0  0  0  0  0  0  0  0
   11.9350    7.3645   20.6192 F   0  0  0  0  0  0  0  0  0  0  0  0
    6.1159    4.5703   22.3408 Cl  0  0  0  0  0  0  0  0  0  0  0  0
    7.3498    4.6226   23.7290 C   0  0  0  0  0  0  0  0  0  0  0  0
   11.6294    9.2750   23.6527 O   0  0  0  0  0  0  0  0  0  0  0  0
    8.1347    6.6754   20.4125 C   0  0  0  0  0  0  0  0  0  0  0  0
    9.0547   11.1692   20.9640 C   0  0  0  0  0  0  0  0  0  0  0  0
    5.4775    6.4683   23.5868 N   0  0  0  0  0  0  0  0  0  0  0  0
    7.5945    8.9318   25.0354 Se  0  0  0  0  0  0  0  0  0  0  0  0
    9.5559    8.5827   19.8623 C   0  0  0  0  0  0  0  0  0  0  0  0
    8.1383    9.3162   20.5102 O   0  0  0  0  0  0  0  0  0  0  0  0
    7.2496    4.5180   22.7108 He  0  0  0  0  0  0  0  0  0  0  0  0
    8.3716    9.6701   23.8454 He  0  0  0  0  0  0  0  0  0  0  0  0
    8.6193    7.0312   24.0902 He  0  0  0  0  0  0  0  0  0  0  0  0
    9.2312    7.0864   20.3824 He  0  0  0  0  0  0  0  0  0  0  0  0
   12.5621    8.1244   17.8335 He  0  0  0  0  0  0  0  0  0  0  0  0
    8.7620    2.8624   25.1449 He  0  0  0  0  0  0  0  0  0  0  0  0
    7.2467    5.4422   19.7768 He  0  0  0  0  0  0  0  0  0  0  0  0
   11.4573    4.9330   19.0572 He  0  0  0  0  0  0  0  0  0  0  0  0
   11.2154    8.4516   20.1494 He  0  0  0  0  0  0  0  0  0  0  0  0
   11.8011    5.5858   24.1423 He  0  0  0  0  0  0  0  0  0  0  0  0
  1  3  3  0
  1  4  1  0
  1  9  2  0
  1 11  3  0
  2 10  3  0
  2 17  1  0
  2 19  1  0
  3  6  4  0
  3  9  1  0
  3 14  4  0
  3 16  4  0
  4  5  1  0
  4 10  1  0
  4 11  4  0
  4 13  2  0
  4 14  4  0
  4 16  3  0
  4 18  1  0
  4 19  2  0
  5  6  4  0
  5  8  2  0
  5  9  1  0
  5 11  3  0
  5 13  4  0
  5 16  3  0
  5 19  1  0
  6  8  1  0
  6 15  3  0
  6 16  2  0
  6 19  2  0
  7  8  3  0
  7  9  2  0
  7 10  3  0
  7 12  1  0
  7 13  2  0
  7 15  3  0
  8 11  3  0
  8 13  1  0
  8 16  1  0
  8 17  1  0
  8 18  3  0
  8 19  4  0
  9 10  2  0
  9 11  4  0
  9 12  2  0
  9 15  2  0
  9 18  1  0
  9 19  1  0
 10 12  2  0
 10 14  3  0
 10 18  3  0
 10 19  3  0
 11 13  1  0
 11 15  4  0
 11 16  1  0
 11 17  3  0
 12 14  1  0
 12 19  2  0
 13 17  2  0
 13 18  2  0
 13 19  2  0
 14 15  2  0
 14 16  2  0
 15 16  1  0
 15 18  3  0
 15 19  4  0
 17 18  2  0
M  END
$$$$

 Created by Python create_sdf_string function

 29  7  0  0  0  0  0  0  0  0999 V2000
    7.1828    7.1955   23.6158 C   0  0  0  0  0  0  0  0  0  0  0  0
    7.3302    4.5952   22.9622 C   0  0  0  0  0  0  0  0  0  0  0  0
    7.8242    5.7055   20.7787 C   0  0  0  0  0  0  0  0  0  0  0  0
    8.2828    9.3384   23.5754 C   0  0  0  0  0  0  0  0  0  0  0  0
    8.7928    9.2480   22.1469 C   0  0  0  0  0  0  0  0  0  0  0  0
    8.4023    7.3453   24.1127 C   0  0  0  0  0  0  0  0  0  0  0  0
   11.3246    7.1760   24.5648 C   0  0  0  0  0  0  0  0  0  0  0  0
   10.1776    6.6589   24.5200 C   0  0  0  0  0  0  0  0  0  0  0  0
   10.3728    8.6250   20.0478 C   0  0  0  0  0  0  0  0  0  0  0  0
   11.3037    9.1880   19.1304 C   0  0  0  0  0  0  0  0  0  0  0  0
    9.2231    7.0600   20.2687 C   0  0  0  0  0  0  0  0  0  0  0  0
    9.3142    6.2149   24.2001 C   0  0  0  0  0  0  0  0  0  0  0  0
    7.4298    8.1384   23.9842 C   0  0  0  0  0  0  0  0  0  0  0  0
   11.5766    7.1757   19.8944 C   0  0  0  0  0  0  0  0  0  0  0  0
    6.4856    4.7307   22.3749 C   0  0  0  0  0  0  0  0  0  0  0  0
    7.7662    4.8512   23.7106 C   0  0  0  0  0  0  0  0  0  0  0  0
   12.2778    7.8763   18.5793 C   0  0  0  0  0  0  0  0  0  0  0  0
   11.3208    8.3441   23.8287 O   0  0  0  0  0  0  0  0  0  0  0  0
    8.4622    6.8011   20.5154 C   0  0  0  0  0  0  0  0  0  0  0  0
    9.1185   10.5098   21.0676 C   0  0  0  0  0  0  0  0  0  0  0  0
    8.5487    3.9123   24.3601 O   0  0  0  0  0  0  0  0  0  0  0  0
    6.2549    6.2508   23.4659 C   0  0  0  0  0  0  0  0  0  0  0  0
    7.8050    8.6528   24.7166 O   0  0  0  0  0  0  0  0  0  0  0  0
    7.6237    5.6092   20.3130 C   0  0  0  0  0  0  0  0  0  0  0  0
    9.7105    8.7439   20.2010 C   0  0  0  0  0  0  0  0  0  0  0  0
   11.1704    5.9733   19.3747 C   0  0  0  0  0  0  0  0  0  0  0  0
    8.4281    9.2883   20.8613 C   0  0  0  0  0  0  0  0  0  0  0  0
   10.9152    8.2236   20.0138 C   0  0  0  0  0  0  0  0  0  0  0  0
   11.5910    6.0393   24.2761 O   0  0  0  0  0  0  0  0  0  0  0  0
  2 16  1  0
  3 24  1  0
  7  8  1  0
  7 18  2  0
  7 29  1  0
  8 12  1  0
 11 19  4  0
M  END
$$$$

 Created by Python create_sdf_string function

 29 74  0  0  0  0  0  0  0  0999 V2000
    7.3321    7.1595   24.9840 S   0  0  0  0  0  0  0  0  0  0  0  0
    6.5268    5.1764   20.8542 C   0  0  0  0  0  0  0  0  0  0  0  0
    9.3628   10.7343   22.1973 Se  0  0  0  0  0  0  0  0  0  0  0  0
    8.4098    6.8167   21.9769 C   0  0  0  0  0  0  0  0  0  0  0  0
   10.3284    6.6617   24.9413 F   0  0  0  0  0  0  0  0  0  0  0  0
   11.0574    6.5536   24.2795 O   0  0  0  0  0  0  0  0  0  0  0  0
    9.0369    9.0347   19.3893 Cl  0  0  0  0  0  0  0  0  0  0  0  0
   11.7523    6.8861   18.8386 S   0  0  0  0  0  0  0  0  0  0  0  0
   10.2502    6.4624   21.0877 F   0  0  0  0  0  0  0  0  0  0  0  0
    5.2483    3.4090   22.6265 F   0  0  0  0  0  0  0  0  0  0  0  0
   11.8650    7.2495   23.3302 C   0  0  0  0  0  0  0  0  0  0  0  0
    7.3367    6.4461   21.6446 P   0  0  0  0  0  0  0  0  0  0  0  0
   10.0988   10.1481   20.9194 O   0  0  0  0  0  0  0  0  0  0  0  0
    9.1925    4.4507   23.6028 O   0  0  0  0  0  0  0  0  0  0  0  0
    8.3899    9.7839   23.8922 F   0  0  0  0  0  0  0  0  0  0  0  0
    8.2061    5.8019   20.5131 C   0  0  0  0  0  0  0  0  0  0  0  0
   10.2349   10.0227   21.1492 C   0  0  0  0  0  0  0  0  0  0  0  0
    7.3253    9.4890   19.7277 N   0  0  0  0  0  0  0  0  0  0  0  0
   10.3539    9.5175   19.9180 C   0  0  0  0  0  0  0  0  0  0  0  0
   12.7510    5.7381   24.4499 N   0  0  0  0  0  0  0  0  0  0  0  0
    6.8063    3.3148   21.1940 He  0  0  0  0  0  0  0  0  0  0  0  0
    8.0458    9.2722   24.7599 He  0  0  0  0  0  0  0  0  0  0  0  0
    9.7193    6.5149   20.8609 He  0  0  0  0  0  0  0  0  0  0  0  0
   10.2111    5.7581   25.0870 He  0  0  0  0  0  0  0  0  0  0  0  0
    6.7429    5.1445   23.9751 He  0  0  0  0  0  0  0  0  0  0  0  0
    8.3817    4.6558   23.3965 He  0  0  0  0  0  0  0  0  0  0  0  0
   12.3675    8.2576   18.5017 He  0  0  0  0  0  0  0  0  0  0  0  0
    6.6480    4.1460   23.0212 He  0  0  0  0  0  0  0  0  0  0  0  0
   11.7802    7.2195   17.8720 He  0  0  0  0  0  0  0  0  0  0  0  0
  1  2  1  0
  1  3  2  0
  1  7  1  0
  1  9  4  0
  1 11  3  0
  1 13  3  0
  1 18  2  0
  2  4  1  0
  2  6  2  0
  2  8  3  0
  2 10  3  0
  2 17  4  0
  3 11  1  0
  3 12  3  0
  3 14  4  0
  3 19  2  0
  4  5  1  0
  4 16  3  0
  4 17  1  0
  4 18  4  0
  5  6  4  0
  5 13  3  0
  5 14  2  0
  5 15  1  0
  5 18  2  0
  5 20  4  0
  6 10  2  0
  6 11  2  0
  6 13  1  0
  6 17  4  0
  6 20  3  0
  7  8  1  0
  7  9  2  0
  7 12  4  0
  7 15  4  0
  7 17  4  0
  7 19  4  0
  8  9  1  0
  8 10  1  0
  8 12  2  0
  8 13  2  0
  8 17  1  0
  8 19  3  0
  9 11  3  0
  9 12  3  0
  9 13  4  0
  9 14  4  0
  9 15  2  0
 10 13  4  0
 10 17  1  0
 10 18  3  0
 10 20  4  0
 11 12  4  0
 11 13  3  0
 11 14  3  0
 11 15  1  0
 11 16  4  0
 11 17  2  0
 11 20  1  0
 12 17  4  0
 13 14  3  0
 13 18  3  0
 13 20  1  0
 14 15  1  0
 14 16  4  0
 14 17  2  0
 14 19  3  0
 15 17  2  0
 15 19  1  0
 16 18  1  0
 16 19  2  0
 17 18  4  0
 18 20  2  0
 19 20  4  0
M  END
$$$$

 Created by Python create_sdf_string function

 29  5  0  0  0  0  0  0  0  0999 V2000
    7.8086    7.3058   24.6071 C   0  0  0  0  0  0  0  0  0  0  0  0
    6.8009    3.4744   21.2954 C   0  0  0  0  0  0  0  0  0  0  0  0
    6.8804    4.8629   21.1913 C   0  0  0  0  0  0  0  0  0  0  0  0
    8.3859    8.9007   24.0837 C   0  0  0  0  0  0  0  0  0  0  0  0
    9.1085   10.1870   22.2981 C   0  0  0  0  0  0  0  0  0  0  0  0
    8.4479    7.2056   22.2232 C   0  0  0  0  0  0  0  0  0  0  0  0
   10.1599    6.6868   24.5996 C   0  0  0  0  0  0  0  0  0  0  0  0
   11.0211    6.6246   24.2979 C   0  0  0  0  0  0  0  0  0  0  0  0
    9.5146    8.9523   19.8622 C   0  0  0  0  0  0  0  0  0  0  0  0
   11.5488    7.2274   18.9575 C   0  0  0  0  0  0  0  0  0  0  0  0
    9.8225    6.8168   20.4295 C   0  0  0  0  0  0  0  0  0  0  0  0
   10.2454    5.9338   24.7655 C   0  0  0  0  0  0  0  0  0  0  0  0
    7.1170    5.2398   23.6613 C   0  0  0  0  0  0  0  0  0  0  0  0
   10.4121    6.7024   20.4275 C   0  0  0  0  0  0  0  0  0  0  0  0
    5.6442    3.3006   22.6788 C   0  0  0  0  0  0  0  0  0  0  0  0
    7.9472    5.0363   23.3309 C   0  0  0  0  0  0  0  0  0  0  0  0
   11.8782    8.1736   18.8645 C   0  0  0  0  0  0  0  0  0  0  0  0
   11.4760    6.8721   23.7171 C   0  0  0  0  0  0  0  0  0  0  0  0
    7.4317    6.1207   21.9234 C   0  0  0  0  0  0  0  0  0  0  0  0
    9.8645   10.1852   21.0850 C   0  0  0  0  0  0  0  0  0  0  0  0
    9.3962    5.0060   23.9366 C   0  0  0  0  0  0  0  0  0  0  0  0
    6.4833    3.8619   22.6782 C   0  0  0  0  0  0  0  0  0  0  0  0
    8.6243    9.4257   23.4525 C   0  0  0  0  0  0  0  0  0  0  0  0
    8.1749    5.9087   20.8622 C   0  0  0  0  0  0  0  0  0  0  0  0
    9.6359    9.7169   21.1861 C   0  0  0  0  0  0  0  0  0  0  0  0
   11.6500    7.1526   18.4675 C   0  0  0  0  0  0  0  0  0  0  0  0
    8.0843    9.3200   20.3765 C   0  0  0  0  0  0  0  0  0  0  0  0
   10.3518    9.1838   19.9120 C   0  0  0  0  0  0  0  0  0  0  0  0
   12.0885    5.9084   24.2735 C   0  0  0  0  0  0  0  0  0  0  0  0
  9 28  4  0
 10 26  4  0
 11 14  4  0
 15 22  1  0
 18 29  1  0
M  END
$$$$

 Created by Python create_sdf_string function

 29 57  0  0  0  0  0  0  0  0999 V2000
    7.8991    9.0965   24.4566 C   0  0  0  0  0  0  0  0  0  0  0  0
    5.2247    3.5691   20.4364 F   0  0  0  0  0  0  0  0  0  0  0  0
    6.5082    4.1621   20.7810 B   0  0  0  0  0  0  0  0  0  0  0  0
    9.1076    8.1712   24.9126 C   0  0  0  0  0  0  0  0  0  0  0  0
    9.6185    9.2726   22.2400 P   0  0  0  0  0  0  0  0  0  0  0  0
    9.0898    5.9664   22.1684 O   0  0  0  0  0  0  0  0  0  0  0  0
    8.9776    6.9658   19.9953 Cl  0  0  0  0  0  0  0  0  0  0  0  0
    8.5376    5.7062   23.2949 C   0  0  0  0  0  0  0  0  0  0  0  0
   10.4585    5.6039   20.6746 C   0  0  0  0  0  0  0  0  0  0  0  0
   11.1451    8.1227   18.0822 F   0  0  0  0  0  0  0  0  0  0  0  0
   11.5131    8.2460   23.9924 O   0  0  0  0  0  0  0  0  0  0  0  0
    9.7475    5.5418   24.3515 F   0  0  0  0  0  0  0  0  0  0  0  0
    8.5170    8.8155   21.6874 S   0  0  0  0  0  0  0  0  0  0  0  0
    6.9320    4.0360   21.6402 C   0  0  0  0  0  0  0  0  0  0  0  0
    9.2895    9.4459   20.5809 C   0  0  0  0  0  0  0  0  0  0  0  0
    8.4632    9.4131   20.8549 C   0  0  0  0  0  0  0  0  0  0  0  0
   11.8203    5.4236   24.2502 C   0  0  0  0  0  0  0  0  0  0  0  0
   10.5027    6.1261   24.0654 He  0  0  0  0  0  0  0  0  0  0  0  0
   11.2507    8.2187   23.3677 He  0  0  0  0  0  0  0  0  0  0  0  0
   10.0376    9.8412   20.1735 He  0  0  0  0  0  0  0  0  0  0  0  0
   10.9038    6.9366   16.7559 He  0  0  0  0  0  0  0  0  0  0  0  0
    6.8025    6.0313   23.1416 He  0  0  0  0  0  0  0  0  0  0  0  0
    5.6941    4.1150   23.5139 He  0  0  0  0  0  0  0  0  0  0  0  0
    7.5440    5.5022   24.0795 He  0  0  0  0  0  0  0  0  0  0  0  0
    8.0501    6.4854   20.8748 He  0  0  0  0  0  0  0  0  0  0  0  0
    9.2451   10.1693   22.6060 He  0  0  0  0  0  0  0  0  0  0  0  0
    5.9972    2.9952   22.6732 He  0  0  0  0  0  0  0  0  0  0  0  0
   12.4764    7.2637   17.5781 He  0  0  0  0  0  0  0  0  0  0  0  0
   11.7097    9.2723   20.5515 He  0  0  0  0  0  0  0  0  0  0  0  0
  1  4  4  0
  1 10  3  0
  1 16  3  0
  1 17  1  0
  2  6  3  0
  2  8  4  0
  2  9  1  0
  2 10  3  0
  2 14  4  0
  2 15  1  0
  3  4  1  0
  3  5  1  0
  3  9  1  0
  3 14  3  0
  3 15  3  0
  3 17  1  0
  4  6  4  0
  4  7  2  0
  4  8  3  0
  4 11  1  0
  4 13  1  0
  4 14  2  0
  5  8  1  0
  5  9  3  0
  5 10  1  0
  5 13  4  0
  5 14  3  0
  5 15  2  0
  6 12  3  0
  6 14  3  0
  6 15  3  0
  6 17  2  0
  7  8  3  0
  7  9  4  0
  7 16  3  0
  8  9  3  0
  8 11  2  0
  8 12  1  0
  8 13  2  0
  8 15  1  0
  8 16  4  0
  9 10  3  0
  9 11  4  0
  9 12  2  0
  9 15  4  0
 10 11  1  0
 10 12  4  0
 10 16  3  0
 11 13  2  0
 11 15  3  0
 12 15  4  0
 13 14  3  0
 13 15  3  0
 13 17  2  0
 14 15  1  0
 14 17  2  0
 15 16  4  0
M  END
$$$$

 Created by Python create_sdf_string function

 29  8  0  0  0  0  0  0  0  0999 V2000
    8.4873    8.9241   24.1535 C   0  0  0  0  0  0  0  0  0  0  0  0
    5.8743    3.4448   21.0020 C   0  0  0  0  0  0  0  0  0  0  0  0
    6.7236    4.0592   21.0851 C   0  0  0  0  0  0  0  0  0  0  0  0
    9.3662    8.0725   24.3551 C   0  0  0  0  0  0  0  0  0  0  0  0
    9.6004    9.3891   22.3855 C   0  0  0  0  0  0  0  0  0  0  0  0
    9.1381    5.7943   22.5297 C   0  0  0  0  0  0  0  0  0  0  0  0
   10.7079    6.3167   24.1294 C   0  0  0  0  0  0  0  0  0  0  0  0
   10.9840    7.9948   23.7105 C   0  0  0  0  0  0  0  0  0  0  0  0
   10.2299    9.5034   20.1724 C   0  0  0  0  0  0  0  0  0  0  0  0
   11.2162    6.9221   17.5649 C   0  0  0  0  0  0  0  0  0  0  0  0
    9.6010    6.9511   19.7532 C   0  0  0  0  0  0  0  0  0  0  0  0
    8.6497    5.7601   23.1317 C   0  0  0  0  0  0  0  0  0  0  0  0
    6.7899    5.3760   23.1327 C   0  0  0  0  0  0  0  0  0  0  0  0
   10.0335    6.4395   20.0578 C   0  0  0  0  0  0  0  0  0  0  0  0
    6.0264    4.2526   23.2738 C   0  0  0  0  0  0  0  0  0  0  0  0
    7.6468    5.5840   23.8042 C   0  0  0  0  0  0  0  0  0  0  0  0
   11.1451    8.0138   18.5471 C   0  0  0  0  0  0  0  0  0  0  0  0
   11.3444    8.0996   24.0386 O   0  0  0  0  0  0  0  0  0  0  0  0
    8.2775    6.0212   20.8521 C   0  0  0  0  0  0  0  0  0  0  0  0
    9.1642   10.0733   22.7752 C   0  0  0  0  0  0  0  0  0  0  0  0
    9.6128    5.7797   24.1516 C   0  0  0  0  0  0  0  0  0  0  0  0
    5.9155    3.3694   22.5120 C   0  0  0  0  0  0  0  0  0  0  0  0
    8.6628    9.1333   21.8972 C   0  0  0  0  0  0  0  0  0  0  0  0
    6.8861    4.0508   21.4758 C   0  0  0  0  0  0  0  0  0  0  0  0
    9.4774    9.2892   20.4956 C   0  0  0  0  0  0  0  0  0  0  0  0
   11.6040    7.2784   17.9740 C   0  0  0  0  0  0  0  0  0  0  0  0
    8.7506    9.3863   20.9712 C   0  0  0  0  0  0  0  0  0  0  0  0
   11.2542    8.9138   20.0035 C   0  0  0  0  0  0  0  0  0  0  0  0
   11.4711    5.7951   24.1706 C   0  0  0  0  0  0  0  0  0  0  0  0
  3 24  4  0
  7 29  1  0
  8 18  1  0
 10 26  1  0
 11 14  4  0
 13 15  1  0
 17 26  1  0
 25 27  4  0
M  END
$$$$

 Created by Python create_sdf_string function

 29 12  0  0  0  0  0  0  0  0999 V2000
    8.0187    8.2877   23.5014 O   0  0  0  0  0  0  0  0  0  0  0  0
   10.0060   10.3550   23.8603 O   0  0  0  0  0  0  0  0  0  0  0  0
   10.6728    9.9268   20.0256 O   0  0  0  0  0  0  0  0  0  0  0  0
    9.5518    4.4659   21.1731 C   0  0  0  0  0  0  0  0  0  0  0  0
   11.5473    8.1086   17.5761 C   0  0  0  0  0  0  0  0  0  0  0  0
   10.3530    7.3732   24.7238 O   0  0  0  0  0  0  0  0  0  0  0  0
    8.7755   10.8406   23.0360 I   0  0  0  0  0  0  0  0  0  0  0  0
    7.8760    5.2982   21.1523 C   0  0  0  0  0  0  0  0  0  0  0  0
    9.8231    9.7412   20.7174 C   0  0  0  0  0  0  0  0  0  0  0  0
    7.2418    2.0357   20.5003 He  0  0  0  0  0  0  0  0  0  0  0  0
    6.6674    4.5596   21.1165 He  0  0  0  0  0  0  0  0  0  0  0  0
   10.6500    7.2348   24.0051 He  0  0  0  0  0  0  0  0  0  0  0  0
    9.9844   10.6607   21.6398 He  0  0  0  0  0  0  0  0  0  0  0  0
    8.8663    6.4344   22.2004 He  0  0  0  0  0  0  0  0  0  0  0  0
   10.6908    5.7647   23.1784 He  0  0  0  0  0  0  0  0  0  0  0  0
   11.6114    7.4044   18.3753 He  0  0  0  0  0  0  0  0  0  0  0  0
   11.4640    6.7050   19.4708 He  0  0  0  0  0  0  0  0  0  0  0  0
    6.4482    6.1015   23.3696 He  0  0  0  0  0  0  0  0  0  0  0  0
    9.0671    5.1414   19.1291 He  0  0  0  0  0  0  0  0  0  0  0  0
    7.2714    4.5146   23.3231 He  0  0  0  0  0  0  0  0  0  0  0  0
    7.5305    6.9412   25.3048 He  0  0  0  0  0  0  0  0  0  0  0  0
    8.4997    4.6389   21.3468 He  0  0  0  0  0  0  0  0  0  0  0  0
    9.1179   10.0404   23.1259 He  0  0  0  0  0  0  0  0  0  0  0  0
    9.3336    7.1853   24.4609 He  0  0  0  0  0  0  0  0  0  0  0  0
    5.5852    3.4526   21.4729 He  0  0  0  0  0  0  0  0  0  0  0  0
    9.3604    8.5018   21.2710 He  0  0  0  0  0  0  0  0  0  0  0  0
   11.6557    6.2462   19.8036 He  0  0  0  0  0  0  0  0  0  0  0  0
    8.1854    9.0746   21.1258 He  0  0  0  0  0  0  0  0  0  0  0  0
   11.1784    6.2386   24.3880 He  0  0  0  0  0  0  0  0  0  0  0  0
  1  3  3  0
  1  9  4  0
  2  3  2  0
  2  9  3  0
  3  4  2  0
  3  7  1  0
  4  5  4  0
  4  8  4  0
  5  6  1  0
  5  8  4  0
  7  9  1  0
  8  9  2  0
M  END
$$$$

 Created by Python create_sdf_string function

 29  3  0  0  0  0  0  0  0  0999 V2000
    8.2408    8.4650   23.4983 O   0  0  0  0  0  0  0  0  0  0  0  0
    7.1815    2.6987   20.4620 O   0  0  0  0  0  0  0  0  0  0  0  0
    6.6773    3.8090   21.4362 C   0  0  0  0  0  0  0  0  0  0  0  0
   10.5642    7.2238   24.0341 C   0  0  0  0  0  0  0  0  0  0  0  0
    9.8445   10.2451   21.5068 C   0  0  0  0  0  0  0  0  0  0  0  0
    8.8348    6.0811   22.6674 C   0  0  0  0  0  0  0  0  0  0  0  0
   10.7719    5.9298   23.3870 C   0  0  0  0  0  0  0  0  0  0  0  0
    9.8177   10.2861   23.6113 O   0  0  0  0  0  0  0  0  0  0  0  0
   10.6134    9.5568   19.8984 C   0  0  0  0  0  0  0  0  0  0  0  0
   11.4128    7.4340   18.6472 C   0  0  0  0  0  0  0  0  0  0  0  0
   11.0014    6.6859   19.3521 C   0  0  0  0  0  0  0  0  0  0  0  0
    9.1935    4.7883   21.1700 C   0  0  0  0  0  0  0  0  0  0  0  0
    6.8783    5.8493   23.2528 C   0  0  0  0  0  0  0  0  0  0  0  0
    9.8251    5.3441   19.6872 C   0  0  0  0  0  0  0  0  0  0  0  0
    7.0227    4.8780   22.8253 C   0  0  0  0  0  0  0  0  0  0  0  0
    7.6120    6.9435   24.7932 C   0  0  0  0  0  0  0  0  0  0  0  0
   11.4533    7.9964   18.4049 C   0  0  0  0  0  0  0  0  0  0  0  0
   10.3890    7.2569   24.6424 C   0  0  0  0  0  0  0  0  0  0  0  0
    8.5190    4.6555   21.1046 C   0  0  0  0  0  0  0  0  0  0  0  0
    9.0702    9.7295   23.0453 C   0  0  0  0  0  0  0  0  0  0  0  0
    9.2209    7.2147   24.1944 C   0  0  0  0  0  0  0  0  0  0  0  0
    6.1693    3.3683   21.5643 C   0  0  0  0  0  0  0  0  0  0  0  0
    8.7196   10.7962   22.9188 O   0  0  0  0  0  0  0  0  0  0  0  0
    7.9681    4.8014   21.3904 C   0  0  0  0  0  0  0  0  0  0  0  0
    9.6375    8.5393   20.9195 C   0  0  0  0  0  0  0  0  0  0  0  0
   11.3534    6.3697   19.4899 C   0  0  0  0  0  0  0  0  0  0  0  0
    8.8065    9.2396   21.3560 C   0  0  0  0  0  0  0  0  0  0  0  0
   10.0305    9.3587   20.3942 C   0  0  0  0  0  0  0  0  0  0  0  0
   11.1628    6.2222   24.3287 C   0  0  0  0  0  0  0  0  0  0  0  0
  3 22  1  0
 10 17  1  0
 11 26  4  0
M  END
$$$$

 Created by Python create_sdf_string function

 29 44  0  0  0  0  0  0  0  0999 V2000
    6.5862    2.7257   20.1502 O   0  0  0  0  0  0  0  0  0  0  0  0
    6.9134    1.9080   20.4973 C   0  0  0  0  0  0  0  0  0  0  0  0
    9.7931    4.4100   23.9053 O   0  0  0  0  0  0  0  0  0  0  0  0
   10.9003    6.6498   22.0090 F   0  0  0  0  0  0  0  0  0  0  0  0
    9.6205   10.1430   23.8021 C   0  0  0  0  0  0  0  0  0  0  0  0
   10.4695    9.9194   20.8312 B   0  0  0  0  0  0  0  0  0  0  0  0
   10.2486    6.5692   20.4757 C   0  0  0  0  0  0  0  0  0  0  0  0
    7.1216    6.0306   22.8986 N   0  0  0  0  0  0  0  0  0  0  0  0
    8.3889    5.0277   20.2123 C   0  0  0  0  0  0  0  0  0  0  0  0
   12.1573    8.6867   17.2894 S   0  0  0  0  0  0  0  0  0  0  0  0
    8.0043   10.0241   24.4939 C   0  0  0  0  0  0  0  0  0  0  0  0
    9.0721    9.1999   22.9240 C   0  0  0  0  0  0  0  0  0  0  0  0
    5.7067    2.7618   22.0283 Cl  0  0  0  0  0  0  0  0  0  0  0  0
    5.9505    7.8901   21.4710 F   0  0  0  0  0  0  0  0  0  0  0  0
   12.4739    5.5330   20.2127 C   0  0  0  0  0  0  0  0  0  0  0  0
    8.7272    6.8916   21.1269 B   0  0  0  0  0  0  0  0  0  0  0  0
    8.5022    8.5133   23.3443 He  0  0  0  0  0  0  0  0  0  0  0  0
    9.9394    8.5552   24.2015 He  0  0  0  0  0  0  0  0  0  0  0  0
    9.9313    9.6947   21.4705 He  0  0  0  0  0  0  0  0  0  0  0  0
   11.9011    6.3713   19.8383 He  0  0  0  0  0  0  0  0  0  0  0  0
   10.3896    3.6590   22.0293 He  0  0  0  0  0  0  0  0  0  0  0  0
    6.0902    6.0597   22.5491 He  0  0  0  0  0  0  0  0  0  0  0  0
    8.0996    6.1357   24.8556 He  0  0  0  0  0  0  0  0  0  0  0  0
   10.7032    7.2582   25.0640 He  0  0  0  0  0  0  0  0  0  0  0  0
    8.1239    6.4617   22.7592 He  0  0  0  0  0  0  0  0  0  0  0  0
    9.2150   10.8611   23.2496 He  0  0  0  0  0  0  0  0  0  0  0  0
   10.4245    7.5731   21.0326 He  0  0  0  0  0  0  0  0  0  0  0  0
    9.5717    8.8437   21.1040 He  0  0  0  0  0  0  0  0  0  0  0  0
   12.2330    6.3043   23.6658 He  0  0  0  0  0  0  0  0  0  0  0  0
  1  3  3  0
  1  4  3  0
  1  7  2  0
  1 14  2  0
  2  4  4  0
  2  5  2  0
  2  8  3  0
  2  9  1  0
  2 10  4  0
  2 12  1  0
  2 13  4  0
  2 16  4  0
  3  5  3  0
  3  8  2  0
  3  9  3  0
  3 11  4  0
  3 15  4  0
  4  5  3  0
  4  7  1  0
  4 15  1  0
  5  6  2  0
  5 12  1  0
  5 13  4  0
  5 14  1  0
  6  7  1  0
  6  8  2  0
  6 11  3  0
  7  9  4  0
  7 10  1  0
  7 11  3  0
  7 15  4  0
  7 16  2  0
  8 10  1  0
  8 11  4  0
  8 15  2  0
  8 16  4  0
  9 11  3  0
  9 12  1  0
 10 12  3  0
 10 13  1  0
 10 15  4  0
 11 12  4  0
 11 13  4  0
 11 15  2  0
M  END
$$$$

 Created by Python create_sdf_string function

 29  5  0  0  0  0  0  0  0  0999 V2000
    8.5006    8.3182   23.6243 C   0  0  0  0  0  0  0  0  0  0  0  0
    6.9538    2.8509   20.3352 O   0  0  0  0  0  0  0  0  0  0  0  0
    7.1682    3.1670   21.0080 C   0  0  0  0  0  0  0  0  0  0  0  0
    9.7254    8.3299   24.2802 C   0  0  0  0  0  0  0  0  0  0  0  0
    9.9357    9.7110   21.4124 C   0  0  0  0  0  0  0  0  0  0  0  0
    9.6297    4.8764   23.6904 O   0  0  0  0  0  0  0  0  0  0  0  0
   11.0294    6.2992   21.8467 C   0  0  0  0  0  0  0  0  0  0  0  0
    9.4035   10.1302   23.6224 C   0  0  0  0  0  0  0  0  0  0  0  0
   10.3003    9.6497   20.7272 C   0  0  0  0  0  0  0  0  0  0  0  0
   11.7930    6.6088   19.7000 C   0  0  0  0  0  0  0  0  0  0  0  0
   10.6720    6.4391   20.5193 C   0  0  0  0  0  0  0  0  0  0  0  0
    9.9035    4.0887   21.9169 C   0  0  0  0  0  0  0  0  0  0  0  0
    7.3128    5.8221   22.6372 C   0  0  0  0  0  0  0  0  0  0  0  0
    7.9132    4.4618   20.9668 C   0  0  0  0  0  0  0  0  0  0  0  0
    6.5081    5.7091   22.3133 C   0  0  0  0  0  0  0  0  0  0  0  0
    8.3519    6.2631   24.4204 C   0  0  0  0  0  0  0  0  0  0  0  0
   11.8418    7.8665   18.5786 O   0  0  0  0  0  0  0  0  0  0  0  0
   10.4216    7.1302   24.6665 C   0  0  0  0  0  0  0  0  0  0  0  0
    7.9100    6.2213   23.0354 C   0  0  0  0  0  0  0  0  0  0  0  0
    8.3323    9.7325   24.3594 C   0  0  0  0  0  0  0  0  0  0  0  0
    9.1342    9.3386   23.1533 C   0  0  0  0  0  0  0  0  0  0  0  0
    6.4211    3.1126   21.7632 O   0  0  0  0  0  0  0  0  0  0  0  0
    9.3906   10.9805   23.1503 O   0  0  0  0  0  0  0  0  0  0  0  0
    6.4770    7.3753   22.0402 C   0  0  0  0  0  0  0  0  0  0  0  0
   10.5291    7.6371   20.7388 C   0  0  0  0  0  0  0  0  0  0  0  0
   11.9775    6.0056   20.1806 C   0  0  0  0  0  0  0  0  0  0  0  0
    8.4961    6.5232   21.2239 C   0  0  0  0  0  0  0  0  0  0  0  0
    9.8248    8.8827   21.0770 C   0  0  0  0  0  0  0  0  0  0  0  0
   11.5627    6.2466   23.5726 C   0  0  0  0  0  0  0  0  0  0  0  0
  2  3  1  0
  3 14  1  0
  3 22  1  0
  8 21  1  0
  8 23  1  0
M  END
$$$$

 Created by Python create_sdf_string function

 29 46  0  0  0  0  0  0  0  0999 V2000
    6.5336    9.0417   22.9786 P   0  0  0  0  0  0  0  0  0  0  0  0
    8.0817    2.9169   19.7259 N   0  0  0  0  0  0  0  0  0  0  0  0
    9.8676    8.5239   24.1215 O   0  0  0  0  0  0  0  0  0  0  0  0
    9.4725    3.4811   24.3122 F   0  0  0  0  0  0  0  0  0  0  0  0
   10.4493    6.4410   21.7195 P   0  0  0  0  0  0  0  0  0  0  0  0
    9.4140   10.5922   24.4779 O   0  0  0  0  0  0  0  0  0  0  0  0
   10.1454    9.6947   20.9677 F   0  0  0  0  0  0  0  0  0  0  0  0
    8.3800    3.9803   23.5692 O   0  0  0  0  0  0  0  0  0  0  0  0
    9.8614    6.8603   23.9505 F   0  0  0  0  0  0  0  0  0  0  0  0
    7.1394    7.3191   22.0144 C   0  0  0  0  0  0  0  0  0  0  0  0
    8.4618   10.6699   23.8089 C   0  0  0  0  0  0  0  0  0  0  0  0
   11.1665    7.5470   21.8455 C   0  0  0  0  0  0  0  0  0  0  0  0
   10.3106    6.5768   20.6276 C   0  0  0  0  0  0  0  0  0  0  0  0
    9.8726    9.7266   20.0935 P   0  0  0  0  0  0  0  0  0  0  0  0
   11.6465    5.1981   22.3411 C   0  0  0  0  0  0  0  0  0  0  0  0
    6.7063    2.8417   21.6443 He  0  0  0  0  0  0  0  0  0  0  0  0
    8.7067    9.7906   21.9463 He  0  0  0  0  0  0  0  0  0  0  0  0
   12.4787    5.8468   21.2670 He  0  0  0  0  0  0  0  0  0  0  0  0
    9.9594    6.5454   20.2632 He  0  0  0  0  0  0  0  0  0  0  0  0
   10.9071    4.5650   21.6179 He  0  0  0  0  0  0  0  0  0  0  0  0
    7.7197    4.8486   20.8451 He  0  0  0  0  0  0  0  0  0  0  0  0
    6.8800    7.7533   21.4526 He  0  0  0  0  0  0  0  0  0  0  0  0
    9.0805    7.1157   25.0550 He  0  0  0  0  0  0  0  0  0  0  0  0
   12.4872    6.6687   19.0993 He  0  0  0  0  0  0  0  0  0  0  0  0
    9.2763    9.6853   22.0172 He  0  0  0  0  0  0  0  0  0  0  0  0
    6.5226    2.6029   20.6281 He  0  0  0  0  0  0  0  0  0  0  0  0
    9.0310   11.3460   24.0950 He  0  0  0  0  0  0  0  0  0  0  0  0
    6.3643    8.4023   21.3526 He  0  0  0  0  0  0  0  0  0  0  0  0
    8.2070    7.6114   20.0518 He  0  0  0  0  0  0  0  0  0  0  0  0
  1  4  3  0
  1  5  4  0
  1  6  1  0
  1  7  1  0
  1  9  1  0
  1 10  1  0
  2  3  1  0
  2  7  3  0
  2  9  3  0
  2 10  4  0
  2 14  2  0
  2 15  3  0
  3  5  2  0
  3  7  2  0
  3 10  4  0
  3 11  2  0
  3 14  1  0
  3 15  1  0
  4  5  4  0
  4  7  3  0
  4 13  3  0
  4 14  4  0
  5  7  1  0
  5 11  2  0
  5 12  1  0
  5 13  4  0
  5 15  3  0
  6  7  4  0
  6  8  2  0
  6 10  4  0
  6 13  4  0
  6 14  4  0
  6 15  1  0
  7  8  1  0
  7 10  2  0
  8 10  4  0
  8 11  1  0
  8 15  2  0
  9 14  2  0
  9 15  2  0
 10 12  3  0
 10 13  3  0
 10 15  4  0
 13 14  2  0
 13 15  1  0
 14 15  1  0
M  END
$$$$

 Created by Python create_sdf_string function

 29  5  0  0  0  0  0  0  0  0999 V2000
    6.8671    8.8467   22.6908 C   0  0  0  0  0  0  0  0  0  0  0  0
    7.9519    3.1401   20.3108 C   0  0  0  0  0  0  0  0  0  0  0  0
    7.1894    3.0422   21.8333 C   0  0  0  0  0  0  0  0  0  0  0  0
    9.6653    8.7232   24.0030 O   0  0  0  0  0  0  0  0  0  0  0  0
    8.5535    9.7863   22.1509 C   0  0  0  0  0  0  0  0  0  0  0  0
    9.2121    4.2267   23.7826 C   0  0  0  0  0  0  0  0  0  0  0  0
   10.5801    6.5514   21.8718 C   0  0  0  0  0  0  0  0  0  0  0  0
    9.3716   10.6398   24.2709 O   0  0  0  0  0  0  0  0  0  0  0  0
    9.9297    9.6664   21.2570 C   0  0  0  0  0  0  0  0  0  0  0  0
   12.1049    5.8617   20.9254 C   0  0  0  0  0  0  0  0  0  0  0  0
   10.1978    6.5511   20.2824 C   0  0  0  0  0  0  0  0  0  0  0  0
   10.8606    4.9293   21.8111 C   0  0  0  0  0  0  0  0  0  0  0  0
    8.0286    3.8195   22.6200 C   0  0  0  0  0  0  0  0  0  0  0  0
    7.7744    4.1500   21.1127 C   0  0  0  0  0  0  0  0  0  0  0  0
    6.7429    7.6616   21.5365 C   0  0  0  0  0  0  0  0  0  0  0  0
    9.3640    6.8688   24.5444 C   0  0  0  0  0  0  0  0  0  0  0  0
   12.1951    6.4734   19.5909 C   0  0  0  0  0  0  0  0  0  0  0  0
    9.6930    6.4755   23.9626 C   0  0  0  0  0  0  0  0  0  0  0  0
    7.1626    7.2428   21.8763 C   0  0  0  0  0  0  0  0  0  0  0  0
    8.5294   10.5699   23.6080 C   0  0  0  0  0  0  0  0  0  0  0  0
    9.4217    9.7382   22.0921 C   0  0  0  0  0  0  0  0  0  0  0  0
    6.9112    3.0454   20.7376 C   0  0  0  0  0  0  0  0  0  0  0  0
    9.1560   10.9619   23.9568 C   0  0  0  0  0  0  0  0  0  0  0  0
    6.6291    8.3453   21.4435 C   0  0  0  0  0  0  0  0  0  0  0  0
   10.9831    7.4855   21.8702 C   0  0  0  0  0  0  0  0  0  0  0  0
   10.5812    6.4787   20.8434 C   0  0  0  0  0  0  0  0  0  0  0  0
    7.7450    7.6735   20.5810 C   0  0  0  0  0  0  0  0  0  0  0  0
    9.8743    9.7555   20.6222 C   0  0  0  0  0  0  0  0  0  0  0  0
   11.1976    5.2991   22.4184 C   0  0  0  0  0  0  0  0  0  0  0  0
  3 13  1  0
  7 25  1  0
  8 23  1  0
 11 26  4  0
 16 18  1  0
M  END
$$$$

 Created by Python create_sdf_string function

 29 72  0  0  0  0  0  0  0  0999 V2000
    7.5104    2.9140   20.7854 N   0  0  0  0  0  0  0  0  0  0  0  0
    6.0995    2.4856   22.7188 F   0  0  0  0  0  0  0  0  0  0  0  0
    8.6100    8.7454   24.3789 O   0  0  0  0  0  0  0  0  0  0  0  0
    8.7898    4.8142   22.5350 F   0  0  0  0  0  0  0  0  0  0  0  0
   10.0435    5.9233   20.9324 C   0  0  0  0  0  0  0  0  0  0  0  0
    9.0448   10.6247   22.5709 O   0  0  0  0  0  0  0  0  0  0  0  0
   11.5458    9.5930   20.4756 C   0  0  0  0  0  0  0  0  0  0  0  0
   13.5929    5.5434   21.7788 C   0  0  0  0  0  0  0  0  0  0  0  0
    9.7429    7.6828   20.0500 C   0  0  0  0  0  0  0  0  0  0  0  0
   10.8674    5.0097   23.0023 C   0  0  0  0  0  0  0  0  0  0  0  0
    8.6863    2.9799   22.0796 C   0  0  0  0  0  0  0  0  0  0  0  0
    8.8067    5.2422   20.6402 C   0  0  0  0  0  0  0  0  0  0  0  0
    6.2882    6.1284   22.3335 C   0  0  0  0  0  0  0  0  0  0  0  0
    8.2352    6.3552   24.1091 C   0  0  0  0  0  0  0  0  0  0  0  0
    9.3315    7.5936   23.7164 P   0  0  0  0  0  0  0  0  0  0  0  0
   10.6743   10.9047   24.5832 S   0  0  0  0  0  0  0  0  0  0  0  0
   10.1769   10.9160   23.7369 N   0  0  0  0  0  0  0  0  0  0  0  0
    7.2110    1.7124   21.9155 P   0  0  0  0  0  0  0  0  0  0  0  0
   10.0905    7.9630   21.0525 P   0  0  0  0  0  0  0  0  0  0  0  0
    8.8618    8.8339   19.1432 C   0  0  0  0  0  0  0  0  0  0  0  0
    7.4671    9.0522   21.7540 He  0  0  0  0  0  0  0  0  0  0  0  0
    8.8349    9.3909   22.9196 He  0  0  0  0  0  0  0  0  0  0  0  0
   11.5815    5.5704   19.4966 He  0  0  0  0  0  0  0  0  0  0  0  0
    7.6251    6.0908   22.6570 He  0  0  0  0  0  0  0  0  0  0  0  0
    9.2131   12.6907   23.2179 He  0  0  0  0  0  0  0  0  0  0  0  0
    5.4813    9.0840   21.7891 He  0  0  0  0  0  0  0  0  0  0  0  0
   10.4051    7.8939   22.8587 He  0  0  0  0  0  0  0  0  0  0  0  0
    9.0255    6.2907   21.5333 He  0  0  0  0  0  0  0  0  0  0  0  0
   12.3237    6.0833   22.7299 He  0  0  0  0  0  0  0  0  0  0  0  0
  1  4  4  0
  1  5  4  0
  1  7  4  0
  1  9  2  0
  1 10  4  0
  1 12  1  0
  1 19  1  0
  2  4  2  0
  2 11  1  0
  2 17  4  0
  3  4  3  0
  3  6  2  0
  3  9  1  0
  3 10  2  0
  3 13  1  0
  3 18  3  0
  4  5  1  0
  4  7  4  0
  4  8  3  0
  4  9  1  0
  4 10  2  0
  4 11  4  0
  4 13  4  0
  4 14  3  0
  4 15  3  0
  4 20  1  0
  5  6  3  0
  5  8  3  0
  5 12  3  0
  6  8  2  0
  6 10  3  0
  6 11  2  0
  6 12  1  0
  6 14  2  0
  6 15  3  0
  6 17  1  0
  7  8  2  0
  7 11  3  0
  7 14  4  0
  8 12  3  0
  8 13  2  0
  8 14  1  0
  8 20  3  0
  9 12  3  0
  9 13  1  0
  9 15  2  0
  9 18  4  0
 10 11  1  0
 10 12  2  0
 10 13  1  0
 10 16  2  0
 10 18  1  0
 10 19  3  0
 11 12  1  0
 11 13  1  0
 11 14  1  0
 11 15  2  0
 11 16  1  0
 11 17  1  0
 12 15  3  0
 12 18  2  0
 13 14  3  0
 14 17  3  0
 14 19  4  0
 14 20  4  0
 15 17  1  0
 15 18  2  0
 16 17  3  0
 17 20  2  0
 18 19  1  0
 18 20  4  0
 19 20  1  0
M  END
$$$$

 Created by Python create_sdf_string function

 29  7  0  0  0  0  0  0  0  0999 V2000
    7.7526    9.0835   22.0308 C   0  0  0  0  0  0  0  0  0  0  0  0
    7.6341    2.9706   20.9741 O   0  0  0  0  0  0  0  0  0  0  0  0
    6.5936    2.8535   22.5237 C   0  0  0  0  0  0  0  0  0  0  0  0
    8.6459    8.9603   24.2702 O   0  0  0  0  0  0  0  0  0  0  0  0
    8.7107    9.3839   22.6097 C   0  0  0  0  0  0  0  0  0  0  0  0
    8.3687    4.6706   22.4022 C   0  0  0  0  0  0  0  0  0  0  0  0
   10.4060    5.9087   20.8517 C   0  0  0  0  0  0  0  0  0  0  0  0
    9.2374   10.3804   22.7919 O   0  0  0  0  0  0  0  0  0  0  0  0
   10.8690    9.3646   20.5896 C   0  0  0  0  0  0  0  0  0  0  0  0
   12.6440    5.7665   21.7200 C   0  0  0  0  0  0  0  0  0  0  0  0
    9.9949    7.9162   20.1807 C   0  0  0  0  0  0  0  0  0  0  0  0
   11.1868    5.4042   22.7982 C   0  0  0  0  0  0  0  0  0  0  0  0
    8.1875    3.1964   22.1440 C   0  0  0  0  0  0  0  0  0  0  0  0
    8.9375    4.9121   21.1191 C   0  0  0  0  0  0  0  0  0  0  0  0
    6.7788    6.2726   22.6446 C   0  0  0  0  0  0  0  0  0  0  0  0
    8.1816    6.4631   23.8694 C   0  0  0  0  0  0  0  0  0  0  0  0
   11.5821    5.9820   20.0102 C   0  0  0  0  0  0  0  0  0  0  0  0
    9.1179    7.7445   23.6570 C   0  0  0  0  0  0  0  0  0  0  0  0
    7.5158    5.8741   22.6487 C   0  0  0  0  0  0  0  0  0  0  0  0
   10.4875   10.9305   24.2394 O   0  0  0  0  0  0  0  0  0  0  0  0
    9.8153   11.1226   23.5711 P   0  0  0  0  0  0  0  0  0  0  0  0
    7.3409    2.5323   22.1127 O   0  0  0  0  0  0  0  0  0  0  0  0
    9.4454   12.1769   23.3652 O   0  0  0  0  0  0  0  0  0  0  0  0
    6.4103    8.8666   21.9823 O   0  0  0  0  0  0  0  0  0  0  0  0
   10.2826    8.1283   22.9280 C   0  0  0  0  0  0  0  0  0  0  0  0
    9.8934    8.3172   20.7845 C   0  0  0  0  0  0  0  0  0  0  0  0
    9.0790    6.2674   21.5525 C   0  0  0  0  0  0  0  0  0  0  0  0
    9.1255    8.9110   19.8905 C   0  0  0  0  0  0  0  0  0  0  0  0
   11.9867    6.0239   22.4211 C   0  0  0  0  0  0  0  0  0  0  0  0
  1  5  1  0
  8 21  1  0
 10 29  1  0
 12 29  1  0
 20 21  1  0
 21 23  1  0
 26 28  1  0
M  END
$$$$

 Created by Python create_sdf_string function

 29 61  0  0  0  0  0  0  0  0999 V2000
    9.6802    2.0179   20.5487 N   0  0  0  0  0  0  0  0  0  0  0  0
    8.1602    8.2472   24.2878 F   0  0  0  0  0  0  0  0  0  0  0  0
    8.9692    5.4385   22.3674 C   0  0  0  0  0  0  0  0  0  0  0  0
   10.9315    4.2771   21.1283 N   0  0  0  0  0  0  0  0  0  0  0  0
    9.4182    9.5623   22.8540 C   0  0  0  0  0  0  0  0  0  0  0  0
   13.0141    5.8481   21.1581 O   0  0  0  0  0  0  0  0  0  0  0  0
   12.0797    6.1281   22.8869 C   0  0  0  0  0  0  0  0  0  0  0  0
    7.9626    6.3000   21.6710 B   0  0  0  0  0  0  0  0  0  0  0  0
    7.8202    5.9702   21.3955 P   0  0  0  0  0  0  0  0  0  0  0  0
    9.3849    7.3464   22.3813 C   0  0  0  0  0  0  0  0  0  0  0  0
    7.1015    5.2594   22.9049 Cl  0  0  0  0  0  0  0  0  0  0  0  0
   11.4670   11.2565   25.4586 F   0  0  0  0  0  0  0  0  0  0  0  0
    9.3929   11.6811   23.7503 P   0  0  0  0  0  0  0  0  0  0  0  0
   10.2933   10.8315   21.0501 O   0  0  0  0  0  0  0  0  0  0  0  0
    6.0819    9.8438   21.2957 O   0  0  0  0  0  0  0  0  0  0  0  0
    9.5248    9.9074   22.4447 C   0  0  0  0  0  0  0  0  0  0  0  0
   10.7736    8.9472   21.6124 F   0  0  0  0  0  0  0  0  0  0  0  0
    8.2749    5.5607   21.5212 F   0  0  0  0  0  0  0  0  0  0  0  0
    9.2201   10.1868   18.8236 N   0  0  0  0  0  0  0  0  0  0  0  0
   11.1220    7.3698   21.7785 F   0  0  0  0  0  0  0  0  0  0  0  0
    6.4702    8.9271   21.6662 He  0  0  0  0  0  0  0  0  0  0  0  0
    6.2741    2.5818   22.5750 He  0  0  0  0  0  0  0  0  0  0  0  0
    7.2586    9.0869   23.1983 He  0  0  0  0  0  0  0  0  0  0  0  0
   10.6104    9.1231   19.8738 He  0  0  0  0  0  0  0  0  0  0  0  0
   10.5511    6.4702   20.3230 He  0  0  0  0  0  0  0  0  0  0  0  0
    9.7922    3.9505   22.1850 He  0  0  0  0  0  0  0  0  0  0  0  0
    7.8778    6.6096   24.1003 He  0  0  0  0  0  0  0  0  0  0  0  0
   10.7497    7.2550   20.4344 He  0  0  0  0  0  0  0  0  0  0  0  0
    5.6456    2.9423   21.3602 He  0  0  0  0  0  0  0  0  0  0  0  0
  1  3  4  0
  1  4  4  0
  1 10  1  0
  1 15  2  0
  1 19  2  0
  2  3  4  0
  2  5  4  0
  2  7  1  0
  2  9  4  0
  2 10  4  0
  2 11  1  0
  2 12  3  0
  2 17  2  0
  2 18  4  0
  3  5  3  0
  3  8  1  0
  3 10  3  0
  3 11  3  0
  3 12  4  0
  4  6  4  0
  4  8  2  0
  4  9  3  0
  4 12  3  0
  4 14  4  0
  5  8  3  0
  5  9  1  0
  5 12  1  0
  5 16  1  0
  5 17  2  0
  6  8  2  0
  6  9  3  0
  6 11  1  0
  6 14  2  0
  6 19  1  0
  7 14  4  0
  7 18  3  0
  8 11  4  0
  8 18  4  0
  8 19  2  0
  9 15  1  0
  9 18  3  0
 10 13  2  0
 10 14  1  0
 10 15  2  0
 10 19  3  0
 11 12  3  0
 11 14  1  0
 11 15  3  0
 11 17  1  0
 11 18  2  0
 12 15  4  0
 13 14  4  0
 13 16  2  0
 13 18  4  0
 13 19  2  0
 14 18  3  0
 15 20  1  0
 16 17  1  0
 17 18  1  0
 17 19  1  0
 18 20  4  0
M  END
$$$$

 Created by Python create_sdf_string function

 29  9  0  0  0  0  0  0  0  0999 V2000
    6.9927    8.9408   22.0783 C   0  0  0  0  0  0  0  0  0  0  0  0
    9.2837    2.5803   21.2224 N   0  0  0  0  0  0  0  0  0  0  0  0
    6.9132    3.1000   21.8688 C   0  0  0  0  0  0  0  0  0  0  0  0
    8.0824    8.3440   23.9677 C   0  0  0  0  0  0  0  0  0  0  0  0
    7.3420    9.0696   22.9289 C   0  0  0  0  0  0  0  0  0  0  0  0
    8.7476    4.7174   21.8711 C   0  0  0  0  0  0  0  0  0  0  0  0
   10.7038    4.1478   21.3407 N   0  0  0  0  0  0  0  0  0  0  0  0
    9.5809   10.0158   23.0412 C   0  0  0  0  0  0  0  0  0  0  0  0
   10.6062    9.1241   20.2531 C   0  0  0  0  0  0  0  0  0  0  0  0
   12.5589    5.7785   21.1942 O   0  0  0  0  0  0  0  0  0  0  0  0
   10.6522    6.5012   20.4351 C   0  0  0  0  0  0  0  0  0  0  0  0
   11.8236    6.2314   22.1412 C   0  0  0  0  0  0  0  0  0  0  0  0
    9.4406    3.5088   21.6127 C   0  0  0  0  0  0  0  0  0  0  0  0
    7.6604    5.8688   22.0758 C   0  0  0  0  0  0  0  0  0  0  0  0
    7.4748    6.0312   21.6742 C   0  0  0  0  0  0  0  0  0  0  0  0
    7.7769    7.0961   23.8351 C   0  0  0  0  0  0  0  0  0  0  0  0
   10.7516    7.5622   20.3896 C   0  0  0  0  0  0  0  0  0  0  0  0
    8.5737    7.6196   22.7491 C   0  0  0  0  0  0  0  0  0  0  0  0
    6.9324    4.7622   22.5149 C   0  0  0  0  0  0  0  0  0  0  0  0
   10.7876   10.7051   24.4561 O   0  0  0  0  0  0  0  0  0  0  0  0
    9.4254   11.4182   23.5358 O   0  0  0  0  0  0  0  0  0  0  0  0
    6.3233    2.7461   21.5560 O   0  0  0  0  0  0  0  0  0  0  0  0
   10.2609   11.0321   21.4638 O   0  0  0  0  0  0  0  0  0  0  0  0
    6.6481    9.6312   21.3993 O   0  0  0  0  0  0  0  0  0  0  0  0
    9.8531   10.2793   22.6202 C   0  0  0  0  0  0  0  0  0  0  0  0
   10.5876    9.2526   21.3874 C   0  0  0  0  0  0  0  0  0  0  0  0
    8.2041    5.1843   21.7081 C   0  0  0  0  0  0  0  0  0  0  0  0
    9.4098    9.8690   19.6593 O   0  0  0  0  0  0  0  0  0  0  0  0
   11.3757    7.2751   21.5618 C   0  0  0  0  0  0  0  0  0  0  0  0
  1  5  1  0
  3 22  2  0
  4 16  4  0
  8 25  1  0
 11 17  4  0
 12 29  4  0
 14 19  4  0
 14 27  4  0
 25 26  1  0
M  END
$$$$

 Created by Python create_sdf_string function

 29 36  0  0  0  0  0  0  0  0999 V2000
    9.3989    2.9948   19.9145 C   0  0  0  0  0  0  0  0  0  0  0  0
    7.5502   10.1246   23.7271 Cl  0  0  0  0  0  0  0  0  0  0  0  0
    7.8293    9.5025   22.8425 C   0  0  0  0  0  0  0  0  0  0  0  0
   13.9561    6.1963   21.9302 O   0  0  0  0  0  0  0  0  0  0  0  0
    8.1947    3.0773   21.1581 N   0  0  0  0  0  0  0  0  0  0  0  0
    7.8596    6.5829   24.4388 C   0  0  0  0  0  0  0  0  0  0  0  0
   10.8929    6.6464   20.3657 N   0  0  0  0  0  0  0  0  0  0  0  0
    7.8627    6.6293   23.6270 P   0  0  0  0  0  0  0  0  0  0  0  0
   11.1748   10.2339   26.2739 O   0  0  0  0  0  0  0  0  0  0  0  0
   10.7882   10.9295   24.0426 O   0  0  0  0  0  0  0  0  0  0  0  0
    7.3933    9.8262   22.8656 C   0  0  0  0  0  0  0  0  0  0  0  0
   10.8037    9.1321   21.8949 F   0  0  0  0  0  0  0  0  0  0  0  0
   10.2455    9.3789   20.4015 B   0  0  0  0  0  0  0  0  0  0  0  0
    9.4593    7.0927   21.4355 F   0  0  0  0  0  0  0  0  0  0  0  0
    8.3870    9.9555   21.7510 I   0  0  0  0  0  0  0  0  0  0  0  0
    6.6714    8.3110   22.0199 He  0  0  0  0  0  0  0  0  0  0  0  0
    7.7220    3.4483   21.9274 He  0  0  0  0  0  0  0  0  0  0  0  0
    8.5486    4.4755   20.4605 He  0  0  0  0  0  0  0  0  0  0  0  0
   10.7576    5.0550   22.1908 He  0  0  0  0  0  0  0  0  0  0  0  0
    9.5711   10.1658   23.1585 He  0  0  0  0  0  0  0  0  0  0  0  0
   11.0980    7.7278   20.3638 He  0  0  0  0  0  0  0  0  0  0  0  0
   12.4289    6.6318   19.7994 He  0  0  0  0  0  0  0  0  0  0  0  0
   11.0115    5.4178   22.3462 He  0  0  0  0  0  0  0  0  0  0  0  0
    6.6044    5.5709   22.6044 He  0  0  0  0  0  0  0  0  0  0  0  0
    6.4321    5.2544   21.7635 He  0  0  0  0  0  0  0  0  0  0  0  0
    8.3862    3.4555   24.1215 He  0  0  0  0  0  0  0  0  0  0  0  0
    9.6834   10.2944   24.0719 He  0  0  0  0  0  0  0  0  0  0  0  0
    7.6504    3.2839   20.9669 He  0  0  0  0  0  0  0  0  0  0  0  0
   11.0791    8.2588   21.3905 He  0  0  0  0  0  0  0  0  0  0  0  0
  1  7  3  0
  1  9  2  0
  1 11  3  0
  1 12  2  0
  1 13  1  0
  2  6  1  0
  2  8  3  0
  2  9  4  0
  2 12  2  0
  3  4  2  0
  3  5  4  0
  3 11  2  0
  3 12  3  0
  3 15  2  0
  4  6  1  0
  4 10  2  0
  4 11  3  0
  4 14  1  0
  5  8  2  0
  5 10  4  0
  5 11  4  0
  5 12  2  0
  5 14  3  0
  6  8  2  0
  6 12  3  0
  6 13  2  0
  7 13  1  0
  8  9  3  0
  8 11  2  0
  9 11  2  0
  9 13  3  0
 10 12  1  0
 10 14  3  0
 11 13  1  0
 11 14  3  0
 12 13  1  0
M  END
$$$$

 Created by Python create_sdf_string function

 29  8  0  0  0  0  0  0  0  0999 V2000
    6.7175    8.1289   22.4346 C   0  0  0  0  0  0  0  0  0  0  0  0
    9.5036    3.3454   20.2429 C   0  0  0  0  0  0  0  0  0  0  0  0
    7.6231    3.4522   21.9948 C   0  0  0  0  0  0  0  0  0  0  0  0
    7.5273   10.0082   23.7518 O   0  0  0  0  0  0  0  0  0  0  0  0
    7.4631    9.5071   22.7999 C   0  0  0  0  0  0  0  0  0  0  0  0
    8.8369    3.9542   20.6995 C   0  0  0  0  0  0  0  0  0  0  0  0
   10.8614    5.2991   21.5716 C   0  0  0  0  0  0  0  0  0  0  0  0
    9.3994   10.1269   23.2552 C   0  0  0  0  0  0  0  0  0  0  0  0
   11.0217    7.7944   20.4967 C   0  0  0  0  0  0  0  0  0  0  0  0
   13.0694    6.2153   21.3687 O   0  0  0  0  0  0  0  0  0  0  0  0
   12.3418    6.3824   20.2419 C   0  0  0  0  0  0  0  0  0  0  0  0
   11.0808    5.4567   21.8579 C   0  0  0  0  0  0  0  0  0  0  0  0
    8.2956    3.0596   21.0495 N   0  0  0  0  0  0  0  0  0  0  0  0
    6.8973    5.4412   22.5733 C   0  0  0  0  0  0  0  0  0  0  0  0
    6.8663    5.4215   22.1352 C   0  0  0  0  0  0  0  0  0  0  0  0
    7.5178    6.7980   23.7490 C   0  0  0  0  0  0  0  0  0  0  0  0
   11.1617    6.6244   20.4439 C   0  0  0  0  0  0  0  0  0  0  0  0
    7.6998    6.6389   23.7422 C   0  0  0  0  0  0  0  0  0  0  0  0
    7.9730    4.1781   23.4824 C   0  0  0  0  0  0  0  0  0  0  0  0
   10.5826   10.1768   25.3076 O   0  0  0  0  0  0  0  0  0  0  0  0
    9.9969   10.2685   23.9631 P   0  0  0  0  0  0  0  0  0  0  0  0
    7.5902    3.1671   21.0961 C   0  0  0  0  0  0  0  0  0  0  0  0
   11.0828   10.7280   23.9306 O   0  0  0  0  0  0  0  0  0  0  0  0
    7.0977    9.7020   22.8391 C   0  0  0  0  0  0  0  0  0  0  0  0
   10.8109    9.3273   21.9626 C   0  0  0  0  0  0  0  0  0  0  0  0
   10.2150    9.1317   20.6417 C   0  0  0  0  0  0  0  0  0  0  0  0
    9.8622    7.0905   21.1221 C   0  0  0  0  0  0  0  0  0  0  0  0
    8.4915    9.7963   22.0212 O   0  0  0  0  0  0  0  0  0  0  0  0
   11.1681    8.5710   21.5902 C   0  0  0  0  0  0  0  0  0  0  0  0
  2  6  1  0
  4  5  1  0
  5 24  1  0
  7 12  1  0
  8 21  1  0
 14 15  4  0
 16 18  4  0
 21 23  1  0
M  END
$$$$

 Created by Python create_sdf_string function

 29 66  0  0  0  0  0  0  0  0999 V2000
   11.1655    4.3216   19.2407 P   0  0  0  0  0  0  0  0  0  0  0  0
    8.2732    9.1530   23.8289 P   0  0  0  0  0  0  0  0  0  0  0  0
    5.0286   11.0491   22.5237 Cl  0  0  0  0  0  0  0  0  0  0  0  0
    8.3458    3.6800   20.8295 C   0  0  0  0  0  0  0  0  0  0  0  0
   11.1450    4.0637   21.8209 C   0  0  0  0  0  0  0  0  0  0  0  0
    9.6464    9.5779   24.7163 B   0  0  0  0  0  0  0  0  0  0  0  0
   11.2773    8.7086   21.3558 C   0  0  0  0  0  0  0  0  0  0  0  0
   12.8214    5.4838   22.0049 O   0  0  0  0  0  0  0  0  0  0  0  0
    9.5829    5.9108   22.0175 S   0  0  0  0  0  0  0  0  0  0  0  0
    7.7099    3.3576   21.6262 I   0  0  0  0  0  0  0  0  0  0  0  0
    6.6215    6.1180   22.6141 O   0  0  0  0  0  0  0  0  0  0  0  0
    7.4081    5.8093   23.1736 F   0  0  0  0  0  0  0  0  0  0  0  0
   10.9785    4.9581   20.5135 Cl  0  0  0  0  0  0  0  0  0  0  0  0
    8.5687    3.6394   24.5695 Cl  0  0  0  0  0  0  0  0  0  0  0  0
    9.9086    8.7093   24.3532 S   0  0  0  0  0  0  0  0  0  0  0  0
   11.4201   10.9050   23.9825 O   0  0  0  0  0  0  0  0  0  0  0  0
    9.3379    9.2985   23.2118 C   0  0  0  0  0  0  0  0  0  0  0  0
    8.8974    8.4587   21.5867 F   0  0  0  0  0  0  0  0  0  0  0  0
   11.7416    6.8552   21.2733 C   0  0  0  0  0  0  0  0  0  0  0  0
    7.8717   10.2228   22.5906 Br  0  0  0  0  0  0  0  0  0  0  0  0
    6.9546    7.9954   21.4569 He  0  0  0  0  0  0  0  0  0  0  0  0
    7.3526    3.0930   22.0702 He  0  0  0  0  0  0  0  0  0  0  0  0
   11.6909    6.7443   20.5097 He  0  0  0  0  0  0  0  0  0  0  0  0
    6.7007    5.1101   21.1243 He  0  0  0  0  0  0  0  0  0  0  0  0
    8.6052    9.0283   24.0529 He  0  0  0  0  0  0  0  0  0  0  0  0
   10.6434    9.0846   25.2567 He  0  0  0  0  0  0  0  0  0  0  0  0
    6.8266    4.1788   19.9756 He  0  0  0  0  0  0  0  0  0  0  0  0
    8.0832   10.9174   22.7222 He  0  0  0  0  0  0  0  0  0  0  0  0
   11.8890    8.2399   23.0619 He  0  0  0  0  0  0  0  0  0  0  0  0
  1  3  2  0
  1  4  1  0
  1  7  2  0
  1  8  1  0
  1 12  4  0
  1 15  1  0
  1 18  1  0
  2  3  2  0
  2  4  4  0
  2  5  2  0
  2  8  4  0
  2 10  1  0
  2 11  1  0
  2 12  4  0
  2 17  2  0
  2 19  1  0
  3  4  2  0
  3  8  4  0
  3 10  4  0
  3 11  1  0
  3 14  3  0
  3 18  2  0
  3 19  3  0
  3 20  2  0
  4 10  2  0
  4 11  1  0
  4 14  2  0
  4 18  4  0
  5  6  2  0
  5 14  4  0
  5 18  2  0
  6 10  3  0
  6 11  2  0
  6 13  1  0
  6 15  1  0
  6 17  1  0
  7  8  1  0
  7 11  1  0
  7 15  2  0
  7 16  4  0
  7 18  4  0
  7 19  4  0
  8  9  4  0
  8 14  4  0
  8 18  3  0
  9 12  2  0
  9 14  4  0
  9 15  2  0
  9 16  2  0
  9 18  2  0
 10 16  1  0
 10 18  4  0
 10 19  4  0
 11 14  4  0
 11 18  3  0
 11 20  1  0
 12 13  1  0
 12 15  2  0
 12 17  3  0
 12 20  1  0
 13 14  2  0
 13 19  4  0
 14 17  4  0
 14 19  2  0
 15 16  1  0
 16 17  3  0
M  END
$$$$

 Created by Python create_sdf_string function

 29 13  0  0  0  0  0  0  0  0999 V2000
    6.9730    7.6911   21.9077 C   0  0  0  0  0  0  0  0  0  0  0  0
   10.9586    4.2932   19.8649 C   0  0  0  0  0  0  0  0  0  0  0  0
    7.6673    3.1479   22.0790 C   0  0  0  0  0  0  0  0  0  0  0  0
    7.9720    8.9260   23.5430 C   0  0  0  0  0  0  0  0  0  0  0  0
    5.9123   10.4210   22.4982 O   0  0  0  0  0  0  0  0  0  0  0  0
    8.7783    3.5324   20.8926 C   0  0  0  0  0  0  0  0  0  0  0  0
   10.9190    4.5353   21.3348 C   0  0  0  0  0  0  0  0  0  0  0  0
    9.6994    9.4422   24.4398 O   0  0  0  0  0  0  0  0  0  0  0  0
   11.2421    8.3222   21.5008 C   0  0  0  0  0  0  0  0  0  0  0  0
   12.3745    5.6746   21.6385 O   0  0  0  0  0  0  0  0  0  0  0  0
   11.7779    6.6823   20.7866 C   0  0  0  0  0  0  0  0  0  0  0  0
    8.9915    5.4385   22.3147 C   0  0  0  0  0  0  0  0  0  0  0  0
    7.8806    3.4002   21.4261 C   0  0  0  0  0  0  0  0  0  0  0  0
    6.9222    6.1535   22.3666 C   0  0  0  0  0  0  0  0  0  0  0  0
    6.9595    5.5321   21.3669 C   0  0  0  0  0  0  0  0  0  0  0  0
    7.6625    6.0708   23.1243 C   0  0  0  0  0  0  0  0  0  0  0  0
   11.2822    5.2452   20.7373 C   0  0  0  0  0  0  0  0  0  0  0  0
    8.0249    8.9564   23.5619 C   0  0  0  0  0  0  0  0  0  0  0  0
    8.3964    4.1532   23.6135 C   0  0  0  0  0  0  0  0  0  0  0  0
   10.9529    8.7591   25.3152 O   0  0  0  0  0  0  0  0  0  0  0  0
   10.6867    9.1896   24.4246 C   0  0  0  0  0  0  0  0  0  0  0  0
    7.1941    4.1731   20.5976 C   0  0  0  0  0  0  0  0  0  0  0  0
   11.4631   10.3553   24.1101 O   0  0  0  0  0  0  0  0  0  0  0  0
    7.7763   10.8003   22.6069 O   0  0  0  0  0  0  0  0  0  0  0  0
    9.6540    9.2005   23.4056 C   0  0  0  0  0  0  0  0  0  0  0  0
    9.1993    8.4305   21.6425 C   0  0  0  0  0  0  0  0  0  0  0  0
   11.7426    6.9910   21.3044 C   0  0  0  0  0  0  0  0  0  0  0  0
    7.2230   10.2585   22.6424 C   0  0  0  0  0  0  0  0  0  0  0  0
   11.6605    8.3021   22.6146 C   0  0  0  0  0  0  0  0  0  0  0  0
  3 13  1  0
  4 18  1  0
  5 28  2  0
  6 13  1  0
  8 21  1  0
  8 25  1  0
  9 29  4  0
 11 27  4  0
 14 15  4  0
 18 28  1  0
 20 21  2  0
 21 23  1  0
 24 28  2  0
M  END
$$$$

 Created by Python create_sdf_string function

 29 55  0  0  0  0  0  0  0  0999 V2000
    5.9168    6.3699   23.8785 C   0  0  0  0  0  0  0  0  0  0  0  0
   11.1791    4.5041   19.6010 N   0  0  0  0  0  0  0  0  0  0  0  0
    8.6718    2.8606   22.2816 N   0  0  0  0  0  0  0  0  0  0  0  0
    9.2038    4.1391   20.9810 C   0  0  0  0  0  0  0  0  0  0  0  0
    9.5250    9.3096   24.3548 Cl  0  0  0  0  0  0  0  0  0  0  0  0
   11.1114    7.3984   20.7670 C   0  0  0  0  0  0  0  0  0  0  0  0
   13.8819    5.5620   20.3135 C   0  0  0  0  0  0  0  0  0  0  0  0
   13.0951    5.7783   20.8206 N   0  0  0  0  0  0  0  0  0  0  0  0
    9.7136    4.4070   22.7572 C   0  0  0  0  0  0  0  0  0  0  0  0
    6.2726    5.1337   22.2542 C   0  0  0  0  0  0  0  0  0  0  0  0
   10.5706    5.5329   21.0849 C   0  0  0  0  0  0  0  0  0  0  0  0
    6.5099    9.0443   24.4310 I   0  0  0  0  0  0  0  0  0  0  0  0
    8.5014    1.9799   23.7535 B   0  0  0  0  0  0  0  0  0  0  0  0
   10.0988    7.4268   24.1227 O   0  0  0  0  0  0  0  0  0  0  0  0
    6.7046    3.1264   21.5567 C   0  0  0  0  0  0  0  0  0  0  0  0
    8.6760   10.2417   22.5280 O   0  0  0  0  0  0  0  0  0  0  0  0
   10.8292    8.4109   25.1297 F   0  0  0  0  0  0  0  0  0  0  0  0
    7.3810    8.3332   21.6515 C   0  0  0  0  0  0  0  0  0  0  0  0
   10.8540    7.1274   21.4066 C   0  0  0  0  0  0  0  0  0  0  0  0
   12.3317    8.3072   21.4610 C   0  0  0  0  0  0  0  0  0  0  0  0
    7.9226    6.8385   23.4639 He  0  0  0  0  0  0  0  0  0  0  0  0
    4.8969   10.3339   22.5957 He  0  0  0  0  0  0  0  0  0  0  0  0
   10.3920    3.2531   21.3613 He  0  0  0  0  0  0  0  0  0  0  0  0
    8.4848    2.7771   21.7215 He  0  0  0  0  0  0  0  0  0  0  0  0
    5.2302    5.8468   20.3807 He  0  0  0  0  0  0  0  0  0  0  0  0
    8.6310    6.1180   22.8259 He  0  0  0  0  0  0  0  0  0  0  0  0
    9.8803    8.9705   25.9382 He  0  0  0  0  0  0  0  0  0  0  0  0
   12.1517   11.3555   23.5848 He  0  0  0  0  0  0  0  0  0  0  0  0
    8.1938    9.9120   22.7431 He  0  0  0  0  0  0  0  0  0  0  0  0
  1  7  2  0
  1 17  2  0
  2  3  4  0
  2  4  1  0
  2  5  1  0
  2 10  2  0
  2 11  3  0
  2 14  1  0
  2 15  1  0
  2 18  3  0
  2 19  2  0
  2 20  1  0
  3 11  1  0
  3 12  4  0
  3 13  1  0
  3 17  4  0
  4 16  1  0
  4 19  2  0
  4 20  3  0
  5  6  4  0
  5  7  4  0
  5  8  1  0
  5 13  4  0
  5 17  2  0
  6  9  2  0
  6 10  3  0
  6 12  1  0
  6 15  1  0
  6 17  2  0
  6 18  3  0
  6 20  4  0
  7 13  1  0
  7 17  1  0
  8  9  4  0
  8 12  4  0
  8 17  3  0
  8 18  4  0
  8 19  2  0
  8 20  2  0
  9 10  3  0
  9 13  1  0
  9 14  3  0
  9 20  4  0
 10 14  2  0
 11 12  4  0
 11 20  3  0
 12 18  3  0
 12 19  4  0
 12 20  2  0
 13 17  1  0
 14 16  3  0
 14 18  1  0
 14 19  3  0
 14 20  4  0
 17 19  1  0
M  END
$$$$

 Created by Python create_sdf_string function

 29 13  0  0  0  0  0  0  0  0999 V2000
    6.2665    6.7699   23.5247 C   0  0  0  0  0  0  0  0  0  0  0  0
   11.4984    4.7068   20.1310 N   0  0  0  0  0  0  0  0  0  0  0  0
    8.4693    2.7570   22.4149 N   0  0  0  0  0  0  0  0  0  0  0  0
    7.0762    6.7089   23.1527 C   0  0  0  0  0  0  0  0  0  0  0  0
    6.1938   10.3954   22.6063 O   0  0  0  0  0  0  0  0  0  0  0  0
    9.1909    4.1857   21.3988 C   0  0  0  0  0  0  0  0  0  0  0  0
    9.9123    3.2601   21.2255 C   0  0  0  0  0  0  0  0  0  0  0  0
    9.9222    9.2229   24.4972 P   0  0  0  0  0  0  0  0  0  0  0  0
   11.4903    7.3880   21.1641 C   0  0  0  0  0  0  0  0  0  0  0  0
   13.2276    5.9600   20.2919 C   0  0  0  0  0  0  0  0  0  0  0  0
   13.0112    6.1870   20.5137 C   0  0  0  0  0  0  0  0  0  0  0  0
    9.1040    4.1485   22.7041 C   0  0  0  0  0  0  0  0  0  0  0  0
    7.8130    2.9362   21.5183 O   0  0  0  0  0  0  0  0  0  0  0  0
    5.8546    5.7276   21.3976 O   0  0  0  0  0  0  0  0  0  0  0  0
    6.6381    5.4079   22.1726 C   0  0  0  0  0  0  0  0  0  0  0  0
    8.2745    5.8316   22.5532 C   0  0  0  0  0  0  0  0  0  0  0  0
   10.7444    5.2639   20.9238 C   0  0  0  0  0  0  0  0  0  0  0  0
    7.0919    8.6993   24.0912 O   0  0  0  0  0  0  0  0  0  0  0  0
    8.5558    1.8991   23.2716 O   0  0  0  0  0  0  0  0  0  0  0  0
    9.9354    7.9597   24.2850 O   0  0  0  0  0  0  0  0  0  0  0  0
    9.9099    9.3275   25.3985 O   0  0  0  0  0  0  0  0  0  0  0  0
    7.0725    3.4927   21.7743 C   0  0  0  0  0  0  0  0  0  0  0  0
   11.4106   10.1565   23.8739 O   0  0  0  0  0  0  0  0  0  0  0  0
    8.5915   10.2750   22.8043 O   0  0  0  0  0  0  0  0  0  0  0  0
   10.8513    8.7350   24.8313 O   0  0  0  0  0  0  0  0  0  0  0  0
    7.3805    8.0673   22.3769 O   0  0  0  0  0  0  0  0  0  0  0  0
   10.9958    6.8866   21.3312 C   0  0  0  0  0  0  0  0  0  0  0  0
    7.5233    9.6987   23.0460 P   0  0  0  0  0  0  0  0  0  0  0  0
   12.2400    7.7642   21.5125 C   0  0  0  0  0  0  0  0  0  0  0  0
  1  4  1  0
  2 17  4  0
  3 19  1  0
  4 15  1  0
  5 28  1  0
  8 21  1  0
  8 25  1  0
  9 27  4  0
  9 29  4  0
 10 11  4  0
 14 15  1  0
 18 28  1  0
 24 28  1  0
M  END
$$$$

 Created by Python create_sdf_string function

 29 55  0  0  0  0  0  0  0  0999 V2000
    6.2835    7.2377   23.8792 C   0  0  0  0  0  0  0  0  0  0  0  0
   11.5652    5.5157   18.6356 N   0  0  0  0  0  0  0  0  0  0  0  0
    7.6643    2.2625   23.2758 C   0  0  0  0  0  0  0  0  0  0  0  0
    7.9628    4.5950   21.7569 C   0  0  0  0  0  0  0  0  0  0  0  0
   11.1890    8.2762   21.1103 N   0  0  0  0  0  0  0  0  0  0  0  0
   14.6669    6.3205   19.2721 O   0  0  0  0  0  0  0  0  0  0  0  0
   13.5742    6.4926   20.8894 Cl  0  0  0  0  0  0  0  0  0  0  0  0
    6.5724    2.7450   22.0544 P   0  0  0  0  0  0  0  0  0  0  0  0
    6.9042    6.6348   21.1306 O   0  0  0  0  0  0  0  0  0  0  0  0
    5.5321    5.3601   22.4030 C   0  0  0  0  0  0  0  0  0  0  0  0
    8.0218    6.1841   21.9010 P   0  0  0  0  0  0  0  0  0  0  0  0
    9.8157    5.6811   19.9326 O   0  0  0  0  0  0  0  0  0  0  0  0
    8.6753    8.9125   22.9032 O   0  0  0  0  0  0  0  0  0  0  0  0
    8.2072    2.8902   23.0132 O   0  0  0  0  0  0  0  0  0  0  0  0
    9.4370    8.7716   25.1880 O   0  0  0  0  0  0  0  0  0  0  0  0
    6.5647    2.9317   21.9936 Cl  0  0  0  0  0  0  0  0  0  0  0  0
   12.6280   10.1307   24.4034 N   0  0  0  0  0  0  0  0  0  0  0  0
    7.3913    8.0154   22.5126 F   0  0  0  0  0  0  0  0  0  0  0  0
   10.9655    7.0587   21.8969 C   0  0  0  0  0  0  0  0  0  0  0  0
    5.8840    6.8646   22.9730 He  0  0  0  0  0  0  0  0  0  0  0  0
    7.4316   10.4570   22.9244 He  0  0  0  0  0  0  0  0  0  0  0  0
    9.8185    2.4342   21.2728 He  0  0  0  0  0  0  0  0  0  0  0  0
    9.9433   10.2137   24.3042 He  0  0  0  0  0  0  0  0  0  0  0  0
    8.2640    4.4164   21.9822 He  0  0  0  0  0  0  0  0  0  0  0  0
   10.9684    7.2961   22.8432 He  0  0  0  0  0  0  0  0  0  0  0  0
    9.1923   10.7667   22.5248 He  0  0  0  0  0  0  0  0  0  0  0  0
   10.0601    9.0848   24.1218 He  0  0  0  0  0  0  0  0  0  0  0  0
    7.7714    9.2219   23.3875 He  0  0  0  0  0  0  0  0  0  0  0  0
   12.4962    6.8323   21.2153 He  0  0  0  0  0  0  0  0  0  0  0  0
  1  4  2  0
  1  5  3  0
  1  8  2  0
  1 11  4  0
  1 15  4  0
  1 19  2  0
  2  3  2  0
  2  4  3  0
  2  5  4  0
  2  6  3  0
  2 10  2  0
  2 11  3  0
  2 14  3  0
  2 17  2  0
  3  5  1  0
  3  7  1  0
  3  9  4  0
  3 14  3  0
  3 17  3  0
  3 18  4  0
  4  6  4  0
  4 10  3  0
  4 13  3  0
  4 18  1  0
  4 19  3  0
  5  6  2  0
  5  9  4  0
  5 12  2  0
  5 15  3  0
  5 17  2  0
  5 18  4  0
  5 19  1  0
  6  7  1  0
  6  8  4  0
  6 10  1  0
  6 11  3  0
  6 12  4  0
  6 14  1  0
  6 19  1  0
  7 14  2  0
  7 16  3  0
  8 10  3  0
  9 10  1  0
  9 11  1  0
  9 14  1  0
  9 15  2  0
 10 17  3  0
 10 19  2  0
 11 13  4  0
 11 15  3  0
 12 17  1  0
 12 18  4  0
 13 15  1  0
 13 18  1  0
 16 19  2  0
M  END
$$$$

 Created by Python create_sdf_string function

 29 16  0  0  0  0  0  0  0  0999 V2000
    6.0679    7.1758   23.5072 C   0  0  0  0  0  0  0  0  0  0  0  0
   11.5432    5.8071   19.5094 C   0  0  0  0  0  0  0  0  0  0  0  0
    7.9937    2.3828   22.8177 C   0  0  0  0  0  0  0  0  0  0  0  0
    6.0633    6.9948   23.0831 C   0  0  0  0  0  0  0  0  0  0  0  0
    7.1966   10.2786   23.0779 O   0  0  0  0  0  0  0  0  0  0  0  0
    7.9227    4.2892   21.8302 C   0  0  0  0  0  0  0  0  0  0  0  0
    9.3181    2.5820   21.4956 O   0  0  0  0  0  0  0  0  0  0  0  0
   10.0784   10.0039   24.1993 O   0  0  0  0  0  0  0  0  0  0  0  0
   11.2026    7.4552   21.2996 C   0  0  0  0  0  0  0  0  0  0  0  0
   13.7282    6.3514   19.5942 O   0  0  0  0  0  0  0  0  0  0  0  0
   12.7825    6.6147   20.6669 C   0  0  0  0  0  0  0  0  0  0  0  0
    7.8538    4.4479   21.9670 C   0  0  0  0  0  0  0  0  0  0  0  0
    6.5491    3.0650   22.1359 C   0  0  0  0  0  0  0  0  0  0  0  0
    6.9824    6.5381   21.4442 O   0  0  0  0  0  0  0  0  0  0  0  0
    6.1125    5.6497   22.3627 C   0  0  0  0  0  0  0  0  0  0  0  0
    7.6092    6.4544   22.0219 C   0  0  0  0  0  0  0  0  0  0  0  0
   10.3912    5.8394   20.2564 O   0  0  0  0  0  0  0  0  0  0  0  0
    8.7140    8.5554   22.8410 O   0  0  0  0  0  0  0  0  0  0  0  0
    8.4424    2.6129   22.6187 C   0  0  0  0  0  0  0  0  0  0  0  0
   11.1777    7.5009   22.3136 C   0  0  0  0  0  0  0  0  0  0  0  0
    9.6224    8.8194   25.0993 O   0  0  0  0  0  0  0  0  0  0  0  0
    6.4093    3.0856   21.8709 C   0  0  0  0  0  0  0  0  0  0  0  0
   11.8478    9.5129   24.1660 O   0  0  0  0  0  0  0  0  0  0  0  0
    9.0645   10.4110   22.8069 O   0  0  0  0  0  0  0  0  0  0  0  0
   10.2448    9.3695   24.0748 P   0  0  0  0  0  0  0  0  0  0  0  0
    7.4135    8.2533   22.7131 C   0  0  0  0  0  0  0  0  0  0  0  0
   10.9579    7.2983   21.7727 C   0  0  0  0  0  0  0  0  0  0  0  0
    7.6481    9.3825   23.0693 P   0  0  0  0  0  0  0  0  0  0  0  0
   12.3752    6.6367   20.7270 C   0  0  0  0  0  0  0  0  0  0  0  0
  1  4  1  0
  2 17  4  0
  3 19  4  0
  5 28  2  0
  6 12  4  0
  8 25  1  0
  9 27  1  0
 10 11  1  0
 11 29  4  0
 13 22  4  0
 14 15  1  0
 14 16  1  0
 18 26  1  0
 20 27  4  0
 24 28  1  0
 26 28  1  0
M  END
$$$$

 Created by Python create_sdf_string function

 29 36  0  0  0  0  0  0  0  0999 V2000
    4.8347    7.3271   22.8565 C   0  0  0  0  0  0  0  0  0  0  0  0
   11.9790    5.5415   20.4456 N   0  0  0  0  0  0  0  0  0  0  0  0
    6.1451    1.9511   23.3264 N   0  0  0  0  0  0  0  0  0  0  0  0
    5.6919    7.4727   22.8171 O   0  0  0  0  0  0  0  0  0  0  0  0
    8.6445    2.4222   20.6086 O   0  0  0  0  0  0  0  0  0  0  0  0
    9.7659    9.7217   24.4878 P   0  0  0  0  0  0  0  0  0  0  0  0
   11.6654    7.5106   20.3904 C   0  0  0  0  0  0  0  0  0  0  0  0
   15.3157    6.9622   21.9139 C   0  0  0  0  0  0  0  0  0  0  0  0
    8.0734    4.9303   22.4870 N   0  0  0  0  0  0  0  0  0  0  0  0
    5.6154    3.8168   22.5103 F   0  0  0  0  0  0  0  0  0  0  0  0
    6.9601    4.8516   21.0084 O   0  0  0  0  0  0  0  0  0  0  0  0
   10.6926    5.7009   21.0265 O   0  0  0  0  0  0  0  0  0  0  0  0
    8.7395    8.6959   24.1166 N   0  0  0  0  0  0  0  0  0  0  0  0
   10.0120    7.2645   22.5939 C   0  0  0  0  0  0  0  0  0  0  0  0
    9.7590    9.1085   25.4555 O   0  0  0  0  0  0  0  0  0  0  0  0
   10.4635   10.8382   24.0753 O   0  0  0  0  0  0  0  0  0  0  0  0
    7.7084    8.8468   22.2530 N   0  0  0  0  0  0  0  0  0  0  0  0
   13.1291    5.7539   20.8960 C   0  0  0  0  0  0  0  0  0  0  0  0
    5.6313   10.7442   22.2742 He  0  0  0  0  0  0  0  0  0  0  0  0
    8.0592    2.7314   21.8502 He  0  0  0  0  0  0  0  0  0  0  0  0
   13.9806    6.3682   19.4192 He  0  0  0  0  0  0  0  0  0  0  0  0
    6.2349    6.9184   21.2479 He  0  0  0  0  0  0  0  0  0  0  0  0
    5.2509    6.6457   21.0895 He  0  0  0  0  0  0  0  0  0  0  0  0
    9.1569    3.8015   23.2017 He  0  0  0  0  0  0  0  0  0  0  0  0
    7.3958    3.1849   21.0183 He  0  0  0  0  0  0  0  0  0  0  0  0
    9.5445   10.6534   22.0905 He  0  0  0  0  0  0  0  0  0  0  0  0
   10.1426   10.4951   25.2763 He  0  0  0  0  0  0  0  0  0  0  0  0
    6.0769    8.5927   24.1011 He  0  0  0  0  0  0  0  0  0  0  0  0
   11.2119    7.5680   21.4096 He  0  0  0  0  0  0  0  0  0  0  0  0
  1  3  1  0
  1  4  4  0
  1 11  2  0
  1 13  1  0
  1 14  1  0
  2  3  4  0
  2 12  3  0
  2 18  1  0
  3 12  4  0
  3 13  3  0
  3 18  2  0
  4 12  2  0
  4 14  4  0
  4 15  4  0
  6  8  1  0
  6 10  4  0
  6 12  3  0
  6 15  2  0
  6 16  4  0
  6 18  1  0
  7 11  1  0
  7 16  4  0
  7 17  3  0
  7 18  3  0
  8 17  4  0
  9 13  4  0
  9 15  4  0
 10 14  2  0
 10 16  3  0
 10 17  3  0
 11 14  2  0
 11 18  4  0
 12 14  1  0
 12 15  1  0
 12 18  1  0
 13 14  3  0
M  END
$$$$

 Created by Python create_sdf_string function

 29 12  0  0  0  0  0  0  0  0999 V2000
    5.3193    7.6173   22.8626 C   0  0  0  0  0  0  0  0  0  0  0  0
   12.0576    5.4608   20.7742 C   0  0  0  0  0  0  0  0  0  0  0  0
    6.6051    2.6719   23.0301 N   0  0  0  0  0  0  0  0  0  0  0  0
    5.8312    7.6952   22.9765 C   0  0  0  0  0  0  0  0  0  0  0  0
    6.0149    9.7196   22.7435 O   0  0  0  0  0  0  0  0  0  0  0  0
    8.1357    2.8387   21.9232 C   0  0  0  0  0  0  0  0  0  0  0  0
    8.6695    2.6196   20.7442 O   0  0  0  0  0  0  0  0  0  0  0  0
    9.8231    9.8746   24.6448 P   0  0  0  0  0  0  0  0  0  0  0  0
   11.8259    7.5372   21.0024 C   0  0  0  0  0  0  0  0  0  0  0  0
   13.6221    6.4248   19.6828 O   0  0  0  0  0  0  0  0  0  0  0  0
   13.9917    6.6797   21.3922 C   0  0  0  0  0  0  0  0  0  0  0  0
    7.9174    5.1551   21.9469 N   0  0  0  0  0  0  0  0  0  0  0  0
    6.0281    3.9224   22.3840 C   0  0  0  0  0  0  0  0  0  0  0  0
    6.3426    6.6413   21.6956 C   0  0  0  0  0  0  0  0  0  0  0  0
    5.5250    6.4820   21.4634 C   0  0  0  0  0  0  0  0  0  0  0  0
    7.1830    5.0003   21.2468 C   0  0  0  0  0  0  0  0  0  0  0  0
   10.8718    5.9787   21.3296 O   0  0  0  0  0  0  0  0  0  0  0  0
    8.4405    8.8914   23.5057 N   0  0  0  0  0  0  0  0  0  0  0  0
    8.8856    3.6968   22.6426 C   0  0  0  0  0  0  0  0  0  0  0  0
   10.0966    7.0975   21.8959 C   0  0  0  0  0  0  0  0  0  0  0  0
    9.8655    9.0298   25.4362 O   0  0  0  0  0  0  0  0  0  0  0  0
    7.5189    3.4563   21.3537 C   0  0  0  0  0  0  0  0  0  0  0  0
   10.5374   10.5167   23.9739 O   0  0  0  0  0  0  0  0  0  0  0  0
    9.7417    9.4219   22.2052 C   0  0  0  0  0  0  0  0  0  0  0  0
    9.7060   10.5300   25.0957 O   0  0  0  0  0  0  0  0  0  0  0  0
    6.7062    8.7429   23.3239 C   0  0  0  0  0  0  0  0  0  0  0  0
   10.9623    7.7173   21.5191 C   0  0  0  0  0  0  0  0  0  0  0  0
    8.0175    8.6538   22.5953 C   0  0  0  0  0  0  0  0  0  0  0  0
   12.7562    6.1640   20.7983 C   0  0  0  0  0  0  0  0  0  0  0  0
  1  4  1  0
  2 29  1  0
  8 21  2  0
  8 23  1  0
  8 25  1  0
  9 27  1  0
 11 29  1  0
 14 15  1  0
 17 20  1  0
 18 26  1  0
 20 27  1  0
 24 28  1  0
M  END
$$$$

 Created by Python create_sdf_string function

 29 34  0  0  0  0  0  0  0  0999 V2000
    6.2639    8.5579   21.3108 C   0  0  0  0  0  0  0  0  0  0  0  0
   13.9667    5.9362   20.8337 C   0  0  0  0  0  0  0  0  0  0  0  0
    5.2413    8.2449   24.5271 O   0  0  0  0  0  0  0  0  0  0  0  0
    5.9004    9.7806   22.7262 O   0  0  0  0  0  0  0  0  0  0  0  0
    8.8175    2.5116   20.8429 O   0  0  0  0  0  0  0  0  0  0  0  0
   14.9100    5.4414   18.5740 O   0  0  0  0  0  0  0  0  0  0  0  0
    8.4315    5.1261   22.0608 N   0  0  0  0  0  0  0  0  0  0  0  0
    4.7887    8.0927   21.1446 F   0  0  0  0  0  0  0  0  0  0  0  0
    6.9903    5.1911   21.9466 C   0  0  0  0  0  0  0  0  0  0  0  0
   10.2145    8.1735   22.3153 N   0  0  0  0  0  0  0  0  0  0  0  0
    7.5259    4.7892   22.5057 C   0  0  0  0  0  0  0  0  0  0  0  0
    9.7335    9.9652   25.2441 O   0  0  0  0  0  0  0  0  0  0  0  0
    7.7470    7.9801   23.1595 N   0  0  0  0  0  0  0  0  0  0  0  0
   10.4622    8.2184   22.5911 O   0  0  0  0  0  0  0  0  0  0  0  0
    8.3498    8.1641   22.9558 C   0  0  0  0  0  0  0  0  0  0  0  0
   12.9730    6.2137   20.9918 C   0  0  0  0  0  0  0  0  0  0  0  0
    5.7492    1.4855   23.1538 He  0  0  0  0  0  0  0  0  0  0  0  0
    6.8434    2.9820   23.0344 He  0  0  0  0  0  0  0  0  0  0  0  0
    9.2456    9.0758   25.0018 He  0  0  0  0  0  0  0  0  0  0  0  0
   13.3970    7.8865   20.9518 He  0  0  0  0  0  0  0  0  0  0  0  0
   15.4860    7.4615   21.2430 He  0  0  0  0  0  0  0  0  0  0  0  0
    6.5907    5.0019   22.1481 He  0  0  0  0  0  0  0  0  0  0  0  0
    6.8774    8.3243   21.5747 He  0  0  0  0  0  0  0  0  0  0  0  0
   10.3659    6.7119   22.0234 He  0  0  0  0  0  0  0  0  0  0  0  0
    7.7735    9.5372   24.6581 He  0  0  0  0  0  0  0  0  0  0  0  0
    8.4260    4.8206   22.6433 He  0  0  0  0  0  0  0  0  0  0  0  0
    9.8121    8.0171   24.9717 He  0  0  0  0  0  0  0  0  0  0  0  0
   11.0522    8.4390   22.8934 He  0  0  0  0  0  0  0  0  0  0  0  0
    9.7360   10.1534   25.1821 He  0  0  0  0  0  0  0  0  0  0  0  0
  1  2  2  0
  1  6  1  0
  1 11  1  0
  1 15  2  0
  1 16  1  0
  2  7  1  0
  2 13  1  0
  2 14  3  0
  2 16  1  0
  3  7  1  0
  3 13  4  0
  3 16  1  0
  4  5  2  0
  4 11  3  0
  4 16  1  0
  5  9  1  0
  5 12  3  0
  6 11  2  0
  6 13  3  0
  6 16  4  0
  7 10  1  0
  8 11  4  0
  8 14  1  0
  9 10  1  0
  9 16  3  0
 10 12  4  0
 10 13  1  0
 10 14  2  0
 10 15  2  0
 11 12  1  0
 11 14  3  0
 11 15  4  0
 12 16  3  0
 13 15  4  0
M  END
$$$$

 Created by Python create_sdf_string function

 29 13  0  0  0  0  0  0  0  0999 V2000
    5.9630    8.4031   22.1849 C   0  0  0  0  0  0  0  0  0  0  0  0
   13.5678    6.0476   20.7203 O   0  0  0  0  0  0  0  0  0  0  0  0
    6.2521    2.4746   22.8628 O   0  0  0  0  0  0  0  0  0  0  0  0
    5.5445    8.2110   23.9115 O   0  0  0  0  0  0  0  0  0  0  0  0
    6.0062    9.6566   22.5093 O   0  0  0  0  0  0  0  0  0  0  0  0
    7.0384    3.0956   22.4770 C   0  0  0  0  0  0  0  0  0  0  0  0
    8.1712    2.5370   21.4887 O   0  0  0  0  0  0  0  0  0  0  0  0
    9.3251    9.2733   25.0051 C   0  0  0  0  0  0  0  0  0  0  0  0
   13.1076    7.4019   21.2406 C   0  0  0  0  0  0  0  0  0  0  0  0
   14.4075    6.0927   19.4224 O   0  0  0  0  0  0  0  0  0  0  0  0
   15.0633    7.1785   20.9970 O   0  0  0  0  0  0  0  0  0  0  0  0
    8.7187    5.4301   22.0162 C   0  0  0  0  0  0  0  0  0  0  0  0
    6.7421    5.4528   22.1989 C   0  0  0  0  0  0  0  0  0  0  0  0
    6.8670    7.8750   22.1367 C   0  0  0  0  0  0  0  0  0  0  0  0
    5.0322    7.8881   21.3243 O   0  0  0  0  0  0  0  0  0  0  0  0
    7.0965    4.7524   22.2277 C   0  0  0  0  0  0  0  0  0  0  0  0
   10.9123    6.7553   21.8353 C   0  0  0  0  0  0  0  0  0  0  0  0
    7.9745    9.3400   24.5458 O   0  0  0  0  0  0  0  0  0  0  0  0
    8.2771    4.6055   22.3469 C   0  0  0  0  0  0  0  0  0  0  0  0
   10.6193    7.5377   22.3496 N   0  0  0  0  0  0  0  0  0  0  0  0
    9.9342    8.2583   24.7826 O   0  0  0  0  0  0  0  0  0  0  0  0
    7.6493    4.8945   22.3460 C   0  0  0  0  0  0  0  0  0  0  0  0
    9.8330   10.1633   25.4961 O   0  0  0  0  0  0  0  0  0  0  0  0
   11.2013    7.9988   22.4317 C   0  0  0  0  0  0  0  0  0  0  0  0
    9.5878    9.7647   25.2256 O   0  0  0  0  0  0  0  0  0  0  0  0
    8.0645    8.1896   23.2343 C   0  0  0  0  0  0  0  0  0  0  0  0
   11.0786    8.5305   22.3676 O   0  0  0  0  0  0  0  0  0  0  0  0
    8.6642    7.7404   22.9674 C   0  0  0  0  0  0  0  0  0  0  0  0
   13.6353    6.5055   20.6820 C   0  0  0  0  0  0  0  0  0  0  0  0
  1  5  1  0
  1 14  1  0
  1 15  1  0
  2 29  1  0
  3  6  1  0
  8 25  1  0
  9 29  1  0
 10 29  1  0
 11 29  2  0
 17 20  1  0
 18 26  1  0
 24 27  2  0
 26 28  1  0
M  END
$$$$

 Created by Python create_sdf_string function

 29 46  0  0  0  0  0  0  0  0999 V2000
    6.0294    8.7796   22.4122 C   0  0  0  0  0  0  0  0  0  0  0  0
    5.2211    7.4536   23.7526 C   0  0  0  0  0  0  0  0  0  0  0  0
    7.0472    2.4622   23.3175 C   0  0  0  0  0  0  0  0  0  0  0  0
    9.6354    7.7155   25.3471 S   0  0  0  0  0  0  0  0  0  0  0  0
   12.9337    5.2273   18.4651 Br  0  0  0  0  0  0  0  0  0  0  0  0
    7.9697    5.9224   23.1198 S   0  0  0  0  0  0  0  0  0  0  0  0
    6.7726    7.8424   22.4430 C   0  0  0  0  0  0  0  0  0  0  0  0
    3.9844    7.1022   19.5461 N   0  0  0  0  0  0  0  0  0  0  0  0
    7.6483    4.6864   22.0671 F   0  0  0  0  0  0  0  0  0  0  0  0
    6.9693   10.3577   23.8675 O   0  0  0  0  0  0  0  0  0  0  0  0
    6.7013    4.9745   22.9782 P   0  0  0  0  0  0  0  0  0  0  0  0
   10.4445    8.5339   22.2427 C   0  0  0  0  0  0  0  0  0  0  0  0
    9.6010    8.3086   23.8450 C   0  0  0  0  0  0  0  0  0  0  0  0
   11.2076   10.1264   25.6501 O   0  0  0  0  0  0  0  0  0  0  0  0
   11.5278    6.6262   22.5245 C   0  0  0  0  0  0  0  0  0  0  0  0
    8.9240    8.7956   22.7992 C   0  0  0  0  0  0  0  0  0  0  0  0
   10.7005    8.2927   23.9752 O   0  0  0  0  0  0  0  0  0  0  0  0
    8.6623    7.8307   22.2515 Br  0  0  0  0  0  0  0  0  0  0  0  0
   14.0898    5.3707   21.6564 He  0  0  0  0  0  0  0  0  0  0  0  0
    6.4308    2.2245   23.1284 He  0  0  0  0  0  0  0  0  0  0  0  0
    5.9437    9.0467   22.9185 He  0  0  0  0  0  0  0  0  0  0  0  0
    8.3509    2.3707   22.5031 He  0  0  0  0  0  0  0  0  0  0  0  0
   12.8247    7.1364   20.7841 He  0  0  0  0  0  0  0  0  0  0  0  0
   15.1675    6.4227   23.0359 He  0  0  0  0  0  0  0  0  0  0  0  0
    8.3728    5.5167   21.7065 He  0  0  0  0  0  0  0  0  0  0  0  0
    8.9139    6.6232   21.3579 He  0  0  0  0  0  0  0  0  0  0  0  0
    7.3220    5.8329   20.4974 He  0  0  0  0  0  0  0  0  0  0  0  0
   11.2604    9.7119   25.1744 He  0  0  0  0  0  0  0  0  0  0  0  0
   13.6132    6.7546   20.7964 He  0  0  0  0  0  0  0  0  0  0  0  0
  1  2  3  0
  1  3  2  0
  1  7  1  0
  1 13  1  0
  1 17  4  0
  1 18  2  0
  2  3  1  0
  2 11  1  0
  2 12  2  0
  3  5  4  0
  3  7  2  0
  4  6  4  0
  4 16  4  0
  4 18  1  0
  5  9  3  0
  5 10  1  0
  5 18  2  0
  6 13  1  0
  6 16  4  0
  6 17  3  0
  7  8  1  0
  7 10  4  0
  7 16  3  0
  7 17  1  0
  8 11  2  0
  8 13  2  0
  8 15  1  0
  8 17  1  0
  9 10  3  0
  9 13  1  0
  9 14  3  0
  9 15  4  0
  9 17  1  0
 10 11  1  0
 10 12  2  0
 10 16  1  0
 10 18  1  0
 11 18  4  0
 12 13  3  0
 12 14  4  0
 13 16  2  0
 13 17  4  0
 13 18  3  0
 14 17  1  0
 15 16  4  0
 16 17  2  0
M  END
$$$$

 Created by Python create_sdf_string function

 29 17  0  0  0  0  0  0  0  0999 V2000
    5.9828    8.3260   22.1449 C   0  0  0  0  0  0  0  0  0  0  0  0
   14.0014    5.7029   21.4142 C   0  0  0  0  0  0  0  0  0  0  0  0
    6.4048    2.5644   23.2029 O   0  0  0  0  0  0  0  0  0  0  0  0
    5.2851    7.6466   23.4195 C   0  0  0  0  0  0  0  0  0  0  0  0
    5.9764    8.6808   22.7989 C   0  0  0  0  0  0  0  0  0  0  0  0
    7.1858    2.8705   22.9530 C   0  0  0  0  0  0  0  0  0  0  0  0
    8.2739    2.4641   22.3867 O   0  0  0  0  0  0  0  0  0  0  0  0
    9.6779    8.1815   25.3940 O   0  0  0  0  0  0  0  0  0  0  0  0
   12.5569    6.8223   21.1589 C   0  0  0  0  0  0  0  0  0  0  0  0
   12.9189    5.8176   19.6162 O   0  0  0  0  0  0  0  0  0  0  0  0
   14.2870    6.4042   22.3640 O   0  0  0  0  0  0  0  0  0  0  0  0
    7.6809    4.7773   22.0281 C   0  0  0  0  0  0  0  0  0  0  0  0
    7.8775    6.0119   23.2768 C   0  0  0  0  0  0  0  0  0  0  0  0
    6.4251    7.4735   21.8527 C   0  0  0  0  0  0  0  0  0  0  0  0
    4.8867    7.4962   20.6192 O   0  0  0  0  0  0  0  0  0  0  0  0
    7.9149    4.1031   21.9893 C   0  0  0  0  0  0  0  0  0  0  0  0
    9.4074    6.5936   21.3210 C   0  0  0  0  0  0  0  0  0  0  0  0
    7.1653    9.8235   23.4994 O   0  0  0  0  0  0  0  0  0  0  0  0
    6.8152    5.2521   22.9351 C   0  0  0  0  0  0  0  0  0  0  0  0
   10.6828    7.7695   22.1878 C   0  0  0  0  0  0  0  0  0  0  0  0
    9.8653    8.4912   23.8439 C   0  0  0  0  0  0  0  0  0  0  0  0
    7.1918    6.0565   20.8497 C   0  0  0  0  0  0  0  0  0  0  0  0
   11.0077    9.5169   25.3989 O   0  0  0  0  0  0  0  0  0  0  0  0
   11.8394    7.0453   22.0740 C   0  0  0  0  0  0  0  0  0  0  0  0
   10.9576    9.4498   25.3267 C   0  0  0  0  0  0  0  0  0  0  0  0
    8.7537    8.6076   23.1854 C   0  0  0  0  0  0  0  0  0  0  0  0
   10.8383    8.4813   23.7614 O   0  0  0  0  0  0  0  0  0  0  0  0
    8.6113    7.7066   22.5708 C   0  0  0  0  0  0  0  0  0  0  0  0
   13.3650    6.3919   20.8109 C   0  0  0  0  0  0  0  0  0  0  0  0
  1  5  1  0
  1 14  1  0
  2 11  1  0
  2 29  1  0
  3  6  1  0
  4  5  1  0
  6  7  1  0
  9 24  1  0
  9 29  1  0
 12 16  1  0
 12 19  1  0
 13 19  4  0
 17 20  1  0
 20 24  1  0
 21 27  1  0
 23 25  1  0
 26 28  1  0
M  END
$$$$

 Created by Python create_sdf_string function

 29 91  0  0  0  0  0  0  0  0999 V2000
    7.4247    8.7597   21.0250 C   0  0  0  0  0  0  0  0  0  0  0  0
   14.5488    5.3312   21.1359 C   0  0  0  0  0  0  0  0  0  0  0  0
    6.2127    0.9201   22.7383 O   0  0  0  0  0  0  0  0  0  0  0  0
    4.4859    9.1585   23.3511 C   0  0  0  0  0  0  0  0  0  0  0  0
    5.6818    9.1524   21.9205 C   0  0  0  0  0  0  0  0  0  0  0  0
    8.0248    2.9976   22.9833 C   0  0  0  0  0  0  0  0  0  0  0  0
    7.1571    3.1173   22.4226 S   0  0  0  0  0  0  0  0  0  0  0  0
   13.6910    7.6087   22.3334 C   0  0  0  0  0  0  0  0  0  0  0  0
   11.7279    5.1124   18.3431 O   0  0  0  0  0  0  0  0  0  0  0  0
   14.8296    6.6005   22.8086 O   0  0  0  0  0  0  0  0  0  0  0  0
    6.8033    4.5424   21.1425 C   0  0  0  0  0  0  0  0  0  0  0  0
    6.5630    5.5612   23.7965 C   0  0  0  0  0  0  0  0  0  0  0  0
    7.9418    6.9240   22.0828 Cl  0  0  0  0  0  0  0  0  0  0  0  0
    3.6246    8.6677   20.3174 C   0  0  0  0  0  0  0  0  0  0  0  0
    6.5398   10.4115   24.0630 O   0  0  0  0  0  0  0  0  0  0  0  0
    6.8615    5.7192   22.7710 C   0  0  0  0  0  0  0  0  0  0  0  0
   11.0462    6.6363   23.5347 C   0  0  0  0  0  0  0  0  0  0  0  0
    8.4725    8.4544   23.5559 O   0  0  0  0  0  0  0  0  0  0  0  0
   10.2283    8.4066   24.1093 Cl  0  0  0  0  0  0  0  0  0  0  0  0
   11.9463    8.2261   22.0273 C   0  0  0  0  0  0  0  0  0  0  0  0
   10.2062    9.3774   25.3931 C   0  0  0  0  0  0  0  0  0  0  0  0
    8.1836    9.2523   22.9801 F   0  0  0  0  0  0  0  0  0  0  0  0
   10.1508    8.5330   24.4495 O   0  0  0  0  0  0  0  0  0  0  0  0
    8.0636    8.6944   23.2580 C   0  0  0  0  0  0  0  0  0  0  0  0
   12.2246    6.5869   21.0934 S   0  0  0  0  0  0  0  0  0  0  0  0
    8.7061    9.2996   24.8923 He  0  0  0  0  0  0  0  0  0  0  0  0
    8.5904    4.1400   21.9627 He  0  0  0  0  0  0  0  0  0  0  0  0
    9.3052    6.5527   21.8115 He  0  0  0  0  0  0  0  0  0  0  0  0
    6.6207    6.9654   20.4841 He  0  0  0  0  0  0  0  0  0  0  0  0
  1  3  3  0
  1  4  3  0
  1 10  4  0
  1 12  2  0
  1 14  3  0
  1 18  2  0
  1 19  2  0
  1 22  1  0
  2  7  2  0
  2  8  3  0
  2 10  1  0
  2 18  3  0
  2 19  2  0
  2 20  4  0
  2 23  1  0
  2 25  1  0
  3  4  2  0
  3  6  1  0
  3 10  1  0
  3 11  3  0
  3 18  4  0
  3 20  3  0
  3 21  2  0
  4 10  3  0
  4 12  1  0
  4 17  2  0
  5  7  4  0
  5  8  3  0
  5 10  3  0
  5 14  4  0
  5 18  1  0
  5 20  1  0
  5 22  4  0
  6  7  1  0
  6 13  3  0
  6 17  1  0
  6 23  1  0
  6 25  1  0
  7 10  1  0
  7 12  1  0
  7 17  4  0
  7 18  1  0
  7 24  3  0
  7 25  3  0
  8 12  2  0
  8 13  3  0
  8 17  1  0
  8 20  4  0
  8 22  1  0
  9 13  4  0
  9 17  4  0
  9 23  1  0
 10 16  2  0
 10 21  4  0
 10 23  3  0
 11 14  4  0
 11 15  2  0
 11 17  3  0
 11 21  2  0
 11 23  2  0
 12 16  3  0
 12 20  1  0
 12 21  4  0
 12 22  1  0
 13 19  2  0
 13 20  4  0
 13 24  4  0
 14 17  2  0
 14 18  1  0
 14 21  3  0
 15 17  2  0
 15 21  4  0
 15 22  2  0
 15 24  3  0
 16 19  1  0
 16 23  4  0
 16 24  3  0
 17 20  1  0
 17 22  2  0
 17 25  2  0
 18 22  1  0
 19 20  4  0
 19 21  1  0
 19 22  1  0
 19 24  4  0
 20 24  4  0
 22 23  3  0
 22 24  2  0
 22 25  1  0
 23 25  4  0
 24 25  1  0
M  END
$$$$

 Created by Python create_sdf_string function

 29 21  0  0  0  0  0  0  0  0999 V2000
    6.8191    8.7219   21.7131 C   0  0  0  0  0  0  0  0  0  0  0  0
   13.8468    5.9780   21.1560 C   0  0  0  0  0  0  0  0  0  0  0  0
    6.4145    1.9930   22.9210 O   0  0  0  0  0  0  0  0  0  0  0  0
    4.7548    9.0870   22.6129 C   0  0  0  0  0  0  0  0  0  0  0  0
    5.4962    8.8743   21.6804 C   0  0  0  0  0  0  0  0  0  0  0  0
    7.5913    2.9665   22.8004 C   0  0  0  0  0  0  0  0  0  0  0  0
    7.2073    3.1993   22.7793 C   0  0  0  0  0  0  0  0  0  0  0  0
    9.0376    9.5133   25.1642 O   0  0  0  0  0  0  0  0  0  0  0  0
   13.1510    7.0880   22.4273 C   0  0  0  0  0  0  0  0  0  0  0  0
   11.8867    5.6364   19.9456 O   0  0  0  0  0  0  0  0  0  0  0  0
   14.2712    6.5465   22.3114 O   0  0  0  0  0  0  0  0  0  0  0  0
    7.0613    4.7849   21.2541 C   0  0  0  0  0  0  0  0  0  0  0  0
    6.8473    4.9616   23.2990 C   0  0  0  0  0  0  0  0  0  0  0  0
    7.5957    6.9019   21.9033 C   0  0  0  0  0  0  0  0  0  0  0  0
    4.5454    8.7489   20.6717 C   0  0  0  0  0  0  0  0  0  0  0  0
    8.0642    3.9378   21.7105 C   0  0  0  0  0  0  0  0  0  0  0  0
    9.9933    6.8305   21.7344 C   0  0  0  0  0  0  0  0  0  0  0  0
    6.9562   10.2079   23.7653 O   0  0  0  0  0  0  0  0  0  0  0  0
    6.9876    5.5389   22.4822 C   0  0  0  0  0  0  0  0  0  0  0  0
   11.3408    7.2015   22.9384 C   0  0  0  0  0  0  0  0  0  0  0  0
    8.3797    8.5153   23.0709 O   0  0  0  0  0  0  0  0  0  0  0  0
    6.5587    6.7855   21.2058 C   0  0  0  0  0  0  0  0  0  0  0  0
   10.2830    8.5482   24.2397 C   0  0  0  0  0  0  0  0  0  0  0  0
   11.5861    7.2498   22.1180 C   0  0  0  0  0  0  0  0  0  0  0  0
    9.9619    9.2730   25.1711 C   0  0  0  0  0  0  0  0  0  0  0  0
    7.7659    9.0901   23.0665 C   0  0  0  0  0  0  0  0  0  0  0  0
   10.6252    8.1442   24.4517 O   0  0  0  0  0  0  0  0  0  0  0  0
    7.9741    8.5148   22.8774 C   0  0  0  0  0  0  0  0  0  0  0  0
   12.4812    6.1273   20.9185 C   0  0  0  0  0  0  0  0  0  0  0  0
  1  5  1  0
  1 26  1  0
  2 11  1  0
  2 29  1  0
  3  6  1  0
  4  5  1  0
  5 15  1  0
  6  7  1  0
  8 25  1  0
  9 11  1  0
 10 29  1  0
 12 16  4  0
 13 19  4  0
 14 22  1  0
 17 24  1  0
 18 26  2  0
 20 24  1  0
 21 26  1  0
 21 28  1  0
 23 25  1  0
 23 27  1  0
M  END
$$$$

 Created by Python create_sdf_string function

 29 62  0  0  0  0  0  0  0  0999 V2000
    7.0036    9.3375   21.8499 C   0  0  0  0  0  0  0  0  0  0  0  0
    5.3414    9.7179   23.1497 C   0  0  0  0  0  0  0  0  0  0  0  0
    6.2124    7.3756   21.3537 C   0  0  0  0  0  0  0  0  0  0  0  0
    7.6387    1.9219   23.1166 C   0  0  0  0  0  0  0  0  0  0  0  0
    5.5366    3.1555   22.2721 Se  0  0  0  0  0  0  0  0  0  0  0  0
    9.1167    9.7102   24.1500 Cl  0  0  0  0  0  0  0  0  0  0  0  0
   13.3027    7.2480   21.5885 I   0  0  0  0  0  0  0  0  0  0  0  0
   12.7767    7.0021   19.8807 F   0  0  0  0  0  0  0  0  0  0  0  0
   13.9790    5.9850   22.6602 O   0  0  0  0  0  0  0  0  0  0  0  0
    6.8854    4.8923   21.2903 C   0  0  0  0  0  0  0  0  0  0  0  0
    7.3049    4.3619   22.2864 O   0  0  0  0  0  0  0  0  0  0  0  0
    6.5013    5.1064   23.3323 C   0  0  0  0  0  0  0  0  0  0  0  0
    5.3392    9.2016   20.8592 O   0  0  0  0  0  0  0  0  0  0  0  0
    8.1766    4.3138   21.1642 C   0  0  0  0  0  0  0  0  0  0  0  0
    9.0481    6.5314   21.7936 C   0  0  0  0  0  0  0  0  0  0  0  0
    6.2395    5.4706   22.0762 S   0  0  0  0  0  0  0  0  0  0  0  0
    9.3859    8.8398   22.4113 F   0  0  0  0  0  0  0  0  0  0  0  0
    6.0295    5.9336   23.1098 C   0  0  0  0  0  0  0  0  0  0  0  0
   11.2885    7.7682   21.0274 C   0  0  0  0  0  0  0  0  0  0  0  0
    7.2815    9.3324   22.6994 B   0  0  0  0  0  0  0  0  0  0  0  0
    7.1215    9.0166   22.9309 C   0  0  0  0  0  0  0  0  0  0  0  0
   14.5262    5.6684   20.4703 He  0  0  0  0  0  0  0  0  0  0  0  0
    6.0419    2.4343   23.4872 He  0  0  0  0  0  0  0  0  0  0  0  0
    7.9586   10.3234   23.2619 He  0  0  0  0  0  0  0  0  0  0  0  0
   10.5787    6.4083   23.0895 He  0  0  0  0  0  0  0  0  0  0  0  0
   10.2807    8.3934   24.0880 He  0  0  0  0  0  0  0  0  0  0  0  0
    9.3758    9.6843   24.3806 He  0  0  0  0  0  0  0  0  0  0  0  0
   10.9117    8.0268   24.8455 He  0  0  0  0  0  0  0  0  0  0  0  0
   11.9003    7.6922   20.7066 He  0  0  0  0  0  0  0  0  0  0  0  0
  1  4  4  0
  1  7  4  0
  1 10  3  0
  1 11  3  0
  1 16  2  0
  1 20  3  0
  2  4  1  0
  2  6  4  0
  2 10  1  0
  2 13  3  0
  2 15  4  0
  2 20  1  0
  3  4  1  0
  3  6  4  0
  3  8  1  0
  3 13  2  0
  3 14  2  0
  3 15  4  0
  3 16  1  0
  3 19  4  0
  3 20  4  0
  3 21  3  0
  4  5  1  0
  4  6  4  0
  4  7  4  0
  4 11  4  0
  4 14  4  0
  4 18  1  0
  4 20  2  0
  5  7  4  0
  5 10  1  0
  5 18  3  0
  5 20  2  0
  6  9  2  0
  6 12  4  0
  6 18  4  0
  6 20  2  0
  7 10  4  0
  7 13  2  0
  7 17  3  0
  7 19  4  0
  8 10  4  0
  8 12  3  0
  8 14  4  0
  9 13  4  0
  9 20  3  0
 10 19  3  0
 10 20  1  0
 11 13  4  0
 11 15  3  0
 11 21  3  0
 12 14  4  0
 12 19  4  0
 12 20  1  0
 12 21  1  0
 13 20  3  0
 15 17  1  0
 16 17  1  0
 17 18  2  0
 17 20  4  0
 17 21  2  0
 18 19  4  0
M  END
$$$$

 Created by Python create_sdf_string function

 29 17  0  0  0  0  0  0  0  0999 V2000
    7.1502    9.1197   21.9848 C   0  0  0  0  0  0  0  0  0  0  0  0
   14.1407    6.1231   20.7178 O   0  0  0  0  0  0  0  0  0  0  0  0
    6.3962    2.2450   23.6868 O   0  0  0  0  0  0  0  0  0  0  0  0
    5.4985    9.7170   22.8675 C   0  0  0  0  0  0  0  0  0  0  0  0
    6.0182    7.7635   21.6659 C   0  0  0  0  0  0  0  0  0  0  0  0
    7.0630    2.6663   22.9013 C   0  0  0  0  0  0  0  0  0  0  0  0
    6.0057    2.6800   22.1213 O   0  0  0  0  0  0  0  0  0  0  0  0
    9.2526    9.5881   24.3351 C   0  0  0  0  0  0  0  0  0  0  0  0
   12.9465    6.6210   21.4073 C   0  0  0  0  0  0  0  0  0  0  0  0
   13.0691    6.8523   20.0214 C   0  0  0  0  0  0  0  0  0  0  0  0
   13.5483    6.1703   22.2871 O   0  0  0  0  0  0  0  0  0  0  0  0
    6.9747    4.8959   21.3007 C   0  0  0  0  0  0  0  0  0  0  0  0
    7.3079    4.0699   22.7482 C   0  0  0  0  0  0  0  0  0  0  0  0
    6.4333    5.0397   23.1694 C   0  0  0  0  0  0  0  0  0  0  0  0
    5.3597    8.6205   20.9196 O   0  0  0  0  0  0  0  0  0  0  0  0
    7.6443    4.3692   21.4396 C   0  0  0  0  0  0  0  0  0  0  0  0
    9.7803    7.0287   22.0685 C   0  0  0  0  0  0  0  0  0  0  0  0
    7.8272   10.0711   23.1244 C   0  0  0  0  0  0  0  0  0  0  0  0
    6.2764    6.2892   22.0899 C   0  0  0  0  0  0  0  0  0  0  0  0
   10.7941    6.8663   22.7393 C   0  0  0  0  0  0  0  0  0  0  0  0
    9.3728    8.5650   22.4696 C   0  0  0  0  0  0  0  0  0  0  0  0
    6.1572    5.9381   22.9586 C   0  0  0  0  0  0  0  0  0  0  0  0
   10.4886    8.2366   24.3312 C   0  0  0  0  0  0  0  0  0  0  0  0
   11.6262    7.4452   21.3016 C   0  0  0  0  0  0  0  0  0  0  0  0
    9.5218    9.5008   24.2319 C   0  0  0  0  0  0  0  0  0  0  0  0
    6.7630    9.2751   22.4977 C   0  0  0  0  0  0  0  0  0  0  0  0
   10.8592    7.9178   24.5585 C   0  0  0  0  0  0  0  0  0  0  0  0
    7.4423    9.2513   22.8900 C   0  0  0  0  0  0  0  0  0  0  0  0
   11.3939    7.5086   21.0775 C   0  0  0  0  0  0  0  0  0  0  0  0
  1 26  1  0
  3  6  2  0
  4 26  1  0
  5 15  2  0
  5 19  1  0
  6  7  1  0
  6 13  4  0
  8 25  1  0
  9 24  4  0
 12 16  4  0
 13 14  4  0
 14 22  4  0
 17 20  4  0
 18 28  1  0
 19 22  4  0
 23 27  1  0
 24 29  4  0
M  END
$$$$

 Created by Python create_sdf_string function

 29 42  0  0  0  0  0  0  0  0999 V2000
   14.0879    6.5585   21.1859 O   0  0  0  0  0  0  0  0  0  0  0  0
    6.4264    2.1502   22.8653 Cl  0  0  0  0  0  0  0  0  0  0  0  0
    5.4266   10.2091   22.9027 C   0  0  0  0  0  0  0  0  0  0  0  0
    6.0315    2.8100   21.7102 C   0  0  0  0  0  0  0  0  0  0  0  0
   12.6117    7.3683   21.6351 C   0  0  0  0  0  0  0  0  0  0  0  0
   12.4335    6.5764   21.9445 O   0  0  0  0  0  0  0  0  0  0  0  0
    7.9813    4.7608   22.4523 Br  0  0  0  0  0  0  0  0  0  0  0  0
    5.9561    7.8227   19.7737 F   0  0  0  0  0  0  0  0  0  0  0  0
    6.8385    8.4700   23.3054 Cl  0  0  0  0  0  0  0  0  0  0  0  0
    9.4032    9.1468   22.8056 B   0  0  0  0  0  0  0  0  0  0  0  0
    6.3303    5.3508   22.5557 Br  0  0  0  0  0  0  0  0  0  0  0  0
   12.5331    7.9565   21.7191 F   0  0  0  0  0  0  0  0  0  0  0  0
    9.7107    8.9918   25.9746 C   0  0  0  0  0  0  0  0  0  0  0  0
    6.3630   10.1373   22.9153 Cl  0  0  0  0  0  0  0  0  0  0  0  0
   10.7996    8.1875   25.3114 C   0  0  0  0  0  0  0  0  0  0  0  0
    7.8827    8.4801   22.3864 C   0  0  0  0  0  0  0  0  0  0  0  0
    6.7507    9.1380   23.3970 He  0  0  0  0  0  0  0  0  0  0  0  0
    5.0708    8.3007   22.3142 He  0  0  0  0  0  0  0  0  0  0  0  0
    7.1485    2.7324   23.6285 He  0  0  0  0  0  0  0  0  0  0  0  0
    9.4209   10.2009   24.0620 He  0  0  0  0  0  0  0  0  0  0  0  0
   13.1824    6.8008   20.5693 He  0  0  0  0  0  0  0  0  0  0  0  0
    7.0296    4.5815   20.8769 He  0  0  0  0  0  0  0  0  0  0  0  0
    6.3715    6.3636   22.9309 He  0  0  0  0  0  0  0  0  0  0  0  0
    8.3548    5.0137   21.5289 He  0  0  0  0  0  0  0  0  0  0  0  0
   11.1516    6.7889   21.6325 He  0  0  0  0  0  0  0  0  0  0  0  0
    7.0965    7.3017   21.5405 He  0  0  0  0  0  0  0  0  0  0  0  0
   12.2893    5.7807   22.9816 He  0  0  0  0  0  0  0  0  0  0  0  0
    9.3462    9.3000   24.6496 He  0  0  0  0  0  0  0  0  0  0  0  0
   11.3505    6.6424   21.0793 He  0  0  0  0  0  0  0  0  0  0  0  0
  1  9  4  0
  1 13  1  0
  1 16  3  0
  2  4  3  0
  2  5  3  0
  2  7  2  0
  2  8  3  0
  2 10  3  0
  2 11  4  0
  2 13  3  0
  2 16  4  0
  3  4  1  0
  3  5  4  0
  3  6  4  0
  3  7  1  0
  3  8  2  0
  3 12  1  0
  3 14  1  0
  3 16  3  0
  4  8  3  0
  4 13  4  0
  4 16  1  0
  5  6  3  0
  5 14  3  0
  5 15  3  0
  6  7  3  0
  6  8  4  0
  6 11  2  0
  7  8  3  0
  7  9  4  0
  7 12  2  0
  7 14  1  0
  8 10  1  0
  9 11  3  0
  9 12  4  0
  9 16  2  0
 10 12  3  0
 10 14  2  0
 11 12  1  0
 11 13  1  0
 12 13  2  0
 12 16  3  0
M  END
$$$$

 Created by Python create_sdf_string function

 29 10  0  0  0  0  0  0  0  0999 V2000
    6.9288    9.3933   23.2683 C   0  0  0  0  0  0  0  0  0  0  0  0
   14.3064    6.5696   21.3604 O   0  0  0  0  0  0  0  0  0  0  0  0
    6.4900    2.6210   22.9868 C   0  0  0  0  0  0  0  0  0  0  0  0
    5.4541   10.0371   22.6563 C   0  0  0  0  0  0  0  0  0  0  0  0
    5.5633    8.3928   22.0828 C   0  0  0  0  0  0  0  0  0  0  0  0
    6.9095    2.6915   23.2018 C   0  0  0  0  0  0  0  0  0  0  0  0
    6.2409    2.9568   21.9279 C   0  0  0  0  0  0  0  0  0  0  0  0
    9.3682    9.9735   23.8658 C   0  0  0  0  0  0  0  0  0  0  0  0
   12.8873    7.1498   20.8140 C   0  0  0  0  0  0  0  0  0  0  0  0
   12.8226    7.1221   21.6420 C   0  0  0  0  0  0  0  0  0  0  0  0
   12.2282    6.4115   22.0204 C   0  0  0  0  0  0  0  0  0  0  0  0
    7.1218    4.7284   21.2615 C   0  0  0  0  0  0  0  0  0  0  0  0
    7.5791    4.6626   22.7111 C   0  0  0  0  0  0  0  0  0  0  0  0
    6.6531    5.9895   22.8065 C   0  0  0  0  0  0  0  0  0  0  0  0
    5.9187    7.8943   20.4878 O   0  0  0  0  0  0  0  0  0  0  0  0
    8.5138    5.2578   21.5694 C   0  0  0  0  0  0  0  0  0  0  0  0
   10.5640    6.5479   21.9250 C   0  0  0  0  0  0  0  0  0  0  0  0
    6.7925    8.2929   22.7000 C   0  0  0  0  0  0  0  0  0  0  0  0
    6.8014    7.3827   21.9415 C   0  0  0  0  0  0  0  0  0  0  0  0
   11.9267    6.1765   23.0266 C   0  0  0  0  0  0  0  0  0  0  0  0
    9.4777    8.9644   23.1674 C   0  0  0  0  0  0  0  0  0  0  0  0
    6.5680    5.1208   22.4654 C   0  0  0  0  0  0  0  0  0  0  0  0
    9.7033    9.0209   24.9185 C   0  0  0  0  0  0  0  0  0  0  0  0
   12.6023    7.9552   21.4237 C   0  0  0  0  0  0  0  0  0  0  0  0
    9.8162    9.1857   25.3763 C   0  0  0  0  0  0  0  0  0  0  0  0
    6.1415   10.2885   22.8833 C   0  0  0  0  0  0  0  0  0  0  0  0
   10.6075    8.2017   24.9339 C   0  0  0  0  0  0  0  0  0  0  0  0
    8.1506    8.8500   22.7170 C   0  0  0  0  0  0  0  0  0  0  0  0
   11.0090    6.5019   21.2351 C   0  0  0  0  0  0  0  0  0  0  0  0
  3  6  1  0
  4 26  1  0
  5 18  1  0
  9 24  4  0
 11 29  4  0
 14 22  4  0
 17 29  4  0
 18 19  1  0
 23 25  1  0
 23 27  4  0
M  END
$$$$

 Created by Python create_sdf_string function

 29 78  0  0  0  0  0  0  0  0999 V2000
    7.2729   10.5789   21.7250 S   0  0  0  0  0  0  0  0  0  0  0  0
   14.7439    6.3275   21.5458 F   0  0  0  0  0  0  0  0  0  0  0  0
    4.9977   10.4153   22.9260 C   0  0  0  0  0  0  0  0  0  0  0  0
    7.2055    8.3701   21.0950 I   0  0  0  0  0  0  0  0  0  0  0  0
    6.6781    2.8810   22.9069 C   0  0  0  0  0  0  0  0  0  0  0  0
    6.1133    3.3178   22.0418 C   0  0  0  0  0  0  0  0  0  0  0  0
   10.5275    9.2479   24.5752 C   0  0  0  0  0  0  0  0  0  0  0  0
   12.8403    6.4629   21.6910 C   0  0  0  0  0  0  0  0  0  0  0  0
   14.2337    7.1076   21.7128 C   0  0  0  0  0  0  0  0  0  0  0  0
    7.0161    4.6765   21.6331 Cl  0  0  0  0  0  0  0  0  0  0  0  0
    6.5300    4.2540   21.6625 C   0  0  0  0  0  0  0  0  0  0  0  0
    5.8375    7.0331   21.7379 I   0  0  0  0  0  0  0  0  0  0  0  0
    6.0838    8.2274   20.0042 O   0  0  0  0  0  0  0  0  0  0  0  0
    7.0410    8.3998   22.4013 C   0  0  0  0  0  0  0  0  0  0  0  0
    8.3310    7.1494   20.4053 C   0  0  0  0  0  0  0  0  0  0  0  0
    9.5286    7.5723   23.8313 Cl  0  0  0  0  0  0  0  0  0  0  0  0
    6.5464    6.2476   22.4748 C   0  0  0  0  0  0  0  0  0  0  0  0
    9.0841    8.5955   24.6013 N   0  0  0  0  0  0  0  0  0  0  0  0
    7.1977    9.8035   23.6637 C   0  0  0  0  0  0  0  0  0  0  0  0
   10.5924    8.5242   24.3740 C   0  0  0  0  0  0  0  0  0  0  0  0
    7.2156    9.7509   23.0055 C   0  0  0  0  0  0  0  0  0  0  0  0
   11.0588    7.3895   21.3686 C   0  0  0  0  0  0  0  0  0  0  0  0
    6.8902    2.6293   22.7355 He  0  0  0  0  0  0  0  0  0  0  0  0
   11.6617    6.7011   22.3369 He  0  0  0  0  0  0  0  0  0  0  0  0
    9.5594    4.6318   21.8889 He  0  0  0  0  0  0  0  0  0  0  0  0
   10.3877    6.6269   23.7972 He  0  0  0  0  0  0  0  0  0  0  0  0
   12.4177    5.9466   22.9002 He  0  0  0  0  0  0  0  0  0  0  0  0
    9.4550    8.9242   23.9460 He  0  0  0  0  0  0  0  0  0  0  0  0
   13.1851    6.6287   21.6925 He  0  0  0  0  0  0  0  0  0  0  0  0
  1  3  1  0
  1  5  1  0
  1  6  1  0
  1 11  4  0
  1 13  2  0
  1 21  4  0
  2  4  3  0
  2  7  2  0
  2 10  4  0
  2 11  1  0
  2 13  2  0
  2 16  2  0
  3 11  3  0
  3 12  1  0
  3 19  1  0
  3 22  2  0
  4  6  3  0
  4  7  3  0
  4  9  4  0
  4 12  2  0
  4 14  1  0
  4 17  1  0
  4 18  1  0
  4 21  4  0
  4 22  4  0
  5  7  4  0
  5  9  1  0
  5 15  3  0
  5 16  4  0
  5 18  2  0
  6 14  2  0
  6 15  4  0
  6 16  2  0
  6 20  2  0
  6 21  1  0
  7  9  4  0
  7 12  1  0
  7 14  2  0
  7 16  4  0
  7 21  3  0
  8 11  3  0
  8 13  1  0
  8 14  4  0
  8 15  3  0
  8 16  1  0
  8 17  2  0
  8 18  1  0
  8 19  4  0
  8 22  2  0
  9 12  1  0
  9 13  4  0
  9 21  4  0
  9 22  1  0
 10 11  4  0
 10 15  3  0
 10 18  3  0
 10 19  4  0
 11 14  4  0
 11 15  3  0
 11 18  3  0
 11 22  2  0
 12 17  4  0
 12 20  4  0
 13 17  1  0
 13 19  3  0
 14 17  2  0
 14 18  3  0
 14 19  2  0
 14 20  4  0
 15 18  2  0
 16 19  2  0
 16 20  1  0
 17 19  4  0
 17 21  1  0
 18 19  2  0
 19 21  3  0
 19 22  4  0
 21 22  4  0
M  END
$$$$

 Created by Python create_sdf_string function

 29 20  0  0  0  0  0  0  0  0999 V2000
    6.8552   10.4876   21.6061 C   0  0  0  0  0  0  0  0  0  0  0  0
   14.8560    6.0548   21.5264 O   0  0  0  0  0  0  0  0  0  0  0  0
    6.8053    2.9394   22.7428 C   0  0  0  0  0  0  0  0  0  0  0  0
    5.6016   10.3270   22.7139 C   0  0  0  0  0  0  0  0  0  0  0  0
    6.8932    7.9005   21.5515 C   0  0  0  0  0  0  0  0  0  0  0  0
    7.0667    2.8975   22.9856 C   0  0  0  0  0  0  0  0  0  0  0  0
    5.9064    3.3021   22.0219 C   0  0  0  0  0  0  0  0  0  0  0  0
   10.3425    9.5026   24.7331 C   0  0  0  0  0  0  0  0  0  0  0  0
   12.7836    6.6043   21.5509 C   0  0  0  0  0  0  0  0  0  0  0  0
   14.1216    7.4064   21.5214 C   0  0  0  0  0  0  0  0  0  0  0  0
   11.3999    7.0964   22.4889 C   0  0  0  0  0  0  0  0  0  0  0  0
    7.2752    4.9965   21.7575 C   0  0  0  0  0  0  0  0  0  0  0  0
    6.5360    4.3915   21.8662 C   0  0  0  0  0  0  0  0  0  0  0  0
    5.9998    6.7448   21.6857 C   0  0  0  0  0  0  0  0  0  0  0  0
    5.9864    8.4691   20.1319 O   0  0  0  0  0  0  0  0  0  0  0  0
    8.7653    4.9425   21.8439 C   0  0  0  0  0  0  0  0  0  0  0  0
   10.9315    6.3976   23.7411 C   0  0  0  0  0  0  0  0  0  0  0  0
    6.8593    8.4324   22.2115 C   0  0  0  0  0  0  0  0  0  0  0  0
    8.1255    6.4865   20.9931 C   0  0  0  0  0  0  0  0  0  0  0  0
   12.5471    5.9751   22.9061 C   0  0  0  0  0  0  0  0  0  0  0  0
    9.7205    7.8814   24.0332 N   0  0  0  0  0  0  0  0  0  0  0  0
    6.2913    6.5944   21.7469 C   0  0  0  0  0  0  0  0  0  0  0  0
    9.2487    9.0966   24.3052 C   0  0  0  0  0  0  0  0  0  0  0  0
   13.6602    6.4542   21.7836 C   0  0  0  0  0  0  0  0  0  0  0  0
    8.5824    9.1198   24.4223 N   0  0  0  0  0  0  0  0  0  0  0  0
    7.1519    9.7557   23.6278 C   0  0  0  0  0  0  0  0  0  0  0  0
   10.6138    7.7486   24.1240 C   0  0  0  0  0  0  0  0  0  0  0  0
    7.2819   10.0216   22.7930 C   0  0  0  0  0  0  0  0  0  0  0  0
   11.4658    7.2983   21.5232 C   0  0  0  0  0  0  0  0  0  0  0  0
  1  4  1  0
  1 28  1  0
  2 24  2  0
  3  6  1  0
  4 26  1  0
  5 18  1  0
  5 19  4  0
  7 13  4  0
  9 24  1  0
 10 24  1  0
 11 27  1  0
 11 29  4  0
 12 13  4  0
 14 22  4  0
 16 19  4  0
 17 27  1  0
 20 24  1  0
 21 27  1  0
 23 25  1  0
 26 28  1  0
M  END
$$$$

 Created by Python create_sdf_string function

 29 44  0  0  0  0  0  0  0  0999 V2000
    7.2435   10.5935   22.0745 C   0  0  0  0  0  0  0  0  0  0  0  0
    6.6542    3.7619   22.8671 C   0  0  0  0  0  0  0  0  0  0  0  0
    5.6405   10.5982   21.7194 C   0  0  0  0  0  0  0  0  0  0  0  0
    6.0361    8.1805   21.7834 Cl  0  0  0  0  0  0  0  0  0  0  0  0
    9.9968    9.2109   25.1542 C   0  0  0  0  0  0  0  0  0  0  0  0
   12.7052    7.0476   22.9499 C   0  0  0  0  0  0  0  0  0  0  0  0
   14.1983    7.0867   20.8204 C   0  0  0  0  0  0  0  0  0  0  0  0
    6.5109    5.8827   21.6602 O   0  0  0  0  0  0  0  0  0  0  0  0
    5.3638    4.2787   21.4813 C   0  0  0  0  0  0  0  0  0  0  0  0
    7.9349    5.2588   21.5438 Se  0  0  0  0  0  0  0  0  0  0  0  0
   10.9869    6.7468   22.5942 F   0  0  0  0  0  0  0  0  0  0  0  0
    8.1798    8.3107   21.6280 C   0  0  0  0  0  0  0  0  0  0  0  0
    9.6017    6.9317   22.1508 C   0  0  0  0  0  0  0  0  0  0  0  0
    9.1214    7.9578   24.1286 P   0  0  0  0  0  0  0  0  0  0  0  0
   10.1507    8.7657   24.5390 P   0  0  0  0  0  0  0  0  0  0  0  0
   14.0057    6.5824   22.3400 F   0  0  0  0  0  0  0  0  0  0  0  0
    9.4378    6.6738   23.9999 N   0  0  0  0  0  0  0  0  0  0  0  0
   10.5717    6.3115   21.3191 O   0  0  0  0  0  0  0  0  0  0  0  0
   14.8406    5.3281   21.4726 He  0  0  0  0  0  0  0  0  0  0  0  0
    8.2256    1.9347   23.9296 He  0  0  0  0  0  0  0  0  0  0  0  0
    5.9447    3.8757   22.4531 He  0  0  0  0  0  0  0  0  0  0  0  0
   11.7795    7.7496   22.8335 He  0  0  0  0  0  0  0  0  0  0  0  0
    5.7122    4.7530   21.6316 He  0  0  0  0  0  0  0  0  0  0  0  0
    5.8898    8.1245   20.3964 He  0  0  0  0  0  0  0  0  0  0  0  0
   12.9273    5.9718   22.5704 He  0  0  0  0  0  0  0  0  0  0  0  0
    5.8101    7.1098   20.8760 He  0  0  0  0  0  0  0  0  0  0  0  0
    8.3388    9.2231   23.6839 He  0  0  0  0  0  0  0  0  0  0  0  0
    8.1276    8.3055   23.1145 He  0  0  0  0  0  0  0  0  0  0  0  0
    6.2836   10.6892   22.5386 He  0  0  0  0  0  0  0  0  0  0  0  0
  1  3  3  0
  1  4  4  0
  1  5  1  0
  1  6  3  0
  1  7  1  0
  1 17  4  0
  2  3  1  0
  2  5  2  0
  2  7  4  0
  2 12  2  0
  3  7  2  0
  3 12  3  0
  3 16  4  0
  3 17  1  0
  3 18  4  0
  4  9  4  0
  4 12  1  0
  4 16  1  0
  4 17  1  0
  5  8  3  0
  5 11  2  0
  5 15  4  0
  6  8  1  0
  6 14  4  0
  6 16  1  0
  7 13  3  0
  7 16  1  0
  7 18  4  0
  8  9  4  0
  8 10  1  0
  8 11  1  0
  8 18  4  0
  9 13  1  0
  9 16  2  0
 10 13  4  0
 10 16  3  0
 12 14  4  0
 12 16  1  0
 14 17  1  0
 15 16  1  0
 15 17  4  0
 15 18  1  0
 16 18  4  0
 17 18  3  0
M  END
$$$$

 Created by Python create_sdf_string function

 29 20  0  0  0  0  0  0  0  0999 V2000
    6.6884   10.1944   22.1257 C   0  0  0  0  0  0  0  0  0  0  0  0
   14.6168    5.4386   21.6095 O   0  0  0  0  0  0  0  0  0  0  0  0
    7.1321    3.5931   22.6816 C   0  0  0  0  0  0  0  0  0  0  0  0
    5.7870   10.4799   21.3637 C   0  0  0  0  0  0  0  0  0  0  0  0
    6.4138    8.2518   21.3124 C   0  0  0  0  0  0  0  0  0  0  0  0
    7.8761    2.6373   23.4246 O   0  0  0  0  0  0  0  0  0  0  0  0
    5.8815    3.4249   22.3617 C   0  0  0  0  0  0  0  0  0  0  0  0
   10.0915    9.0987   25.2861 C   0  0  0  0  0  0  0  0  0  0  0  0
   12.6028    6.9882   22.7632 C   0  0  0  0  0  0  0  0  0  0  0  0
   14.1299    7.0624   21.2032 C   0  0  0  0  0  0  0  0  0  0  0  0
   11.8426    7.4662   23.0382 C   0  0  0  0  0  0  0  0  0  0  0  0
    6.5663    5.6185   21.6638 C   0  0  0  0  0  0  0  0  0  0  0  0
    5.3859    4.4638   21.7605 C   0  0  0  0  0  0  0  0  0  0  0  0
    5.7537    5.1029   21.5625 C   0  0  0  0  0  0  0  0  0  0  0  0
    5.6785    8.5141   20.6308 C   0  0  0  0  0  0  0  0  0  0  0  0
    7.6558    5.0665   22.2124 C   0  0  0  0  0  0  0  0  0  0  0  0
   10.8879    6.5734   22.4179 C   0  0  0  0  0  0  0  0  0  0  0  0
    7.3114    8.3832   21.9854 C   0  0  0  0  0  0  0  0  0  0  0  0
    9.3106    6.7627   22.2758 C   0  0  0  0  0  0  0  0  0  0  0  0
   12.9163    5.8412   22.4123 C   0  0  0  0  0  0  0  0  0  0  0  0
    9.3713    8.0882   24.1754 C   0  0  0  0  0  0  0  0  0  0  0  0
    5.8833    6.8442   20.9651 C   0  0  0  0  0  0  0  0  0  0  0  0
   10.1929    8.6600   24.7315 C   0  0  0  0  0  0  0  0  0  0  0  0
   13.7109    6.7064   22.0862 C   0  0  0  0  0  0  0  0  0  0  0  0
    8.2242    9.4307   23.6537 N   0  0  0  0  0  0  0  0  0  0  0  0
    8.2264    8.2874   22.7926 C   0  0  0  0  0  0  0  0  0  0  0  0
    9.7179    7.3197   23.5956 N   0  0  0  0  0  0  0  0  0  0  0  0
    6.7816   10.5551   22.6263 C   0  0  0  0  0  0  0  0  0  0  0  0
   10.8037    6.2469   21.3034 O   0  0  0  0  0  0  0  0  0  0  0  0
  1  4  1  0
  1 28  1  0
  3  6  1  0
  3  7  4  0
  3 16  4  0
  5 15  1  0
  5 18  1  0
  7 13  4  0
  8 23  4  0
  9 11  4  0
  9 20  4  0
  9 24  1  0
 10 24  1  0
 12 14  4  0
 12 16  4  0
 13 14  4  0
 18 26  4  0
 20 24  4  0
 21 27  1  0
 25 26  4  0
M  END
$$$$

 Created by Python create_sdf_string function

 29 48  0  0  0  0  0  0  0  0999 V2000
    6.7146   10.1810   21.5938 C   0  0  0  0  0  0  0  0  0  0  0  0
    6.8777    2.6557   22.6582 C   0  0  0  0  0  0  0  0  0  0  0  0
    4.6871    9.7870   20.0908 C   0  0  0  0  0  0  0  0  0  0  0  0
    6.9752    7.4659   21.5621 S   0  0  0  0  0  0  0  0  0  0  0  0
   10.5497    9.1834   26.7433 F   0  0  0  0  0  0  0  0  0  0  0  0
   13.0786    7.5189   22.7178 C   0  0  0  0  0  0  0  0  0  0  0  0
   11.8535    6.8738   21.8735 F   0  0  0  0  0  0  0  0  0  0  0  0
    7.0299    5.8227   20.8791 C   0  0  0  0  0  0  0  0  0  0  0  0
    4.9506    4.3207   23.6623 C   0  0  0  0  0  0  0  0  0  0  0  0
    5.4778    9.2152   21.3483 C   0  0  0  0  0  0  0  0  0  0  0  0
    7.6888    7.7708   22.7863 F   0  0  0  0  0  0  0  0  0  0  0  0
   12.5779    7.0658   22.0689 N   0  0  0  0  0  0  0  0  0  0  0  0
    9.2083    7.8626   24.0159 F   0  0  0  0  0  0  0  0  0  0  0  0
    5.3747    6.3650   19.9214 Cl  0  0  0  0  0  0  0  0  0  0  0  0
   10.1719    8.7176   25.3169 S   0  0  0  0  0  0  0  0  0  0  0  0
    7.3649    7.4891   22.6247 C   0  0  0  0  0  0  0  0  0  0  0  0
    8.4934   10.4297   23.5847 C   0  0  0  0  0  0  0  0  0  0  0  0
   10.9428    6.7367   22.0871 I   0  0  0  0  0  0  0  0  0  0  0  0
   14.7076    5.8963   21.2363 He  0  0  0  0  0  0  0  0  0  0  0  0
    8.2217    3.0022   23.3028 He  0  0  0  0  0  0  0  0  0  0  0  0
    6.5557    4.1447   22.9688 He  0  0  0  0  0  0  0  0  0  0  0  0
   13.3798    7.2403   20.5816 He  0  0  0  0  0  0  0  0  0  0  0  0
    6.6178    3.9694   20.7925 He  0  0  0  0  0  0  0  0  0  0  0  0
    7.9871    4.4412   22.0664 He  0  0  0  0  0  0  0  0  0  0  0  0
   12.8273    5.6304   23.0957 He  0  0  0  0  0  0  0  0  0  0  0  0
    8.8511    7.0458   22.2229 He  0  0  0  0  0  0  0  0  0  0  0  0
   14.2331    7.1338   21.8827 He  0  0  0  0  0  0  0  0  0  0  0  0
    8.6834    9.3731   23.0174 He  0  0  0  0  0  0  0  0  0  0  0  0
    8.3000    7.3363   22.6911 He  0  0  0  0  0  0  0  0  0  0  0  0
  1  5  4  0
  1  6  4  0
  1  8  1  0
  1 11  3  0
  1 12  1  0
  1 15  2  0
  1 16  1  0
  2  3  3  0
  2  8  2  0
  2 11  1  0
  2 16  3  0
  3  5  4  0
  3 11  3  0
  3 15  1  0
  3 16  3  0
  4  9  4  0
  4 10  1  0
  4 12  3  0
  4 14  1  0
  4 15  4  0
  4 16  1  0
  4 17  4  0
  5  7  3  0
  5  8  1  0
  5 10  4  0
  5 14  1  0
  5 15  4  0
  5 16  2  0
  5 17  4  0
  5 18  2  0
  6  7  4  0
  6 12  3  0
  6 17  4  0
  6 18  4  0
  7  9  3  0
  7 12  1  0
  7 17  1  0
  8 12  2  0
  8 17  2  0
  9 18  4  0
 10 14  3  0
 10 17  1  0
 11 14  4  0
 11 15  3  0
 12 14  1  0
 12 16  4  0
 15 18  1  0
 16 18  3  0
M  END
$$$$

 Created by Python create_sdf_string function

 29 14  0  0  0  0  0  0  0  0999 V2000
    6.5798    9.9179   21.8974 C   0  0  0  0  0  0  0  0  0  0  0  0
   14.9620    5.9673   21.2304 Cl  0  0  0  0  0  0  0  0  0  0  0  0
    7.3887    2.9189   22.6966 C   0  0  0  0  0  0  0  0  0  0  0  0
    4.9420    9.5194   20.3812 C   0  0  0  0  0  0  0  0  0  0  0  0
    6.2842    7.8809   21.3282 C   0  0  0  0  0  0  0  0  0  0  0  0
    8.0290    2.5733   23.0938 O   0  0  0  0  0  0  0  0  0  0  0  0
    6.4305    4.2706   23.1948 C   0  0  0  0  0  0  0  0  0  0  0  0
   10.1630    9.4965   25.6570 O   0  0  0  0  0  0  0  0  0  0  0  0
   13.0901    7.3660   22.4874 C   0  0  0  0  0  0  0  0  0  0  0  0
   13.5071    7.0874   20.7651 C   0  0  0  0  0  0  0  0  0  0  0  0
   11.8385    6.9450   21.8627 C   0  0  0  0  0  0  0  0  0  0  0  0
    7.3199    5.6268   21.4588 C   0  0  0  0  0  0  0  0  0  0  0  0
    5.5635    4.1643   23.0436 C   0  0  0  0  0  0  0  0  0  0  0  0
    6.4650    4.1279   21.5981 C   0  0  0  0  0  0  0  0  0  0  0  0
    5.3858    8.7722   20.8623 C   0  0  0  0  0  0  0  0  0  0  0  0
    7.7143    4.2147   22.2770 C   0  0  0  0  0  0  0  0  0  0  0  0
   13.0401    5.8432   22.8685 C   0  0  0  0  0  0  0  0  0  0  0  0
    7.7448    7.8986   22.4636 C   0  0  0  0  0  0  0  0  0  0  0  0
    8.9246    6.6863   22.1915 C   0  0  0  0  0  0  0  0  0  0  0  0
   12.1928    6.7974   22.1050 N   0  0  0  0  0  0  0  0  0  0  0  0
    9.6221    7.8636   24.1404 C   0  0  0  0  0  0  0  0  0  0  0  0
    5.3997    7.0894   20.1540 C   0  0  0  0  0  0  0  0  0  0  0  0
    9.9325    8.9175   25.0633 C   0  0  0  0  0  0  0  0  0  0  0  0
   14.1745    6.8807   22.1152 C   0  0  0  0  0  0  0  0  0  0  0  0
    8.3324    9.2442   23.3505 C   0  0  0  0  0  0  0  0  0  0  0  0
    7.0847    8.3651   22.0835 C   0  0  0  0  0  0  0  0  0  0  0  0
    8.5434    7.4811   22.7884 C   0  0  0  0  0  0  0  0  0  0  0  0
    8.7808   10.1849   24.3288 C   0  0  0  0  0  0  0  0  0  0  0  0
   10.9047    6.5683   22.1676 C   0  0  0  0  0  0  0  0  0  0  0  0
  1 26  1  0
  3  6  1  0
  4 15  1  0
  5 15  1  0
  5 22  1  0
  5 26  1  0
  7 13  4  0
  8 23  1  0
  9 24  4  0
 11 20  1  0
 12 14  4  0
 13 14  4  0
 18 26  4  0
 21 23  4  0
M  END
$$$$

 Created by Python create_sdf_string function

 29 27  0  0  0  0  0  0  0  0999 V2000
    7.5261    3.2074   23.0020 S   0  0  0  0  0  0  0  0  0  0  0  0
    5.1888    9.6494   20.0623 C   0  0  0  0  0  0  0  0  0  0  0  0
    6.4413    8.2171   22.0459 N   0  0  0  0  0  0  0  0  0  0  0  0
   10.2707    9.2956   26.1861 F   0  0  0  0  0  0  0  0  0  0  0  0
   13.4407    6.4232   21.6617 C   0  0  0  0  0  0  0  0  0  0  0  0
    7.6732    5.1198   21.2887 O   0  0  0  0  0  0  0  0  0  0  0  0
    4.2746    4.8977   23.1146 C   0  0  0  0  0  0  0  0  0  0  0  0
    7.8686    3.4679   21.8379 C   0  0  0  0  0  0  0  0  0  0  0  0
   11.9788    5.8983   22.8325 P   0  0  0  0  0  0  0  0  0  0  0  0
    8.0913    7.6985   22.9725 S   0  0  0  0  0  0  0  0  0  0  0  0
   11.9002    6.7770   21.5836 F   0  0  0  0  0  0  0  0  0  0  0  0
    4.7139    6.3444   20.2643 S   0  0  0  0  0  0  0  0  0  0  0  0
   14.9907    7.6853   21.9258 C   0  0  0  0  0  0  0  0  0  0  0  0
    9.6939    6.0800   21.3176 N   0  0  0  0  0  0  0  0  0  0  0  0
    7.7404    9.7207   21.4615 He  0  0  0  0  0  0  0  0  0  0  0  0
   15.0532    6.7188   20.6661 He  0  0  0  0  0  0  0  0  0  0  0  0
    7.5168    2.9721   23.7688 He  0  0  0  0  0  0  0  0  0  0  0  0
    5.3716    3.9337   24.5074 He  0  0  0  0  0  0  0  0  0  0  0  0
   13.7924    6.6562   22.2658 He  0  0  0  0  0  0  0  0  0  0  0  0
   10.9315    7.5226   20.9375 He  0  0  0  0  0  0  0  0  0  0  0  0
    7.0117    4.1940   21.5637 He  0  0  0  0  0  0  0  0  0  0  0  0
    5.4085    8.0044   19.9006 He  0  0  0  0  0  0  0  0  0  0  0  0
    8.8800    6.4403   22.1062 He  0  0  0  0  0  0  0  0  0  0  0  0
    9.4472    7.9009   24.7871 He  0  0  0  0  0  0  0  0  0  0  0  0
    9.6695    8.6341   24.7822 He  0  0  0  0  0  0  0  0  0  0  0  0
    9.3435    9.5507   23.1866 He  0  0  0  0  0  0  0  0  0  0  0  0
    6.8853    8.7381   22.2980 He  0  0  0  0  0  0  0  0  0  0  0  0
    8.0594    8.4199   22.5659 He  0  0  0  0  0  0  0  0  0  0  0  0
    8.7215    9.9406   25.7179 He  0  0  0  0  0  0  0  0  0  0  0  0
  1  2  4  0
  1  4  1  0
  1  6  4  0
  1  8  4  0
  1 11  1  0
  1 13  3  0
  1 14  4  0
  2  3  1  0
  2  4  1  0
  2  5  4  0
  2  6  4  0
  2 11  4  0
  2 12  3  0
  3  4  2  0
  3 14  2  0
  4  5  4  0
  4 13  1  0
  4 14  2  0
  5 12  2  0
  5 13  4  0
  6 12  3  0
  7  9  2  0
  7 10  3  0
  7 11  3  0
  9 10  3  0
 10 11  4  0
 11 14  1  0
M  END
$$$$

 Created by Python create_sdf_string function

 29 19  0  0  0  0  0  0  0  0999 V2000
    7.6220    9.6953   21.5922 N   0  0  0  0  0  0  0  0  0  0  0  0
   14.6555    6.7909   21.0294 C   0  0  0  0  0  0  0  0  0  0  0  0
    7.1215    3.2469   23.1812 C   0  0  0  0  0  0  0  0  0  0  0  0
    5.3352    9.0688   20.3909 C   0  0  0  0  0  0  0  0  0  0  0  0
    6.3910    7.9651   21.6104 N   0  0  0  0  0  0  0  0  0  0  0  0
    7.4515    2.3532   23.9159 C   0  0  0  0  0  0  0  0  0  0  0  0
    5.7720    3.7231   23.6250 C   0  0  0  0  0  0  0  0  0  0  0  0
    9.9597    9.1665   25.7361 C   0  0  0  0  0  0  0  0  0  0  0  0
   13.3878    6.9320   21.4031 C   0  0  0  0  0  0  0  0  0  0  0  0
   13.5245    6.4550   22.3959 C   0  0  0  0  0  0  0  0  0  0  0  0
   11.5773    7.4405   21.0097 C   0  0  0  0  0  0  0  0  0  0  0  0
    7.5034    5.0458   21.5419 C   0  0  0  0  0  0  0  0  0  0  0  0
    5.3572    4.5837   22.7587 C   0  0  0  0  0  0  0  0  0  0  0  0
    6.4422    5.0448   21.8422 C   0  0  0  0  0  0  0  0  0  0  0  0
    5.2480    7.9215   20.2474 C   0  0  0  0  0  0  0  0  0  0  0  0
    7.6748    3.7993   22.1602 C   0  0  0  0  0  0  0  0  0  0  0  0
   12.1062    5.9039   22.6197 C   0  0  0  0  0  0  0  0  0  0  0  0
    7.9726    7.9229   23.1475 C   0  0  0  0  0  0  0  0  0  0  0  0
    8.9028    6.7634   22.0210 C   0  0  0  0  0  0  0  0  0  0  0  0
   11.5833    6.6085   21.6611 C   0  0  0  0  0  0  0  0  0  0  0  0
    9.5028    8.1408   24.6375 C   0  0  0  0  0  0  0  0  0  0  0  0
    5.0343    6.7071   20.4309 C   0  0  0  0  0  0  0  0  0  0  0  0
    9.6599    8.5396   25.0205 C   0  0  0  0  0  0  0  0  0  0  0  0
   14.5760    7.4041   21.6851 C   0  0  0  0  0  0  0  0  0  0  0  0
    8.7505    9.2238   23.0815 C   0  0  0  0  0  0  0  0  0  0  0  0
    6.9686    8.5766   21.8291 C   0  0  0  0  0  0  0  0  0  0  0  0
    8.2901    8.5217   22.6337 C   0  0  0  0  0  0  0  0  0  0  0  0
    9.0151    9.7853   25.7281 O   0  0  0  0  0  0  0  0  0  0  0  0
   10.2069    6.4004   21.6003 N   0  0  0  0  0  0  0  0  0  0  0  0
  1 25  4  0
  1 26  4  0
  3  6  1  0
  3  7  4  0
  3 16  4  0
  4 15  1  0
  5 26  4  0
  7 13  4  0
  8 23  1  0
 11 20  1  0
 12 14  4  0
 12 16  4  0
 13 14  4  0
 15 22  1  0
 17 20  4  0
 18 26  4  0
 20 29  1  0
 21 23  4  0
 25 27  4  0
M  END
$$$$

 Created by Python create_sdf_string function

 29 60  0  0  0  0  0  0  0  0999 V2000
    7.6025    9.3059   21.9547 N   0  0  0  0  0  0  0  0  0  0  0  0
   14.5536    6.6696   20.7701 C   0  0  0  0  0  0  0  0  0  0  0  0
    6.6475    3.9361   22.9111 C   0  0  0  0  0  0  0  0  0  0  0  0
    5.7360    8.9349   20.7207 O   0  0  0  0  0  0  0  0  0  0  0  0
    7.0576    2.4934   24.1170 C   0  0  0  0  0  0  0  0  0  0  0  0
    4.6815    3.7370   23.8361 I   0  0  0  0  0  0  0  0  0  0  0  0
    9.9746    9.6526   26.6295 C   0  0  0  0  0  0  0  0  0  0  0  0
   13.7812    6.9265   21.6566 C   0  0  0  0  0  0  0  0  0  0  0  0
    8.4019    4.8724   21.9206 C   0  0  0  0  0  0  0  0  0  0  0  0
    5.3787    3.9944   23.1161 N   0  0  0  0  0  0  0  0  0  0  0  0
    7.6777    4.3379   21.5613 P   0  0  0  0  0  0  0  0  0  0  0  0
    5.4889    8.8583   20.1990 O   0  0  0  0  0  0  0  0  0  0  0  0
   12.1531    6.4114   21.8509 C   0  0  0  0  0  0  0  0  0  0  0  0
    7.2884    8.3567   24.0627 O   0  0  0  0  0  0  0  0  0  0  0  0
    8.6957    5.8433   21.5020 C   0  0  0  0  0  0  0  0  0  0  0  0
   11.2835    6.4226   20.3560 F   0  0  0  0  0  0  0  0  0  0  0  0
    6.2176    6.1130   21.3476 C   0  0  0  0  0  0  0  0  0  0  0  0
    9.5862    8.1522   25.3138 C   0  0  0  0  0  0  0  0  0  0  0  0
   13.4545    7.2292   22.8646 Cl  0  0  0  0  0  0  0  0  0  0  0  0
    6.1623    8.6420   22.2438 N   0  0  0  0  0  0  0  0  0  0  0  0
   10.0466    6.8189   20.9816 N   0  0  0  0  0  0  0  0  0  0  0  0
    6.4413    7.8264   22.2116 He  0  0  0  0  0  0  0  0  0  0  0  0
   13.2035    6.9649   23.4649 He  0  0  0  0  0  0  0  0  0  0  0  0
   10.4794    8.2726   20.2897 He  0  0  0  0  0  0  0  0  0  0  0  0
    8.4707    4.6193   21.7364 He  0  0  0  0  0  0  0  0  0  0  0  0
    9.0671    7.4997   23.9934 He  0  0  0  0  0  0  0  0  0  0  0  0
    9.5920    8.3089   22.8586 He  0  0  0  0  0  0  0  0  0  0  0  0
    7.5412    8.6287   23.1131 He  0  0  0  0  0  0  0  0  0  0  0  0
    9.6137    9.8729   26.6703 He  0  0  0  0  0  0  0  0  0  0  0  0
  1  9  3  0
  1 10  3  0
  1 17  3  0
  2  4  3  0
  2  5  4  0
  2  6  2  0
  2  7  1  0
  2 11  4  0
  2 14  2  0
  2 16  4  0
  2 17  2  0
  2 20  4  0
  2 21  3  0
  3  6  3  0
  3  8  2  0
  3 13  4  0
  3 18  1  0
  3 19  4  0
  4 11  3  0
  4 20  4  0
  5  8  3  0
  5 20  4  0
  5 21  3  0
  6 10  4  0
  6 16  3  0
  6 19  4  0
  6 20  2  0
  7 11  3  0
  7 14  3  0
  7 16  1  0
  7 17  4  0
  7 18  1  0
  7 21  4  0
  8 12  2  0
  9 14  1  0
  9 17  4  0
  9 18  2  0
  9 20  4  0
  9 21  4  0
 10 11  4  0
 10 16  2  0
 10 17  2  0
 10 18  3  0
 10 21  1  0
 12 13  3  0
 12 20  3  0
 12 21  2  0
 13 16  4  0
 14 18  2  0
 14 21  2  0
 15 17  2  0
 15 20  1  0
 16 18  4  0
 16 19  1  0
 16 21  1  0
 17 18  4  0
 17 19  1  0
 17 20  1  0
 18 21  1  0
 19 21  1  0
M  END
$$$$

 Created by Python create_sdf_string function

 29 20  0  0  0  0  0  0  0  0999 V2000
    7.6332    9.1078   21.8817 N   0  0  0  0  0  0  0  0  0  0  0  0
   13.8125    6.6478   20.8271 C   0  0  0  0  0  0  0  0  0  0  0  0
    6.8177    3.5940   23.0452 C   0  0  0  0  0  0  0  0  0  0  0  0
    5.9550    8.6516   20.9113 C   0  0  0  0  0  0  0  0  0  0  0  0
    6.2414    8.1121   22.4122 C   0  0  0  0  0  0  0  0  0  0  0  0
    6.9532    2.6842   23.7309 C   0  0  0  0  0  0  0  0  0  0  0  0
    5.1414    3.6325   23.4110 C   0  0  0  0  0  0  0  0  0  0  0  0
    9.5932    9.2196   26.0198 C   0  0  0  0  0  0  0  0  0  0  0  0
   13.9465    6.8110   21.5912 C   0  0  0  0  0  0  0  0  0  0  0  0
   13.1574    6.9822   22.9833 C   0  0  0  0  0  0  0  0  0  0  0  0
   10.5057    7.9775   20.6789 C   0  0  0  0  0  0  0  0  0  0  0  0
    8.2620    5.2221   21.6326 C   0  0  0  0  0  0  0  0  0  0  0  0
    5.6956    4.1804   22.5484 N   0  0  0  0  0  0  0  0  0  0  0  0
    6.7745    4.5298   22.0686 C   0  0  0  0  0  0  0  0  0  0  0  0
    5.5698    8.6161   20.2444 O   0  0  0  0  0  0  0  0  0  0  0  0
    8.5507    4.6898   21.7748 C   0  0  0  0  0  0  0  0  0  0  0  0
   12.0175    6.7667   21.6670 C   0  0  0  0  0  0  0  0  0  0  0  0
    7.4619    8.4971   24.3797 O   0  0  0  0  0  0  0  0  0  0  0  0
    8.4884    6.0663   21.4245 C   0  0  0  0  0  0  0  0  0  0  0  0
   11.5589    6.6856   21.1605 C   0  0  0  0  0  0  0  0  0  0  0  0
    9.4146    8.0901   23.9166 C   0  0  0  0  0  0  0  0  0  0  0  0
    6.6726    5.9316   21.4008 C   0  0  0  0  0  0  0  0  0  0  0  0
    9.3877    8.4230   25.2098 C   0  0  0  0  0  0  0  0  0  0  0  0
   13.3328    7.0745   22.9933 C   0  0  0  0  0  0  0  0  0  0  0  0
    9.4461    8.3913   22.8583 C   0  0  0  0  0  0  0  0  0  0  0  0
    6.1816    8.5381   21.9754 N   0  0  0  0  0  0  0  0  0  0  0  0
    7.7061    8.7003   23.6476 C   0  0  0  0  0  0  0  0  0  0  0  0
    9.4781    9.7233   26.4098 C   0  0  0  0  0  0  0  0  0  0  0  0
   10.0233    6.4281   21.1657 N   0  0  0  0  0  0  0  0  0  0  0  0
  2  9  4  0
  3  6  4  0
  4 15  1  0
  4 26  1  0
  5 26  1  0
  7 13  4  0
  8 23  1  0
  8 28  1  0
 10 24  4  0
 12 16  4  0
 12 22  4  0
 13 14  4  0
 14 22  4  0
 16 19  4  0
 17 20  4  0
 18 27  4  0
 19 22  4  0
 20 29  1  0
 21 23  4  0
 21 25  1  0
M  END
$$$$

 Created by Python create_sdf_string function

 29 39  0  0  0  0  0  0  0  0999 V2000
    6.8532    8.3313   22.2355 S   0  0  0  0  0  0  0  0  0  0  0  0
    7.3810    3.6107   23.6196 C   0  0  0  0  0  0  0  0  0  0  0  0
    6.9121    9.0855   22.7810 C   0  0  0  0  0  0  0  0  0  0  0  0
    6.5107    7.3324   22.1681 C   0  0  0  0  0  0  0  0  0  0  0  0
    6.3000    1.1695   24.2905 C   0  0  0  0  0  0  0  0  0  0  0  0
    5.1717    2.7185   23.4204 C   0  0  0  0  0  0  0  0  0  0  0  0
    8.7514    8.4690   26.7801 C   0  0  0  0  0  0  0  0  0  0  0  0
   13.8389    7.0781   21.7226 C   0  0  0  0  0  0  0  0  0  0  0  0
   10.4733    8.4548   20.2357 Cl  0  0  0  0  0  0  0  0  0  0  0  0
    8.7978    4.7614   21.7795 C   0  0  0  0  0  0  0  0  0  0  0  0
    7.3775    5.6923   23.0183 O   0  0  0  0  0  0  0  0  0  0  0  0
    4.8467    9.9963   20.5708 O   0  0  0  0  0  0  0  0  0  0  0  0
   11.0531    5.9811   21.5192 O   0  0  0  0  0  0  0  0  0  0  0  0
    6.2964    8.0854   24.3355 P   0  0  0  0  0  0  0  0  0  0  0  0
   12.4058    6.5523   20.1875 C   0  0  0  0  0  0  0  0  0  0  0  0
    9.6755    7.9325   24.8243 C   0  0  0  0  0  0  0  0  0  0  0  0
    9.2304    8.1708   25.0848 C   0  0  0  0  0  0  0  0  0  0  0  0
    9.4751    9.8265   26.6659 C   0  0  0  0  0  0  0  0  0  0  0  0
    9.4682    6.6407   22.1056 N   0  0  0  0  0  0  0  0  0  0  0  0
   13.5146    5.5807   19.4659 He  0  0  0  0  0  0  0  0  0  0  0  0
   13.4663    6.7232   23.4207 He  0  0  0  0  0  0  0  0  0  0  0  0
    6.5351    3.8761   22.0450 He  0  0  0  0  0  0  0  0  0  0  0  0
    9.0911    4.6336   22.7878 He  0  0  0  0  0  0  0  0  0  0  0  0
    8.8121    5.3836   21.7615 He  0  0  0  0  0  0  0  0  0  0  0  0
    6.0798    5.2278   22.3271 He  0  0  0  0  0  0  0  0  0  0  0  0
   13.3342    7.6446   23.4460 He  0  0  0  0  0  0  0  0  0  0  0  0
    9.0284    7.8768   21.7637 He  0  0  0  0  0  0  0  0  0  0  0  0
    5.9104    7.8738   21.3679 He  0  0  0  0  0  0  0  0  0  0  0  0
    7.7788    7.8001   22.6971 He  0  0  0  0  0  0  0  0  0  0  0  0
  1  3  4  0
  1  6  3  0
  1 12  1  0
  1 17  3  0
  2  3  1  0
  2 11  4  0
  2 14  4  0
  3  6  1  0
  3 13  2  0
  3 16  1  0
  3 19  4  0
  4  5  1  0
  4  6  1  0
  4  8  1  0
  4  9  2  0
  4 12  3  0
  4 17  1  0
  5  7  2  0
  5  9  2  0
  6  9  1  0
  6 19  3  0
  7  9  2  0
  7 13  1  0
  7 17  1  0
  7 18  1  0
  8 15  3  0
  8 19  2  0
  9 13  2  0
  9 18  2  0
 10 15  2  0
 11 13  2  0
 11 18  3  0
 12 17  4  0
 13 15  4  0
 13 16  3  0
 13 18  4  0
 13 19  1  0
 15 19  1  0
 18 19  2  0
M  END
$$$$

 Created by Python create_sdf_string function

 29 24  0  0  0  0  0  0  0  0999 V2000
    6.1457    8.8006   21.8646 C   0  0  0  0  0  0  0  0  0  0  0  0
   13.3934    6.2297   20.3235 C   0  0  0  0  0  0  0  0  0  0  0  0
    7.2917    3.3869   23.3313 C   0  0  0  0  0  0  0  0  0  0  0  0
    6.9793    8.8034   22.7825 C   0  0  0  0  0  0  0  0  0  0  0  0
    6.4669    6.9670   22.0901 C   0  0  0  0  0  0  0  0  0  0  0  0
    6.5029    1.9859   24.2185 C   0  0  0  0  0  0  0  0  0  0  0  0
    5.5752    2.6728   23.4955 C   0  0  0  0  0  0  0  0  0  0  0  0
    8.8529    8.6301   26.3571 C   0  0  0  0  0  0  0  0  0  0  0  0
   13.8835    6.6333   21.5654 C   0  0  0  0  0  0  0  0  0  0  0  0
   13.3446    6.9611   22.8951 C   0  0  0  0  0  0  0  0  0  0  0  0
    9.9543    8.5681   20.8417 O   0  0  0  0  0  0  0  0  0  0  0  0
    8.9473    4.8186   22.1804 C   0  0  0  0  0  0  0  0  0  0  0  0
    6.3364    4.0116   22.7503 C   0  0  0  0  0  0  0  0  0  0  0  0
    7.4706    5.1358   22.6830 C   0  0  0  0  0  0  0  0  0  0  0  0
    5.4260    9.7564   21.0970 O   0  0  0  0  0  0  0  0  0  0  0  0
    9.6096    4.6722   22.1299 C   0  0  0  0  0  0  0  0  0  0  0  0
   11.2860    6.3760   21.5746 C   0  0  0  0  0  0  0  0  0  0  0  0
    6.6480    8.4499   24.1722 O   0  0  0  0  0  0  0  0  0  0  0  0
    8.6036    5.2535   22.1619 C   0  0  0  0  0  0  0  0  0  0  0  0
   12.1408    6.4075   20.8124 C   0  0  0  0  0  0  0  0  0  0  0  0
    9.4354    8.2001   24.1323 C   0  0  0  0  0  0  0  0  0  0  0  0
    5.9670    5.3798   22.2394 C   0  0  0  0  0  0  0  0  0  0  0  0
    9.2171    8.1865   25.2643 C   0  0  0  0  0  0  0  0  0  0  0  0
   13.2277    7.1787   23.0903 C   0  0  0  0  0  0  0  0  0  0  0  0
    9.4329    7.8785   21.9731 C   0  0  0  0  0  0  0  0  0  0  0  0
    5.7750    7.5943   21.4133 N   0  0  0  0  0  0  0  0  0  0  0  0
    7.7276    7.9000   22.8824 C   0  0  0  0  0  0  0  0  0  0  0  0
    9.4187    9.6097   26.6691 C   0  0  0  0  0  0  0  0  0  0  0  0
    9.8700    6.7681   21.8863 N   0  0  0  0  0  0  0  0  0  0  0  0
  1  4  1  0
  1 15  1  0
  1 26  2  0
  2  9  4  0
  2 20  4  0
  4 27  1  0
  5 22  4  0
  5 26  4  0
  6  7  1  0
  8 23  1  0
  8 28  1  0
  9 10  4  0
 10 24  4  0
 11 25  2  0
 12 16  4  0
 12 19  4  0
 13 22  4  0
 14 19  4  0
 17 20  4  0
 17 29  1  0
 21 23  1  0
 21 25  1  0
 25 27  1  0
 25 29  1  0
M  END
$$$$

 Created by Python create_sdf_string function

 29 53  0  0  0  0  0  0  0  0999 V2000
    6.2498    8.6968   21.2783 C   0  0  0  0  0  0  0  0  0  0  0  0
   13.3168    6.8579   19.5634 C   0  0  0  0  0  0  0  0  0  0  0  0
    6.9429    3.0502   22.9122 C   0  0  0  0  0  0  0  0  0  0  0  0
    7.3442    8.4965   21.7160 F   0  0  0  0  0  0  0  0  0  0  0  0
    5.9236    0.6438   24.8453 C   0  0  0  0  0  0  0  0  0  0  0  0
    8.6780    8.9620   26.6029 C   0  0  0  0  0  0  0  0  0  0  0  0
   13.8121    7.0641   21.5000 C   0  0  0  0  0  0  0  0  0  0  0  0
   13.2991    6.8969   22.6585 C   0  0  0  0  0  0  0  0  0  0  0  0
    9.7260    8.6684   21.0668 F   0  0  0  0  0  0  0  0  0  0  0  0
    8.2150    4.8954   22.2670 C   0  0  0  0  0  0  0  0  0  0  0  0
   10.7237    5.9913   21.1085 O   0  0  0  0  0  0  0  0  0  0  0  0
    9.0540    5.9211   22.6876 C   0  0  0  0  0  0  0  0  0  0  0  0
   11.5788    6.6280   21.1572 C   0  0  0  0  0  0  0  0  0  0  0  0
   10.1756    9.6617   22.9756 C   0  0  0  0  0  0  0  0  0  0  0  0
    6.1010    6.1072   23.3804 C   0  0  0  0  0  0  0  0  0  0  0  0
   10.0786    8.1638   24.8205 C   0  0  0  0  0  0  0  0  0  0  0  0
   12.5092    7.6650   22.6434 C   0  0  0  0  0  0  0  0  0  0  0  0
    9.1441    8.3837   21.2330 C   0  0  0  0  0  0  0  0  0  0  0  0
    5.3136    7.2559   20.3484 C   0  0  0  0  0  0  0  0  0  0  0  0
    7.3869    6.8206   23.4379 I   0  0  0  0  0  0  0  0  0  0  0  0
    9.4143    6.0946   21.6880 C   0  0  0  0  0  0  0  0  0  0  0  0
    7.2930    7.3122   20.9082 He  0  0  0  0  0  0  0  0  0  0  0  0
    4.8027    2.6339   22.5947 He  0  0  0  0  0  0  0  0  0  0  0  0
    9.4941    5.4626   22.0066 He  0  0  0  0  0  0  0  0  0  0  0  0
    6.3393    3.9505   22.4964 He  0  0  0  0  0  0  0  0  0  0  0  0
    7.8577    4.8134   23.2575 He  0  0  0  0  0  0  0  0  0  0  0  0
    6.3595    9.2954   20.8844 He  0  0  0  0  0  0  0  0  0  0  0  0
    6.2823    8.0238   24.5789 He  0  0  0  0  0  0  0  0  0  0  0  0
    9.4902    9.2179   27.3464 He  0  0  0  0  0  0  0  0  0  0  0  0
  1  4  3  0
  1  5  3  0
  1 11  4  0
  1 16  3  0
  1 19  2  0
  1 20  2  0
  1 21  4  0
  2  3  1  0
  2  7  4  0
  2  9  1  0
  2 19  2  0
  3 14  3  0
  3 15  2  0
  3 20  1  0
  4  7  2  0
  4  8  4  0
  4 14  2  0
  4 17  4  0
  4 19  2  0
  5  8  2  0
  5 11  2  0
  5 17  1  0
  5 18  1  0
  5 20  2  0
  6 16  1  0
  7  8  4  0
  7 10  4  0
  7 14  1  0
  7 19  2  0
  8 12  4  0
  8 15  3  0
  8 17  1  0
  8 19  4  0
  9 13  3  0
  9 19  4  0
  9 20  1  0
  9 21  3  0
 10 16  1  0
 10 19  4  0
 11 13  4  0
 11 14  2  0
 11 18  1  0
 12 17  2  0
 12 18  4  0
 13 16  2  0
 14 16  1  0
 14 18  1  0
 15 16  3  0
 15 19  3  0
 15 20  3  0
 18 21  4  0
 19 21  3  0
 20 21  3  0
M  END
$$$$

 Created by Python create_sdf_string function

 29 25  0  0  0  0  0  0  0  0999 V2000
    6.4988    8.6933   21.1326 C   0  0  0  0  0  0  0  0  0  0  0  0
   13.1529    6.7113   20.3014 C   0  0  0  0  0  0  0  0  0  0  0  0
    6.7506    3.2916   23.3088 C   0  0  0  0  0  0  0  0  0  0  0  0
    7.3842    8.6607   21.8866 N   0  0  0  0  0  0  0  0  0  0  0  0
    6.9472    7.5225   20.8557 C   0  0  0  0  0  0  0  0  0  0  0  0
    6.2772    1.9677   24.1577 C   0  0  0  0  0  0  0  0  0  0  0  0
    5.0288    2.4345   23.0695 C   0  0  0  0  0  0  0  0  0  0  0  0
    8.7861    8.6968   25.6432 C   0  0  0  0  0  0  0  0  0  0  0  0
   13.9508    6.9808   21.3329 C   0  0  0  0  0  0  0  0  0  0  0  0
   13.5159    7.2996   22.4061 C   0  0  0  0  0  0  0  0  0  0  0  0
    9.4422    8.7798   21.1659 C   0  0  0  0  0  0  0  0  0  0  0  0
    9.4014    5.4714   22.0527 C   0  0  0  0  0  0  0  0  0  0  0  0
    6.0781    3.9180   22.8536 C   0  0  0  0  0  0  0  0  0  0  0  0
    7.7282    4.3203   23.0925 C   0  0  0  0  0  0  0  0  0  0  0  0
    6.1298    9.4785   20.7869 O   0  0  0  0  0  0  0  0  0  0  0  0
    8.2007    4.6210   22.2577 C   0  0  0  0  0  0  0  0  0  0  0  0
   11.3591    6.6668   21.1626 C   0  0  0  0  0  0  0  0  0  0  0  0
    7.3368    8.1978   25.0616 O   0  0  0  0  0  0  0  0  0  0  0  0
    8.6442    5.8160   22.8285 C   0  0  0  0  0  0  0  0  0  0  0  0
   11.7617    6.7853   20.8424 C   0  0  0  0  0  0  0  0  0  0  0  0
    9.6440    9.0629   23.4599 C   0  0  0  0  0  0  0  0  0  0  0  0
    6.4032    6.1290   23.0473 C   0  0  0  0  0  0  0  0  0  0  0  0
    9.7316    8.6851   24.7560 C   0  0  0  0  0  0  0  0  0  0  0  0
   12.5283    7.5407   22.6932 C   0  0  0  0  0  0  0  0  0  0  0  0
    9.2926    8.3317   21.9859 C   0  0  0  0  0  0  0  0  0  0  0  0
    5.4793    7.4412   20.2841 C   0  0  0  0  0  0  0  0  0  0  0  0
    7.3828    6.6812   23.2214 C   0  0  0  0  0  0  0  0  0  0  0  0
    9.1542    9.0204   26.7878 O   0  0  0  0  0  0  0  0  0  0  0  0
    9.7016    6.7439   21.6126 C   0  0  0  0  0  0  0  0  0  0  0  0
  1  4  1  0
  1 15  1  0
  2  9  4  0
  2 20  4  0
  3  6  1  0
  3 13  4  0
  3 14  1  0
  5 26  1  0
  6  7  1  0
  8 18  1  0
  8 23  1  0
  8 28  1  0
  9 10  4  0
 10 24  4  0
 11 25  1  0
 12 16  4  0
 12 19  4  0
 12 29  4  0
 14 16  4  0
 14 19  4  0
 17 20  4  0
 19 27  4  0
 21 23  1  0
 21 25  1  0
 22 27  4  0
M  END
$$$$

 Created by Python create_sdf_string function

 29 69  0  0  0  0  0  0  0  0999 V2000
    6.2881    8.1021   21.2111 C   0  0  0  0  0  0  0  0  0  0  0  0
   12.8899    7.0806   20.6309 O   0  0  0  0  0  0  0  0  0  0  0  0
    6.4500    3.7762   24.0299 C   0  0  0  0  0  0  0  0  0  0  0  0
    7.1467    9.1951   22.4240 N   0  0  0  0  0  0  0  0  0  0  0  0
    5.7278    1.8090   21.7968 C   0  0  0  0  0  0  0  0  0  0  0  0
    8.2762    9.3242   25.1382 N   0  0  0  0  0  0  0  0  0  0  0  0
   14.3071    7.6568   22.0933 C   0  0  0  0  0  0  0  0  0  0  0  0
   14.1374    6.6030   21.7935 C   0  0  0  0  0  0  0  0  0  0  0  0
    8.5409    8.1419   21.9494 C   0  0  0  0  0  0  0  0  0  0  0  0
    9.6787    4.7204   21.2000 Cl  0  0  0  0  0  0  0  0  0  0  0  0
    5.1563    3.5328   22.9733 S   0  0  0  0  0  0  0  0  0  0  0  0
    8.3052    4.6301   23.4294 C   0  0  0  0  0  0  0  0  0  0  0  0
    5.5973    9.2069   20.6022 C   0  0  0  0  0  0  0  0  0  0  0  0
    8.2034    5.2470   21.7965 C   0  0  0  0  0  0  0  0  0  0  0  0
   11.2973    6.3653   21.9513 C   0  0  0  0  0  0  0  0  0  0  0  0
    8.2953    5.8646   23.3414 S   0  0  0  0  0  0  0  0  0  0  0  0
   12.1483    6.8301   21.0186 F   0  0  0  0  0  0  0  0  0  0  0  0
    6.6161    7.0782   23.5808 C   0  0  0  0  0  0  0  0  0  0  0  0
    9.5121    8.5766   24.8148 C   0  0  0  0  0  0  0  0  0  0  0  0
    5.9417    8.9337   21.5393 C   0  0  0  0  0  0  0  0  0  0  0  0
    7.2320    6.3458   22.5768 O   0  0  0  0  0  0  0  0  0  0  0  0
   10.7484    6.1604   22.1504 C   0  0  0  0  0  0  0  0  0  0  0  0
    6.2833    6.6759   19.6916 He  0  0  0  0  0  0  0  0  0  0  0  0
    7.3711    1.5657   23.7244 He  0  0  0  0  0  0  0  0  0  0  0  0
    7.0691    8.2847   24.1994 He  0  0  0  0  0  0  0  0  0  0  0  0
    9.3873    7.7487   24.2204 He  0  0  0  0  0  0  0  0  0  0  0  0
   12.8556    7.0798   22.7696 He  0  0  0  0  0  0  0  0  0  0  0  0
    9.2064    8.6752   22.6919 He  0  0  0  0  0  0  0  0  0  0  0  0
    8.0471    8.8267   26.1611 He  0  0  0  0  0  0  0  0  0  0  0  0
  1  4  1  0
  1  5  2  0
  1  9  4  0
  1 10  4  0
  1 15  4  0
  1 18  4  0
  2  3  3  0
  2  6  1  0
  2  7  3  0
  2 10  4  0
  2 12  4  0
  2 17  4  0
  2 19  4  0
  2 22  3  0
  3  9  3  0
  3 10  4  0
  3 11  4  0
  3 16  1  0
  3 18  1  0
  3 22  4  0
  4  9  1  0
  4 10  3  0
  4 11  1  0
  4 13  2  0
  4 14  1  0
  4 15  2  0
  4 18  4  0
  4 22  3  0
  5 11  1  0
  5 14  4  0
  6  7  4  0
  6  9  2  0
  6 14  4  0
  6 16  3  0
  6 19  4  0
  6 20  2  0
  7  9  1  0
  7 13  3  0
  7 14  4  0
  7 17  4  0
  7 19  3  0
  7 21  4  0
  8  9  3  0
  8 11  4  0
  9 13  2  0
  9 19  3  0
  9 20  4  0
 10 13  3  0
 10 18  1  0
 10 22  4  0
 11 21  1  0
 12 14  4  0
 12 16  4  0
 12 18  4  0
 12 19  4  0
 13 18  2  0
 14 15  3  0
 14 16  3  0
 14 19  1  0
 15 18  3  0
 16 20  2  0
 16 21  4  0
 17 21  4  0
 18 19  3  0
 18 20  4  0
 18 21  4  0
 18 22  1  0
 19 21  2  0
 19 22  1  0
M  END
$$$$

 Created by Python create_sdf_string function

 29 21  0  0  0  0  0  0  0  0999 V2000
    6.5377    8.1838   21.2890 C   0  0  0  0  0  0  0  0  0  0  0  0
   12.7760    6.9329   20.6110 O   0  0  0  0  0  0  0  0  0  0  0  0
    6.8151    3.2129   23.3910 C   0  0  0  0  0  0  0  0  0  0  0  0
    7.1517    8.7331   22.4136 N   0  0  0  0  0  0  0  0  0  0  0  0
    5.9648    7.4864   19.9067 C   0  0  0  0  0  0  0  0  0  0  0  0
    7.2858    2.1438   23.8796 O   0  0  0  0  0  0  0  0  0  0  0  0
    5.7887    2.6877   22.3046 C   0  0  0  0  0  0  0  0  0  0  0  0
    8.1416    9.0028   25.1782 N   0  0  0  0  0  0  0  0  0  0  0  0
   14.0800    7.4043   21.8238 C   0  0  0  0  0  0  0  0  0  0  0  0
   14.2740    6.8699   21.8893 C   0  0  0  0  0  0  0  0  0  0  0  0
    8.1260    8.6507   22.2524 C   0  0  0  0  0  0  0  0  0  0  0  0
    9.9099    5.0564   21.5457 C   0  0  0  0  0  0  0  0  0  0  0  0
    5.5524    3.3412   23.0422 O   0  0  0  0  0  0  0  0  0  0  0  0
    8.0705    4.3175   22.8960 C   0  0  0  0  0  0  0  0  0  0  0  0
    5.7103    8.8689   20.4553 C   0  0  0  0  0  0  0  0  0  0  0  0
    8.6105    4.5670   22.2606 C   0  0  0  0  0  0  0  0  0  0  0  0
   11.1923    6.5912   21.8693 C   0  0  0  0  0  0  0  0  0  0  0  0
    7.2299    8.7468   24.3959 C   0  0  0  0  0  0  0  0  0  0  0  0
    7.9300    5.3681   23.3321 C   0  0  0  0  0  0  0  0  0  0  0  0
   12.1858    6.7269   21.3721 C   0  0  0  0  0  0  0  0  0  0  0  0
    9.6640    8.4047   24.3778 C   0  0  0  0  0  0  0  0  0  0  0  0
    6.8150    6.9430   23.1044 C   0  0  0  0  0  0  0  0  0  0  0  0
    9.4475    8.7178   24.8108 C   0  0  0  0  0  0  0  0  0  0  0  0
   12.9302    7.1400   22.8209 C   0  0  0  0  0  0  0  0  0  0  0  0
    9.5774    8.6513   22.5752 C   0  0  0  0  0  0  0  0  0  0  0  0
    5.6137    9.0585   21.3736 C   0  0  0  0  0  0  0  0  0  0  0  0
    7.1030    6.0452   23.1688 C   0  0  0  0  0  0  0  0  0  0  0  0
    8.0963    8.9126   26.2235 C   0  0  0  0  0  0  0  0  0  0  0  0
   10.5039    6.0607   21.9207 C   0  0  0  0  0  0  0  0  0  0  0  0
  1  4  1  0
  2 20  4  0
  3  6  1  0
  3 13  1  0
  3 14  1  0
  4 11  1  0
  5 15  1  0
  7 13  1  0
  8 18  1  0
  8 28  1  0
  9 10  1  0
 12 16  4  0
 12 29  4  0
 14 16  4  0
 14 19  4  0
 15 26  1  0
 17 20  1  0
 17 29  4  0
 19 27  4  0
 21 23  1  0
 22 27  4  0
M  END
$$$$

 Created by Python create_sdf_string function

 29 54  0  0  0  0  0  0  0  0999 V2000
   12.1206    7.0447   21.1668 O   0  0  0  0  0  0  0  0  0  0  0  0
    6.8734    3.5446   23.1005 C   0  0  0  0  0  0  0  0  0  0  0  0
    6.7216    8.5996   23.2889 C   0  0  0  0  0  0  0  0  0  0  0  0
    6.1920    8.0079   19.0446 C   0  0  0  0  0  0  0  0  0  0  0  0
    6.9387    2.0798   24.3192 O   0  0  0  0  0  0  0  0  0  0  0  0
    6.7241    2.4581   22.5868 C   0  0  0  0  0  0  0  0  0  0  0  0
    9.0719    8.3660   25.4643 N   0  0  0  0  0  0  0  0  0  0  0  0
   14.5560    7.9243   21.6019 F   0  0  0  0  0  0  0  0  0  0  0  0
   12.7985    7.3202   22.2781 C   0  0  0  0  0  0  0  0  0  0  0  0
    9.4512    3.9352   21.6990 F   0  0  0  0  0  0  0  0  0  0  0  0
    8.5203    5.1445   22.9510 C   0  0  0  0  0  0  0  0  0  0  0  0
    5.6424    9.7986   19.8029 C   0  0  0  0  0  0  0  0  0  0  0  0
   11.4390    6.5480   21.9866 C   0  0  0  0  0  0  0  0  0  0  0  0
   10.2873    9.0279   24.7811 C   0  0  0  0  0  0  0  0  0  0  0  0
    6.2227    6.6640   22.5892 I   0  0  0  0  0  0  0  0  0  0  0  0
    8.9716    8.8039   24.4723 O   0  0  0  0  0  0  0  0  0  0  0  0
   13.3837    7.8263   22.0663 C   0  0  0  0  0  0  0  0  0  0  0  0
    9.2788    8.5406   22.7510 C   0  0  0  0  0  0  0  0  0  0  0  0
    6.1961    9.6683   22.0419 C   0  0  0  0  0  0  0  0  0  0  0  0
    8.2361    8.2307   26.6855 N   0  0  0  0  0  0  0  0  0  0  0  0
   10.1081    5.2611   22.1018 C   0  0  0  0  0  0  0  0  0  0  0  0
    6.0969    7.6611   20.8855 He  0  0  0  0  0  0  0  0  0  0  0  0
    8.5783    9.0920   21.5523 He  0  0  0  0  0  0  0  0  0  0  0  0
    5.4531    2.7933   22.8113 He  0  0  0  0  0  0  0  0  0  0  0  0
    9.8578    4.4341   21.6462 He  0  0  0  0  0  0  0  0  0  0  0  0
   10.6590    7.4883   22.3726 He  0  0  0  0  0  0  0  0  0  0  0  0
    6.8111    9.0570   24.5759 He  0  0  0  0  0  0  0  0  0  0  0  0
    8.8382    5.5789   23.6064 He  0  0  0  0  0  0  0  0  0  0  0  0
    6.9408    5.0760   23.7214 He  0  0  0  0  0  0  0  0  0  0  0  0
  1 14  1  0
  1 16  3  0
  2  3  3  0
  2  5  4  0
  2  6  2  0
  2  9  3  0
  2 10  1  0
  2 11  1  0
  2 13  4  0
  3  7  1  0
  3  9  2  0
  3 17  4  0
  3 18  2  0
  4  5  3  0
  4  9  2  0
  4 16  1  0
  4 17  2  0
  5  6  2  0
  5 11  1  0
  5 12  4  0
  5 14  3  0
  5 17  3  0
  6  8  4  0
  6  9  1  0
  6 14  3  0
  6 20  3  0
  6 21  1  0
  7  9  3  0
  7 10  3  0
  7 18  2  0
  8  9  3  0
  8 10  4  0
  8 14  1  0
  9 10  4  0
  9 12  4  0
  9 21  2  0
 10 11  2  0
 10 14  2  0
 10 17  2  0
 10 21  3  0
 11 12  2  0
 12 15  4  0
 12 18  4  0
 12 20  1  0
 13 14  4  0
 13 16  2  0
 13 19  3  0
 14 16  1  0
 14 20  2  0
 16 17  3  0
 16 18  4  0
 17 21  2  0
 19 21  1  0
 20 21  4  0
M  END
$$$$

 Created by Python create_sdf_string function

 29 28  0  0  0  0  0  0  0  0999 V2000
    6.0997    7.6535   20.9585 C   0  0  0  0  0  0  0  0  0  0  0  0
   11.9373    6.9218   20.9759 O   0  0  0  0  0  0  0  0  0  0  0  0
    6.9709    4.0566   23.1561 C   0  0  0  0  0  0  0  0  0  0  0  0
    7.3348    8.7127   23.0091 C   0  0  0  0  0  0  0  0  0  0  0  0
    6.0555    8.2514   19.6187 C   0  0  0  0  0  0  0  0  0  0  0  0
    7.0791    2.0379   23.9084 O   0  0  0  0  0  0  0  0  0  0  0  0
    6.5379    2.7326   23.2354 C   0  0  0  0  0  0  0  0  0  0  0  0
    8.2005    8.6575   25.1649 N   0  0  0  0  0  0  0  0  0  0  0  0
   14.3372    7.8657   21.7243 C   0  0  0  0  0  0  0  0  0  0  0  0
   12.8738    7.4090   22.3013 C   0  0  0  0  0  0  0  0  0  0  0  0
    7.6352    9.0026   21.8978 C   0  0  0  0  0  0  0  0  0  0  0  0
    9.0028    3.7514   21.9069 C   0  0  0  0  0  0  0  0  0  0  0  0
    5.4784    2.6493   22.7451 O   0  0  0  0  0  0  0  0  0  0  0  0
    8.3681    4.6862   22.8198 C   0  0  0  0  0  0  0  0  0  0  0  0
    5.8876    9.4661   20.0829 C   0  0  0  0  0  0  0  0  0  0  0  0
    9.9289    4.2267   21.4774 C   0  0  0  0  0  0  0  0  0  0  0  0
   10.4316    7.6517   22.5408 N   0  0  0  0  0  0  0  0  0  0  0  0
    7.1572    8.7994   24.3321 C   0  0  0  0  0  0  0  0  0  0  0  0
    8.9165    5.4525   23.1671 C   0  0  0  0  0  0  0  0  0  0  0  0
   11.4707    6.8320   21.9294 C   0  0  0  0  0  0  0  0  0  0  0  0
   10.1304    9.0149   25.0989 C   0  0  0  0  0  0  0  0  0  0  0  0
    6.1167    6.4552   22.5078 C   0  0  0  0  0  0  0  0  0  0  0  0
    9.2199    8.7102   24.3154 N   0  0  0  0  0  0  0  0  0  0  0  0
   13.4757    7.8575   22.2617 C   0  0  0  0  0  0  0  0  0  0  0  0
    9.3274    8.4375   22.9032 C   0  0  0  0  0  0  0  0  0  0  0  0
    6.3794    9.5438   21.5335 C   0  0  0  0  0  0  0  0  0  0  0  0
    6.5087    5.2866   23.3372 C   0  0  0  0  0  0  0  0  0  0  0  0
    8.1897    8.4379   26.4363 O   0  0  0  0  0  0  0  0  0  0  0  0
   10.0897    5.7231   22.3228 C   0  0  0  0  0  0  0  0  0  0  0  0
  1  5  1  0
  2 20  2  0
  3  7  1  0
  3 14  1  0
  3 27  1  0
  4 11  1  0
  4 18  4  0
  5 15  1  0
  6  7  2  0
  7 13  1  0
  8 18  1  0
  8 23  1  0
  8 28  1  0
  9 24  1  0
 10 24  1  0
 11 26  1  0
 12 14  4  0
 12 16  4  0
 14 19  4  0
 15 26  1  0
 16 29  4  0
 17 20  1  0
 17 25  1  0
 19 29  4  0
 20 29  1  0
 21 23  1  0
 22 27  4  0
 23 25  4  0
M  END
$$$$

 Created by Python create_sdf_string function

 29 41  0  0  0  0  0  0  0  0999 V2000
   10.9135    7.1188   21.6066 C   0  0  0  0  0  0  0  0  0  0  0  0
    7.5102    1.8188   23.9650 O   0  0  0  0  0  0  0  0  0  0  0  0
    7.0221    2.1192   22.1281 C   0  0  0  0  0  0  0  0  0  0  0  0
    8.8049    8.1154   25.2275 N   0  0  0  0  0  0  0  0  0  0  0  0
   14.5431    7.3920   20.9339 O   0  0  0  0  0  0  0  0  0  0  0  0
   12.5657    6.5222   21.6768 C   0  0  0  0  0  0  0  0  0  0  0  0
    7.9135    8.2050   21.8938 F   0  0  0  0  0  0  0  0  0  0  0  0
    8.5362    4.0922   21.1052 C   0  0  0  0  0  0  0  0  0  0  0  0
    9.0911    4.6883   23.4775 C   0  0  0  0  0  0  0  0  0  0  0  0
   10.0609    3.8901   20.6759 C   0  0  0  0  0  0  0  0  0  0  0  0
   10.5556    8.0998   22.3684 N   0  0  0  0  0  0  0  0  0  0  0  0
    6.6968    9.2734   24.6658 C   0  0  0  0  0  0  0  0  0  0  0  0
    9.9786    9.5430   25.1908 C   0  0  0  0  0  0  0  0  0  0  0  0
    5.2713    6.3889   22.9430 C   0  0  0  0  0  0  0  0  0  0  0  0
   10.0484    8.6487   23.8973 N   0  0  0  0  0  0  0  0  0  0  0  0
   13.6705    7.9964   21.1985 C   0  0  0  0  0  0  0  0  0  0  0  0
    9.7138    8.4480   23.8450 C   0  0  0  0  0  0  0  0  0  0  0  0
    6.1293    9.7939   21.7785 C   0  0  0  0  0  0  0  0  0  0  0  0
    8.8251    5.4803   22.2033 B   0  0  0  0  0  0  0  0  0  0  0  0
    5.4762    9.4269   21.3298 He  0  0  0  0  0  0  0  0  0  0  0  0
    6.1692    4.2685   23.5225 He  0  0  0  0  0  0  0  0  0  0  0  0
    7.5526    9.8364   23.2355 He  0  0  0  0  0  0  0  0  0  0  0  0
    5.6373    8.1853   18.9324 He  0  0  0  0  0  0  0  0  0  0  0  0
    5.9794    2.1798   22.5044 He  0  0  0  0  0  0  0  0  0  0  0  0
    6.3575    9.9655   20.9147 He  0  0  0  0  0  0  0  0  0  0  0  0
    8.2596    4.7789   22.7109 He  0  0  0  0  0  0  0  0  0  0  0  0
   10.8247    6.9339   22.5250 He  0  0  0  0  0  0  0  0  0  0  0  0
    6.4206    5.9367   22.7459 He  0  0  0  0  0  0  0  0  0  0  0  0
    7.5087    8.6755   27.1244 He  0  0  0  0  0  0  0  0  0  0  0  0
  1  2  1  0
  1  6  4  0
  1  9  1  0
  1 11  4  0
  1 14  4  0
  2  5  3  0
  2  9  1  0
  2 11  3  0
  2 17  3  0
  3  5  4  0
  3 13  3  0
  3 17  2  0
  4  7  1  0
  4  8  3  0
  4 11  4  0
  4 12  1  0
  4 15  4  0
  5 11  1  0
  5 16  1  0
  6 16  1  0
  7  8  1  0
  7 10  4  0
  7 16  4  0
  7 19  2  0
  8 10  2  0
  8 15  1  0
  8 19  3  0
  9 10  4  0
 10 16  3  0
 10 19  4  0
 11 12  3  0
 11 16  3  0
 11 17  1  0
 12 14  3  0
 12 15  1  0
 13 15  1  0
 13 16  4  0
 13 17  3  0
 15 19  2  0
 16 17  4  0
 16 19  2  0
M  END
$$$$

 Created by Python create_sdf_string function

 29 27  0  0  0  0  0  0  0  0999 V2000
    5.5501    9.1459   21.3125 C   0  0  0  0  0  0  0  0  0  0  0  0
   11.2465    6.9325   21.5777 C   0  0  0  0  0  0  0  0  0  0  0  0
    6.2775    4.2785   23.2160 C   0  0  0  0  0  0  0  0  0  0  0  0
    7.2671    9.3935   23.0466 C   0  0  0  0  0  0  0  0  0  0  0  0
    5.7091    8.5282   19.7491 C   0  0  0  0  0  0  0  0  0  0  0  0
    7.4383    1.9431   23.6386 O   0  0  0  0  0  0  0  0  0  0  0  0
    6.6865    2.6095   23.0048 C   0  0  0  0  0  0  0  0  0  0  0  0
    8.1248    8.5739   25.1375 C   0  0  0  0  0  0  0  0  0  0  0  0
   14.2320    7.3921   20.9509 O   0  0  0  0  0  0  0  0  0  0  0  0
   12.5060    6.8763   21.4139 C   0  0  0  0  0  0  0  0  0  0  0  0
    8.2119    8.6289   22.3368 C   0  0  0  0  0  0  0  0  0  0  0  0
    8.9334    4.2150   21.5427 C   0  0  0  0  0  0  0  0  0  0  0  0
    5.7881    2.1919   22.4212 O   0  0  0  0  0  0  0  0  0  0  0  0
    8.0898    4.7875   23.3308 C   0  0  0  0  0  0  0  0  0  0  0  0
    6.4411    9.8292   20.8680 C   0  0  0  0  0  0  0  0  0  0  0  0
    9.9867    4.3495   20.8778 C   0  0  0  0  0  0  0  0  0  0  0  0
   10.6357    7.9860   22.5741 N   0  0  0  0  0  0  0  0  0  0  0  0
    7.1814    9.1857   24.5410 C   0  0  0  0  0  0  0  0  0  0  0  0
    8.3137    4.6403   22.5184 C   0  0  0  0  0  0  0  0  0  0  0  0
   10.7420    6.9708   22.1666 C   0  0  0  0  0  0  0  0  0  0  0  0
   10.0949    9.4782   25.1468 C   0  0  0  0  0  0  0  0  0  0  0  0
    5.7219    5.9605   22.8813 C   0  0  0  0  0  0  0  0  0  0  0  0
    9.4301    8.8353   24.4977 N   0  0  0  0  0  0  0  0  0  0  0  0
   13.3960    7.8422   21.3583 C   0  0  0  0  0  0  0  0  0  0  0  0
    9.4176    8.5509   23.2341 C   0  0  0  0  0  0  0  0  0  0  0  0
    6.1782    9.5762   21.6999 C   0  0  0  0  0  0  0  0  0  0  0  0
    6.4543    5.9030   22.9318 C   0  0  0  0  0  0  0  0  0  0  0  0
    7.5445    8.7258   26.3054 O   0  0  0  0  0  0  0  0  0  0  0  0
    8.9238    5.7159   22.0241 C   0  0  0  0  0  0  0  0  0  0  0  0
  1  5  1  0
  1 26  1  0
  2 10  1  0
  2 20  1  0
  3  7  1  0
  3 22  4  0
  4 11  1  0
  4 18  1  0
  4 26  1  0
  6  7  2  0
  7 13  1  0
  8 18  1  0
  8 23  1  0
  8 28  1  0
  9 24  1  0
 10 24  1  0
 11 25  1  0
 12 16  4  0
 12 19  4  0
 14 19  4  0
 15 26  1  0
 17 20  1  0
 17 25  1  0
 19 29  4  0
 21 23  1  0
 22 27  4  0
 23 25  1  0
M  END
$$$$

 Created by Python create_sdf_string function

 29 68  0  0  0  0  0  0  0  0999 V2000
    5.6173    9.4281   21.9509 F   0  0  0  0  0  0  0  0  0  0  0  0
   10.7080    6.8520   21.5252 O   0  0  0  0  0  0  0  0  0  0  0  0
    6.0107    3.3787   23.6402 N   0  0  0  0  0  0  0  0  0  0  0  0
    7.0380    9.9597   23.3272 C   0  0  0  0  0  0  0  0  0  0  0  0
    5.1901    8.6067   19.8636 C   0  0  0  0  0  0  0  0  0  0  0  0
    6.5765    1.8009   23.1233 Cl  0  0  0  0  0  0  0  0  0  0  0  0
    6.8155    2.6508   23.0493 C   0  0  0  0  0  0  0  0  0  0  0  0
   14.0596    7.3843   20.8813 O   0  0  0  0  0  0  0  0  0  0  0  0
    8.9149    8.8737   21.8873 C   0  0  0  0  0  0  0  0  0  0  0  0
    6.4199    1.9509   23.1853 O   0  0  0  0  0  0  0  0  0  0  0  0
    8.0440    4.3091   22.5657 C   0  0  0  0  0  0  0  0  0  0  0  0
    5.7875    9.4195   21.4220 C   0  0  0  0  0  0  0  0  0  0  0  0
   10.0218    4.6327   20.6539 C   0  0  0  0  0  0  0  0  0  0  0  0
   10.9965    8.5649   23.7167 N   0  0  0  0  0  0  0  0  0  0  0  0
    7.4131    9.1568   23.9754 C   0  0  0  0  0  0  0  0  0  0  0  0
    9.9558    6.1489   22.3314 Cl  0  0  0  0  0  0  0  0  0  0  0  0
   10.0985   10.4327   25.4401 S   0  0  0  0  0  0  0  0  0  0  0  0
    5.9887    5.4525   22.2365 S   0  0  0  0  0  0  0  0  0  0  0  0
    9.1273    8.4546   23.8916 C   0  0  0  0  0  0  0  0  0  0  0  0
   13.7056    6.9091   20.5690 C   0  0  0  0  0  0  0  0  0  0  0  0
    6.6013    8.5350   22.5921 C   0  0  0  0  0  0  0  0  0  0  0  0
    7.2013    5.1376   23.1693 C   0  0  0  0  0  0  0  0  0  0  0  0
    8.0674    9.0856   26.1122 Cl  0  0  0  0  0  0  0  0  0  0  0  0
    7.9420    5.1011   22.2283 C   0  0  0  0  0  0  0  0  0  0  0  0
    8.4769    8.9374   24.7939 He  0  0  0  0  0  0  0  0  0  0  0  0
   12.5501    7.5933   21.4644 He  0  0  0  0  0  0  0  0  0  0  0  0
    9.3174    4.7670   21.5575 He  0  0  0  0  0  0  0  0  0  0  0  0
    8.1749    4.6706   23.4475 He  0  0  0  0  0  0  0  0  0  0  0  0
    9.9015    8.3054   23.3066 He  0  0  0  0  0  0  0  0  0  0  0  0
  1  5  1  0
  1 16  1  0
  1 21  1  0
  2  4  1  0
  2 14  4  0
  2 15  4  0
  2 16  3  0
  2 21  2  0
  3  7  1  0
  3  9  1  0
  3 11  2  0
  3 12  3  0
  3 13  1  0
  3 15  4  0
  3 17  1  0
  3 18  4  0
  3 24  3  0
  4  9  1  0
  4 12  1  0
  4 15  1  0
  4 19  1  0
  4 20  2  0
  4 21  1  0
  5  9  4  0
  5 18  2  0
  5 21  3  0
  6  7  2  0
  6 16  2  0
  6 20  1  0
  6 21  3  0
  7  9  2  0
  7 14  3  0
  7 19  4  0
  7 21  2  0
  7 23  4  0
  8 15  1  0
  8 20  1  0
  8 22  1  0
  9 15  2  0
  9 17  3  0
  9 18  3  0
  9 21  4  0
  9 22  4  0
 10 11  1  0
 10 16  2  0
 11 12  3  0
 11 13  3  0
 11 23  2  0
 12 16  1  0
 12 18  2  0
 12 19  3  0
 12 21  1  0
 14 16  1  0
 14 20  3  0
 15 20  4  0
 16 22  3  0
 16 24  4  0
 17 19  1  0
 17 22  1  0
 18 20  4  0
 18 23  4  0
 18 24  1  0
 19 20  3  0
 19 21  4  0
 19 22  3  0
 19 24  3  0
 20 22  1  0
 23 24  3  0
M  END
$$$$

 Created by Python create_sdf_string function

 29 29  0  0  0  0  0  0  0  0999 V2000
    5.5742    8.9859   21.6121 N   0  0  0  0  0  0  0  0  0  0  0  0
   11.1767    6.9959   21.8508 O   0  0  0  0  0  0  0  0  0  0  0  0
    6.2755    3.6945   23.1774 N   0  0  0  0  0  0  0  0  0  0  0  0
    7.4871    9.3331   22.8862 C   0  0  0  0  0  0  0  0  0  0  0  0
    5.1288    8.5903   20.2528 C   0  0  0  0  0  0  0  0  0  0  0  0
    7.3263    1.9879   23.4900 O   0  0  0  0  0  0  0  0  0  0  0  0
    6.6459    2.5946   23.3410 C   0  0  0  0  0  0  0  0  0  0  0  0
    8.4939    9.2292   24.9323 C   0  0  0  0  0  0  0  0  0  0  0  0
   14.1695    7.3187   20.8397 O   0  0  0  0  0  0  0  0  0  0  0  0
   12.3566    7.4979   21.3895 C   0  0  0  0  0  0  0  0  0  0  0  0
    8.7014    8.8760   22.2660 C   0  0  0  0  0  0  0  0  0  0  0  0
    9.6157    4.3150   21.4496 C   0  0  0  0  0  0  0  0  0  0  0  0
    6.0263    1.8326   23.3849 O   0  0  0  0  0  0  0  0  0  0  0  0
    7.5009    4.1287   22.6687 C   0  0  0  0  0  0  0  0  0  0  0  0
    5.8147    9.8253   21.7934 C   0  0  0  0  0  0  0  0  0  0  0  0
   10.1804    5.1310   21.0474 C   0  0  0  0  0  0  0  0  0  0  0  0
   10.9271    8.1588   23.2609 N   0  0  0  0  0  0  0  0  0  0  0  0
    7.4110    9.4373   24.2767 C   0  0  0  0  0  0  0  0  0  0  0  0
    8.2620    4.7512   22.5530 C   0  0  0  0  0  0  0  0  0  0  0  0
   10.0869    6.3273   21.9858 C   0  0  0  0  0  0  0  0  0  0  0  0
   10.1591    9.9297   25.2977 O   0  0  0  0  0  0  0  0  0  0  0  0
    5.9915    5.4472   22.7635 C   0  0  0  0  0  0  0  0  0  0  0  0
    9.5333    8.8306   24.3123 C   0  0  0  0  0  0  0  0  0  0  0  0
   13.4385    7.0461   20.6823 C   0  0  0  0  0  0  0  0  0  0  0  0
    9.7630    8.3111   23.1517 C   0  0  0  0  0  0  0  0  0  0  0  0
    6.4178    8.8106   22.3036 C   0  0  0  0  0  0  0  0  0  0  0  0
    6.4996    5.2739   23.2602 C   0  0  0  0  0  0  0  0  0  0  0  0
    7.7191    9.1729   25.9734 O   0  0  0  0  0  0  0  0  0  0  0  0
    8.7504    5.8886   22.6192 C   0  0  0  0  0  0  0  0  0  0  0  0
  1  5  1  0
  1 15  1  0
  1 26  1  0
  2 10  1  0
  2 17  4  0
  2 20  1  0
  3  7  1  0
  3 14  4  0
  3 27  4  0
  4 11  1  0
  4 18  1  0
  4 26  1  0
  6  7  2  0
  7 13  1  0
  8 18  1  0
  8 23  1  0
  8 28  1  0
  9 24  1  0
 10 24  1  0
 11 25  1  0
 12 16  4  0
 14 19  4  0
 16 20  4  0
 17 25  1  0
 19 29  4  0
 20 29  4  0
 21 23  1  0
 22 27  4  0
 23 25  1  0
M  END
$$$$

 Created by Python create_sdf_string function

 29 71  0  0  0  0  0  0  0  0999 V2000
    5.1596    9.6368   21.2311 B   0  0  0  0  0  0  0  0  0  0  0  0
   10.8704    6.7555   22.2629 C   0  0  0  0  0  0  0  0  0  0  0  0
    6.6455    3.8256   23.6273 N   0  0  0  0  0  0  0  0  0  0  0  0
    6.5049    9.7563   24.0897 Br  0  0  0  0  0  0  0  0  0  0  0  0
    6.9702    1.6199   23.5149 O   0  0  0  0  0  0  0  0  0  0  0  0
    6.4710    2.8903   23.3244 C   0  0  0  0  0  0  0  0  0  0  0  0
    8.6028    9.2612   24.8817 O   0  0  0  0  0  0  0  0  0  0  0  0
   13.4700    7.3509   20.2299 O   0  0  0  0  0  0  0  0  0  0  0  0
   11.9439    7.7660   20.8759 C   0  0  0  0  0  0  0  0  0  0  0  0
    9.0340    8.9723   22.4871 C   0  0  0  0  0  0  0  0  0  0  0  0
    6.4932    2.6475   23.3509 O   0  0  0  0  0  0  0  0  0  0  0  0
    5.5394    9.5873   21.7176 C   0  0  0  0  0  0  0  0  0  0  0  0
   10.9351    8.1834   23.3195 N   0  0  0  0  0  0  0  0  0  0  0  0
    7.4802    9.0513   23.7618 C   0  0  0  0  0  0  0  0  0  0  0  0
    7.8642    4.7959   22.1356 N   0  0  0  0  0  0  0  0  0  0  0  0
    9.6313    6.1903   22.2069 C   0  0  0  0  0  0  0  0  0  0  0  0
    9.7650    9.4902   24.7661 O   0  0  0  0  0  0  0  0  0  0  0  0
    5.7302    6.0112   23.0917 N   0  0  0  0  0  0  0  0  0  0  0  0
   12.7957    6.7798   21.0313 C   0  0  0  0  0  0  0  0  0  0  0  0
   10.6657    8.2051   22.9145 C   0  0  0  0  0  0  0  0  0  0  0  0
    5.7364    8.4492   23.0719 Cl  0  0  0  0  0  0  0  0  0  0  0  0
    6.1349    4.5142   22.4209 P   0  0  0  0  0  0  0  0  0  0  0  0
    7.7300    8.4796   26.8591 Cl  0  0  0  0  0  0  0  0  0  0  0  0
    8.4323    6.3940   21.9775 C   0  0  0  0  0  0  0  0  0  0  0  0
    4.3623    8.1112   20.5145 He  0  0  0  0  0  0  0  0  0  0  0  0
    9.9319    4.0008   21.2034 He  0  0  0  0  0  0  0  0  0  0  0  0
    7.6213    3.5426   22.1435 He  0  0  0  0  0  0  0  0  0  0  0  0
    9.6016    5.5989   19.9720 He  0  0  0  0  0  0  0  0  0  0  0  0
    8.2601    8.7792   23.9940 He  0  0  0  0  0  0  0  0  0  0  0  0
  1  2  4  0
  1 11  2  0
  1 12  1  0
  1 21  1  0
  2  9  1  0
  2 12  3  0
  2 13  4  0
  2 16  1  0
  2 19  3  0
  2 22  2  0
  3  6  1  0
  3 13  3  0
  3 14  1  0
  3 16  1  0
  3 19  1  0
  3 20  4  0
  3 22  1  0
  4  6  4  0
  4 10  1  0
  4 12  4  0
  4 14  1  0
  4 18  3  0
  4 21  2  0
  5  6  3  0
  5  8  1  0
  5 12  3  0
  5 13  4  0
  5 14  4  0
  5 18  4  0
  5 20  3  0
  5 23  3  0
  6 11  1  0
  6 12  4  0
  6 13  1  0
  6 14  1  0
  6 16  4  0
  6 17  3  0
  6 19  3  0
  6 24  3  0
  7 13  4  0
  7 17  1  0
  7 19  1  0
  7 23  3  0
  8 11  3  0
  8 21  3  0
  8 22  4  0
  9 19  1  0
 10 15  4  0
 10 16  2  0
 10 18  2  0
 10 24  2  0
 11 18  4  0
 11 19  4  0
 11 21  1  0
 11 22  3  0
 12 24  3  0
 13 15  2  0
 13 20  1  0
 14 20  3  0
 14 22  2  0
 14 24  3  0
 15 17  4  0
 15 21  3  0
 15 24  4  0
 16 22  1  0
 16 24  4  0
 17 23  1  0
 18 19  2  0
 19 20  1  0
 19 23  4  0
 20 23  1  0
M  END
$$$$

 Created by Python create_sdf_string function

 29 26  0  0  0  0  0  0  0  0999 V2000
    5.2253    9.1160   21.5915 C   0  0  0  0  0  0  0  0  0  0  0  0
   10.8680    7.0399   21.8940 C   0  0  0  0  0  0  0  0  0  0  0  0
    6.5077    3.7677   23.1043 N   0  0  0  0  0  0  0  0  0  0  0  0
    6.3523    9.3661   23.7245 C   0  0  0  0  0  0  0  0  0  0  0  0
    4.6201    8.2006   20.8832 O   0  0  0  0  0  0  0  0  0  0  0  0
    7.2943    1.7764   23.7806 O   0  0  0  0  0  0  0  0  0  0  0  0
    6.5683    2.6824   23.4176 C   0  0  0  0  0  0  0  0  0  0  0  0
    8.6388    9.0845   25.2309 C   0  0  0  0  0  0  0  0  0  0  0  0
   13.2458    7.2215   20.2293 O   0  0  0  0  0  0  0  0  0  0  0  0
   11.9983    7.5157   21.1976 C   0  0  0  0  0  0  0  0  0  0  0  0
    8.9975    9.0488   22.5061 C   0  0  0  0  0  0  0  0  0  0  0  0
    9.5705    3.8736   20.9055 C   0  0  0  0  0  0  0  0  0  0  0  0
    5.7698    2.7523   23.3465 C   0  0  0  0  0  0  0  0  0  0  0  0
    8.2555    3.7437   21.7775 C   0  0  0  0  0  0  0  0  0  0  0  0
    5.5480    9.9810   21.3497 C   0  0  0  0  0  0  0  0  0  0  0  0
   10.0447    5.0700   20.8814 C   0  0  0  0  0  0  0  0  0  0  0  0
   10.8809    8.2735   23.3807 N   0  0  0  0  0  0  0  0  0  0  0  0
    7.3285    9.2784   23.8182 C   0  0  0  0  0  0  0  0  0  0  0  0
    7.9050    4.8563   22.1182 C   0  0  0  0  0  0  0  0  0  0  0  0
    9.7649    6.0724   21.6444 C   0  0  0  0  0  0  0  0  0  0  0  0
    9.7110    9.4159   25.3462 O   0  0  0  0  0  0  0  0  0  0  0  0
    5.6756    5.7806   22.8316 N   0  0  0  0  0  0  0  0  0  0  0  0
    8.5439    8.9785   23.9487 C   0  0  0  0  0  0  0  0  0  0  0  0
   12.7466    7.0728   21.0735 C   0  0  0  0  0  0  0  0  0  0  0  0
   10.4610    8.4365   22.9908 C   0  0  0  0  0  0  0  0  0  0  0  0
    5.6252    8.6343   22.9211 O   0  0  0  0  0  0  0  0  0  0  0  0
    6.3091    4.8872   22.7439 C   0  0  0  0  0  0  0  0  0  0  0  0
    7.6979    8.7471   26.2926 O   0  0  0  0  0  0  0  0  0  0  0  0
    8.5201    5.9944   22.1710 C   0  0  0  0  0  0  0  0  0  0  0  0
  1  5  2  0
  1 15  1  0
  1 26  1  0
  2 10  1  0
  2 20  1  0
  3  7  1  0
  3 27  4  0
  4 18  1  0
  4 26  1  0
  6  7  2  0
  7 13  1  0
  8 21  1  0
  8 23  1  0
  8 28  1  0
  9 24  1  0
 10 24  1  0
 11 25  1  0
 12 14  4  0
 12 16  4  0
 14 19  4  0
 16 20  4  0
 17 25  1  0
 18 23  1  0
 19 29  4  0
 20 29  4  0
 22 27  2  0
M  END
$$$$

 Created by Python create_sdf_string function

 29 63  0  0  0  0  0  0  0  0999 V2000
   10.4949    6.1894   23.1157 C   0  0  0  0  0  0  0  0  0  0  0  0
    6.8124    3.4019   23.3864 N   0  0  0  0  0  0  0  0  0  0  0  0
    6.5780    9.4529   23.3711 C   0  0  0  0  0  0  0  0  0  0  0  0
    5.3574    7.9437   20.7566 S   0  0  0  0  0  0  0  0  0  0  0  0
    8.6395    9.2492   25.4971 N   0  0  0  0  0  0  0  0  0  0  0  0
   12.9604    8.1606   19.9864 O   0  0  0  0  0  0  0  0  0  0  0  0
   12.0178    7.4361   20.8155 C   0  0  0  0  0  0  0  0  0  0  0  0
    9.3575    8.6508   22.5597 N   0  0  0  0  0  0  0  0  0  0  0  0
    9.3530    3.6458   20.5360 C   0  0  0  0  0  0  0  0  0  0  0  0
    8.2600    2.4995   22.2996 C   0  0  0  0  0  0  0  0  0  0  0  0
    5.2132    9.3506   20.5480 C   0  0  0  0  0  0  0  0  0  0  0  0
   10.0705    4.7522   20.6504 C   0  0  0  0  0  0  0  0  0  0  0  0
    7.2936    9.6545   24.2081 F   0  0  0  0  0  0  0  0  0  0  0  0
   10.2321    5.8556   21.2328 C   0  0  0  0  0  0  0  0  0  0  0  0
   10.6498    9.5382   24.7012 O   0  0  0  0  0  0  0  0  0  0  0  0
    5.2455    5.7736   22.6259 P   0  0  0  0  0  0  0  0  0  0  0  0
    9.0705    8.1242   23.4957 C   0  0  0  0  0  0  0  0  0  0  0  0
   12.3741    6.6897   21.3194 C   0  0  0  0  0  0  0  0  0  0  0  0
    5.5847    8.7341   23.0765 O   0  0  0  0  0  0  0  0  0  0  0  0
    6.5572    4.7799   23.3174 I   0  0  0  0  0  0  0  0  0  0  0  0
    7.5856    8.9713   26.6739 O   0  0  0  0  0  0  0  0  0  0  0  0
    9.0590    6.0125   21.8713 C   0  0  0  0  0  0  0  0  0  0  0  0
    4.9444    9.1138   21.8005 He  0  0  0  0  0  0  0  0  0  0  0  0
    7.8474    2.0891   23.4826 He  0  0  0  0  0  0  0  0  0  0  0  0
    6.4164    2.2409   23.0771 He  0  0  0  0  0  0  0  0  0  0  0  0
    5.1352    3.1235   22.8097 He  0  0  0  0  0  0  0  0  0  0  0  0
   11.9973    7.7331   23.6999 He  0  0  0  0  0  0  0  0  0  0  0  0
    7.6192    5.0908   22.7022 He  0  0  0  0  0  0  0  0  0  0  0  0
   10.0534    8.8782   23.4284 He  0  0  0  0  0  0  0  0  0  0  0  0
  1  7  1  0
  1 22  3  0
  2 12  3  0
  2 14  4  0
  2 18  2  0
  2 19  3  0
  2 20  3  0
  2 21  1  0
  3  7  1  0
  3  8  4  0
  3 13  1  0
  3 15  2  0
  3 19  1  0
  3 20  2  0
  3 21  1  0
  4  5  1  0
  4  7  2  0
  4  8  3  0
  4 11  1  0
  4 12  4  0
  4 14  4  0
  4 22  2  0
  5 13  4  0
  5 16  4  0
  5 17  1  0
  5 19  3  0
  6 19  3  0
  6 20  4  0
  7  8  2  0
  7 12  4  0
  7 18  3  0
  7 20  4  0
  8 11  1  0
  8 20  1  0
  8 21  2  0
  8 22  1  0
  9 12  4  0
  9 14  3  0
  9 18  2  0
  9 21  1  0
  9 22  1  0
 10 12  1  0
 10 18  4  0
 10 22  3  0
 11 17  1  0
 11 20  1  0
 12 14  4  0
 12 15  3  0
 12 16  4  0
 12 21  2  0
 13 14  2  0
 13 17  1  0
 13 20  2  0
 13 21  2  0
 13 22  2  0
 14 21  1  0
 14 22  1  0
 15 16  1  0
 16 17  1  0
 16 20  2  0
 18 19  1  0
 19 20  2  0
 19 22  4  0
M  END
$$$$

 Created by Python create_sdf_string function

 29 29  0  0  0  0  0  0  0  0999 V2000
    5.0835    9.1581   21.8748 C   0  0  0  0  0  0  0  0  0  0  0  0
   10.7023    6.7785   21.9312 C   0  0  0  0  0  0  0  0  0  0  0  0
    6.4541    3.5253   23.3513 N   0  0  0  0  0  0  0  0  0  0  0  0
    6.6422    9.3711   23.3969 C   0  0  0  0  0  0  0  0  0  0  0  0
    5.2410    8.0781   20.5565 O   0  0  0  0  0  0  0  0  0  0  0  0
    7.4781    1.5783   23.5813 O   0  0  0  0  0  0  0  0  0  0  0  0
    6.6453    2.5066   23.2518 C   0  0  0  0  0  0  0  0  0  0  0  0
    8.4985    9.1344   25.1894 N   0  0  0  0  0  0  0  0  0  0  0  0
   12.9001    7.7685   20.2795 O   0  0  0  0  0  0  0  0  0  0  0  0
   11.8318    7.2309   21.7066 C   0  0  0  0  0  0  0  0  0  0  0  0
    9.1887    8.7136   22.9631 N   0  0  0  0  0  0  0  0  0  0  0  0
    9.3266    3.3823   20.7431 C   0  0  0  0  0  0  0  0  0  0  0  0
    5.2746    2.6324   23.2133 C   0  0  0  0  0  0  0  0  0  0  0  0
    8.4721    3.3558   21.6046 C   0  0  0  0  0  0  0  0  0  0  0  0
    5.2947    9.2254   20.9013 C   0  0  0  0  0  0  0  0  0  0  0  0
   10.0967    4.4135   20.5709 C   0  0  0  0  0  0  0  0  0  0  0  0
   11.8452    8.3087   23.3969 C   0  0  0  0  0  0  0  0  0  0  0  0
    7.3355    9.2867   24.5826 C   0  0  0  0  0  0  0  0  0  0  0  0
    8.0328    4.5609   22.2809 C   0  0  0  0  0  0  0  0  0  0  0  0
    9.9482    5.4984   21.5282 C   0  0  0  0  0  0  0  0  0  0  0  0
   11.0214    9.3940   24.7894 O   0  0  0  0  0  0  0  0  0  0  0  0
    5.7217    5.5842   23.0009 O   0  0  0  0  0  0  0  0  0  0  0  0
    8.8978    8.8081   24.0047 C   0  0  0  0  0  0  0  0  0  0  0  0
   12.3284    7.1013   21.1161 C   0  0  0  0  0  0  0  0  0  0  0  0
   10.6752    8.6509   23.8208 C   0  0  0  0  0  0  0  0  0  0  0  0
    5.6945    8.8882   22.9518 C   0  0  0  0  0  0  0  0  0  0  0  0
    6.5233    4.7902   22.9917 C   0  0  0  0  0  0  0  0  0  0  0  0
    7.3723    9.0009   25.9828 O   0  0  0  0  0  0  0  0  0  0  0  0
    8.8816    5.5176   22.3627 C   0  0  0  0  0  0  0  0  0  0  0  0
  1 15  1  0
  1 26  1  0
  2 10  1  0
  2 20  1  0
  3  7  1  0
  3 27  4  0
  4 18  1  0
  4 26  1  0
  5 15  1  0
  6  7  2  0
  7 13  1  0
  8 18  1  0
  8 23  1  0
  9 24  1  0
 10 24  1  0
 11 23  1  0
 11 25  1  0
 12 14  4  0
 12 16  4  0
 14 19  4  0
 16 20  4  0
 17 25  1  0
 18 23  1  0
 18 28  2  0
 19 27  4  0
 19 29  4  0
 20 29  4  0
 21 25  1  0
 22 27  2  0
M  END
$$$$

 Created by Python create_sdf_string function

 29 43  0  0  0  0  0  0  0  0999 V2000
    5.3670    8.9326   22.2217 S   0  0  0  0  0  0  0  0  0  0  0  0
   10.8663    6.4186   22.0791 C   0  0  0  0  0  0  0  0  0  0  0  0
    6.3518    2.8538   23.7489 N   0  0  0  0  0  0  0  0  0  0  0  0
    6.5257    9.0023   23.3267 C   0  0  0  0  0  0  0  0  0  0  0  0
    7.2032    0.8754   22.9225 O   0  0  0  0  0  0  0  0  0  0  0  0
    6.0504    2.5127   23.4247 C   0  0  0  0  0  0  0  0  0  0  0  0
    9.2508    3.7846   20.8724 F   0  0  0  0  0  0  0  0  0  0  0  0
    5.8295    3.4968   23.3776 C   0  0  0  0  0  0  0  0  0  0  0  0
    9.0375    2.7805   21.8101 C   0  0  0  0  0  0  0  0  0  0  0  0
    6.9518    8.6889   24.5383 S   0  0  0  0  0  0  0  0  0  0  0  0
    8.4744    4.5048   23.0210 O   0  0  0  0  0  0  0  0  0  0  0  0
   10.5389   10.4984   24.3326 O   0  0  0  0  0  0  0  0  0  0  0  0
    5.6810    5.4691   22.8494 S   0  0  0  0  0  0  0  0  0  0  0  0
    9.5299    8.4775   24.0543 O   0  0  0  0  0  0  0  0  0  0  0  0
   11.4625    8.0888   23.2250 C   0  0  0  0  0  0  0  0  0  0  0  0
    6.7153    8.3974   22.7841 C   0  0  0  0  0  0  0  0  0  0  0  0
    6.2310    4.3529   22.6913 F   0  0  0  0  0  0  0  0  0  0  0  0
    8.2484    8.8075   26.9922 O   0  0  0  0  0  0  0  0  0  0  0  0
    9.0727    4.8836   23.0656 C   0  0  0  0  0  0  0  0  0  0  0  0
    4.9735    7.8572   20.2044 He  0  0  0  0  0  0  0  0  0  0  0  0
    8.2822    8.9449   25.7887 He  0  0  0  0  0  0  0  0  0  0  0  0
   12.6659    7.8207   20.6684 He  0  0  0  0  0  0  0  0  0  0  0  0
   11.3399    6.8698   22.0665 He  0  0  0  0  0  0  0  0  0  0  0  0
    8.1034    8.5209   22.5945 He  0  0  0  0  0  0  0  0  0  0  0  0
    4.9792    8.8806   20.1632 He  0  0  0  0  0  0  0  0  0  0  0  0
   10.7817    3.4016   19.6901 He  0  0  0  0  0  0  0  0  0  0  0  0
   12.2023    8.1039   23.0008 He  0  0  0  0  0  0  0  0  0  0  0  0
   10.0677    4.9894   21.1442 He  0  0  0  0  0  0  0  0  0  0  0  0
   13.3246    7.4450   20.8499 He  0  0  0  0  0  0  0  0  0  0  0  0
  1  3  2  0
  1  7  2  0
  1  8  3  0
  1 14  4  0
  1 16  3  0
  1 18  2  0
  2  8  2  0
  2  9  3  0
  2 14  4  0
  2 18  1  0
  3  6  1  0
  3 14  1  0
  3 17  4  0
  3 18  4  0
  3 19  4  0
  4  5  1  0
  4  6  2  0
  4  9  1  0
  4 10  1  0
  4 16  1  0
  4 19  1  0
  5  6  2  0
  5  7  1  0
  5  8  4  0
  6  8  1  0
  6 16  1  0
  6 18  3  0
  7 19  1  0
  8 16  4  0
  8 18  3  0
  9 11  4  0
 10 14  1  0
 11 13  1  0
 11 17  4  0
 11 19  4  0
 12 14  2  0
 12 15  3  0
 12 18  1  0
 13 14  1  0
 13 15  1  0
 13 17  2  0
 14 17  4  0
 15 18  2  0
M  END
$$$$

 Created by Python create_sdf_string function

 29 29  0  0  0  0  0  0  0  0999 V2000
    5.2231    8.9421   21.9564 C   0  0  0  0  0  0  0  0  0  0  0  0
   11.0557    6.2631   21.6937 C   0  0  0  0  0  0  0  0  0  0  0  0
    6.6401    3.5547   23.4569 N   0  0  0  0  0  0  0  0  0  0  0  0
    7.0595    8.7638   23.4365 C   0  0  0  0  0  0  0  0  0  0  0  0
    4.8966    7.7839   19.9987 C   0  0  0  0  0  0  0  0  0  0  0  0
    7.0665    1.5861   23.6885 O   0  0  0  0  0  0  0  0  0  0  0  0
    6.6570    2.4588   23.5395 C   0  0  0  0  0  0  0  0  0  0  0  0
    8.5198    9.0800   25.3442 P   0  0  0  0  0  0  0  0  0  0  0  0
   12.6297    8.0880   20.9029 C   0  0  0  0  0  0  0  0  0  0  0  0
   11.2649    6.9850   22.2393 C   0  0  0  0  0  0  0  0  0  0  0  0
    8.4811    8.7412   22.7477 C   0  0  0  0  0  0  0  0  0  0  0  0
    9.4938    2.9424   20.7289 C   0  0  0  0  0  0  0  0  0  0  0  0
    5.7166    3.2825   23.3521 C   0  0  0  0  0  0  0  0  0  0  0  0
    8.4430    3.0001   21.5891 C   0  0  0  0  0  0  0  0  0  0  0  0
    5.0564    8.9383   20.5021 C   0  0  0  0  0  0  0  0  0  0  0  0
   10.3490    3.9618   20.6383 C   0  0  0  0  0  0  0  0  0  0  0  0
   12.1515    8.3317   22.8399 C   0  0  0  0  0  0  0  0  0  0  0  0
    7.2200    8.7943   24.6877 C   0  0  0  0  0  0  0  0  0  0  0  0
    8.0885    4.0788   22.3665 C   0  0  0  0  0  0  0  0  0  0  0  0
   10.1380    5.0534   21.5746 C   0  0  0  0  0  0  0  0  0  0  0  0
   10.4158    9.8153   24.6087 O   0  0  0  0  0  0  0  0  0  0  0  0
    6.1490    5.5024   22.8602 O   0  0  0  0  0  0  0  0  0  0  0  0
    9.3540    8.8818   24.3486 O   0  0  0  0  0  0  0  0  0  0  0  0
   12.8765    7.1964   21.1212 C   0  0  0  0  0  0  0  0  0  0  0  0
   11.3616    8.3070   23.0058 C   0  0  0  0  0  0  0  0  0  0  0  0
    6.1707    8.4949   22.6595 C   0  0  0  0  0  0  0  0  0  0  0  0
    6.7953    4.6107   22.8902 C   0  0  0  0  0  0  0  0  0  0  0  0
    8.4803    8.9221   26.5644 O   0  0  0  0  0  0  0  0  0  0  0  0
    9.1206    5.0794   22.4208 C   0  0  0  0  0  0  0  0  0  0  0  0
  1 15  1  0
  1 26  1  0
  2 10  1  0
  2 20  1  0
  2 24  1  0
  3  7  1  0
  3 27  4  0
  4 11  2  0
  4 18  1  0
  4 26  1  0
  5 15  1  0
  6  7  2  0
  7 13  1  0
  8 18  1  0
  8 23  1  0
  8 28  1  0
  9 24  1  0
 10 25  1  0
 11 23  1  0
 12 14  4  0
 12 16  4  0
 14 19  4  0
 16 20  4  0
 17 25  1  0
 19 27  4  0
 19 29  4  0
 20 29  4  0
 21 23  1  0
 22 27  2  0
M  END
$$$$

 Created by Python create_sdf_string function

 29 57  0  0  0  0  0  0  0  0999 V2000
    4.7511    9.0567   22.4420 C   0  0  0  0  0  0  0  0  0  0  0  0
   11.3659    6.3566   21.5072 N   0  0  0  0  0  0  0  0  0  0  0  0
    6.8501    9.2045   23.2901 C   0  0  0  0  0  0  0  0  0  0  0  0
    4.5167    7.6122   20.0114 C   0  0  0  0  0  0  0  0  0  0  0  0
    6.9141    1.8955   23.5922 O   0  0  0  0  0  0  0  0  0  0  0  0
    6.1479    2.0770   23.1760 C   0  0  0  0  0  0  0  0  0  0  0  0
    8.3907    9.3169   25.4810 P   0  0  0  0  0  0  0  0  0  0  0  0
   12.0192    8.0069   21.0003 C   0  0  0  0  0  0  0  0  0  0  0  0
   10.6842    6.3556   22.3783 C   0  0  0  0  0  0  0  0  0  0  0  0
    8.1164    8.7879   22.9581 O   0  0  0  0  0  0  0  0  0  0  0  0
    9.1882    2.7562   20.5250 F   0  0  0  0  0  0  0  0  0  0  0  0
    6.3811    2.8203   23.6284 C   0  0  0  0  0  0  0  0  0  0  0  0
    8.9194    2.2412   21.5533 C   0  0  0  0  0  0  0  0  0  0  0  0
    4.7878    8.6997   20.6834 C   0  0  0  0  0  0  0  0  0  0  0  0
   12.5819    7.6278   22.2572 Cl  0  0  0  0  0  0  0  0  0  0  0  0
    6.9054    9.3764   24.8666 C   0  0  0  0  0  0  0  0  0  0  0  0
   10.5493    5.5970   21.8252 F   0  0  0  0  0  0  0  0  0  0  0  0
   10.7212    9.5852   24.3617 O   0  0  0  0  0  0  0  0  0  0  0  0
    9.2533    8.3831   23.1953 O   0  0  0  0  0  0  0  0  0  0  0  0
   12.1780    6.7972   20.9632 C   0  0  0  0  0  0  0  0  0  0  0  0
    6.6730    8.0273   23.0612 C   0  0  0  0  0  0  0  0  0  0  0  0
    7.3611    4.1305   23.2279 C   0  0  0  0  0  0  0  0  0  0  0  0
    8.5081    9.2410   25.8470 O   0  0  0  0  0  0  0  0  0  0  0  0
    9.0552    4.6590   23.1392 C   0  0  0  0  0  0  0  0  0  0  0  0
    5.8487    2.9915   23.9614 He  0  0  0  0  0  0  0  0  0  0  0  0
   10.3513    3.7654   20.4697 He  0  0  0  0  0  0  0  0  0  0  0  0
    8.3735    3.9068   22.4367 He  0  0  0  0  0  0  0  0  0  0  0  0
    5.5908    5.5428   23.1801 He  0  0  0  0  0  0  0  0  0  0  0  0
   11.6421    7.7474   22.9031 He  0  0  0  0  0  0  0  0  0  0  0  0
  1  6  2  0
  1 14  1  0
  1 15  4  0
  1 21  1  0
  2  9  3  0
  2 11  4  0
  2 17  1  0
  2 20  1  0
  2 21  2  0
  2 22  4  0
  3 15  2  0
  3 21  1  0
  4 10  4  0
  4 14  1  0
  4 18  3  0
  4 19  1  0
  4 24  3  0
  5  6  4  0
  5 24  3  0
  6 11  2  0
  6 12  4  0
  6 14  2  0
  7  9  3  0
  7 16  1  0
  7 17  4  0
  7 19  2  0
  7 23  1  0
  8  9  3  0
  8 15  3  0
  8 17  2  0
  8 24  4  0
  9 15  2  0
 10 12  2  0
 11 12  2  0
 11 13  4  0
 11 20  3  0
 11 23  1  0
 12 13  2  0
 12 15  1  0
 12 19  1  0
 12 20  4  0
 12 21  3  0
 13 16  2  0
 13 20  3  0
 14 18  4  0
 14 20  1  0
 14 22  2  0
 14 23  2  0
 14 24  4  0
 15 18  2  0
 16 23  1  0
 18 19  1  0
 19 23  4  0
 20 21  3  0
 20 24  2  0
 21 24  2  0
 22 23  3  0
M  END
$$$$

 Created by Python create_sdf_string function

 29 30  0  0  0  0  0  0  0  0999 V2000
    4.9581    8.7188   22.3175 C   0  0  0  0  0  0  0  0  0  0  0  0
   11.1202    6.0818   21.6623 N   0  0  0  0  0  0  0  0  0  0  0  0
    5.1845    3.3578   24.0234 C   0  0  0  0  0  0  0  0  0  0  0  0
    6.7949    8.9801   23.3605 C   0  0  0  0  0  0  0  0  0  0  0  0
    4.5608    7.6652   20.2990 C   0  0  0  0  0  0  0  0  0  0  0  0
    7.0814    1.6420   23.6639 O   0  0  0  0  0  0  0  0  0  0  0  0
    6.5810    2.3473   23.4846 C   0  0  0  0  0  0  0  0  0  0  0  0
    8.4692    9.3530   25.0710 P   0  0  0  0  0  0  0  0  0  0  0  0
   12.5965    7.8750   20.9076 C   0  0  0  0  0  0  0  0  0  0  0  0
   10.9772    6.8465   22.7309 C   0  0  0  0  0  0  0  0  0  0  0  0
    8.3900    8.7635   22.9130 O   0  0  0  0  0  0  0  0  0  0  0  0
    9.5972    2.7779   20.6621 C   0  0  0  0  0  0  0  0  0  0  0  0
    6.1226    2.9591   23.4763 C   0  0  0  0  0  0  0  0  0  0  0  0
    8.6532    2.6532   21.5937 C   0  0  0  0  0  0  0  0  0  0  0  0
    4.8802    8.7211   21.0342 C   0  0  0  0  0  0  0  0  0  0  0  0
   10.3731    3.9552   20.6375 C   0  0  0  0  0  0  0  0  0  0  0  0
   12.4034    8.2648   22.1791 C   0  0  0  0  0  0  0  0  0  0  0  0
    7.0830    9.3245   24.7307 C   0  0  0  0  0  0  0  0  0  0  0  0
    8.4034    3.7627   22.3980 C   0  0  0  0  0  0  0  0  0  0  0  0
   10.2958    4.9663   21.5626 C   0  0  0  0  0  0  0  0  0  0  0  0
   10.6650    8.8856   24.1285 C   0  0  0  0  0  0  0  0  0  0  0  0
    5.7980    6.1382   23.2707 C   0  0  0  0  0  0  0  0  0  0  0  0
    9.2966    8.9342   23.9603 O   0  0  0  0  0  0  0  0  0  0  0  0
   11.8956    6.5804   20.6984 C   0  0  0  0  0  0  0  0  0  0  0  0
   11.3829    7.9789   23.0574 C   0  0  0  0  0  0  0  0  0  0  0  0
    6.1817    7.8934   22.9469 C   0  0  0  0  0  0  0  0  0  0  0  0
    7.2549    4.0834   23.1191 C   0  0  0  0  0  0  0  0  0  0  0  0
    8.6718    9.3460   25.9693 O   0  0  0  0  0  0  0  0  0  0  0  0
    9.1699    4.8633   22.5537 C   0  0  0  0  0  0  0  0  0  0  0  0
  1 15  1  0
  1 26  1  0
  2 10  1  0
  2 20  1  0
  2 24  1  0
  3 13  1  0
  4 11  1  0
  4 18  1  0
  4 26  1  0
  5 15  1  0
  6  7  2  0
  7 13  4  0
  8 18  1  0
  8 23  1  0
  8 28  1  0
  9 17  1  0
  9 24  1  0
 10 25  1  0
 11 23  1  0
 12 14  4  0
 12 16  4  0
 14 19  4  0
 16 20  4  0
 17 25  1  0
 19 27  1  0
 19 29  4  0
 20 29  4  0
 21 23  1  0
 21 25  1  0
 22 26  1  0
M  END
$$$$

 Created by Python create_sdf_string function

 29 71  0  0  0  0  0  0  0  0999 V2000
    5.1011    8.2401   22.0554 C   0  0  0  0  0  0  0  0  0  0  0  0
   11.2343    6.7760   21.1317 N   0  0  0  0  0  0  0  0  0  0  0  0
    5.4509    2.9583   23.2976 C   0  0  0  0  0  0  0  0  0  0  0  0
    5.2022    7.2829   20.3989 C   0  0  0  0  0  0  0  0  0  0  0  0
    6.5554    2.0950   23.9966 O   0  0  0  0  0  0  0  0  0  0  0  0
    6.9097    2.2828   23.4404 C   0  0  0  0  0  0  0  0  0  0  0  0
    8.1565    9.7550   24.7446 P   0  0  0  0  0  0  0  0  0  0  0  0
   12.3462    7.6104   21.0083 O   0  0  0  0  0  0  0  0  0  0  0  0
    9.2510    2.4636   20.9019 B   0  0  0  0  0  0  0  0  0  0  0  0
    6.3189    2.9440   23.4679 C   0  0  0  0  0  0  0  0  0  0  0  0
    8.8994    2.4974   21.6747 F   0  0  0  0  0  0  0  0  0  0  0  0
    4.8993    9.0477   21.5683 C   0  0  0  0  0  0  0  0  0  0  0  0
   10.7626    3.9791   20.6315 C   0  0  0  0  0  0  0  0  0  0  0  0
    6.0752    9.8871   24.5226 C   0  0  0  0  0  0  0  0  0  0  0  0
    8.5416    3.1596   22.1595 C   0  0  0  0  0  0  0  0  0  0  0  0
   10.5869    4.8813   21.4427 C   0  0  0  0  0  0  0  0  0  0  0  0
   10.4017    9.5670   23.2733 N   0  0  0  0  0  0  0  0  0  0  0  0
    5.5179    5.7120   23.0473 N   0  0  0  0  0  0  0  0  0  0  0  0
   11.8954    6.6465   20.3413 O   0  0  0  0  0  0  0  0  0  0  0  0
   11.6067    7.4010   22.9082 P   0  0  0  0  0  0  0  0  0  0  0  0
    6.7791    7.8177   22.5926 C   0  0  0  0  0  0  0  0  0  0  0  0
    6.7203    4.4275   23.0661 C   0  0  0  0  0  0  0  0  0  0  0  0
    8.6186    9.3480   25.7372 O   0  0  0  0  0  0  0  0  0  0  0  0
    9.8393    4.9423   22.5300 F   0  0  0  0  0  0  0  0  0  0  0  0
    6.7898    9.1315   22.9760 He  0  0  0  0  0  0  0  0  0  0  0  0
   10.7042    5.8728   22.7656 He  0  0  0  0  0  0  0  0  0  0  0  0
    8.8420    8.4327   23.0911 He  0  0  0  0  0  0  0  0  0  0  0  0
   13.1931    8.5628   21.9968 He  0  0  0  0  0  0  0  0  0  0  0  0
    9.1995    8.5348   24.1125 He  0  0  0  0  0  0  0  0  0  0  0  0
  1  2  1  0
  1  7  3  0
  1 10  4  0
  1 12  1  0
  1 13  2  0
  1 20  1  0
  1 21  1  0
  2  9  4  0
  2 10  2  0
  2 13  3  0
  2 16  1  0
  2 19  1  0
  3  8  2  0
  3 10  3  0
  3 19  1  0
  3 20  3  0
  3 23  4  0
  4 11  2  0
  4 16  3  0
  4 23  4  0
  5 10  4  0
  5 16  3  0
  5 20  2  0
  5 23  1  0
  6 10  4  0
  6 13  4  0
  6 15  1  0
  6 16  4  0
  6 17  2  0
  6 20  1  0
  7 11  1  0
  7 16  4  0
  7 23  1  0
  8  9  4  0
  8 16  2  0
  8 17  2  0
  8 19  2  0
  8 22  3  0
  9 10  1  0
  9 11  4  0
  9 18  3  0
  9 19  3  0
  9 20  4  0
 10 12  4  0
 10 17  2  0
 10 19  4  0
 11 12  1  0
 11 17  1  0
 12 13  2  0
 12 17  4  0
 12 23  2  0
 13 19  3  0
 14 22  3  0
 14 24  2  0
 15 16  1  0
 15 22  1  0
 15 24  4  0
 16 24  4  0
 17 19  3  0
 17 20  4  0
 17 24  2  0
 18 19  4  0
 18 20  2  0
 18 21  1  0
 19 21  3  0
 19 22  2  0
 19 24  2  0
 20 21  1  0
 20 24  3  0
 22 24  2  0
 23 24  3  0
M  END
$$$$

 Created by Python create_sdf_string function

 29 32  0  0  0  0  0  0  0  0999 V2000
    5.2297    8.0685   22.0400 C   0  0  0  0  0  0  0  0  0  0  0  0
   11.0975    6.0336   21.5523 N   0  0  0  0  0  0  0  0  0  0  0  0
    5.6399    3.3373   23.4519 C   0  0  0  0  0  0  0  0  0  0  0  0
    7.0492    8.6987   23.1706 C   0  0  0  0  0  0  0  0  0  0  0  0
    5.0734    7.3012   20.5626 C   0  0  0  0  0  0  0  0  0  0  0  0
    6.5785    1.8164   23.9095 O   0  0  0  0  0  0  0  0  0  0  0  0
    7.2832    2.7768   23.3864 C   0  0  0  0  0  0  0  0  0  0  0  0
    8.3236    9.6479   24.7285 C   0  0  0  0  0  0  0  0  0  0  0  0
   12.5777    7.7673   20.8943 C   0  0  0  0  0  0  0  0  0  0  0  0
   11.0549    6.6621   22.7907 C   0  0  0  0  0  0  0  0  0  0  0  0
    8.3320    8.3761   22.8746 C   0  0  0  0  0  0  0  0  0  0  0  0
    9.8404    2.5865   20.6009 C   0  0  0  0  0  0  0  0  0  0  0  0
    6.4998    2.4464   23.6164 C   0  0  0  0  0  0  0  0  0  0  0  0
    8.8602    2.5558   21.5912 C   0  0  0  0  0  0  0  0  0  0  0  0
    4.8461    8.9708   21.6192 C   0  0  0  0  0  0  0  0  0  0  0  0
   10.5452    3.8292   20.5682 C   0  0  0  0  0  0  0  0  0  0  0  0
   12.5504    8.3958   22.1386 C   0  0  0  0  0  0  0  0  0  0  0  0
    6.8341    9.5836   24.2051 C   0  0  0  0  0  0  0  0  0  0  0  0
    8.4932    3.3800   22.3271 C   0  0  0  0  0  0  0  0  0  0  0  0
   10.3000    4.8432   21.4940 C   0  0  0  0  0  0  0  0  0  0  0  0
   10.5832    8.9214   23.6946 C   0  0  0  0  0  0  0  0  0  0  0  0
    5.9989    6.4018   22.6497 N   0  0  0  0  0  0  0  0  0  0  0  0
    9.1657    8.9773   23.8513 C   0  0  0  0  0  0  0  0  0  0  0  0
   11.8484    6.6305   20.6046 C   0  0  0  0  0  0  0  0  0  0  0  0
   11.3914    8.0326   22.8013 C   0  0  0  0  0  0  0  0  0  0  0  0
    6.2296    7.6330   22.7959 C   0  0  0  0  0  0  0  0  0  0  0  0
    6.4545    4.7335   22.8884 C   0  0  0  0  0  0  0  0  0  0  0  0
    8.5965    9.7912   25.8665 O   0  0  0  0  0  0  0  0  0  0  0  0
    9.3003    4.5914   22.3451 C   0  0  0  0  0  0  0  0  0  0  0  0
  1  5  1  0
  1 15  1  0
  1 26  1  0
  2 10  1  0
  2 20  1  0
  2 24  1  0
  3 13  4  0
  3 27  4  0
  4 11  1  0
  4 18  1  0
  4 26  1  0
  6 13  4  0
  7 13  4  0
  7 19  1  0
  8 18  1  0
  8 23  1  0
  8 28  1  0
  9 17  1  0
  9 24  1  0
 10 25  1  0
 11 23  1  0
 12 14  4  0
 12 16  4  0
 14 19  4  0
 16 20  4  0
 17 25  1  0
 19 29  4  0
 20 29  4  0
 21 23  1  0
 21 25  1  0
 22 26  1  0
 22 27  1  0
M  END
$$$$

 Created by Python create_sdf_string function

 29 63  0  0  0  0  0  0  0  0999 V2000
    5.3187    8.1532   22.4443 C   0  0  0  0  0  0  0  0  0  0  0  0
   10.8526    6.0438   21.0949 N   0  0  0  0  0  0  0  0  0  0  0  0
    6.4321    4.0417   23.5705 C   0  0  0  0  0  0  0  0  0  0  0  0
    7.0551    8.8019   23.2373 C   0  0  0  0  0  0  0  0  0  0  0  0
    5.1632    7.1985   21.1190 C   0  0  0  0  0  0  0  0  0  0  0  0
    6.0165    1.6089   23.2688 O   0  0  0  0  0  0  0  0  0  0  0  0
    8.0354    9.2639   24.7135 C   0  0  0  0  0  0  0  0  0  0  0  0
   11.8130    7.8059   21.3583 O   0  0  0  0  0  0  0  0  0  0  0  0
    9.3354    8.7055   22.8171 C   0  0  0  0  0  0  0  0  0  0  0  0
   10.5598    2.6471   20.9400 C   0  0  0  0  0  0  0  0  0  0  0  0
    6.1212    2.5555   23.1320 F   0  0  0  0  0  0  0  0  0  0  0  0
    8.8490    2.5377   21.9368 Cl  0  0  0  0  0  0  0  0  0  0  0  0
    5.2333    8.9054   21.6316 N   0  0  0  0  0  0  0  0  0  0  0  0
   11.2572    3.3776   20.8544 O   0  0  0  0  0  0  0  0  0  0  0  0
    7.3808    8.8676   23.8109 C   0  0  0  0  0  0  0  0  0  0  0  0
   10.0827    5.2849   21.4601 N   0  0  0  0  0  0  0  0  0  0  0  0
   10.0581    8.8210   24.7781 C   0  0  0  0  0  0  0  0  0  0  0  0
    5.4963    6.7810   22.7289 O   0  0  0  0  0  0  0  0  0  0  0  0
    8.8696    8.8241   24.1364 O   0  0  0  0  0  0  0  0  0  0  0  0
   11.3642    6.5848   21.3523 C   0  0  0  0  0  0  0  0  0  0  0  0
   11.2200    8.5459   23.0231 C   0  0  0  0  0  0  0  0  0  0  0  0
    6.4292    7.3294   23.3194 C   0  0  0  0  0  0  0  0  0  0  0  0
    6.7133    3.9254   22.5400 O   0  0  0  0  0  0  0  0  0  0  0  0
    7.9880    9.5940   25.3969 C   0  0  0  0  0  0  0  0  0  0  0  0
    9.4920    4.3754   21.5861 C   0  0  0  0  0  0  0  0  0  0  0  0
    7.0209    2.0350   23.1854 He  0  0  0  0  0  0  0  0  0  0  0  0
   10.1548    6.0121   22.6492 He  0  0  0  0  0  0  0  0  0  0  0  0
   12.4771    8.6489   23.1399 He  0  0  0  0  0  0  0  0  0  0  0  0
    8.0472    3.4849   22.4794 He  0  0  0  0  0  0  0  0  0  0  0  0
  1  5  1  0
  1 13  3  0
  1 15  3  0
  1 16  1  0
  1 22  1  0
  2 11  4  0
  2 16  4  0
  2 20  1  0
  2 22  3  0
  3  5  2  0
  3 15  1  0
  3 19  3  0
  3 23  4  0
  3 24  3  0
  4 10  4  0
  4 15  1  0
  4 17  3  0
  4 18  1  0
  4 19  3  0
  4 24  3  0
  5  6  2  0
  5  7  3  0
  5 15  3  0
  5 16  4  0
  6  7  4  0
  6 11  4  0
  6 17  3  0
  6 21  1  0
  6 25  2  0
  7 15  4  0
  7 19  1  0
  7 22  3  0
  7 24  1  0
  8 14  3  0
  8 16  2  0
  8 20  1  0
  9 14  2  0
  9 15  4  0
  9 18  4  0
  9 19  1  0
  9 21  4  0
  9 25  4  0
 10 12  1  0
 10 14  4  0
 10 19  2  0
 10 22  3  0
 10 25  1  0
 11 13  2  0
 11 16  2  0
 12 22  1  0
 13 14  2  0
 13 15  4  0
 13 16  2  0
 13 17  4  0
 14 16  4  0
 14 25  2  0
 15 25  2  0
 17 19  1  0
 18 22  1  0
 20 24  2  0
 21 23  2  0
 21 25  2  0
 24 25  4  0
M  END
$$$$

 Created by Python create_sdf_string function

 29 32  0  0  0  0  0  0  0  0999 V2000
    5.3583    8.0959   22.0088 C   0  0  0  0  0  0  0  0  0  0  0  0
   10.6987    5.9275   21.4916 N   0  0  0  0  0  0  0  0  0  0  0  0
    6.3172    4.4843   23.1867 C   0  0  0  0  0  0  0  0  0  0  0  0
    6.7685    8.3602   23.1120 C   0  0  0  0  0  0  0  0  0  0  0  0
    4.9988    7.2138   21.1776 C   0  0  0  0  0  0  0  0  0  0  0  0
    6.0190    1.9763   23.4941 C   0  0  0  0  0  0  0  0  0  0  0  0
    7.3371    2.1737   23.0053 C   0  0  0  0  0  0  0  0  0  0  0  0
    8.0002    9.2821   24.6939 C   0  0  0  0  0  0  0  0  0  0  0  0
   12.1137    7.8317   21.3720 C   0  0  0  0  0  0  0  0  0  0  0  0
   10.1487    6.9627   22.8625 C   0  0  0  0  0  0  0  0  0  0  0  0
    9.5046    8.3695   22.8697 C   0  0  0  0  0  0  0  0  0  0  0  0
   10.3337    2.5069   21.0953 C   0  0  0  0  0  0  0  0  0  0  0  0
    5.8809    2.7346   23.5298 C   0  0  0  0  0  0  0  0  0  0  0  0
    9.2768    2.2535   21.7756 C   0  0  0  0  0  0  0  0  0  0  0  0
    5.2679    9.1738   21.7976 N   0  0  0  0  0  0  0  0  0  0  0  0
   10.9596    3.5436   20.7405 C   0  0  0  0  0  0  0  0  0  0  0  0
   12.2255    8.5501   22.7853 C   0  0  0  0  0  0  0  0  0  0  0  0
    7.0083    9.1349   23.7249 C   0  0  0  0  0  0  0  0  0  0  0  0
    8.2469    3.3512   22.2131 C   0  0  0  0  0  0  0  0  0  0  0  0
   10.1367    4.8382   21.3566 C   0  0  0  0  0  0  0  0  0  0  0  0
   10.2474    9.0258   24.6501 C   0  0  0  0  0  0  0  0  0  0  0  0
    6.0657    6.5923   23.2268 O   0  0  0  0  0  0  0  0  0  0  0  0
    9.1290    8.8693   24.0999 N   0  0  0  0  0  0  0  0  0  0  0  0
   11.3207    6.8066   21.3913 C   0  0  0  0  0  0  0  0  0  0  0  0
   11.2620    8.3975   23.2517 C   0  0  0  0  0  0  0  0  0  0  0  0
    6.2628    7.3191   23.2596 C   0  0  0  0  0  0  0  0  0  0  0  0
    6.9377    4.1745   22.8283 C   0  0  0  0  0  0  0  0  0  0  0  0
    7.9139    9.7873   25.7198 C   0  0  0  0  0  0  0  0  0  0  0  0
    9.0401    4.5688   21.6711 C   0  0  0  0  0  0  0  0  0  0  0  0
  1  5  1  0
  1 15  1  0
  1 26  1  0
  2 10  1  0
  2 20  4  0
  2 24  1  0
  3 13  4  0
  3 27  4  0
  4 18  1  0
  4 26  1  0
  6  7  4  0
  6 13  4  0
  7 19  1  0
  8 18  1  0
  8 23  1  0
  8 28  1  0
  9 17  1  0
  9 24  1  0
 10 11  1  0
 10 25  1  0
 11 23  1  0
 12 14  4  0
 12 16  4  0
 14 19  4  0
 16 20  4  0
 17 25  1  0
 19 27  4  0
 19 29  4  0
 20 29  4  0
 21 23  1  0
 21 25  1  0
 22 26  1  0
M  END
$$$$

 Created by Python create_sdf_string function

 29 44  0  0  0  0  0  0  0  0999 V2000
    5.2973    7.8560   22.0115 C   0  0  0  0  0  0  0  0  0  0  0  0
   10.2492    6.0537   21.7719 N   0  0  0  0  0  0  0  0  0  0  0  0
    6.1482    3.8584   22.5198 C   0  0  0  0  0  0  0  0  0  0  0  0
    6.9464    8.6985   23.4381 N   0  0  0  0  0  0  0  0  0  0  0  0
    4.9139    7.3832   20.2468 C   0  0  0  0  0  0  0  0  0  0  0  0
    6.6732    2.0474   23.2971 C   0  0  0  0  0  0  0  0  0  0  0  0
   11.9447    8.4437   21.8543 C   0  0  0  0  0  0  0  0  0  0  0  0
   10.5150    7.4854   22.2044 O   0  0  0  0  0  0  0  0  0  0  0  0
   10.0595    8.1992   22.1269 C   0  0  0  0  0  0  0  0  0  0  0  0
   10.6164    2.6489   21.6517 C   0  0  0  0  0  0  0  0  0  0  0  0
    5.4684    3.1737   24.1511 C   0  0  0  0  0  0  0  0  0  0  0  0
    5.8350    9.0664   22.5258 N   0  0  0  0  0  0  0  0  0  0  0  0
   10.3734    3.4947   20.5423 C   0  0  0  0  0  0  0  0  0  0  0  0
   12.3339    9.0058   21.9291 Cl  0  0  0  0  0  0  0  0  0  0  0  0
    6.7198    9.5644   23.5993 C   0  0  0  0  0  0  0  0  0  0  0  0
   10.1348    5.4866   21.0714 C   0  0  0  0  0  0  0  0  0  0  0  0
    9.9049    8.4363   24.6695 C   0  0  0  0  0  0  0  0  0  0  0  0
    6.4457    6.1322   23.1804 N   0  0  0  0  0  0  0  0  0  0  0  0
    8.9816    8.7170   24.2310 N   0  0  0  0  0  0  0  0  0  0  0  0
   10.9557    6.9614   21.8358 C   0  0  0  0  0  0  0  0  0  0  0  0
   11.0000    8.1435   23.9777 C   0  0  0  0  0  0  0  0  0  0  0  0
    7.3574    9.9931   26.0770 C   0  0  0  0  0  0  0  0  0  0  0  0
    8.8274    3.9144   22.0921 C   0  0  0  0  0  0  0  0  0  0  0  0
    5.6990    1.8389   23.1121 He  0  0  0  0  0  0  0  0  0  0  0  0
    8.3279    9.6061   24.2285 He  0  0  0  0  0  0  0  0  0  0  0  0
    9.5192    2.3731   22.3983 He  0  0  0  0  0  0  0  0  0  0  0  0
    8.6091    3.0411   21.9650 He  0  0  0  0  0  0  0  0  0  0  0  0
    6.3089    6.6713   23.4446 He  0  0  0  0  0  0  0  0  0  0  0  0
    7.1677    4.7060   23.5109 He  0  0  0  0  0  0  0  0  0  0  0  0
  1  2  1  0
  1  5  1  0
  1  8  1  0
  1 11  1  0
  1 12  4  0
  2  8  1  0
  2 10  1  0
  2 12  4  0
  2 20  1  0
  3 11  2  0
  3 15  1  0
  3 17  3  0
  5 15  4  0
  5 16  4  0
  5 20  1  0
  6 15  4  0
  6 16  4  0
  6 18  1  0
  7 10  2  0
  7 14  1  0
  7 17  4  0
  7 20  1  0
  7 21  4  0
  7 22  4  0
  7 23  4  0
  8  9  1  0
  8 11  4  0
  8 14  1  0
  8 21  1  0
  9 11  1  0
  9 13  2  0
  9 19  1  0
 10 18  1  0
 10 22  1  0
 11 15  4  0
 11 16  4  0
 11 22  2  0
 12 15  3  0
 12 19  4  0
 14 21  1  0
 15 21  3  0
 16 17  3  0
 16 19  1  0
 17 21  1  0
M  END
$$$$

 Created by Python create_sdf_string function

 29 34  0  0  0  0  0  0  0  0999 V2000
    5.5205    7.8917   21.9768 C   0  0  0  0  0  0  0  0  0  0  0  0
   10.3215    6.0260   21.3117 N   0  0  0  0  0  0  0  0  0  0  0  0
    6.5892    3.9450   23.1747 C   0  0  0  0  0  0  0  0  0  0  0  0
    6.8939    8.1774   23.6806 N   0  0  0  0  0  0  0  0  0  0  0  0
    4.8184    7.4262   20.8437 C   0  0  0  0  0  0  0  0  0  0  0  0
    5.7954    2.0583   23.4723 O   0  0  0  0  0  0  0  0  0  0  0  0
    7.0281    2.4798   22.9545 N   0  0  0  0  0  0  0  0  0  0  0  0
    8.2193    9.6017   24.5856 C   0  0  0  0  0  0  0  0  0  0  0  0
   12.1960    8.0717   21.5224 C   0  0  0  0  0  0  0  0  0  0  0  0
   10.4358    7.5675   22.7204 C   0  0  0  0  0  0  0  0  0  0  0  0
    9.5125    8.4844   22.6016 C   0  0  0  0  0  0  0  0  0  0  0  0
   10.4784    2.4391   21.3783 C   0  0  0  0  0  0  0  0  0  0  0  0
    5.3652    3.2095   23.8243 C   0  0  0  0  0  0  0  0  0  0  0  0
    9.4073    2.1511   22.1445 C   0  0  0  0  0  0  0  0  0  0  0  0
    5.7214    9.0658   22.4091 N   0  0  0  0  0  0  0  0  0  0  0  0
   10.6782    3.7473   20.9314 C   0  0  0  0  0  0  0  0  0  0  0  0
   12.3401    8.8000   22.4387 C   0  0  0  0  0  0  0  0  0  0  0  0
    6.6331    9.2000   23.4424 C   0  0  0  0  0  0  0  0  0  0  0  0
    8.4650    3.1168   22.3316 C   0  0  0  0  0  0  0  0  0  0  0  0
    9.9179    4.8635   21.3664 C   0  0  0  0  0  0  0  0  0  0  0  0
   10.1484    8.5759   24.7074 C   0  0  0  0  0  0  0  0  0  0  0  0
    6.3941    6.4562   23.2037 N   0  0  0  0  0  0  0  0  0  0  0  0
    9.0113    8.9119   23.9417 N   0  0  0  0  0  0  0  0  0  0  0  0
   11.1924    6.8684   21.5710 C   0  0  0  0  0  0  0  0  0  0  0  0
   11.3277    8.2887   23.8195 C   0  0  0  0  0  0  0  0  0  0  0  0
    6.2862    7.1808   22.9142 C   0  0  0  0  0  0  0  0  0  0  0  0
    7.0595    4.8889   22.8213 C   0  0  0  0  0  0  0  0  0  0  0  0
    7.7395   10.0326   25.6921 C   0  0  0  0  0  0  0  0  0  0  0  0
    8.5900    4.3724   22.1154 C   0  0  0  0  0  0  0  0  0  0  0  0
  1  5  1  0
  1 15  4  0
  1 26  4  0
  2 20  1  0
  2 24  1  0
  3  7  4  0
  3 13  4  0
  3 27  4  0
  4 18  4  0
  4 22  4  0
  4 26  4  0
  6  7  4  0
  6 13  4  0
  7 19  4  0
  8 23  1  0
  8 28  1  0
  9 17  1  0
  9 24  1  0
 10 11  1  0
 10 24  1  0
 10 25  1  0
 11 23  1  0
 12 14  4  0
 12 16  4  0
 14 19  4  0
 15 18  4  0
 16 20  4  0
 17 25  1  0
 19 29  4  0
 20 29  4  0
 21 23  1  0
 21 25  1  0
 22 26  4  0
 27 29  4  0
M  END
$$$$

 Created by Python create_sdf_string function

 29 87  0  0  0  0  0  0  0  0999 V2000
    5.5881    7.1171   22.4354 C   0  0  0  0  0  0  0  0  0  0  0  0
   10.3173    5.9622   20.8687 O   0  0  0  0  0  0  0  0  0  0  0  0
    7.3599    7.2352   24.4390 N   0  0  0  0  0  0  0  0  0  0  0  0
    6.0825    2.9999   23.7962 O   0  0  0  0  0  0  0  0  0  0  0  0
    6.7869    2.6463   23.2834 N   0  0  0  0  0  0  0  0  0  0  0  0
    7.5013   10.1989   24.0084 C   0  0  0  0  0  0  0  0  0  0  0  0
   11.9017    7.6420   21.1394 C   0  0  0  0  0  0  0  0  0  0  0  0
    9.7180    7.2064   22.2448 C   0  0  0  0  0  0  0  0  0  0  0  0
    9.8044    2.2767   21.2163 C   0  0  0  0  0  0  0  0  0  0  0  0
    9.0761    1.4297   22.5383 C   0  0  0  0  0  0  0  0  0  0  0  0
    5.9693    9.4577   22.3820 N   0  0  0  0  0  0  0  0  0  0  0  0
   10.4724    3.5923   21.4670 C   0  0  0  0  0  0  0  0  0  0  0  0
   11.4141    8.5386   22.3441 C   0  0  0  0  0  0  0  0  0  0  0  0
    6.5007    9.7627   22.8090 C   0  0  0  0  0  0  0  0  0  0  0  0
    8.2693    3.1316   21.8543 C   0  0  0  0  0  0  0  0  0  0  0  0
   10.0080    4.9460   21.3227 C   0  0  0  0  0  0  0  0  0  0  0  0
   10.3985    8.7525   24.7885 C   0  0  0  0  0  0  0  0  0  0  0  0
    6.5026    6.5284   22.9372 I   0  0  0  0  0  0  0  0  0  0  0  0
    9.1761    9.2457   24.2767 N   0  0  0  0  0  0  0  0  0  0  0  0
   10.6475    6.8138   21.7483 C   0  0  0  0  0  0  0  0  0  0  0  0
   11.9184    8.0624   24.4051 C   0  0  0  0  0  0  0  0  0  0  0  0
    6.2825    8.2640   23.4086 C   0  0  0  0  0  0  0  0  0  0  0  0
    6.8890    4.7642   22.5028 C   0  0  0  0  0  0  0  0  0  0  0  0
    7.1616   10.5075   26.1125 C   0  0  0  0  0  0  0  0  0  0  0  0
    8.9295    3.4924   22.1072 C   0  0  0  0  0  0  0  0  0  0  0  0
    6.1205    3.6347   22.9218 He  0  0  0  0  0  0  0  0  0  0  0  0
    4.7446    7.6146   20.4498 He  0  0  0  0  0  0  0  0  0  0  0  0
    9.7264    8.3580   22.6970 He  0  0  0  0  0  0  0  0  0  0  0  0
    5.3494    3.0783   23.6011 He  0  0  0  0  0  0  0  0  0  0  0  0
  1 11  4  0
  1 13  1  0
  1 17  3  0
  1 18  3  0
  1 19  4  0
  1 21  1  0
  1 22  4  0
  1 24  4  0
  2  3  3  0
  2  5  4  0
  2 12  1  0
  2 13  4  0
  2 15  4  0
  2 16  1  0
  2 20  1  0
  2 23  4  0
  2 24  2  0
  3  7  2  0
  3 14  4  0
  3 16  2  0
  3 18  4  0
  3 20  1  0
  3 22  4  0
  4  5  4  0
  4 11  1  0
  4 12  4  0
  4 18  1  0
  4 20  2  0
  4 23  4  0
  4 24  3  0
  5 19  2  0
  5 21  3  0
  5 24  1  0
  6  8  3  0
  6 10  4  0
  6 13  2  0
  6 15  1  0
  6 16  1  0
  6 17  4  0
  6 19  1  0
  6 21  3  0
  6 24  2  0
  7  8  3  0
  7 10  1  0
  7 16  3  0
  7 20  1  0
  8  9  3  0
  8 18  3  0
  8 21  1  0
  9 10  2  0
  9 12  4  0
  9 18  2  0
  9 23  2  0
 10 15  4  0
 10 18  4  0
 10 20  1  0
 10 24  3  0
 11 13  4  0
 11 16  3  0
 11 24  2  0
 12 16  4  0
 12 21  1  0
 13 15  1  0
 14 15  3  0
 14 16  4  0
 14 19  3  0
 14 21  3  0
 14 24  1  0
 15 18  3  0
 15 19  1  0
 15 22  1  0
 15 25  4  0
 16 17  2  0
 16 18  1  0
 16 25  4  0
 17 19  3  0
 17 21  1  0
 17 23  2  0
 18 20  1  0
 18 22  3  0
 19 23  2  0
 19 25  4  0
 20 24  3  0
 20 25  3  0
 21 23  3  0
 23 24  1  0
 23 25  4  0
M  END
$$$$

 Created by Python create_sdf_string function

 29 31  0  0  0  0  0  0  0  0999 V2000
    5.5524    7.7469   22.0131 C   0  0  0  0  0  0  0  0  0  0  0  0
   10.0420    5.7833   21.1213 O   0  0  0  0  0  0  0  0  0  0  0  0
    6.5196    3.9646   22.9004 C   0  0  0  0  0  0  0  0  0  0  0  0
    6.9529    7.5031   24.1829 N   0  0  0  0  0  0  0  0  0  0  0  0
    4.7527    7.4501   20.9201 C   0  0  0  0  0  0  0  0  0  0  0  0
    6.0723    2.4636   23.7021 C   0  0  0  0  0  0  0  0  0  0  0  0
    6.9975    2.7143   23.0950 N   0  0  0  0  0  0  0  0  0  0  0  0
    7.9344    9.8968   24.5594 C   0  0  0  0  0  0  0  0  0  0  0  0
   11.7508    7.6025   21.4945 C   0  0  0  0  0  0  0  0  0  0  0  0
    9.5712    7.5315   22.4675 C   0  0  0  0  0  0  0  0  0  0  0  0
    9.3533    8.6980   22.7483 C   0  0  0  0  0  0  0  0  0  0  0  0
   10.3731    2.2193   21.4779 C   0  0  0  0  0  0  0  0  0  0  0  0
    5.2033    3.0986   23.8144 C   0  0  0  0  0  0  0  0  0  0  0  0
    9.2096    1.9340   22.1470 C   0  0  0  0  0  0  0  0  0  0  0  0
    5.8262    9.0711   22.1870 N   0  0  0  0  0  0  0  0  0  0  0  0
   10.6301    3.5447   21.1267 C   0  0  0  0  0  0  0  0  0  0  0  0
   11.9453    8.5262   22.6404 C   0  0  0  0  0  0  0  0  0  0  0  0
    6.5856    9.1361   23.2375 C   0  0  0  0  0  0  0  0  0  0  0  0
    8.2612    2.8450   22.3950 C   0  0  0  0  0  0  0  0  0  0  0  0
    9.7450    4.4938   21.4377 C   0  0  0  0  0  0  0  0  0  0  0  0
   10.3924    8.8568   24.6532 C   0  0  0  0  0  0  0  0  0  0  0  0
    6.1311    6.8580   22.8957 C   0  0  0  0  0  0  0  0  0  0  0  0
    9.0436    9.2259   23.9910 N   0  0  0  0  0  0  0  0  0  0  0  0
   10.6250    6.7346   21.6643 C   0  0  0  0  0  0  0  0  0  0  0  0
   11.6136    8.2893   24.0044 C   0  0  0  0  0  0  0  0  0  0  0  0
    6.7344    8.0925   23.5375 C   0  0  0  0  0  0  0  0  0  0  0  0
    7.3001    4.8359   22.2056 C   0  0  0  0  0  0  0  0  0  0  0  0
    7.4944   10.4565   25.3425 O   0  0  0  0  0  0  0  0  0  0  0  0
    8.5223    4.1009   21.9930 C   0  0  0  0  0  0  0  0  0  0  0  0
  1  5  1  0
  1 15  4  0
  1 22  4  0
  2 20  1  0
  2 24  1  0
  3  7  4  0
  3 27  4  0
  4 22  4  0
  4 26  4  0
  6  7  4  0
  6 13  4  0
  7 19  4  0
  8 23  1  0
  8 28  2  0
  9 17  1  0
  9 24  1  0
 10 11  1  0
 10 24  1  0
 11 23  1  0
 12 14  4  0
 12 16  4  0
 14 19  4  0
 15 18  4  0
 16 20  4  0
 17 25  1  0
 18 26  4  0
 19 29  4  0
 20 29  4  0
 21 23  1  0
 21 25  1  0
 27 29  4  0
M  END
$$$$

 Created by Python create_sdf_string function

 29 65  0  0  0  0  0  0  0  0999 V2000
    5.2750    7.6640   21.9386 C   0  0  0  0  0  0  0  0  0  0  0  0
    9.8446    6.0411   21.6122 O   0  0  0  0  0  0  0  0  0  0  0  0
    6.7729    8.1530   24.5064 N   0  0  0  0  0  0  0  0  0  0  0  0
    4.2508    7.7074   20.7622 C   0  0  0  0  0  0  0  0  0  0  0  0
    7.9166    9.8886   23.9764 N   0  0  0  0  0  0  0  0  0  0  0  0
   12.0385    7.5039   21.4808 C   0  0  0  0  0  0  0  0  0  0  0  0
    9.5939    8.1596   22.9651 C   0  0  0  0  0  0  0  0  0  0  0  0
    9.2779    8.2009   22.2802 C   0  0  0  0  0  0  0  0  0  0  0  0
   10.4919    2.9657   21.2668 C   0  0  0  0  0  0  0  0  0  0  0  0
    5.2015    2.7180   24.1444 C   0  0  0  0  0  0  0  0  0  0  0  0
    9.3848    1.8170   22.1915 C   0  0  0  0  0  0  0  0  0  0  0  0
    6.2987    9.5137   23.1060 N   0  0  0  0  0  0  0  0  0  0  0  0
   12.0779    9.5015   22.9682 C   0  0  0  0  0  0  0  0  0  0  0  0
    8.1785    2.6086   22.8662 C   0  0  0  0  0  0  0  0  0  0  0  0
    8.9869    5.1500   20.9618 C   0  0  0  0  0  0  0  0  0  0  0  0
   10.5828    9.1141   25.4827 C   0  0  0  0  0  0  0  0  0  0  0  0
    5.6306    7.2137   23.2506 N   0  0  0  0  0  0  0  0  0  0  0  0
    8.4014    9.2480   24.2404 N   0  0  0  0  0  0  0  0  0  0  0  0
   10.3910    6.8837   21.6914 C   0  0  0  0  0  0  0  0  0  0  0  0
   11.6637    8.0382   23.7993 C   0  0  0  0  0  0  0  0  0  0  0  0
    6.5520    8.4249   23.2042 C   0  0  0  0  0  0  0  0  0  0  0  0
    7.6107    4.4902   22.5470 C   0  0  0  0  0  0  0  0  0  0  0  0
    7.4700   10.1595   25.1207 S   0  0  0  0  0  0  0  0  0  0  0  0
    8.7288    3.4122   22.5476 C   0  0  0  0  0  0  0  0  0  0  0  0
    6.7292    3.7710   22.6822 He  0  0  0  0  0  0  0  0  0  0  0  0
    5.6299    2.1496   23.7707 He  0  0  0  0  0  0  0  0  0  0  0  0
    7.5256    2.7953   22.7962 He  0  0  0  0  0  0  0  0  0  0  0  0
   10.8852    2.8752   21.2838 He  0  0  0  0  0  0  0  0  0  0  0  0
    6.7072    8.9820   23.7282 He  0  0  0  0  0  0  0  0  0  0  0  0
  1  4  1  0
  1  5  4  0
  1  9  1  0
  1 12  1  0
  1 15  1  0
  1 17  4  0
  2 10  4  0
  2 12  1  0
  2 15  1  0
  2 19  1  0
  3  7  4  0
  3  9  2  0
  3 17  4  0
  3 18  3  0
  3 19  4  0
  3 21  4  0
  4  5  2  0
  4 18  4  0
  4 21  1  0
  4 22  3  0
  5 14  2  0
  5 16  4  0
  5 18  1  0
  5 23  2  0
  6  7  2  0
  6 13  1  0
  6 15  4  0
  6 20  1  0
  7  8  1  0
  7 18  3  0
  7 19  1  0
  7 21  3  0
  7 23  3  0
  8 12  1  0
  8 13  4  0
  8 15  3  0
  8 18  1  0
  8 22  4  0
  9 11  4  0
  9 18  3  0
 10 21  4  0
 10 23  1  0
 11 14  4  0
 11 19  1  0
 12 16  1  0
 12 19  2  0
 12 20  3  0
 12 21  3  0
 13 15  2  0
 13 16  1  0
 13 20  1  0
 13 22  1  0
 13 23  2  0
 13 24  2  0
 14 23  2  0
 14 24  4  0
 15 21  3  0
 15 24  4  0
 16 18  1  0
 16 20  1  0
 18 19  2  0
 19 21  1  0
 20 24  3  0
 21 23  4  0
 22 24  4  0
M  END
$$$$

 Created by Python create_sdf_string function

 29 31  0  0  0  0  0  0  0  0999 V2000
    5.2057    7.9683   22.2111 C   0  0  0  0  0  0  0  0  0  0  0  0
    9.7611    5.8976   21.3452 O   0  0  0  0  0  0  0  0  0  0  0  0
    6.5126    4.0274   22.9913 C   0  0  0  0  0  0  0  0  0  0  0  0
    6.4249    7.5224   24.4313 N   0  0  0  0  0  0  0  0  0  0  0  0
    4.3967    7.7498   21.0641 C   0  0  0  0  0  0  0  0  0  0  0  0
    6.3435    1.9861   23.6969 C   0  0  0  0  0  0  0  0  0  0  0  0
    7.1886    2.5385   23.0601 N   0  0  0  0  0  0  0  0  0  0  0  0
    8.0655    9.7722   24.3950 C   0  0  0  0  0  0  0  0  0  0  0  0
   11.9103    7.7411   22.0511 C   0  0  0  0  0  0  0  0  0  0  0  0
    9.6225    7.8001   22.3603 C   0  0  0  0  0  0  0  0  0  0  0  0
    9.2209    8.7383   22.4453 C   0  0  0  0  0  0  0  0  0  0  0  0
   10.5530    2.3264   21.4551 C   0  0  0  0  0  0  0  0  0  0  0  0
    5.0429    2.5485   24.0743 C   0  0  0  0  0  0  0  0  0  0  0  0
    9.4977    1.9066   22.1820 C   0  0  0  0  0  0  0  0  0  0  0  0
    5.7763    9.0435   22.3061 N   0  0  0  0  0  0  0  0  0  0  0  0
   10.6626    3.6644   21.1229 C   0  0  0  0  0  0  0  0  0  0  0  0
   12.0171    9.0496   22.8937 C   0  0  0  0  0  0  0  0  0  0  0  0
    6.6253    9.0137   23.5008 C   0  0  0  0  0  0  0  0  0  0  0  0
    8.4440    2.7251   22.4379 C   0  0  0  0  0  0  0  0  0  0  0  0
    9.7086    4.5763   21.5821 C   0  0  0  0  0  0  0  0  0  0  0  0
   10.3527    9.0889   24.6676 C   0  0  0  0  0  0  0  0  0  0  0  0
    5.3720    7.0755   23.0866 N   0  0  0  0  0  0  0  0  0  0  0  0
    9.1605    9.2106   23.8018 N   0  0  0  0  0  0  0  0  0  0  0  0
   10.5555    6.7743   21.9310 C   0  0  0  0  0  0  0  0  0  0  0  0
   11.5174    8.3928   24.0937 C   0  0  0  0  0  0  0  0  0  0  0  0
    6.4598    8.3294   23.8416 C   0  0  0  0  0  0  0  0  0  0  0  0
    7.3553    4.6929   22.4471 C   0  0  0  0  0  0  0  0  0  0  0  0
    7.8177   10.4696   25.1690 O   0  0  0  0  0  0  0  0  0  0  0  0
    8.5632    4.0573   22.1294 C   0  0  0  0  0  0  0  0  0  0  0  0
  1  5  1  0
  1 15  4  0
  1 22  4  0
  2 20  1  0
  2 24  1  0
  3  7  4  0
  3 27  4  0
  4 22  4  0
  4 26  4  0
  6  7  1  0
  6 13  1  0
  7 19  4  0
  8 23  1  0
  8 28  2  0
  9 17  1  0
  9 24  1  0
 10 11  1  0
 10 24  1  0
 11 23  1  0
 12 14  4  0
 12 16  4  0
 14 19  4  0
 15 18  4  0
 16 20  4  0
 17 25  1  0
 18 26  4  0
 19 29  4  0
 20 29  4  0
 21 23  1  0
 21 25  1  0
 27 29  4  0
M  END
$$$$

 Created by Python create_sdf_string function

 29 40  0  0  0  0  0  0  0  0999 V2000
    5.5011    8.2384   22.6776 F   0  0  0  0  0  0  0  0  0  0  0  0
   10.5666    5.5612   21.0393 O   0  0  0  0  0  0  0  0  0  0  0  0
    6.3428    4.1610   22.5886 C   0  0  0  0  0  0  0  0  0  0  0  0
    6.3432    7.9288   24.0695 N   0  0  0  0  0  0  0  0  0  0  0  0
    4.6743    8.1070   21.0315 C   0  0  0  0  0  0  0  0  0  0  0  0
    6.0209    2.3119   23.8146 N   0  0  0  0  0  0  0  0  0  0  0  0
    7.4238    2.1572   23.4862 N   0  0  0  0  0  0  0  0  0  0  0  0
    8.4846    9.7917   24.6538 C   0  0  0  0  0  0  0  0  0  0  0  0
    9.7669    8.4391   22.9103 N   0  0  0  0  0  0  0  0  0  0  0  0
   10.3540    2.3298   21.5488 F   0  0  0  0  0  0  0  0  0  0  0  0
    9.9019    1.8728   21.6965 C   0  0  0  0  0  0  0  0  0  0  0  0
    5.8270    9.1137   22.6070 C   0  0  0  0  0  0  0  0  0  0  0  0
   10.4002    3.5429   21.2886 C   0  0  0  0  0  0  0  0  0  0  0  0
   12.4919    8.9704   22.5345 N   0  0  0  0  0  0  0  0  0  0  0  0
    7.1404    8.7447   23.3938 F   0  0  0  0  0  0  0  0  0  0  0  0
    8.4128    3.0650   22.3268 C   0  0  0  0  0  0  0  0  0  0  0  0
   11.5391    8.9501   24.4260 C   0  0  0  0  0  0  0  0  0  0  0  0
    5.1849    6.0809   22.6623 N   0  0  0  0  0  0  0  0  0  0  0  0
    6.3536    8.7901   24.1045 C   0  0  0  0  0  0  0  0  0  0  0  0
    6.8411    5.2067   22.0845 C   0  0  0  0  0  0  0  0  0  0  0  0
    7.2067   10.9242   25.3582 O   0  0  0  0  0  0  0  0  0  0  0  0
   12.0479    6.7690   21.8368 He  0  0  0  0  0  0  0  0  0  0  0  0
    9.6841    7.8976   21.6084 He  0  0  0  0  0  0  0  0  0  0  0  0
    5.3182    1.9568   24.0510 He  0  0  0  0  0  0  0  0  0  0  0  0
    9.4858    4.8399   22.6435 He  0  0  0  0  0  0  0  0  0  0  0  0
    8.9879    9.5281   23.2786 He  0  0  0  0  0  0  0  0  0  0  0  0
   10.5209    6.3879   22.4292 He  0  0  0  0  0  0  0  0  0  0  0  0
   12.0535    8.6076   24.1864 He  0  0  0  0  0  0  0  0  0  0  0  0
    8.4617    3.5871   21.7777 He  0  0  0  0  0  0  0  0  0  0  0  0
  1  7  4  0
  1 12  4  0
  1 17  4  0
  1 18  4  0
  2  3  4  0
  2 12  3  0
  2 18  4  0
  3 12  4  0
  3 18  4  0
  3 19  1  0
  4 18  4  0
  4 19  1  0
  5  8  4  0
  5 15  2  0
  5 21  1  0
  6  7  2  0
  6 20  2  0
  7  9  4  0
  7 12  2  0
  7 15  3  0
  7 16  2  0
  7 20  2  0
  7 21  4  0
  8 11  4  0
  8 12  3  0
  8 21  2  0
  9 12  2  0
  9 15  1  0
 11 12  4  0
 11 16  4  0
 12 15  4  0
 13 18  1  0
 14 16  4  0
 14 21  2  0
 15 16  2  0
 15 19  4  0
 16 18  1  0
 16 19  1  0
 18 19  2  0
 20 21  3  0
M  END
$$$$

 Created by Python create_sdf_string function

 29 32  0  0  0  0  0  0  0  0999 V2000
    5.4243    8.0049   22.2506 C   0  0  0  0  0  0  0  0  0  0  0  0
   10.0235    5.8113   21.3974 O   0  0  0  0  0  0  0  0  0  0  0  0
    6.2787    4.0807   22.8838 C   0  0  0  0  0  0  0  0  0  0  0  0
    6.1601    7.1706   24.2134 N   0  0  0  0  0  0  0  0  0  0  0  0
    4.4114    7.9778   21.0504 C   0  0  0  0  0  0  0  0  0  0  0  0
    6.2201    2.8172   23.3551 C   0  0  0  0  0  0  0  0  0  0  0  0
    7.3196    2.1867   23.1853 N   0  0  0  0  0  0  0  0  0  0  0  0
    8.2161    9.8215   24.2068 C   0  0  0  0  0  0  0  0  0  0  0  0
   12.0079    7.1745   22.1804 C   0  0  0  0  0  0  0  0  0  0  0  0
    9.6772    7.9837   21.9025 C   0  0  0  0  0  0  0  0  0  0  0  0
    9.7607    8.5962   22.7624 C   0  0  0  0  0  0  0  0  0  0  0  0
   10.4439    2.2157   21.5911 C   0  0  0  0  0  0  0  0  0  0  0  0
    5.1008    2.2451   23.9906 O   0  0  0  0  0  0  0  0  0  0  0  0
    9.4591    1.7982   22.1862 C   0  0  0  0  0  0  0  0  0  0  0  0
    6.1822    9.0365   22.5106 C   0  0  0  0  0  0  0  0  0  0  0  0
   10.7429    3.5014   21.4123 C   0  0  0  0  0  0  0  0  0  0  0  0
   12.3749    8.4988   22.7107 N   0  0  0  0  0  0  0  0  0  0  0  0
    6.9939    8.9470   23.6951 C   0  0  0  0  0  0  0  0  0  0  0  0
    8.3681    2.6664   22.5115 C   0  0  0  0  0  0  0  0  0  0  0  0
    9.7576    4.4586   21.6806 C   0  0  0  0  0  0  0  0  0  0  0  0
   11.0804    9.2098   24.4349 C   0  0  0  0  0  0  0  0  0  0  0  0
    5.4835    7.0852   23.0347 N   0  0  0  0  0  0  0  0  0  0  0  0
    9.4995    9.3741   23.7422 N   0  0  0  0  0  0  0  0  0  0  0  0
   10.6376    6.7693   22.1053 C   0  0  0  0  0  0  0  0  0  0  0  0
   11.8602    8.6687   23.8987 C   0  0  0  0  0  0  0  0  0  0  0  0
    6.6159    8.0718   24.3582 C   0  0  0  0  0  0  0  0  0  0  0  0
    7.2892    4.7703   22.2519 C   0  0  0  0  0  0  0  0  0  0  0  0
    7.8858   10.6980   25.0754 O   0  0  0  0  0  0  0  0  0  0  0  0
    8.4682    3.9931   22.1455 C   0  0  0  0  0  0  0  0  0  0  0  0
  1  5  1  0
  1 15  4  0
  1 22  4  0
  2 20  1  0
  2 24  1  0
  3  6  4  0
  3 27  4  0
  4 22  4  0
  4 26  4  0
  6  7  4  0
  6 13  1  0
  7 19  4  0
  8 18  1  0
  8 23  1  0
  8 28  2  0
  9 17  1  0
  9 24  1  0
 10 11  1  0
 10 24  1  0
 11 23  1  0
 12 14  4  0
 12 16  4  0
 14 19  4  0
 15 18  4  0
 16 20  4  0
 17 25  1  0
 18 26  4  0
 19 29  4  0
 20 29  4  0
 21 23  1  0
 21 25  1  0
 27 29  4  0
M  END
$$$$

 Created by Python create_sdf_string function

 29 56  0  0  0  0  0  0  0  0999 V2000
    5.5295    7.8572   21.8586 C   0  0  0  0  0  0  0  0  0  0  0  0
   10.1598    5.9572   21.1198 F   0  0  0  0  0  0  0  0  0  0  0  0
    6.6570    7.8655   24.1123 N   0  0  0  0  0  0  0  0  0  0  0  0
    4.8392    7.9202   21.5315 C   0  0  0  0  0  0  0  0  0  0  0  0
    6.3919    3.6396   23.6673 N   0  0  0  0  0  0  0  0  0  0  0  0
    6.8530    1.9697   22.9457 N   0  0  0  0  0  0  0  0  0  0  0  0
    8.8780    9.7669   23.9351 C   0  0  0  0  0  0  0  0  0  0  0  0
   11.6229    6.7192   22.5038 C   0  0  0  0  0  0  0  0  0  0  0  0
   10.2286    7.6162   21.7615 C   0  0  0  0  0  0  0  0  0  0  0  0
    9.1509    8.4984   22.6300 C   0  0  0  0  0  0  0  0  0  0  0  0
    9.7946    2.4379   21.7927 C   0  0  0  0  0  0  0  0  0  0  0  0
    4.9297    2.5244   23.8665 B   0  0  0  0  0  0  0  0  0  0  0  0
    9.7626    1.9983   22.2278 C   0  0  0  0  0  0  0  0  0  0  0  0
    6.6475    8.6583   22.1562 C   0  0  0  0  0  0  0  0  0  0  0  0
   10.7689    3.2452   21.4732 S   0  0  0  0  0  0  0  0  0  0  0  0
   12.3596    8.5620   22.4365 N   0  0  0  0  0  0  0  0  0  0  0  0
    7.7549    9.3119   24.0363 F   0  0  0  0  0  0  0  0  0  0  0  0
    8.3098    2.8182   22.9007 C   0  0  0  0  0  0  0  0  0  0  0  0
    9.9628    4.0848   21.9244 C   0  0  0  0  0  0  0  0  0  0  0  0
   11.0802    9.5566   24.9185 C   0  0  0  0  0  0  0  0  0  0  0  0
   10.7960    6.8852   21.6836 C   0  0  0  0  0  0  0  0  0  0  0  0
   12.2937    8.6421   24.0323 C   0  0  0  0  0  0  0  0  0  0  0  0
    6.7438    8.3126   24.2607 C   0  0  0  0  0  0  0  0  0  0  0  0
    7.6945    4.2573   22.7504 C   0  0  0  0  0  0  0  0  0  0  0  0
    7.5200   10.3965   25.6586 O   0  0  0  0  0  0  0  0  0  0  0  0
    9.0799    4.1119   22.6002 C   0  0  0  0  0  0  0  0  0  0  0  0
    5.7621    4.0687   22.8484 He  0  0  0  0  0  0  0  0  0  0  0  0
    5.1096    6.7758   23.3246 He  0  0  0  0  0  0  0  0  0  0  0  0
    9.5316    9.2621   23.2120 He  0  0  0  0  0  0  0  0  0  0  0  0
  1  2  3  0
  1  3  4  0
  1 14  1  0
  1 25  2  0
  2  6  2  0
  2  8  4  0
  2 19  1  0
  2 21  1  0
  3  7  2  0
  3 12  2  0
  3 17  3  0
  3 18  1  0
  3 23  4  0
  4 20  1  0
  4 22  3  0
  4 23  1  0
  5 12  1  0
  5 15  1  0
  6  7  3  0
  6 15  4  0
  6 18  4  0
  7 25  2  0
  8 16  1  0
  8 21  1  0
  8 25  2  0
  9 21  1  0
  9 22  2  0
 10 24  2  0
 11 13  4  0
 11 15  4  0
 12 26  1  0
 13 17  3  0
 13 18  4  0
 13 23  3  0
 14 16  1  0
 14 17  4  0
 14 21  3  0
 15 19  4  0
 15 26  1  0
 16 22  1  0
 16 25  3  0
 16 26  1  0
 17 20  1  0
 17 22  3  0
 17 23  4  0
 17 24  1  0
 18 19  3  0
 18 26  4  0
 19 20  3  0
 19 25  2  0
 19 26  4  0
 20 22  2  0
 21 22  2  0
 22 24  3  0
 22 26  3  0
 24 26  4  0
M  END
$$$$

 Created by Python create_sdf_string function

 29 32  0  0  0  0  0  0  0  0999 V2000
    5.5492    7.9862   22.1491 C   0  0  0  0  0  0  0  0  0  0  0  0
   10.0350    5.6829   21.3408 C   0  0  0  0  0  0  0  0  0  0  0  0
    6.3462    4.2471   23.0623 N   0  0  0  0  0  0  0  0  0  0  0  0
    5.9102    7.3868   24.4015 N   0  0  0  0  0  0  0  0  0  0  0  0
    4.8903    7.9785   20.9733 C   0  0  0  0  0  0  0  0  0  0  0  0
    6.1862    3.0224   23.2814 C   0  0  0  0  0  0  0  0  0  0  0  0
    7.2519    2.2300   23.2204 N   0  0  0  0  0  0  0  0  0  0  0  0
    8.4097    9.6127   24.1854 C   0  0  0  0  0  0  0  0  0  0  0  0
   11.8314    6.8911   22.4563 C   0  0  0  0  0  0  0  0  0  0  0  0
    9.9625    8.0100   21.6303 C   0  0  0  0  0  0  0  0  0  0  0  0
    9.5948    8.6329   22.4801 C   0  0  0  0  0  0  0  0  0  0  0  0
   10.5808    2.0855   21.7156 C   0  0  0  0  0  0  0  0  0  0  0  0
    4.9493    2.5804   23.7654 C   0  0  0  0  0  0  0  0  0  0  0  0
    9.4859    1.7214   22.3384 C   0  0  0  0  0  0  0  0  0  0  0  0
    6.6555    8.8475   22.3233 C   0  0  0  0  0  0  0  0  0  0  0  0
   10.7821    3.3969   21.4012 C   0  0  0  0  0  0  0  0  0  0  0  0
   12.2486    8.2899   22.6511 N   0  0  0  0  0  0  0  0  0  0  0  0
    7.3588    8.9648   23.6351 C   0  0  0  0  0  0  0  0  0  0  0  0
    8.4414    2.6182   22.6161 C   0  0  0  0  0  0  0  0  0  0  0  0
    9.8262    4.3276   21.7162 C   0  0  0  0  0  0  0  0  0  0  0  0
   10.9163    9.4809   24.4092 C   0  0  0  0  0  0  0  0  0  0  0  0
    5.1064    7.1962   23.2723 C   0  0  0  0  0  0  0  0  0  0  0  0
    9.7154    9.2997   23.6500 N   0  0  0  0  0  0  0  0  0  0  0  0
   10.6986    6.7155   21.6781 C   0  0  0  0  0  0  0  0  0  0  0  0
   12.0589    8.8234   23.9363 C   0  0  0  0  0  0  0  0  0  0  0  0
    6.8469    8.0806   24.4617 C   0  0  0  0  0  0  0  0  0  0  0  0
    7.5848    4.7727   22.6528 C   0  0  0  0  0  0  0  0  0  0  0  0
    8.3308   10.3369   25.1352 O   0  0  0  0  0  0  0  0  0  0  0  0
    8.5939    3.9246   22.3365 C   0  0  0  0  0  0  0  0  0  0  0  0
  1  5  1  0
  1 15  4  0
  1 22  4  0
  2 20  1  0
  2 24  1  0
  3  6  4  0
  3 27  4  0
  4 22  4  0
  4 26  4  0
  6  7  4  0
  6 13  1  0
  7 19  4  0
  8 18  1  0
  8 23  1  0
  8 28  2  0
  9 17  1  0
  9 24  1  0
 10 11  1  0
 10 24  1  0
 11 23  1  0
 12 14  4  0
 12 16  4  0
 14 19  4  0
 15 18  4  0
 16 20  4  0
 17 25  1  0
 18 26  4  0
 19 29  4  0
 20 29  4  0
 21 23  1  0
 21 25  1  0
 27 29  4  0
M  END
$$$$

 Created by Python create_sdf_string function

 29 63  0  0  0  0  0  0  0  0999 V2000
    6.2465    7.5690   22.4750 N   0  0  0  0  0  0  0  0  0  0  0  0
    6.7676    4.6420   22.4895 N   0  0  0  0  0  0  0  0  0  0  0  0
    6.0075    7.5562   23.9705 N   0  0  0  0  0  0  0  0  0  0  0  0
    4.9788    7.7516   20.6317 P   0  0  0  0  0  0  0  0  0  0  0  0
    6.1407    2.7809   22.9283 C   0  0  0  0  0  0  0  0  0  0  0  0
    7.6507    1.9629   23.2025 N   0  0  0  0  0  0  0  0  0  0  0  0
    8.0776    8.9216   24.1295 C   0  0  0  0  0  0  0  0  0  0  0  0
   11.7107    6.8174   22.2205 C   0  0  0  0  0  0  0  0  0  0  0  0
    9.9598    8.0079   21.7831 C   0  0  0  0  0  0  0  0  0  0  0  0
    9.7163    8.8467   22.6379 C   0  0  0  0  0  0  0  0  0  0  0  0
   10.6454    2.1095   21.4912 C   0  0  0  0  0  0  0  0  0  0  0  0
    4.6438    2.4066   23.7846 C   0  0  0  0  0  0  0  0  0  0  0  0
    9.9857    1.7297   22.5280 C   0  0  0  0  0  0  0  0  0  0  0  0
   10.7386    3.6219   21.3133 C   0  0  0  0  0  0  0  0  0  0  0  0
   12.2092    8.4312   21.9148 N   0  0  0  0  0  0  0  0  0  0  0  0
    7.8342    9.4673   23.4889 C   0  0  0  0  0  0  0  0  0  0  0  0
    8.5744    2.7228   22.7278 C   0  0  0  0  0  0  0  0  0  0  0  0
    9.6936    3.8851   22.0029 S   0  0  0  0  0  0  0  0  0  0  0  0
   10.8884    9.1093   24.0661 C   0  0  0  0  0  0  0  0  0  0  0  0
    5.4973    7.2500   23.4315 C   0  0  0  0  0  0  0  0  0  0  0  0
    9.5658    9.4882   23.6663 N   0  0  0  0  0  0  0  0  0  0  0  0
   10.9932    6.5494   21.7124 C   0  0  0  0  0  0  0  0  0  0  0  0
    7.4718    4.5251   23.2698 C   0  0  0  0  0  0  0  0  0  0  0  0
    8.1241   10.3675   25.4155 B   0  0  0  0  0  0  0  0  0  0  0  0
    8.2360    4.0537   22.2705 C   0  0  0  0  0  0  0  0  0  0  0  0
    9.9127    5.4237   21.0819 He  0  0  0  0  0  0  0  0  0  0  0  0
    6.6539    8.3097   22.4343 He  0  0  0  0  0  0  0  0  0  0  0  0
   11.5943    9.1693   24.1915 He  0  0  0  0  0  0  0  0  0  0  0  0
    7.3287    7.9808   24.0780 He  0  0  0  0  0  0  0  0  0  0  0  0
  1  2  2  0
  1  4  1  0
  1 14  4  0
  1 20  4  0
  1 21  2  0
  1 25  1  0
  2  5  4  0
  2 17  1  0
  2 23  4  0
  3  5  4  0
  3 10  4  0
  3 19  3  0
  3 20  3  0
  3 21  2  0
  3 22  2  0
  4 14  2  0
  4 19  2  0
  5  8  4  0
  5 10  1  0
  5 12  1  0
  5 14  4  0
  5 25  4  0
  6 14  2  0
  6 17  1  0
  6 18  4  0
  6 23  4  0
  6 25  3  0
  7 12  2  0
  7 16  1  0
  7 19  1  0
  7 21  1  0
  7 24  2  0
  8 10  4  0
  8 15  1  0
  8 18  3  0
  8 22  1  0
  8 24  3  0
  9 10  3  0
  9 11  2  0
  9 19  2  0
  9 21  1  0
  9 22  1  0
 11 14  4  0
 11 16  2  0
 11 24  1  0
 12 19  1  0
 12 21  1  0
 13 17  4  0
 13 22  1  0
 14 17  4  0
 14 18  4  0
 15 16  1  0
 15 20  3  0
 15 22  2  0
 15 23  3  0
 17 20  1  0
 17 21  3  0
 17 25  4  0
 18 25  3  0
 19 24  3  0
 20 25  2  0
 23 25  4  0
 24 25  1  0
M  END
$$$$

 Created by Python create_sdf_string function

 29 32  0  0  0  0  0  0  0  0999 V2000
    5.7533    7.8096   22.1142 C   0  0  0  0  0  0  0  0  0  0  0  0
    9.9039    5.6249   21.3322 O   0  0  0  0  0  0  0  0  0  0  0  0
    6.4548    4.2214   22.9249 N   0  0  0  0  0  0  0  0  0  0  0  0
    5.7101    7.2325   24.4026 N   0  0  0  0  0  0  0  0  0  0  0  0
    5.2590    7.6837   20.8592 C   0  0  0  0  0  0  0  0  0  0  0  0
    6.3267    2.9119   23.1650 C   0  0  0  0  0  0  0  0  0  0  0  0
    7.2788    2.0624   23.1774 N   0  0  0  0  0  0  0  0  0  0  0  0
    8.4626    9.5854   24.0469 C   0  0  0  0  0  0  0  0  0  0  0  0
   11.8227    7.0059   22.2244 C   0  0  0  0  0  0  0  0  0  0  0  0
    9.8052    7.9320   21.5979 C   0  0  0  0  0  0  0  0  0  0  0  0
    9.9694    8.8639   22.3249 C   0  0  0  0  0  0  0  0  0  0  0  0
   10.7533    2.0640   21.7459 C   0  0  0  0  0  0  0  0  0  0  0  0
    4.9865    2.4135   23.5319 C   0  0  0  0  0  0  0  0  0  0  0  0
    9.6228    1.6519   22.4389 C   0  0  0  0  0  0  0  0  0  0  0  0
    6.8143    8.6098   22.3449 C   0  0  0  0  0  0  0  0  0  0  0  0
   10.8044    3.4128   21.3621 C   0  0  0  0  0  0  0  0  0  0  0  0
   12.0125    8.3989   22.4495 N   0  0  0  0  0  0  0  0  0  0  0  0
    7.3643    8.7981   23.6717 C   0  0  0  0  0  0  0  0  0  0  0  0
    8.5434    2.5027   22.6364 C   0  0  0  0  0  0  0  0  0  0  0  0
    9.8344    4.2822   21.7033 C   0  0  0  0  0  0  0  0  0  0  0  0
   10.8499    9.2531   24.3503 C   0  0  0  0  0  0  0  0  0  0  0  0
    5.2134    7.1797   23.1489 C   0  0  0  0  0  0  0  0  0  0  0  0
    9.7083    9.2502   23.5052 N   0  0  0  0  0  0  0  0  0  0  0  0
   10.7076    6.7023   21.5708 C   0  0  0  0  0  0  0  0  0  0  0  0
   12.0454    8.9309   23.6916 C   0  0  0  0  0  0  0  0  0  0  0  0
    6.7712    7.9648   24.5735 C   0  0  0  0  0  0  0  0  0  0  0  0
    7.6639    4.6879   22.6379 C   0  0  0  0  0  0  0  0  0  0  0  0
    8.3337   10.3078   25.1096 O   0  0  0  0  0  0  0  0  0  0  0  0
    8.6773    3.8480   22.3607 C   0  0  0  0  0  0  0  0  0  0  0  0
  1  5  1  0
  1 15  4  0
  1 22  4  0
  2 20  1  0
  2 24  1  0
  3  6  4  0
  3 27  4  0
  4 22  4  0
  4 26  4  0
  6  7  4  0
  6 13  1  0
  7 19  4  0
  8 18  1  0
  8 23  1  0
  8 28  2  0
  9 17  1  0
  9 24  1  0
 10 11  1  0
 10 24  1  0
 11 23  1  0
 12 14  4  0
 12 16  4  0
 14 19  4  0
 15 18  4  0
 16 20  4  0
 17 25  1  0
 18 26  4  0
 19 29  4  0
 20 29  4  0
 21 23  1  0
 21 25  1  0
 27 29  4  0
M  END
$$$$

 Created by Python create_sdf_string function

 29 28  0  0  0  0  0  0  0  0999 V2000
    5.5350    7.5605   21.0852 C   0  0  0  0  0  0  0  0  0  0  0  0
    6.4471    2.9583   23.2278 C   0  0  0  0  0  0  0  0  0  0  0  0
    8.4672    9.9009   24.0460 C   0  0  0  0  0  0  0  0  0  0  0  0
   12.3024    6.6594   22.9688 C   0  0  0  0  0  0  0  0  0  0  0  0
   10.0641    7.4611   21.5679 C   0  0  0  0  0  0  0  0  0  0  0  0
   10.8564    1.7331   21.7297 C   0  0  0  0  0  0  0  0  0  0  0  0
    5.7870    2.4209   23.5033 C   0  0  0  0  0  0  0  0  0  0  0  0
    9.3790    1.2978   22.8588 C   0  0  0  0  0  0  0  0  0  0  0  0
    6.3625    8.5693   22.2723 C   0  0  0  0  0  0  0  0  0  0  0  0
   11.6128    3.0643   21.3309 C   0  0  0  0  0  0  0  0  0  0  0  0
    8.8303    2.0387   22.8730 N   0  0  0  0  0  0  0  0  0  0  0  0
    9.9622    4.2076   21.3406 C   0  0  0  0  0  0  0  0  0  0  0  0
   11.3091    9.0627   24.3224 S   0  0  0  0  0  0  0  0  0  0  0  0
    5.1584    6.7713   23.1401 B   0  0  0  0  0  0  0  0  0  0  0  0
    9.6739    9.6528   23.0334 N   0  0  0  0  0  0  0  0  0  0  0  0
   10.6584    6.4250   21.5163 C   0  0  0  0  0  0  0  0  0  0  0  0
   12.4257    8.5282   23.6241 C   0  0  0  0  0  0  0  0  0  0  0  0
    6.9158    7.6712   24.7519 C   0  0  0  0  0  0  0  0  0  0  0  0
    8.6842    4.5001   22.0773 C   0  0  0  0  0  0  0  0  0  0  0  0
    5.7581    8.0552   22.3485 He  0  0  0  0  0  0  0  0  0  0  0  0
    9.5273    5.6615   21.1905 He  0  0  0  0  0  0  0  0  0  0  0  0
    6.4812    3.7745   23.7668 He  0  0  0  0  0  0  0  0  0  0  0  0
    6.3116    7.1372   24.3801 He  0  0  0  0  0  0  0  0  0  0  0  0
    7.4340    2.1715   22.6222 He  0  0  0  0  0  0  0  0  0  0  0  0
    9.8782    9.3475   22.4216 He  0  0  0  0  0  0  0  0  0  0  0  0
   12.0003    8.9947   22.8293 He  0  0  0  0  0  0  0  0  0  0  0  0
    7.5746    8.9554   23.5462 He  0  0  0  0  0  0  0  0  0  0  0  0
    7.6956    5.0490   22.3397 He  0  0  0  0  0  0  0  0  0  0  0  0
    8.0902   10.5084   24.8998 He  0  0  0  0  0  0  0  0  0  0  0  0
  1 11  4  0
  1 13  1  0
  1 14  2  0
  1 17  2  0
  2  7  2  0
  4  7  4  0
  4 16  1  0
  4 18  2  0
  4 19  1  0
  5 16  1  0
  5 19  1  0
  6  8  4  0
  6 10  4  0
  6 19  1  0
  8  9  1  0
  8 11  4  0
  9 16  4  0
 10 12  3  0
 10 15  2  0
 10 17  4  0
 10 18  4  0
 11 17  2  0
 11 18  1  0
 11 19  4  0
 12 19  4  0
 13 15  1  0
 15 18  4  0
 15 19  4  0
M  END
$$$$

 Created by Python create_sdf_string function

 29 32  0  0  0  0  0  0  0  0999 V2000
    5.7860    7.8026   22.2736 C   0  0  0  0  0  0  0  0  0  0  0  0
   10.1642    5.5570   21.2192 C   0  0  0  0  0  0  0  0  0  0  0  0
    6.6610    4.0983   23.2101 C   0  0  0  0  0  0  0  0  0  0  0  0
    5.9774    7.1210   24.5690 C   0  0  0  0  0  0  0  0  0  0  0  0
    5.2401    7.7329   20.9661 C   0  0  0  0  0  0  0  0  0  0  0  0
    6.4719    2.7935   23.3112 C   0  0  0  0  0  0  0  0  0  0  0  0
    7.5471    2.0002   23.1141 N   0  0  0  0  0  0  0  0  0  0  0  0
    8.4862    9.7615   23.9897 C   0  0  0  0  0  0  0  0  0  0  0  0
   11.9479    6.8593   22.5668 C   0  0  0  0  0  0  0  0  0  0  0  0
    9.9824    7.8745   21.5374 C   0  0  0  0  0  0  0  0  0  0  0  0
    9.9070    8.8632   22.1257 C   0  0  0  0  0  0  0  0  0  0  0  0
   10.9216    1.9830   21.8151 C   0  0  0  0  0  0  0  0  0  0  0  0
    5.3349    2.2524   23.6474 O   0  0  0  0  0  0  0  0  0  0  0  0
    9.7535    1.5514   22.4195 C   0  0  0  0  0  0  0  0  0  0  0  0
    6.7812    8.7652   22.5325 C   0  0  0  0  0  0  0  0  0  0  0  0
   11.0176    3.2897   21.3929 C   0  0  0  0  0  0  0  0  0  0  0  0
   12.3435    8.1991   22.7355 N   0  0  0  0  0  0  0  0  0  0  0  0
    7.4091    8.8214   23.7301 C   0  0  0  0  0  0  0  0  0  0  0  0
    8.6729    2.4164   22.5806 C   0  0  0  0  0  0  0  0  0  0  0  0
   10.0536    4.1873   21.6410 C   0  0  0  0  0  0  0  0  0  0  0  0
   10.9020    9.4316   24.2117 C   0  0  0  0  0  0  0  0  0  0  0  0
    5.3526    7.0163   23.3396 C   0  0  0  0  0  0  0  0  0  0  0  0
    9.6951    9.4426   23.3206 N   0  0  0  0  0  0  0  0  0  0  0  0
   10.7019    6.6344   21.7509 N   0  0  0  0  0  0  0  0  0  0  0  0
   12.2012    8.8682   23.7441 C   0  0  0  0  0  0  0  0  0  0  0  0
    7.0633    7.9592   24.7386 C   0  0  0  0  0  0  0  0  0  0  0  0
    7.8114    4.6310   22.6168 C   0  0  0  0  0  0  0  0  0  0  0  0
    8.3467   10.5871   24.8420 O   0  0  0  0  0  0  0  0  0  0  0  0
    8.7915    3.7454   22.2794 C   0  0  0  0  0  0  0  0  0  0  0  0
  1  5  1  0
  1 15  4  0
  1 22  4  0
  2 20  1  0
  2 24  1  0
  3  6  4  0
  3 27  4  0
  4 22  4  0
  4 26  4  0
  6  7  4  0
  6 13  2  0
  7 19  4  0
  8 18  1  0
  8 23  1  0
  8 28  2  0
  9 17  1  0
  9 24  1  0
 10 11  1  0
 10 24  1  0
 11 23  1  0
 12 14  4  0
 12 16  4  0
 14 19  4  0
 15 18  4  0
 16 20  4  0
 17 25  1  0
 18 26  4  0
 19 29  4  0
 20 29  4  0
 21 23  1  0
 21 25  1  0
 27 29  4  0
M  END
$$$$

 Created by Python create_sdf_string function

 29 43  0  0  0  0  0  0  0  0999 V2000
    5.8490    7.9129   22.5544 C   0  0  0  0  0  0  0  0  0  0  0  0
   10.2482    5.7266   21.0631 C   0  0  0  0  0  0  0  0  0  0  0  0
    6.9812    4.1048   23.6961 C   0  0  0  0  0  0  0  0  0  0  0  0
    5.8708    7.0724   24.5102 S   0  0  0  0  0  0  0  0  0  0  0  0
    5.5764    7.7502   20.6825 C   0  0  0  0  0  0  0  0  0  0  0  0
    6.5548    3.0682   23.5904 C   0  0  0  0  0  0  0  0  0  0  0  0
    7.5033    1.9067   22.4380 N   0  0  0  0  0  0  0  0  0  0  0  0
    8.1804    9.7714   23.8766 C   0  0  0  0  0  0  0  0  0  0  0  0
   11.7102    7.1427   22.5663 C   0  0  0  0  0  0  0  0  0  0  0  0
   10.9193    1.2940   21.7303 C   0  0  0  0  0  0  0  0  0  0  0  0
    5.3150    1.9929   23.2951 S   0  0  0  0  0  0  0  0  0  0  0  0
    9.4658    1.3617   22.3286 C   0  0  0  0  0  0  0  0  0  0  0  0
    7.0404    9.2373   22.5301 S   0  0  0  0  0  0  0  0  0  0  0  0
   11.0657    3.2148   21.3236 C   0  0  0  0  0  0  0  0  0  0  0  0
   11.9912    8.2795   22.2172 N   0  0  0  0  0  0  0  0  0  0  0  0
    7.0408    8.9277   23.5562 C   0  0  0  0  0  0  0  0  0  0  0  0
    8.3823    2.6327   23.0017 C   0  0  0  0  0  0  0  0  0  0  0  0
   10.1820    4.4057   21.7473 C   0  0  0  0  0  0  0  0  0  0  0  0
    6.1901    6.9849   22.9778 C   0  0  0  0  0  0  0  0  0  0  0  0
   12.8341    9.2056   23.4100 C   0  0  0  0  0  0  0  0  0  0  0  0
    6.8503    8.2631   24.9793 C   0  0  0  0  0  0  0  0  0  0  0  0
    8.4408    4.0532   22.9860 C   0  0  0  0  0  0  0  0  0  0  0  0
    7.8278   10.8819   25.0243 O   0  0  0  0  0  0  0  0  0  0  0  0
    9.4123    8.4513   21.7672 He  0  0  0  0  0  0  0  0  0  0  0  0
    9.9105    9.0032   21.7496 He  0  0  0  0  0  0  0  0  0  0  0  0
   11.2444    9.8493   24.0917 He  0  0  0  0  0  0  0  0  0  0  0  0
    9.8740    9.4324   23.0712 He  0  0  0  0  0  0  0  0  0  0  0  0
   10.4946    6.5452   21.9156 He  0  0  0  0  0  0  0  0  0  0  0  0
    9.1109    3.2481   22.4131 He  0  0  0  0  0  0  0  0  0  0  0  0
  1  5  1  0
  1 13  1  0
  1 19  4  0
  1 20  4  0
  2  3  4  0
  2  9  4  0
  2 18  1  0
  3  6  2  0
  3 14  2  0
  3 19  4  0
  3 21  1  0
  3 22  4  0
  3 23  3  0
  4 17  1  0
  4 18  4  0
  4 19  4  0
  4 21  4  0
  5 15  1  0
  5 22  2  0
  6 12  1  0
  6 18  2  0
  7 17  1  0
  7 19  3  0
  8 16  1  0
  8 22  1  0
  8 23  2  0
  9 15  1  0
 10 12  4  0
 10 14  4  0
 10 17  1  0
 11 16  1  0
 11 17  3  0
 12 14  2  0
 12 15  2  0
 12 17  4  0
 14 15  3  0
 14 18  4  0
 14 20  4  0
 15 20  1  0
 15 23  1  0
 16 18  1  0
 16 21  4  0
 17 21  2  0
M  END
$$$$

 Created by Python create_sdf_string function

 29 32  0  0  0  0  0  0  0  0999 V2000
    5.9749    7.8919   22.1707 C   0  0  0  0  0  0  0  0  0  0  0  0
   10.3233    5.5411   21.2152 C   0  0  0  0  0  0  0  0  0  0  0  0
    6.9909    4.0592   23.6087 C   0  0  0  0  0  0  0  0  0  0  0  0
    5.9652    7.2476   24.5206 C   0  0  0  0  0  0  0  0  0  0  0  0
    5.5210    7.7225   20.8333 C   0  0  0  0  0  0  0  0  0  0  0  0
    6.6151    2.7848   23.3000 C   0  0  0  0  0  0  0  0  0  0  0  0
    7.5656    1.9466   22.9161 N   0  0  0  0  0  0  0  0  0  0  0  0
    8.5695    9.8228   23.9908 C   0  0  0  0  0  0  0  0  0  0  0  0
   11.6125    7.0887   22.5780 C   0  0  0  0  0  0  0  0  0  0  0  0
    9.6125    7.8283   21.5292 C   0  0  0  0  0  0  0  0  0  0  0  0
    9.9909    9.0894   21.9390 C   0  0  0  0  0  0  0  0  0  0  0  0
   10.9514    1.8575   21.6356 C   0  0  0  0  0  0  0  0  0  0  0  0
    5.2157    2.2846   23.5401 C   0  0  0  0  0  0  0  0  0  0  0  0
    9.7852    1.4400   22.2371 C   0  0  0  0  0  0  0  0  0  0  0  0
    6.8465    8.9967   22.4981 C   0  0  0  0  0  0  0  0  0  0  0  0
   11.0991    3.2132   21.3606 C   0  0  0  0  0  0  0  0  0  0  0  0
   12.0451    8.3620   22.2772 N   0  0  0  0  0  0  0  0  0  0  0  0
    7.3954    9.0077   23.7469 C   0  0  0  0  0  0  0  0  0  0  0  0
    8.7608    2.3426   22.5227 C   0  0  0  0  0  0  0  0  0  0  0  0
   10.1505    4.1276   21.7026 C   0  0  0  0  0  0  0  0  0  0  0  0
   11.0016    9.8490   24.0191 C   0  0  0  0  0  0  0  0  0  0  0  0
    5.5726    7.0501   23.1536 C   0  0  0  0  0  0  0  0  0  0  0  0
    9.7930    9.4962   23.3070 N   0  0  0  0  0  0  0  0  0  0  0  0
   10.4024    6.6301   21.9195 N   0  0  0  0  0  0  0  0  0  0  0  0
   12.2206    9.2680   23.3409 C   0  0  0  0  0  0  0  0  0  0  0  0
    6.9439    8.2480   24.7721 C   0  0  0  0  0  0  0  0  0  0  0  0
    8.1733    4.5715   23.1452 C   0  0  0  0  0  0  0  0  0  0  0  0
    8.4568   10.7296   24.7943 O   0  0  0  0  0  0  0  0  0  0  0  0
    9.0232    3.6988   22.4407 C   0  0  0  0  0  0  0  0  0  0  0  0
  1  5  1  0
  1 15  4  0
  1 22  4  0
  2 20  1  0
  2 24  1  0
  3  6  4  0
  3 27  4  0
  4 22  4  0
  4 26  4  0
  6  7  4  0
  6 13  1  0
  7 19  4  0
  8 18  1  0
  8 23  1  0
  8 28  2  0
  9 17  1  0
  9 24  1  0
 10 11  1  0
 10 24  1  0
 11 23  1  0
 12 14  4  0
 12 16  4  0
 14 19  4  0
 15 18  4  0
 16 20  4  0
 17 25  1  0
 18 26  4  0
 19 29  4  0
 20 29  4  0
 21 23  1  0
 21 25  1  0
 27 29  4  0
M  END
$$$$

 Created by Python create_sdf_string function

 29 58  0  0  0  0  0  0  0  0999 V2000
    6.0257    7.7206   22.3215 C   0  0  0  0  0  0  0  0  0  0  0  0
   10.4488    5.2486   20.9650 C   0  0  0  0  0  0  0  0  0  0  0  0
    7.3421    4.3577   23.0408 C   0  0  0  0  0  0  0  0  0  0  0  0
    6.0799    7.1825   24.3929 C   0  0  0  0  0  0  0  0  0  0  0  0
    6.3559    2.8810   23.2587 C   0  0  0  0  0  0  0  0  0  0  0  0
    6.7970    1.9536   23.0234 N   0  0  0  0  0  0  0  0  0  0  0  0
    8.1902    9.0655   24.1516 C   0  0  0  0  0  0  0  0  0  0  0  0
   11.7042    7.5414   22.6022 C   0  0  0  0  0  0  0  0  0  0  0  0
    9.2702    7.8224   21.9044 C   0  0  0  0  0  0  0  0  0  0  0  0
   10.4430    8.9572   21.4955 C   0  0  0  0  0  0  0  0  0  0  0  0
   11.2904    1.7344   21.2927 C   0  0  0  0  0  0  0  0  0  0  0  0
    5.4279    3.0093   23.6433 C   0  0  0  0  0  0  0  0  0  0  0  0
    9.4967    1.5090   22.4896 C   0  0  0  0  0  0  0  0  0  0  0  0
    6.9659    9.3462   22.4596 C   0  0  0  0  0  0  0  0  0  0  0  0
   11.1574    3.5667   21.3179 C   0  0  0  0  0  0  0  0  0  0  0  0
   12.3924    8.8027   22.4095 N   0  0  0  0  0  0  0  0  0  0  0  0
    7.5508    8.8609   23.7625 O   0  0  0  0  0  0  0  0  0  0  0  0
    8.7073    2.4969   22.1218 C   0  0  0  0  0  0  0  0  0  0  0  0
   10.3085    4.1128   21.1801 C   0  0  0  0  0  0  0  0  0  0  0  0
    5.7281    6.9645   22.9332 C   0  0  0  0  0  0  0  0  0  0  0  0
    9.4686    9.5378   22.9040 N   0  0  0  0  0  0  0  0  0  0  0  0
   10.4124    6.5456   21.7652 N   0  0  0  0  0  0  0  0  0  0  0  0
   12.5552    9.3894   23.5357 C   0  0  0  0  0  0  0  0  0  0  0  0
    7.0683    8.0807   24.3948 C   0  0  0  0  0  0  0  0  0  0  0  0
    8.6037   10.3612   24.4932 C   0  0  0  0  0  0  0  0  0  0  0  0
    9.1578    3.4283   22.4483 C   0  0  0  0  0  0  0  0  0  0  0  0
    5.2632    7.6715   20.7088 He  0  0  0  0  0  0  0  0  0  0  0  0
   10.7501    9.8359   23.8330 He  0  0  0  0  0  0  0  0  0  0  0  0
    8.0972    4.6106   22.8199 He  0  0  0  0  0  0  0  0  0  0  0  0
  1  7  4  0
  1 14  2  0
  1 20  2  0
  2  9  2  0
  2 19  1  0
  2 22  1  0
  3  5  4  0
  3 12  3  0
  3 14  1  0
  3 18  3  0
  4  7  1  0
  4 12  1  0
  4 24  4  0
  5  6  4  0
  5  8  4  0
  5 12  1  0
  6 10  1  0
  6 18  4  0
  7 17  1  0
  7 21  1  0
  7 25  2  0
  8 11  4  0
  8 17  2  0
  8 22  3  0
  9 10  1  0
  9 12  2  0
  9 15  3  0
  9 22  1  0
 10 15  4  0
 10 20  1  0
 10 23  1  0
 11 13  4  0
 11 15  3  0
 11 18  2  0
 11 22  2  0
 12 15  3  0
 12 20  4  0
 13 18  4  0
 13 22  3  0
 13 26  2  0
 14 16  2  0
 14 17  4  0
 14 25  3  0
 15 19  4  0
 15 26  2  0
 16 23  1  0
 16 25  2  0
 17 21  4  0
 17 24  4  0
 18 22  4  0
 18 26  4  0
 19 22  2  0
 19 23  2  0
 19 26  2  0
 20 26  1  0
 21 23  4  0
 22 24  2  0
 24 26  3  0
M  END
$$$$

 Created by Python create_sdf_string function

 29 32  0  0  0  0  0  0  0  0999 V2000
    5.8553    7.8885   22.1404 C   0  0  0  0  0  0  0  0  0  0  0  0
   10.3972    5.4980   20.9984 C   0  0  0  0  0  0  0  0  0  0  0  0
    7.0069    4.3714   23.1675 C   0  0  0  0  0  0  0  0  0  0  0  0
    5.8768    7.2272   24.4525 C   0  0  0  0  0  0  0  0  0  0  0  0
    5.3292    7.7731   20.8440 C   0  0  0  0  0  0  0  0  0  0  0  0
    6.6513    3.1128   23.2118 C   0  0  0  0  0  0  0  0  0  0  0  0
    7.5114    2.1780   22.9136 N   0  0  0  0  0  0  0  0  0  0  0  0
    8.6215    9.6231   23.9058 C   0  0  0  0  0  0  0  0  0  0  0  0
   11.8394    7.3033   22.3623 C   0  0  0  0  0  0  0  0  0  0  0  0
    9.6761    7.6887   21.6370 C   0  0  0  0  0  0  0  0  0  0  0  0
   10.0190    8.9614   21.8520 C   0  0  0  0  0  0  0  0  0  0  0  0
   10.9373    1.8542   21.5624 C   0  0  0  0  0  0  0  0  0  0  0  0
    5.2841    2.8163   23.6570 C   0  0  0  0  0  0  0  0  0  0  0  0
    9.7641    1.4777   22.1206 C   0  0  0  0  0  0  0  0  0  0  0  0
    6.8381    8.8536   22.4226 C   0  0  0  0  0  0  0  0  0  0  0  0
   11.1351    3.2128   21.2260 C   0  0  0  0  0  0  0  0  0  0  0  0
   12.5922    8.4443   22.5266 N   0  0  0  0  0  0  0  0  0  0  0  0
    7.4430    8.8052   23.6179 C   0  0  0  0  0  0  0  0  0  0  0  0
    8.7687    2.4323   22.4115 C   0  0  0  0  0  0  0  0  0  0  0  0
   10.2445    4.1409   21.5219 C   0  0  0  0  0  0  0  0  0  0  0  0
   11.0130    9.9169   23.8020 C   0  0  0  0  0  0  0  0  0  0  0  0
    5.3342    7.1157   23.1385 C   0  0  0  0  0  0  0  0  0  0  0  0
    9.8922    9.3687   23.1358 N   0  0  0  0  0  0  0  0  0  0  0  0
   10.4463    6.5751   21.8623 N   0  0  0  0  0  0  0  0  0  0  0  0
   12.2573    9.5225   23.3999 C   0  0  0  0  0  0  0  0  0  0  0  0
    7.0165    8.0335   24.6444 C   0  0  0  0  0  0  0  0  0  0  0  0
    8.1472    4.7106   22.7009 C   0  0  0  0  0  0  0  0  0  0  0  0
    8.5557   10.4262   24.8157 O   0  0  0  0  0  0  0  0  0  0  0  0
    9.0403    3.7798   22.2463 C   0  0  0  0  0  0  0  0  0  0  0  0
  1  5  1  0
  1 15  4  0
  1 22  4  0
  2 20  1  0
  2 24  1  0
  3  6  4  0
  3 27  4  0
  4 22  4  0
  4 26  4  0
  6  7  4  0
  6 13  1  0
  7 19  4  0
  8 18  1  0
  8 23  1  0
  8 28  2  0
  9 17  1  0
  9 24  1  0
 10 11  1  0
 10 24  1  0
 11 23  1  0
 12 14  4  0
 12 16  4  0
 14 19  4  0
 15 18  4  0
 16 20  4  0
 17 25  1  0
 18 26  4  0
 19 29  4  0
 20 29  4  0
 21 23  1  0
 21 25  1  0
 27 29  4  0
M  END
$$$$

 Created by Python create_sdf_string function

 29 65  0  0  0  0  0  0  0  0999 V2000
    5.5000    7.6967   21.7044 C   0  0  0  0  0  0  0  0  0  0  0  0
   10.3049    5.6966   21.1429 C   0  0  0  0  0  0  0  0  0  0  0  0
    6.6859    4.5550   22.9294 C   0  0  0  0  0  0  0  0  0  0  0  0
    6.0962    7.2076   24.5891 C   0  0  0  0  0  0  0  0  0  0  0  0
    5.1545    7.8949   21.0248 C   0  0  0  0  0  0  0  0  0  0  0  0
    7.3188    2.2965   22.6589 N   0  0  0  0  0  0  0  0  0  0  0  0
    8.5849    9.2099   23.7555 C   0  0  0  0  0  0  0  0  0  0  0  0
   12.5591    7.1749   22.4315 C   0  0  0  0  0  0  0  0  0  0  0  0
    9.5967    7.5608   21.7951 C   0  0  0  0  0  0  0  0  0  0  0  0
   10.0571    9.4649   21.5888 C   0  0  0  0  0  0  0  0  0  0  0  0
   11.5261    1.8560   21.7743 C   0  0  0  0  0  0  0  0  0  0  0  0
    5.4231    3.0096   23.6115 C   0  0  0  0  0  0  0  0  0  0  0  0
    7.0248    8.8806   22.5696 N   0  0  0  0  0  0  0  0  0  0  0  0
   11.2546    3.0920   21.7262 C   0  0  0  0  0  0  0  0  0  0  0  0
   12.7820    8.4641   22.4892 N   0  0  0  0  0  0  0  0  0  0  0  0
    7.8849    9.0991   23.4449 C   0  0  0  0  0  0  0  0  0  0  0  0
    9.0195    2.1886   22.3698 P   0  0  0  0  0  0  0  0  0  0  0  0
   10.1598    4.0517   21.3398 C   0  0  0  0  0  0  0  0  0  0  0  0
   11.0151   10.3711   23.4721 C   0  0  0  0  0  0  0  0  0  0  0  0
    4.7758    6.8616   23.0115 C   0  0  0  0  0  0  0  0  0  0  0  0
    9.5093    9.7638   23.1403 N   0  0  0  0  0  0  0  0  0  0  0  0
   10.6088    6.4817   22.2181 N   0  0  0  0  0  0  0  0  0  0  0  0
   12.2095    8.9037   23.9988 C   0  0  0  0  0  0  0  0  0  0  0  0
    7.0698    7.8505   25.0819 N   0  0  0  0  0  0  0  0  0  0  0  0
    8.0677    4.0006   22.7866 C   0  0  0  0  0  0  0  0  0  0  0  0
    8.8562   10.1479   24.6719 O   0  0  0  0  0  0  0  0  0  0  0  0
    9.3434    3.8321   22.6714 C   0  0  0  0  0  0  0  0  0  0  0  0
    6.5279    3.5479   23.4535 He  0  0  0  0  0  0  0  0  0  0  0  0
    9.6312    1.7320   22.2527 He  0  0  0  0  0  0  0  0  0  0  0  0
  1 13  4  0
  1 19  2  0
  1 20  4  0
  2 17  3  0
  2 18  1  0
  2 21  1  0
  2 22  3  0
  3  4  4  0
  3 10  4  0
  3 16  4  0
  3 18  1  0
  3 20  4  0
  3 21  2  0
  3 25  4  0
  4  7  1  0
  4  9  2  0
  4 11  1  0
  4 20  4  0
  4 24  4  0
  4 27  3  0
  5 14  3  0
  5 27  1  0
  6 14  3  0
  6 17  4  0
  7 10  1  0
  7 16  1  0
  7 17  2  0
  7 21  1  0
  7 26  2  0
  8  9  1  0
  8 12  2  0
  8 15  1  0
  8 19  1  0
  8 22  1  0
  9 10  1  0
  9 18  3  0
  9 22  1  0
  9 25  3  0
 10 20  2  0
 10 21  1  0
 10 23  4  0
 11 14  4  0
 11 21  4  0
 11 24  3  0
 11 26  3  0
 12 16  2  0
 12 17  4  0
 12 21  4  0
 12 22  1  0
 13 16  4  0
 13 18  4  0
 13 19  2  0
 14 18  4  0
 15 18  1  0
 15 19  3  0
 15 23  1  0
 16 24  4  0
 16 25  2  0
 17 20  2  0
 17 22  4  0
 17 27  4  0
 18 27  3  0
 22 24  2  0
 24 26  3  0
 26 27  2  0
M  END
$$$$

 Created by Python create_sdf_string function

 29 32  0  0  0  0  0  0  0  0999 V2000
    5.8229    7.9730   22.2339 C   0  0  0  0  0  0  0  0  0  0  0  0
   10.5603    5.5339   21.1090 C   0  0  0  0  0  0  0  0  0  0  0  0
    6.9338    4.3496   22.9697 C   0  0  0  0  0  0  0  0  0  0  0  0
    5.8925    7.3412   24.5330 C   0  0  0  0  0  0  0  0  0  0  0  0
    5.1874    7.9342   20.9421 C   0  0  0  0  0  0  0  0  0  0  0  0
    6.6258    3.1247   23.1433 C   0  0  0  0  0  0  0  0  0  0  0  0
    7.5424    2.1834   22.9557 N   0  0  0  0  0  0  0  0  0  0  0  0
    8.7258    9.5617   23.8426 C   0  0  0  0  0  0  0  0  0  0  0  0
   12.1384    7.0224   22.3607 C   0  0  0  0  0  0  0  0  0  0  0  0
    9.8361    7.6102   21.7974 C   0  0  0  0  0  0  0  0  0  0  0  0
   10.0501    9.0349   21.6721 C   0  0  0  0  0  0  0  0  0  0  0  0
   11.0729    1.9155   21.7709 C   0  0  0  0  0  0  0  0  0  0  0  0
    5.2691    2.7876   23.6542 C   0  0  0  0  0  0  0  0  0  0  0  0
    9.8695    1.5333   22.2696 N   0  0  0  0  0  0  0  0  0  0  0  0
    6.9167    8.7646   22.4082 N   0  0  0  0  0  0  0  0  0  0  0  0
   11.2934    3.2547   21.5098 C   0  0  0  0  0  0  0  0  0  0  0  0
   12.6157    8.2953   22.5526 C   0  0  0  0  0  0  0  0  0  0  0  0
    7.5079    8.7789   23.6217 C   0  0  0  0  0  0  0  0  0  0  0  0
    8.8599    2.4791   22.4678 C   0  0  0  0  0  0  0  0  0  0  0  0
   10.3550    4.1782   21.6871 C   0  0  0  0  0  0  0  0  0  0  0  0
   11.1004   10.1828   23.5467 C   0  0  0  0  0  0  0  0  0  0  0  0
    5.2817    7.2834   23.3280 C   0  0  0  0  0  0  0  0  0  0  0  0
    9.8348    9.5782   23.0267 N   0  0  0  0  0  0  0  0  0  0  0  0
   10.7505    6.6182   22.0710 N   0  0  0  0  0  0  0  0  0  0  0  0
   12.0275    9.0182   23.7294 C   0  0  0  0  0  0  0  0  0  0  0  0
    7.0676    8.0581   24.6900 N   0  0  0  0  0  0  0  0  0  0  0  0
    8.1183    4.7540   22.6363 C   0  0  0  0  0  0  0  0  0  0  0  0
    8.7675   10.2203   24.8892 O   0  0  0  0  0  0  0  0  0  0  0  0
    9.1002    3.8232   22.2769 C   0  0  0  0  0  0  0  0  0  0  0  0
  1  5  1  0
  1 15  4  0
  1 22  4  0
  2 20  1  0
  2 24  1  0
  3  6  4  0
  3 27  4  0
  4 22  4  0
  4 26  4  0
  6  7  4  0
  6 13  1  0
  7 19  4  0
  8 18  1  0
  8 23  1  0
  8 28  2  0
  9 17  1  0
  9 24  1  0
 10 11  1  0
 10 24  1  0
 11 23  1  0
 12 14  4  0
 12 16  4  0
 14 19  4  0
 15 18  4  0
 16 20  4  0
 17 25  1  0
 18 26  4  0
 19 29  4  0
 20 29  4  0
 21 23  1  0
 21 25  1  0
 27 29  4  0
M  END
$$$$

 Created by Python create_sdf_string function

 29 27  0  0  0  0  0  0  0  0999 V2000
   11.2375    5.5189   21.7137 C   0  0  0  0  0  0  0  0  0  0  0  0
    7.4150    4.5872   22.9166 C   0  0  0  0  0  0  0  0  0  0  0  0
    4.9345    8.0118   21.7302 C   0  0  0  0  0  0  0  0  0  0  0  0
    7.3951    2.0689   23.3315 N   0  0  0  0  0  0  0  0  0  0  0  0
    9.1159    9.8023   23.6189 C   0  0  0  0  0  0  0  0  0  0  0  0
   12.0615    7.4385   22.5877 F   0  0  0  0  0  0  0  0  0  0  0  0
    9.6702    7.7934   21.6342 C   0  0  0  0  0  0  0  0  0  0  0  0
   10.5018    9.1459   21.5722 C   0  0  0  0  0  0  0  0  0  0  0  0
   11.5526    2.4134   21.6816 C   0  0  0  0  0  0  0  0  0  0  0  0
    5.1643    2.6333   23.9321 Cl  0  0  0  0  0  0  0  0  0  0  0  0
    7.0466    9.0553   22.2901 N   0  0  0  0  0  0  0  0  0  0  0  0
   13.0240    8.0239   22.5619 C   0  0  0  0  0  0  0  0  0  0  0  0
    7.3190    8.7721   24.0140 C   0  0  0  0  0  0  0  0  0  0  0  0
    8.9771    2.5024   22.7437 C   0  0  0  0  0  0  0  0  0  0  0  0
    9.9720    4.0465   21.5272 C   0  0  0  0  0  0  0  0  0  0  0  0
   10.9080    9.9209   23.6254 C   0  0  0  0  0  0  0  0  0  0  0  0
    5.9295    7.2771   23.0752 C   0  0  0  0  0  0  0  0  0  0  0  0
   10.0404   10.0808   22.5375 N   0  0  0  0  0  0  0  0  0  0  0  0
    7.1386    8.0968   24.4541 F   0  0  0  0  0  0  0  0  0  0  0  0
    8.2763    4.8170   22.9812 C   0  0  0  0  0  0  0  0  0  0  0  0
    8.4724    9.9565   24.5498 O   0  0  0  0  0  0  0  0  0  0  0  0
    8.7206    3.8662   21.9776 C   0  0  0  0  0  0  0  0  0  0  0  0
    5.6236    7.9147   21.9954 He  0  0  0  0  0  0  0  0  0  0  0  0
    5.5901    7.4629   24.5095 He  0  0  0  0  0  0  0  0  0  0  0  0
    6.4792    3.5268   22.9599 He  0  0  0  0  0  0  0  0  0  0  0  0
    9.9787    1.5723   22.2736 He  0  0  0  0  0  0  0  0  0  0  0  0
   11.0910    3.3423   22.0603 He  0  0  0  0  0  0  0  0  0  0  0  0
   10.5013    6.4667   22.6849 He  0  0  0  0  0  0  0  0  0  0  0  0
   11.5442    8.9485   23.5899 He  0  0  0  0  0  0  0  0  0  0  0  0
  1 15  1  0
  1 16  1  0
  1 18  2  0
  1 19  2  0
  1 22  4  0
  2 14  4  0
  3 12  3  0
  3 15  4  0
  5 13  1  0
  5 17  3  0
  5 18  1  0
  5 21  4  0
  6  8  4  0
  6 12  1  0
  7  8  1  0
  7 15  4  0
  8 10  3  0
  8 11  1  0
 10 11  3  0
 10 19  2  0
 11 13  4  0
 11 20  4  0
 13 19  4  0
 14 22  2  0
 15 20  1  0
 15 22  4  0
 16 18  1  0
M  END
$$$$

 Created by Python create_sdf_string function

 29 32  0  0  0  0  0  0  0  0999 V2000
    5.7472    8.1303   22.2846 C   0  0  0  0  0  0  0  0  0  0  0  0
   10.7314    5.6233   21.4314 C   0  0  0  0  0  0  0  0  0  0  0  0
    6.9522    4.4182   23.0972 C   0  0  0  0  0  0  0  0  0  0  0  0
    5.9595    7.5357   24.5759 C   0  0  0  0  0  0  0  0  0  0  0  0
    4.9847    8.0508   21.0627 C   0  0  0  0  0  0  0  0  0  0  0  0
    6.6663    3.1464   23.3127 C   0  0  0  0  0  0  0  0  0  0  0  0
    7.6181    2.2051   23.0296 N   0  0  0  0  0  0  0  0  0  0  0  0
    8.7268    9.7283   23.6773 C   0  0  0  0  0  0  0  0  0  0  0  0
   12.2020    7.2090   22.4249 C   0  0  0  0  0  0  0  0  0  0  0  0
   10.0225    7.7940   21.7194 C   0  0  0  0  0  0  0  0  0  0  0  0
   10.1932    9.1316   21.5735 C   0  0  0  0  0  0  0  0  0  0  0  0
   11.0749    1.9623   21.9062 C   0  0  0  0  0  0  0  0  0  0  0  0
    5.3110    2.7191   23.7822 Cl  0  0  0  0  0  0  0  0  0  0  0  0
    9.8820    1.5750   22.3092 N   0  0  0  0  0  0  0  0  0  0  0  0
    6.9554    8.8362   22.3097 N   0  0  0  0  0  0  0  0  0  0  0  0
   11.3367    3.2653   21.6647 C   0  0  0  0  0  0  0  0  0  0  0  0
   12.7072    8.3267   22.6506 C   0  0  0  0  0  0  0  0  0  0  0  0
    7.5368    8.9298   23.5102 C   0  0  0  0  0  0  0  0  0  0  0  0
    8.9053    2.5368   22.5829 C   0  0  0  0  0  0  0  0  0  0  0  0
   10.4743    4.2272   21.9182 C   0  0  0  0  0  0  0  0  0  0  0  0
   11.1174   10.0661   23.5386 C   0  0  0  0  0  0  0  0  0  0  0  0
    5.3053    7.5636   23.4015 C   0  0  0  0  0  0  0  0  0  0  0  0
    9.8533    9.7191   22.8843 N   0  0  0  0  0  0  0  0  0  0  0  0
   10.7442    6.7230   22.3616 N   0  0  0  0  0  0  0  0  0  0  0  0
   11.8422    8.9432   23.8426 C   0  0  0  0  0  0  0  0  0  0  0  0
    7.1580    8.2719   24.5975 C   0  0  0  0  0  0  0  0  0  0  0  0
    8.1081    4.8754   22.6389 C   0  0  0  0  0  0  0  0  0  0  0  0
    8.7519   10.4681   24.7346 O   0  0  0  0  0  0  0  0  0  0  0  0
    9.1310    3.8857   22.4510 C   0  0  0  0  0  0  0  0  0  0  0  0
  1  5  1  0
  1 15  4  0
  1 22  4  0
  2 20  1  0
  2 24  1  0
  3  6  4  0
  3 27  4  0
  4 22  4  0
  4 26  4  0
  6  7  4  0
  6 13  1  0
  7 19  4  0
  8 18  1  0
  8 23  1  0
  8 28  2  0
  9 17  1  0
  9 24  1  0
 10 11  1  0
 10 24  1  0
 11 23  1  0
 12 14  4  0
 12 16  4  0
 14 19  4  0
 15 18  4  0
 16 20  4  0
 17 25  1  0
 18 26  4  0
 19 29  4  0
 20 29  4  0
 21 23  1  0
 21 25  1  0
 27 29  4  0
M  END
$$$$

 Created by Python create_sdf_string function

 29 40  0  0  0  0  0  0  0  0999 V2000
    5.5984    8.3925   22.2794 C   0  0  0  0  0  0  0  0  0  0  0  0
    6.6493    4.7274   23.3522 P   0  0  0  0  0  0  0  0  0  0  0  0
    5.0788    7.9949   20.9210 C   0  0  0  0  0  0  0  0  0  0  0  0
    6.2160    3.2937   23.5766 C   0  0  0  0  0  0  0  0  0  0  0  0
    7.8647    2.4891   23.1233 N   0  0  0  0  0  0  0  0  0  0  0  0
    8.5582    9.2111   23.7076 C   0  0  0  0  0  0  0  0  0  0  0  0
   11.6761    6.9167   22.1800 N   0  0  0  0  0  0  0  0  0  0  0  0
    9.6780    7.8251   21.5021 C   0  0  0  0  0  0  0  0  0  0  0  0
    9.9092    9.4596   21.2173 C   0  0  0  0  0  0  0  0  0  0  0  0
   11.3615    1.5065   21.9478 C   0  0  0  0  0  0  0  0  0  0  0  0
    5.2686    2.5910   23.4172 Cl  0  0  0  0  0  0  0  0  0  0  0  0
    9.8131    1.5173   22.0761 N   0  0  0  0  0  0  0  0  0  0  0  0
    7.1720    8.1564   21.8100 N   0  0  0  0  0  0  0  0  0  0  0  0
   11.2347    3.3037   21.8801 C   0  0  0  0  0  0  0  0  0  0  0  0
   12.4727    8.4219   23.0193 C   0  0  0  0  0  0  0  0  0  0  0  0
    7.1887    9.4049   23.5703 C   0  0  0  0  0  0  0  0  0  0  0  0
    8.7980    2.4297   22.5131 C   0  0  0  0  0  0  0  0  0  0  0  0
   10.5026    4.4752   21.7837 C   0  0  0  0  0  0  0  0  0  0  0  0
   11.4077    9.5829   24.0164 C   0  0  0  0  0  0  0  0  0  0  0  0
    5.3076    8.0089   23.6959 C   0  0  0  0  0  0  0  0  0  0  0  0
   10.0290    9.9093   22.8491 N   0  0  0  0  0  0  0  0  0  0  0  0
   11.1811    6.6763   22.5526 N   0  0  0  0  0  0  0  0  0  0  0  0
   12.0729    8.8397   23.8953 C   0  0  0  0  0  0  0  0  0  0  0  0
    8.4107    5.0050   22.7959 O   0  0  0  0  0  0  0  0  0  0  0  0
    8.7447   10.4016   24.7067 O   0  0  0  0  0  0  0  0  0  0  0  0
    9.2272    4.0718   22.5088 C   0  0  0  0  0  0  0  0  0  0  0  0
   10.4946    5.7934   21.9291 He  0  0  0  0  0  0  0  0  0  0  0  0
    6.0844    7.2531   24.4274 He  0  0  0  0  0  0  0  0  0  0  0  0
    7.1992    8.1921   24.5331 He  0  0  0  0  0  0  0  0  0  0  0  0
  1  3  1  0
  1 10  4  0
  1 13  4  0
  1 20  4  0
  2  3  1  0
  2  4  4  0
  2 14  4  0
  2 24  4  0
  3  4  3  0
  4  5  3  0
  4 11  1  0
  4 20  3  0
  5 11  1  0
  5 17  3  0
  5 24  1  0
  6 21  1  0
  7 15  1  0
  7 22  1  0
  8  9  1  0
  8 22  1  0
  9 19  4  0
  9 21  3  0
 11 13  2  0
 12 17  4  0
 13 15  1  0
 13 16  4  0
 13 17  4  0
 13 25  3  0
 14 16  4  0
 14 18  4  0
 14 23  1  0
 15 22  1  0
 16 26  2  0
 17 23  4  0
 18 26  4  0
 19 21  1  0
 19 23  1  0
 23 26  2  0
 24 25  2  0
 24 26  4  0
M  END
$$$$

 Created by Python create_sdf_string function

 29 32  0  0  0  0  0  0  0  0999 V2000
    5.7390    8.1843   22.2592 C   0  0  0  0  0  0  0  0  0  0  0  0
   10.6428    5.6266   21.6361 C   0  0  0  0  0  0  0  0  0  0  0  0
    6.9728    4.4990   23.2805 C   0  0  0  0  0  0  0  0  0  0  0  0
    5.8214    7.7361   24.5833 C   0  0  0  0  0  0  0  0  0  0  0  0
    5.0101    8.1275   21.0139 C   0  0  0  0  0  0  0  0  0  0  0  0
    6.6642    3.1365   23.2780 C   0  0  0  0  0  0  0  0  0  0  0  0
    7.6048    2.2121   23.0005 N   0  0  0  0  0  0  0  0  0  0  0  0
    8.7760    9.7070   23.6823 C   0  0  0  0  0  0  0  0  0  0  0  0
   12.0684    7.1370   22.3130 C   0  0  0  0  0  0  0  0  0  0  0  0
    9.8414    7.7394   21.4573 C   0  0  0  0  0  0  0  0  0  0  0  0
   10.1553    9.1248   21.6620 C   0  0  0  0  0  0  0  0  0  0  0  0
   11.0399    2.0523   21.8548 C   0  0  0  0  0  0  0  0  0  0  0  0
    5.3170    2.6723   23.5853 Cl  0  0  0  0  0  0  0  0  0  0  0  0
    9.8277    1.6488   22.2593 N   0  0  0  0  0  0  0  0  0  0  0  0
    6.8975    8.8734   22.3061 N   0  0  0  0  0  0  0  0  0  0  0  0
   11.3503    3.3721   21.7841 C   0  0  0  0  0  0  0  0  0  0  0  0
   12.6242    8.2544   22.6399 C   0  0  0  0  0  0  0  0  0  0  0  0
    7.5668    8.9075   23.4873 C   0  0  0  0  0  0  0  0  0  0  0  0
    8.8711    2.5759   22.5862 C   0  0  0  0  0  0  0  0  0  0  0  0
   10.4168    4.2952   22.0323 C   0  0  0  0  0  0  0  0  0  0  0  0
   11.1832    9.8760   23.8280 C   0  0  0  0  0  0  0  0  0  0  0  0
    5.1737    7.6254   23.3784 C   0  0  0  0  0  0  0  0  0  0  0  0
    9.9571    9.5178   23.0360 N   0  0  0  0  0  0  0  0  0  0  0  0
   10.7260    6.8095   22.2191 N   0  0  0  0  0  0  0  0  0  0  0  0
   11.9803    8.7489   23.9513 C   0  0  0  0  0  0  0  0  0  0  0  0
    7.1138    8.2408   24.6283 C   0  0  0  0  0  0  0  0  0  0  0  0
    8.1690    4.9317   22.8519 C   0  0  0  0  0  0  0  0  0  0  0  0
    8.7142   10.4997   24.6747 O   0  0  0  0  0  0  0  0  0  0  0  0
    9.0897    3.9337   22.5231 C   0  0  0  0  0  0  0  0  0  0  0  0
  1  5  1  0
  1 15  4  0
  1 22  4  0
  2 20  1  0
  2 24  1  0
  3  6  4  0
  3 27  4  0
  4 22  4  0
  4 26  4  0
  6  7  4  0
  6 13  1  0
  7 19  4  0
  8 18  1  0
  8 23  1  0
  8 28  2  0
  9 17  1  0
  9 24  1  0
 10 11  1  0
 10 24  1  0
 11 23  1  0
 12 14  4  0
 12 16  4  0
 14 19  4  0
 15 18  4  0
 16 20  4  0
 17 25  1  0
 18 26  4  0
 19 29  4  0
 20 29  4  0
 21 23  1  0
 21 25  1  0
 27 29  4  0
M  END
$$$$

 Created by Python create_sdf_string function

 29 40  0  0  0  0  0  0  0  0999 V2000
   10.4630    5.7483   21.5155 C   0  0  0  0  0  0  0  0  0  0  0  0
    6.7979    4.2552   23.3653 N   0  0  0  0  0  0  0  0  0  0  0  0
    5.2997    8.2896   20.9723 C   0  0  0  0  0  0  0  0  0  0  0  0
    6.4906    3.2961   22.9072 C   0  0  0  0  0  0  0  0  0  0  0  0
    7.1467    2.6105   23.0900 N   0  0  0  0  0  0  0  0  0  0  0  0
    8.4743    9.7754   23.7385 C   0  0  0  0  0  0  0  0  0  0  0  0
   12.2455    7.2066   22.0744 C   0  0  0  0  0  0  0  0  0  0  0  0
    9.8333    7.6294   21.5877 C   0  0  0  0  0  0  0  0  0  0  0  0
    9.8887    8.9702   21.7906 C   0  0  0  0  0  0  0  0  0  0  0  0
   10.8003    1.8383   21.9255 C   0  0  0  0  0  0  0  0  0  0  0  0
    5.4591    2.8315   23.2890 Cl  0  0  0  0  0  0  0  0  0  0  0  0
    9.5882    2.0048   21.5978 N   0  0  0  0  0  0  0  0  0  0  0  0
    7.3630    8.9724   22.2194 N   0  0  0  0  0  0  0  0  0  0  0  0
   11.9766    3.4070   22.1071 C   0  0  0  0  0  0  0  0  0  0  0  0
   12.4296    8.7085   22.9709 C   0  0  0  0  0  0  0  0  0  0  0  0
    7.8330    9.2987   23.7100 C   0  0  0  0  0  0  0  0  0  0  0  0
    8.9271    2.3793   22.7660 C   0  0  0  0  0  0  0  0  0  0  0  0
   10.8485    3.8537   22.0023 C   0  0  0  0  0  0  0  0  0  0  0  0
   11.3218    9.7406   23.5483 C   0  0  0  0  0  0  0  0  0  0  0  0
    5.3867    7.6383   23.3752 C   0  0  0  0  0  0  0  0  0  0  0  0
   10.0935    9.7686   23.1176 N   0  0  0  0  0  0  0  0  0  0  0  0
   12.0415    8.6359   24.1053 C   0  0  0  0  0  0  0  0  0  0  0  0
    8.1225    5.1043   22.7540 C   0  0  0  0  0  0  0  0  0  0  0  0
    8.5004   10.5377   24.6434 O   0  0  0  0  0  0  0  0  0  0  0  0
    8.8999    3.5327   22.6892 C   0  0  0  0  0  0  0  0  0  0  0  0
    5.5645    8.1078   22.1424 He  0  0  0  0  0  0  0  0  0  0  0  0
    5.8396    7.8766   24.7996 He  0  0  0  0  0  0  0  0  0  0  0  0
   10.8924    6.6810   22.6385 He  0  0  0  0  0  0  0  0  0  0  0  0
    7.0956    8.3492   24.5091 He  0  0  0  0  0  0  0  0  0  0  0  0
  1  8  1  0
  1 18  1  0
  1 21  3  0
  2  9  4  0
  2 21  1  0
  2 23  4  0
  3 16  3  0
  3 18  3  0
  4  5  4  0
  4  8  2  0
  4 11  1  0
  4 25  2  0
  5  7  2  0
  5 17  4  0
  5 22  1  0
  5 23  3  0
  6 16  1  0
  6 18  2  0
  6 21  1  0
  7 11  4  0
  7 15  1  0
  7 16  3  0
  8  9  1  0
  8 14  1  0
  9 10  1  0
  9 21  1  0
  9 24  3  0
 10 12  4  0
 10 14  4  0
 10 20  1  0
 11 20  1  0
 13 16  4  0
 14 18  4  0
 14 20  4  0
 15 22  1  0
 17 25  2  0
 18 25  4  0
 19 21  1  0
 19 22  1  0
 23 25  4  0
M  END
$$$$

 Created by Python create_sdf_string function

 29 32  0  0  0  0  0  0  0  0999 V2000
    5.8465    8.2395   22.2705 C   0  0  0  0  0  0  0  0  0  0  0  0
   10.7418    5.4922   21.5777 C   0  0  0  0  0  0  0  0  0  0  0  0
    6.8872    4.4726   23.1684 N   0  0  0  0  0  0  0  0  0  0  0  0
    5.8640    7.7715   24.6084 C   0  0  0  0  0  0  0  0  0  0  0  0
    5.1986    8.1344   20.9946 C   0  0  0  0  0  0  0  0  0  0  0  0
    6.5659    3.1832   23.1309 C   0  0  0  0  0  0  0  0  0  0  0  0
    7.4724    2.2549   22.8086 N   0  0  0  0  0  0  0  0  0  0  0  0
    8.7589    9.8803   23.7908 C   0  0  0  0  0  0  0  0  0  0  0  0
   12.3552    7.2045   22.1805 C   0  0  0  0  0  0  0  0  0  0  0  0
   10.0422    7.8674   21.7744 C   0  0  0  0  0  0  0  0  0  0  0  0
   10.0574    9.0650   21.7563 C   0  0  0  0  0  0  0  0  0  0  0  0
   11.0127    1.9829   21.8229 C   0  0  0  0  0  0  0  0  0  0  0  0
    5.2170    2.7695   23.3911 Cl  0  0  0  0  0  0  0  0  0  0  0  0
    9.7426    1.6111   22.0915 N   0  0  0  0  0  0  0  0  0  0  0  0
    6.9797    8.9651   22.3799 N   0  0  0  0  0  0  0  0  0  0  0  0
   11.3943    3.2984   21.9216 C   0  0  0  0  0  0  0  0  0  0  0  0
   12.7340    8.4392   22.7418 C   0  0  0  0  0  0  0  0  0  0  0  0
    7.5616    9.1143   23.6067 C   0  0  0  0  0  0  0  0  0  0  0  0
    8.7463    2.5741   22.4414 C   0  0  0  0  0  0  0  0  0  0  0  0
   10.4209    4.2070   22.0632 C   0  0  0  0  0  0  0  0  0  0  0  0
   11.1408    9.9665   23.7982 C   0  0  0  0  0  0  0  0  0  0  0  0
    5.2850    7.6601   23.3409 C   0  0  0  0  0  0  0  0  0  0  0  0
    9.8972    9.6171   23.0863 N   0  0  0  0  0  0  0  0  0  0  0  0
   10.9448    6.6678   22.3817 N   0  0  0  0  0  0  0  0  0  0  0  0
   11.8623    8.7610   23.9983 C   0  0  0  0  0  0  0  0  0  0  0  0
    7.0279    8.5160   24.7393 C   0  0  0  0  0  0  0  0  0  0  0  0
    8.1459    4.8942   22.9077 C   0  0  0  0  0  0  0  0  0  0  0  0
    8.7472   10.7516   24.6786 O   0  0  0  0  0  0  0  0  0  0  0  0
    9.0813    3.9025   22.4841 C   0  0  0  0  0  0  0  0  0  0  0  0
  1  5  1  0
  1 15  4  0
  1 22  4  0
  2 20  1  0
  2 24  1  0
  3  6  4  0
  3 27  4  0
  4 22  4  0
  4 26  4  0
  6  7  4  0
  6 13  1  0
  7 19  4  0
  8 18  1  0
  8 23  1  0
  8 28  2  0
  9 17  1  0
  9 24  1  0
 10 11  1  0
 10 24  1  0
 11 23  1  0
 12 14  4  0
 12 16  4  0
 14 19  4  0
 15 18  4  0
 16 20  4  0
 17 25  1  0
 18 26  4  0
 19 29  4  0
 20 29  4  0
 21 23  1  0
 21 25  1  0
 27 29  4  0
M  END
$$$$

 Created by Python create_sdf_string function

 29 42  0  0  0  0  0  0  0  0999 V2000
    5.7867    8.4617   22.0949 C   0  0  0  0  0  0  0  0  0  0  0  0
   10.4634    5.5301   21.7368 C   0  0  0  0  0  0  0  0  0  0  0  0
    6.6257    4.5046   23.3551 N   0  0  0  0  0  0  0  0  0  0  0  0
    6.2434    7.9415   24.5350 C   0  0  0  0  0  0  0  0  0  0  0  0
    4.9254    8.2059   20.7300 C   0  0  0  0  0  0  0  0  0  0  0  0
    6.5691    3.4942   23.4032 C   0  0  0  0  0  0  0  0  0  0  0  0
    7.4905    2.0944   23.2689 N   0  0  0  0  0  0  0  0  0  0  0  0
    8.3775   10.1471   23.6345 C   0  0  0  0  0  0  0  0  0  0  0  0
   12.4379    6.5887   22.3406 S   0  0  0  0  0  0  0  0  0  0  0  0
    9.8787    7.8559   21.7389 C   0  0  0  0  0  0  0  0  0  0  0  0
    9.9106    9.1809   21.9353 F   0  0  0  0  0  0  0  0  0  0  0  0
   11.3434    1.8266   21.6728 C   0  0  0  0  0  0  0  0  0  0  0  0
    5.2060    2.6933   23.5397 Cl  0  0  0  0  0  0  0  0  0  0  0  0
    6.9818    9.0207   22.2389 N   0  0  0  0  0  0  0  0  0  0  0  0
   12.5276    8.6988   22.8107 P   0  0  0  0  0  0  0  0  0  0  0  0
    7.7883    8.8898   23.6025 C   0  0  0  0  0  0  0  0  0  0  0  0
    8.5274    2.4844   22.2274 C   0  0  0  0  0  0  0  0  0  0  0  0
   10.8100    4.6436   22.2511 C   0  0  0  0  0  0  0  0  0  0  0  0
   11.1020    9.7578   23.6175 C   0  0  0  0  0  0  0  0  0  0  0  0
   10.7055    6.4829   22.4413 N   0  0  0  0  0  0  0  0  0  0  0  0
   11.8521    8.8219   23.7798 O   0  0  0  0  0  0  0  0  0  0  0  0
    7.2209    8.3199   25.3370 C   0  0  0  0  0  0  0  0  0  0  0  0
    8.3383    5.0980   22.7265 C   0  0  0  0  0  0  0  0  0  0  0  0
    8.8543    3.8991   22.9145 C   0  0  0  0  0  0  0  0  0  0  0  0
   10.1304    1.6175   22.0652 He  0  0  0  0  0  0  0  0  0  0  0  0
   11.2227    3.1907   21.9753 He  0  0  0  0  0  0  0  0  0  0  0  0
    5.4095    7.4491   23.1579 He  0  0  0  0  0  0  0  0  0  0  0  0
    9.7438    9.4029   23.5932 He  0  0  0  0  0  0  0  0  0  0  0  0
    9.0739   10.7481   24.6863 He  0  0  0  0  0  0  0  0  0  0  0  0
  1  5  1  0
  1  9  1  0
  1 14  4  0
  2 16  4  0
  2 18  1  0
  2 20  4  0
  3  6  4  0
  3 18  4  0
  3 23  4  0
  4 11  3  0
  4 21  3  0
  4 22  4  0
  5  6  1  0
  5 10  2  0
  6  7  4  0
  6 13  1  0
  6 14  4  0
  6 22  2  0
  7 10  2  0
  7 14  1  0
  8 10  1  0
  8 16  1  0
  8 22  3  0
  9 15  1  0
  9 20  2  0
 10 11  1  0
 10 15  3  0
 10 16  2  0
 10 19  1  0
 10 20  1  0
 10 22  4  0
 10 23  1  0
 11 13  1  0
 13 14  3  0
 14 16  4  0
 15 21  1  0
 16 22  3  0
 17 23  1  0
 18 24  4  0
 19 21  1  0
 20 21  2  0
 23 24  4  0
M  END
$$$$

 Created by Python create_sdf_string function

 29 32  0  0  0  0  0  0  0  0999 V2000
    5.8036    8.2755   22.2610 C   0  0  0  0  0  0  0  0  0  0  0  0
   10.5423    5.6156   21.7102 C   0  0  0  0  0  0  0  0  0  0  0  0
    6.8973    4.4559   23.2743 N   0  0  0  0  0  0  0  0  0  0  0  0
    5.9208    7.6935   24.5811 C   0  0  0  0  0  0  0  0  0  0  0  0
    5.1308    8.2335   20.9686 C   0  0  0  0  0  0  0  0  0  0  0  0
    6.6361    3.1540   23.2680 C   0  0  0  0  0  0  0  0  0  0  0  0
    7.5742    2.2254   22.9785 N   0  0  0  0  0  0  0  0  0  0  0  0
    8.7132    9.9456   23.8313 C   0  0  0  0  0  0  0  0  0  0  0  0
   12.2864    6.9078   22.4373 C   0  0  0  0  0  0  0  0  0  0  0  0
   10.0495    7.7831   21.6293 C   0  0  0  0  0  0  0  0  0  0  0  0
    9.9667    9.0036   21.8423 C   0  0  0  0  0  0  0  0  0  0  0  0
   11.0656    2.0163   21.8432 C   0  0  0  0  0  0  0  0  0  0  0  0
    5.2284    2.7040   23.6590 Cl  0  0  0  0  0  0  0  0  0  0  0  0
    9.8119    1.6233   22.2206 N   0  0  0  0  0  0  0  0  0  0  0  0
    6.9564    9.0455   22.4270 N   0  0  0  0  0  0  0  0  0  0  0  0
   11.3269    3.4020   21.8584 N   0  0  0  0  0  0  0  0  0  0  0  0
   12.6210    8.2951   22.5982 C   0  0  0  0  0  0  0  0  0  0  0  0
    7.5391    9.1651   23.6444 C   0  0  0  0  0  0  0  0  0  0  0  0
    8.8346    2.5727   22.5754 C   0  0  0  0  0  0  0  0  0  0  0  0
   10.3701    4.2981   22.0579 C   0  0  0  0  0  0  0  0  0  0  0  0
   11.1281    9.8482   23.7565 C   0  0  0  0  0  0  0  0  0  0  0  0
    5.2862    7.5943   23.3573 C   0  0  0  0  0  0  0  0  0  0  0  0
    9.8450    9.5783   23.1561 N   0  0  0  0  0  0  0  0  0  0  0  0
   10.8592    6.7734   22.1844 N   0  0  0  0  0  0  0  0  0  0  0  0
   11.9116    8.7444   23.8164 C   0  0  0  0  0  0  0  0  0  0  0  0
    7.0710    8.4844   24.7274 C   0  0  0  0  0  0  0  0  0  0  0  0
    8.1369    4.8838   22.9019 C   0  0  0  0  0  0  0  0  0  0  0  0
    8.7746   10.8193   24.7072 O   0  0  0  0  0  0  0  0  0  0  0  0
    9.1083    3.9139   22.5220 C   0  0  0  0  0  0  0  0  0  0  0  0
  1  5  1  0
  1 15  4  0
  1 22  4  0
  2 20  1  0
  2 24  1  0
  3  6  4  0
  3 27  4  0
  4 22  4  0
  4 26  4  0
  6  7  4  0
  6 13  1  0
  7 19  4  0
  8 18  1  0
  8 23  1  0
  8 28  2  0
  9 17  1  0
  9 24  1  0
 10 11  1  0
 10 24  1  0
 11 23  1  0
 12 14  4  0
 12 16  4  0
 14 19  4  0
 15 18  4  0
 16 20  4  0
 17 25  1  0
 18 26  4  0
 19 29  4  0
 20 29  4  0
 21 23  1  0
 21 25  1  0
 27 29  4  0
M  END
$$$$

 Created by Python create_sdf_string function

 29 59  0  0  0  0  0  0  0  0999 V2000
    5.9481    8.4353   22.2725 C   0  0  0  0  0  0  0  0  0  0  0  0
   10.7268    5.3796   21.6804 C   0  0  0  0  0  0  0  0  0  0  0  0
    6.8642    4.6131   23.3631 N   0  0  0  0  0  0  0  0  0  0  0  0
    4.9918    8.8207   20.8481 C   0  0  0  0  0  0  0  0  0  0  0  0
    6.5037    3.0032   23.0358 O   0  0  0  0  0  0  0  0  0  0  0  0
    7.9878    1.9741   22.6469 N   0  0  0  0  0  0  0  0  0  0  0  0
    8.5720    9.9513   23.9853 C   0  0  0  0  0  0  0  0  0  0  0  0
   12.3957    7.2774   22.6728 C   0  0  0  0  0  0  0  0  0  0  0  0
    9.8788    7.7223   21.4474 I   0  0  0  0  0  0  0  0  0  0  0  0
   10.2102    8.4393   21.8896 C   0  0  0  0  0  0  0  0  0  0  0  0
   11.1058    1.8702   22.1981 C   0  0  0  0  0  0  0  0  0  0  0  0
    5.3425    2.8426   23.4650 Cl  0  0  0  0  0  0  0  0  0  0  0  0
    9.6334    1.4772   22.2446 N   0  0  0  0  0  0  0  0  0  0  0  0
    7.1381    8.8443   22.4406 N   0  0  0  0  0  0  0  0  0  0  0  0
   11.5623    3.2548   21.5722 N   0  0  0  0  0  0  0  0  0  0  0  0
   12.7280    8.4203   22.3875 C   0  0  0  0  0  0  0  0  0  0  0  0
    7.4714    9.1348   23.6879 C   0  0  0  0  0  0  0  0  0  0  0  0
    8.8984    2.7426   22.7065 C   0  0  0  0  0  0  0  0  0  0  0  0
   11.3728    9.9593   24.2288 O   0  0  0  0  0  0  0  0  0  0  0  0
    5.5356    7.7166   23.3440 C   0  0  0  0  0  0  0  0  0  0  0  0
   10.0862    9.7681   23.0927 N   0  0  0  0  0  0  0  0  0  0  0  0
   10.9153    6.9719   22.3213 N   0  0  0  0  0  0  0  0  0  0  0  0
   11.6819    8.5437   23.7138 C   0  0  0  0  0  0  0  0  0  0  0  0
    6.6870    8.7251   24.4517 C   0  0  0  0  0  0  0  0  0  0  0  0
    8.0048    5.0889   23.4343 C   0  0  0  0  0  0  0  0  0  0  0  0
    8.9320   11.2308   24.7625 O   0  0  0  0  0  0  0  0  0  0  0  0
    9.0267    3.9496   22.4647 C   0  0  0  0  0  0  0  0  0  0  0  0
    6.3493    7.7101   24.5770 He  0  0  0  0  0  0  0  0  0  0  0  0
   10.5083    4.4177   21.8962 He  0  0  0  0  0  0  0  0  0  0  0  0
  1  4  1  0
  1 20  4  0
  2  8  4  0
  2 19  4  0
  2 22  1  0
  2 23  4  0
  3 25  4  0
  3 26  2  0
  4 11  3  0
  4 23  1  0
  4 26  2  0
  5  6  4  0
  5 12  1  0
  5 19  4  0
  5 21  2  0
  5 22  4  0
  6 15  2  0
  6 18  4  0
  6 19  1  0
  6 21  4  0
  7 17  1  0
  7 19  3  0
  7 20  1  0
  7 21  1  0
  7 26  2  0
  8 13  2  0
  8 22  1  0
  9 10  1  0
  9 13  3  0
  9 18  3  0
  9 22  1  0
 10 19  3  0
 10 21  1  0
 10 23  3  0
 10 25  4  0
 10 26  2  0
 11 13  2  0
 11 15  4  0
 11 21  4  0
 12 15  1  0
 12 17  2  0
 12 26  3  0
 13 18  4  0
 14 15  1  0
 14 17  4  0
 14 23  1  0
 14 25  2  0
 15 22  3  0
 15 24  1  0
 16 27  1  0
 17 24  1  0
 17 25  4  0
 18 19  1  0
 18 27  4  0
 19 23  1  0
 20 23  4  0
 21 22  1  0
 22 26  2  0
 25 27  3  0
M  END
$$$$

 Created by Python create_sdf_string function

 29 32  0  0  0  0  0  0  0  0999 V2000
    5.9225    8.4491   22.2607 C   0  0  0  0  0  0  0  0  0  0  0  0
   10.7516    5.5035   21.4094 C   0  0  0  0  0  0  0  0  0  0  0  0
    6.9916    4.4570   23.3359 N   0  0  0  0  0  0  0  0  0  0  0  0
    5.9293    7.8070   24.5866 C   0  0  0  0  0  0  0  0  0  0  0  0
    5.1804    8.5617   21.0226 C   0  0  0  0  0  0  0  0  0  0  0  0
    6.6813    3.1385   23.1737 C   0  0  0  0  0  0  0  0  0  0  0  0
    7.6026    2.2276   22.8234 N   0  0  0  0  0  0  0  0  0  0  0  0
    8.7693   10.0450   23.8559 C   0  0  0  0  0  0  0  0  0  0  0  0
   12.2904    6.9583   22.4833 C   0  0  0  0  0  0  0  0  0  0  0  0
   10.1440    7.7193   21.7391 C   0  0  0  0  0  0  0  0  0  0  0  0
   10.2603    8.9647   22.0344 C   0  0  0  0  0  0  0  0  0  0  0  0
   11.0565    2.0045   21.9210 C   0  0  0  0  0  0  0  0  0  0  0  0
    5.2720    2.6868   23.4118 Cl  0  0  0  0  0  0  0  0  0  0  0  0
    9.8639    1.6286   22.3234 N   0  0  0  0  0  0  0  0  0  0  0  0
    7.0526    9.1918   22.4347 N   0  0  0  0  0  0  0  0  0  0  0  0
   11.3841    3.2922   21.7710 N   0  0  0  0  0  0  0  0  0  0  0  0
   12.6622    8.3611   22.5953 C   0  0  0  0  0  0  0  0  0  0  0  0
    7.5959    9.2600   23.6372 C   0  0  0  0  0  0  0  0  0  0  0  0
    8.8901    2.6006   22.5511 C   0  0  0  0  0  0  0  0  0  0  0  0
   10.4818    4.2284   21.9778 C   0  0  0  0  0  0  0  0  0  0  0  0
   11.3034    9.8530   24.0629 C   0  0  0  0  0  0  0  0  0  0  0  0
    5.4280    7.6774   23.2832 C   0  0  0  0  0  0  0  0  0  0  0  0
    9.8960    9.7181   23.1311 N   0  0  0  0  0  0  0  0  0  0  0  0
   10.9835    6.6506   22.1585 N   0  0  0  0  0  0  0  0  0  0  0  0
   11.8641    8.8700   23.7738 C   0  0  0  0  0  0  0  0  0  0  0  0
    7.0458    8.5843   24.7494 C   0  0  0  0  0  0  0  0  0  0  0  0
    8.2538    4.8861   23.0039 C   0  0  0  0  0  0  0  0  0  0  0  0
    8.7825   10.9721   24.6575 O   0  0  0  0  0  0  0  0  0  0  0  0
    9.1573    3.9138   22.5421 C   0  0  0  0  0  0  0  0  0  0  0  0
  1  5  1  0
  1 15  4  0
  1 22  4  0
  2 20  1  0
  2 24  1  0
  3  6  4  0
  3 27  4  0
  4 22  4  0
  4 26  4  0
  6  7  4  0
  6 13  1  0
  7 19  4  0
  8 18  1  0
  8 23  1  0
  8 28  2  0
  9 17  1  0
  9 24  1  0
 10 11  1  0
 10 24  1  0
 11 23  1  0
 12 14  4  0
 12 16  4  0
 14 19  4  0
 15 18  4  0
 16 20  4  0
 17 25  1  0
 18 26  4  0
 19 29  4  0
 20 29  4  0
 21 23  1  0
 21 25  1  0
 27 29  4  0
M  END
$$$$

 Created by Python create_sdf_string function

 29 49  0  0  0  0  0  0  0  0999 V2000
    6.0945    8.4349   22.3690 C   0  0  0  0  0  0  0  0  0  0  0  0
   10.6156    5.2972   21.2276 C   0  0  0  0  0  0  0  0  0  0  0  0
    7.1233    4.3507   23.0915 N   0  0  0  0  0  0  0  0  0  0  0  0
    5.3294    8.6067   21.0173 C   0  0  0  0  0  0  0  0  0  0  0  0
    6.7427    3.2569   23.2626 C   0  0  0  0  0  0  0  0  0  0  0  0
    7.7268    1.8147   22.9009 N   0  0  0  0  0  0  0  0  0  0  0  0
    8.6341   10.5067   23.6068 C   0  0  0  0  0  0  0  0  0  0  0  0
   12.0783    7.2797   22.6191 C   0  0  0  0  0  0  0  0  0  0  0  0
   10.3266    7.8418   21.8248 C   0  0  0  0  0  0  0  0  0  0  0  0
   10.2858    8.7178   22.1029 C   0  0  0  0  0  0  0  0  0  0  0  0
   11.3203    1.6112   22.0040 Cl  0  0  0  0  0  0  0  0  0  0  0  0
    5.2971    2.3792   23.2413 Cl  0  0  0  0  0  0  0  0  0  0  0  0
   10.1744    1.9366   22.0275 N   0  0  0  0  0  0  0  0  0  0  0  0
   11.3276    3.1681   21.7974 N   0  0  0  0  0  0  0  0  0  0  0  0
   12.5891    8.2003   22.7199 Cl  0  0  0  0  0  0  0  0  0  0  0  0
    7.7348    9.0931   23.7123 C   0  0  0  0  0  0  0  0  0  0  0  0
    8.7665    2.4374   22.2989 C   0  0  0  0  0  0  0  0  0  0  0  0
   10.5127    4.1614   22.1159 C   0  0  0  0  0  0  0  0  0  0  0  0
   11.1410    9.9291   24.0718 C   0  0  0  0  0  0  0  0  0  0  0  0
    5.0776    7.5359   23.1232 C   0  0  0  0  0  0  0  0  0  0  0  0
   10.2940    9.6505   23.0547 Se  0  0  0  0  0  0  0  0  0  0  0  0
   10.9344    6.8821   22.5911 N   0  0  0  0  0  0  0  0  0  0  0  0
   11.6544    8.8179   23.7926 C   0  0  0  0  0  0  0  0  0  0  0  0
    7.3356    8.9088   24.6766 C   0  0  0  0  0  0  0  0  0  0  0  0
    8.3061    4.7990   22.9204 C   0  0  0  0  0  0  0  0  0  0  0  0
    8.6930   11.5696   24.8050 O   0  0  0  0  0  0  0  0  0  0  0  0
    9.2959    4.1679   22.5571 C   0  0  0  0  0  0  0  0  0  0  0  0
    5.7259    7.5398   24.1265 He  0  0  0  0  0  0  0  0  0  0  0  0
    7.0581    9.4938   22.2472 He  0  0  0  0  0  0  0  0  0  0  0  0
  1  4  1  0
  1 11  3  0
  1 20  4  0
  1 21  1  0
  1 27  2  0
  2 18  1  0
  2 22  1  0
  2 26  1  0
  3 25  4  0
  4  8  1  0
  5  6  4  0
  5 10  4  0
  5 12  1  0
  6  9  2  0
  6 17  4  0
  7 12  2  0
  7 16  1  0
  7 18  3  0
  7 21  1  0
  7 26  2  0
  8 15  1  0
  8 22  1  0
  8 26  3  0
  9 10  1  0
  9 15  1  0
  9 22  1  0
 10 21  1  0
 11 13  4  0
 11 14  4  0
 11 22  1  0
 11 25  3  0
 12 20  3  0
 13 16  3  0
 13 17  4  0
 13 22  4  0
 14 18  4  0
 16 18  1  0
 16 20  4  0
 16 21  2  0
 16 24  4  0
 17 18  1  0
 17 26  3  0
 17 27  4  0
 19 21  1  0
 19 23  1  0
 21 22  1  0
 23 24  4  0
 25 27  4  0
 26 27  2  0
M  END
$$$$

 Created by Python create_sdf_string function

 29 32  0  0  0  0  0  0  0  0999 V2000
    5.8590    8.4995   22.1518 C   0  0  0  0  0  0  0  0  0  0  0  0
   10.8171    5.5059   21.3298 C   0  0  0  0  0  0  0  0  0  0  0  0
    7.0627    4.3215   23.1873 N   0  0  0  0  0  0  0  0  0  0  0  0
    6.0166    7.8249   24.4508 C   0  0  0  0  0  0  0  0  0  0  0  0
    5.2210    8.5143   20.8879 C   0  0  0  0  0  0  0  0  0  0  0  0
    6.8023    2.9939   23.1006 C   0  0  0  0  0  0  0  0  0  0  0  0
    7.7577    2.1160   22.8177 N   0  0  0  0  0  0  0  0  0  0  0  0
    8.7458   10.2623   23.8006 C   0  0  0  0  0  0  0  0  0  0  0  0
   12.2788    6.9679   22.5393 C   0  0  0  0  0  0  0  0  0  0  0  0
   10.1952    7.7408   21.8043 C   0  0  0  0  0  0  0  0  0  0  0  0
   10.1494    9.0380   21.9549 C   0  0  0  0  0  0  0  0  0  0  0  0
   11.1722    1.9471   21.8666 C   0  0  0  0  0  0  0  0  0  0  0  0
    5.3274    2.4711   23.3966 Cl  0  0  0  0  0  0  0  0  0  0  0  0
    9.9659    1.5868   22.2270 N   0  0  0  0  0  0  0  0  0  0  0  0
    6.9606    9.3428   22.3887 C   0  0  0  0  0  0  0  0  0  0  0  0
   11.4768    3.2253   21.7709 N   0  0  0  0  0  0  0  0  0  0  0  0
   12.5625    8.3003   22.7463 C   0  0  0  0  0  0  0  0  0  0  0  0
    7.5850    9.4234   23.5886 C   0  0  0  0  0  0  0  0  0  0  0  0
    8.9887    2.5492   22.4851 C   0  0  0  0  0  0  0  0  0  0  0  0
   10.5448    4.1701   21.9097 C   0  0  0  0  0  0  0  0  0  0  0  0
   11.1345    9.9813   23.9725 C   0  0  0  0  0  0  0  0  0  0  0  0
    5.4031    7.7031   23.2016 C   0  0  0  0  0  0  0  0  0  0  0  0
    9.9586    9.8011   23.1240 N   0  0  0  0  0  0  0  0  0  0  0  0
   10.8731    6.6127   22.2611 N   0  0  0  0  0  0  0  0  0  0  0  0
   11.9238    8.7528   23.9933 C   0  0  0  0  0  0  0  0  0  0  0  0
    7.1069    8.6612   24.6266 C   0  0  0  0  0  0  0  0  0  0  0  0
    8.2886    4.8044   22.8258 C   0  0  0  0  0  0  0  0  0  0  0  0
    8.7261   11.2316   24.5590 O   0  0  0  0  0  0  0  0  0  0  0  0
    9.2343    3.8455   22.4355 C   0  0  0  0  0  0  0  0  0  0  0  0
  1  5  1  0
  1 15  4  0
  1 22  4  0
  2 20  1  0
  2 24  1  0
  3  6  4  0
  3 27  4  0
  4 22  4  0
  4 26  4  0
  6  7  4  0
  6 13  1  0
  7 19  4  0
  8 18  1  0
  8 23  1  0
  8 28  2  0
  9 17  1  0
  9 24  1  0
 10 11  1  0
 10 24  1  0
 11 23  1  0
 12 14  4  0
 12 16  4  0
 14 19  4  0
 15 18  4  0
 16 20  4  0
 17 25  1  0
 18 26  4  0
 19 29  4  0
 20 29  4  0
 21 23  1  0
 21 25  1  0
 27 29  4  0
M  END
$$$$

 Created by Python create_sdf_string function

 29 47  0  0  0  0  0  0  0  0999 V2000
    5.8593    8.4884   21.7506 C   0  0  0  0  0  0  0  0  0  0  0  0
   10.8446    5.5168   21.2704 C   0  0  0  0  0  0  0  0  0  0  0  0
    7.4428    3.8877   23.3965 N   0  0  0  0  0  0  0  0  0  0  0  0
    5.5685    7.6052   24.3860 C   0  0  0  0  0  0  0  0  0  0  0  0
    6.6102    2.9273   23.0792 C   0  0  0  0  0  0  0  0  0  0  0  0
    7.5808    2.2296   22.8444 N   0  0  0  0  0  0  0  0  0  0  0  0
    8.8748   10.2010   23.4434 C   0  0  0  0  0  0  0  0  0  0  0  0
   12.2128    6.7634   22.3019 C   0  0  0  0  0  0  0  0  0  0  0  0
   10.2468    7.9966   21.8654 F   0  0  0  0  0  0  0  0  0  0  0  0
   10.2678    9.2607   21.8556 C   0  0  0  0  0  0  0  0  0  0  0  0
   10.9331    1.8381   21.6728 C   0  0  0  0  0  0  0  0  0  0  0  0
    5.2070    2.6633   23.3557 F   0  0  0  0  0  0  0  0  0  0  0  0
    6.7982    9.3787   22.5310 C   0  0  0  0  0  0  0  0  0  0  0  0
   11.4052    3.3374   21.7006 N   0  0  0  0  0  0  0  0  0  0  0  0
   12.4066    8.3982   22.6838 C   0  0  0  0  0  0  0  0  0  0  0  0
    7.6710    9.3760   23.7327 C   0  0  0  0  0  0  0  0  0  0  0  0
    8.8805    2.8560   22.6471 C   0  0  0  0  0  0  0  0  0  0  0  0
   10.5870    4.2236   21.9718 C   0  0  0  0  0  0  0  0  0  0  0  0
   10.9405    9.8226   24.0519 S   0  0  0  0  0  0  0  0  0  0  0  0
    5.4169    7.8120   23.2621 C   0  0  0  0  0  0  0  0  0  0  0  0
    9.7118    9.6937   23.0362 N   0  0  0  0  0  0  0  0  0  0  0  0
   10.9321    6.6340   22.4846 C   0  0  0  0  0  0  0  0  0  0  0  0
   11.6885    8.4363   24.2187 C   0  0  0  0  0  0  0  0  0  0  0  0
    7.3096    8.5455   24.8334 C   0  0  0  0  0  0  0  0  0  0  0  0
    8.4610    4.5428   22.6589 C   0  0  0  0  0  0  0  0  0  0  0  0
    8.6242   11.3757   24.5433 O   0  0  0  0  0  0  0  0  0  0  0  0
    9.2401    4.2341   22.4453 S   0  0  0  0  0  0  0  0  0  0  0  0
    5.2319    8.6462   20.8945 He  0  0  0  0  0  0  0  0  0  0  0  0
    9.6277    1.9800   22.3243 He  0  0  0  0  0  0  0  0  0  0  0  0
  1 10  4  0
  1 13  4  0
  1 24  2  0
  2  6  1  0
  2 18  1  0
  2 22  1  0
  2 26  4  0
  3  5  4  0
  3 17  2  0
  3 25  4  0
  4  8  1  0
  4 20  4  0
  4 24  4  0
  5  6  4  0
  5  7  2  0
  5 12  1  0
  5 15  4  0
  6 17  4  0
  6 18  1  0
  7 16  1  0
  7 26  2  0
  8 15  1  0
  8 22  1  0
  9 10  1  0
  9 15  1  0
  9 22  1  0
 10 17  3  0
 10 21  1  0
 11 14  4  0
 11 15  2  0
 12 23  1  0
 13 16  4  0
 14 15  2  0
 14 18  4  0
 15 24  3  0
 16 24  4  0
 17 21  1  0
 17 23  1  0
 17 26  4  0
 17 27  4  0
 18 19  1  0
 18 27  4  0
 19 21  3  0
 19 22  1  0
 20 26  3  0
 25 26  1  0
 25 27  4  0
M  END
$$$$

 Created by Python create_sdf_string function

 29 32  0  0  0  0  0  0  0  0999 V2000
    5.7744    8.5350   22.1312 C   0  0  0  0  0  0  0  0  0  0  0  0
   10.7515    5.5233   21.2722 C   0  0  0  0  0  0  0  0  0  0  0  0
    7.0250    4.3686   23.2274 N   0  0  0  0  0  0  0  0  0  0  0  0
    5.9343    7.7570   24.4087 C   0  0  0  0  0  0  0  0  0  0  0  0
    5.1681    8.5492   20.8900 C   0  0  0  0  0  0  0  0  0  0  0  0
    6.7265    3.0501   23.1698 C   0  0  0  0  0  0  0  0  0  0  0  0
    7.6771    2.1813   22.8649 N   0  0  0  0  0  0  0  0  0  0  0  0
    8.6784   10.2235   23.7481 C   0  0  0  0  0  0  0  0  0  0  0  0
   12.3254    6.8890   22.4357 C   0  0  0  0  0  0  0  0  0  0  0  0
   10.3003    7.8655   21.8394 C   0  0  0  0  0  0  0  0  0  0  0  0
   10.1435    9.1669   21.9032 C   0  0  0  0  0  0  0  0  0  0  0  0
   11.0351    1.9562   21.7620 C   0  0  0  0  0  0  0  0  0  0  0  0
    5.4170    2.6266   23.4281 N   0  0  0  0  0  0  0  0  0  0  0  0
    9.8317    1.5689   22.1979 N   0  0  0  0  0  0  0  0  0  0  0  0
    6.9072    9.3545   22.3632 C   0  0  0  0  0  0  0  0  0  0  0  0
   11.3674    3.2329   21.5847 N   0  0  0  0  0  0  0  0  0  0  0  0
   12.3703    8.2470   22.6929 C   0  0  0  0  0  0  0  0  0  0  0  0
    7.4984    9.3845   23.5684 C   0  0  0  0  0  0  0  0  0  0  0  0
    8.8902    2.5465   22.4772 C   0  0  0  0  0  0  0  0  0  0  0  0
   10.4848    4.1887   21.8078 C   0  0  0  0  0  0  0  0  0  0  0  0
   11.0310    9.8026   24.0951 C   0  0  0  0  0  0  0  0  0  0  0  0
    5.3177    7.7374   23.1664 C   0  0  0  0  0  0  0  0  0  0  0  0
    9.8856    9.7847   23.1630 N   0  0  0  0  0  0  0  0  0  0  0  0
   10.8861    6.5913   22.2754 N   0  0  0  0  0  0  0  0  0  0  0  0
   11.7198    8.5657   24.0092 C   0  0  0  0  0  0  0  0  0  0  0  0
    7.0286    8.6188   24.6269 C   0  0  0  0  0  0  0  0  0  0  0  0
    8.2464    4.7969   22.8850 C   0  0  0  0  0  0  0  0  0  0  0  0
    8.5582   11.2320   24.4497 O   0  0  0  0  0  0  0  0  0  0  0  0
    9.1997    3.8616   22.4198 C   0  0  0  0  0  0  0  0  0  0  0  0
  1  5  1  0
  1 15  4  0
  1 22  4  0
  2 20  1  0
  2 24  1  0
  3  6  4  0
  3 27  4  0
  4 22  4  0
  4 26  4  0
  6  7  4  0
  6 13  1  0
  7 19  4  0
  8 18  1  0
  8 23  1  0
  8 28  2  0
  9 17  1  0
  9 24  1  0
 10 11  1  0
 10 24  1  0
 11 23  1  0
 12 14  4  0
 12 16  4  0
 14 19  4  0
 15 18  4  0
 16 20  4  0
 17 25  1  0
 18 26  4  0
 19 29  4  0
 20 29  4  0
 21 23  1  0
 21 25  1  0
 27 29  4  0
M  END
$$$$

 Created by Python create_sdf_string function

 29 50  0  0  0  0  0  0  0  0999 V2000
    5.3820    8.7028   22.2396 C   0  0  0  0  0  0  0  0  0  0  0  0
   10.7186    5.3991   21.3818 C   0  0  0  0  0  0  0  0  0  0  0  0
    6.9654    4.2557   23.6101 N   0  0  0  0  0  0  0  0  0  0  0  0
    5.9878    7.6556   24.3103 C   0  0  0  0  0  0  0  0  0  0  0  0
    4.9934    8.6254   20.4978 C   0  0  0  0  0  0  0  0  0  0  0  0
    6.8361    3.3829   23.1013 C   0  0  0  0  0  0  0  0  0  0  0  0
    7.6367    2.3484   22.6342 N   0  0  0  0  0  0  0  0  0  0  0  0
    8.5431   10.2035   23.6726 C   0  0  0  0  0  0  0  0  0  0  0  0
   12.3049    7.3715   22.4642 C   0  0  0  0  0  0  0  0  0  0  0  0
   10.4204    7.6272   22.0046 C   0  0  0  0  0  0  0  0  0  0  0  0
   10.0301    8.9924   22.1081 C   0  0  0  0  0  0  0  0  0  0  0  0
   10.9594    2.0989   21.9100 C   0  0  0  0  0  0  0  0  0  0  0  0
    5.4491    2.6787   23.6807 N   0  0  0  0  0  0  0  0  0  0  0  0
    9.6680    1.3226   22.2265 N   0  0  0  0  0  0  0  0  0  0  0  0
    6.7942    9.4382   22.2734 C   0  0  0  0  0  0  0  0  0  0  0  0
   11.5991    3.1445   21.6872 N   0  0  0  0  0  0  0  0  0  0  0  0
   12.3504    7.9965   22.4078 C   0  0  0  0  0  0  0  0  0  0  0  0
    9.0121    2.8035   22.5537 C   0  0  0  0  0  0  0  0  0  0  0  0
   10.7391    9.9839   24.2131 C   0  0  0  0  0  0  0  0  0  0  0  0
    5.0021    7.7876   23.2516 C   0  0  0  0  0  0  0  0  0  0  0  0
    9.9006    9.7379   22.9512 N   0  0  0  0  0  0  0  0  0  0  0  0
   11.1456    6.6870   22.3447 P   0  0  0  0  0  0  0  0  0  0  0  0
   11.9551    8.4452   23.5136 C   0  0  0  0  0  0  0  0  0  0  0  0
    7.2691    8.7644   24.5528 S   0  0  0  0  0  0  0  0  0  0  0  0
    8.1222    4.7251   22.8573 C   0  0  0  0  0  0  0  0  0  0  0  0
    8.8567   11.0591   24.2270 O   0  0  0  0  0  0  0  0  0  0  0  0
    9.8651    3.5698   22.4486 C   0  0  0  0  0  0  0  0  0  0  0  0
    7.1750    9.3357   23.6816 He  0  0  0  0  0  0  0  0  0  0  0  0
   10.6911    4.4397   21.4710 He  0  0  0  0  0  0  0  0  0  0  0  0
  1  5  1  0
  1 15  4  0
  1 19  1  0
  1 20  1  0
  2 22  3  0
  2 26  2  0
  3 18  3  0
  3 25  4  0
  4 14  1  0
  4 20  4  0
  4 24  4  0
  5 16  4  0
  6  7  4  0
  6 15  1  0
  6 17  3  0
  7 11  4  0
  7 18  4  0
  7 20  4  0
  7 24  2  0
  8 21  1  0
  8 23  2  0
  8 26  2  0
  9 17  1  0
  9 22  1  0
 10 11  1  0
 10 20  3  0
 10 22  1  0
 10 24  2  0
 11 18  1  0
 11 20  3  0
 12 14  4  0
 12 16  4  0
 12 20  2  0
 12 25  2  0
 13 26  3  0
 14 18  4  0
 14 22  1  0
 16 23  2  0
 17 23  1  0
 17 24  4  0
 18 27  4  0
 19 21  1  0
 19 23  1  0
 20 22  2  0
 20 23  3  0
 20 26  1  0
 23 24  1  0
 23 27  1  0
 25 27  4  0
 26 27  1  0
M  END
$$$$

 Created by Python create_sdf_string function

 29 32  0  0  0  0  0  0  0  0999 V2000
    5.5669    8.6002   22.1285 C   0  0  0  0  0  0  0  0  0  0  0  0
   10.9109    5.4578   21.3115 C   0  0  0  0  0  0  0  0  0  0  0  0
    7.1884    4.4452   23.3289 N   0  0  0  0  0  0  0  0  0  0  0  0
    5.8625    7.7245   24.3474 C   0  0  0  0  0  0  0  0  0  0  0  0
    4.9015    8.6508   20.8416 C   0  0  0  0  0  0  0  0  0  0  0  0
    6.8251    3.1290   23.2342 C   0  0  0  0  0  0  0  0  0  0  0  0
    7.6964    2.2162   22.8172 N   0  0  0  0  0  0  0  0  0  0  0  0
    8.6065   10.1829   23.6846 C   0  0  0  0  0  0  0  0  0  0  0  0
   12.3925    6.9825   22.3434 C   0  0  0  0  0  0  0  0  0  0  0  0
   10.1022    7.5915   21.9133 C   0  0  0  0  0  0  0  0  0  0  0  0
    9.9711    8.9103   21.9410 C   0  0  0  0  0  0  0  0  0  0  0  0
   11.0653    1.8625   21.7970 C   0  0  0  0  0  0  0  0  0  0  0  0
    5.5287    2.7219   23.5774 N   0  0  0  0  0  0  0  0  0  0  0  0
    9.8510    1.5472   22.1807 N   0  0  0  0  0  0  0  0  0  0  0  0
    6.6985    9.4637   22.3531 C   0  0  0  0  0  0  0  0  0  0  0  0
   11.4355    3.1302   21.5954 N   0  0  0  0  0  0  0  0  0  0  0  0
   12.6152    8.3507   22.5500 C   0  0  0  0  0  0  0  0  0  0  0  0
    7.3854    9.3933   23.5100 C   0  0  0  0  0  0  0  0  0  0  0  0
    8.9322    2.5490   22.4413 C   0  0  0  0  0  0  0  0  0  0  0  0
   10.5958    4.1269   21.8118 C   0  0  0  0  0  0  0  0  0  0  0  0
   11.0144    9.8114   23.9510 C   0  0  0  0  0  0  0  0  0  0  0  0
    5.1850    7.7295   23.1467 C   0  0  0  0  0  0  0  0  0  0  0  0
    9.7816    9.6267   23.1410 N   0  0  0  0  0  0  0  0  0  0  0  0
   10.9988    6.5719   22.1602 N   0  0  0  0  0  0  0  0  0  0  0  0
   11.9218    8.6973   23.8475 C   0  0  0  0  0  0  0  0  0  0  0  0
    7.0429    8.5535   24.5414 C   0  0  0  0  0  0  0  0  0  0  0  0
    8.4108    4.8512   22.9129 C   0  0  0  0  0  0  0  0  0  0  0  0
    8.6144   11.1917   24.3341 O   0  0  0  0  0  0  0  0  0  0  0  0
    9.2901    3.8547   22.4052 C   0  0  0  0  0  0  0  0  0  0  0  0
  1  5  1  0
  1 15  4  0
  1 22  4  0
  2 20  1  0
  2 24  1  0
  3  6  4  0
  3 27  4  0
  4 22  4  0
  4 26  4  0
  6  7  4  0
  6 13  1  0
  7 19  4  0
  8 18  1  0
  8 23  1  0
  8 28  2  0
  9 17  1  0
  9 24  1  0
 10 11  1  0
 10 24  1  0
 11 23  1  0
 12 14  4  0
 12 16  4  0
 14 19  4  0
 15 18  4  0
 16 20  4  0
 17 25  1  0
 18 26  4  0
 19 29  4  0
 20 29  4  0
 21 23  1  0
 21 25  1  0
 27 29  4  0
M  END
$$$$

 Created by Python create_sdf_string function

 29 35  0  0  0  0  0  0  0  0999 V2000
    5.5563    8.4746   21.8950 C   0  0  0  0  0  0  0  0  0  0  0  0
   10.9897    5.8194   21.2712 C   0  0  0  0  0  0  0  0  0  0  0  0
    5.7196    7.8124   24.2268 O   0  0  0  0  0  0  0  0  0  0  0  0
    5.0526    8.7400   20.8233 C   0  0  0  0  0  0  0  0  0  0  0  0
    7.0101    2.8773   23.2780 C   0  0  0  0  0  0  0  0  0  0  0  0
    7.5735    2.0996   22.9377 N   0  0  0  0  0  0  0  0  0  0  0  0
   12.3799    7.2137   22.3265 C   0  0  0  0  0  0  0  0  0  0  0  0
    9.9003    7.1414   21.8287 C   0  0  0  0  0  0  0  0  0  0  0  0
   10.0382    9.1578   21.9243 C   0  0  0  0  0  0  0  0  0  0  0  0
   11.1958    1.8715   21.8498 C   0  0  0  0  0  0  0  0  0  0  0  0
    5.5667    2.5006   23.1909 C   0  0  0  0  0  0  0  0  0  0  0  0
    6.5374    9.6533   22.4857 C   0  0  0  0  0  0  0  0  0  0  0  0
   11.2444    3.1810   21.4938 N   0  0  0  0  0  0  0  0  0  0  0  0
   12.7154    8.3886   22.6011 C   0  0  0  0  0  0  0  0  0  0  0  0
    7.2403    9.5206   23.4559 C   0  0  0  0  0  0  0  0  0  0  0  0
    9.0734    2.2408   22.6577 C   0  0  0  0  0  0  0  0  0  0  0  0
   10.5402    3.9142   21.4703 C   0  0  0  0  0  0  0  0  0  0  0  0
   10.9860    9.5623   24.0714 C   0  0  0  0  0  0  0  0  0  0  0  0
    9.3573    9.6027   23.3383 N   0  0  0  0  0  0  0  0  0  0  0  0
   11.3803    6.2158   21.9182 N   0  0  0  0  0  0  0  0  0  0  0  0
   12.2058    8.7065   23.7573 C   0  0  0  0  0  0  0  0  0  0  0  0
    7.4552    8.4817   24.6872 C   0  0  0  0  0  0  0  0  0  0  0  0
    8.5921    5.0901   22.8082 C   0  0  0  0  0  0  0  0  0  0  0  0
    8.6759   11.1200   24.4598 O   0  0  0  0  0  0  0  0  0  0  0  0
    8.9898    3.8635   22.6117 S   0  0  0  0  0  0  0  0  0  0  0  0
    7.2322    4.6926   23.4003 He  0  0  0  0  0  0  0  0  0  0  0  0
    8.7984   10.3969   23.5849 He  0  0  0  0  0  0  0  0  0  0  0  0
    9.7751    1.4738   21.6592 He  0  0  0  0  0  0  0  0  0  0  0  0
    5.3815    7.8378   22.9994 He  0  0  0  0  0  0  0  0  0  0  0  0
  1  4  1  0
  1 12  4  0
  2  5  3  0
  2 17  2  0
  2 20  1  0
  3 20  1  0
  4 21  3  0
  4 24  1  0
  5  6  4  0
  6 16  4  0
  7 13  2  0
  7 14  1  0
  7 15  1  0
  7 20  1  0
  8  9  1  0
  8 16  3  0
  8 20  4  0
  9 19  1  0
  9 20  3  0
 10 13  4  0
 10 21  4  0
 11 13  4  0
 11 20  1  0
 12 15  4  0
 12 21  3  0
 13 17  4  0
 13 23  1  0
 14 21  1  0
 15 18  1  0
 15 22  4  0
 16 24  2  0
 18 19  1  0
 19 23  1  0
 20 24  4  0
 23 25  4  0
M  END
$$$$

 Created by Python create_sdf_string function

 29 32  0  0  0  0  0  0  0  0999 V2000
    5.6094    8.6839   22.1165 C   0  0  0  0  0  0  0  0  0  0  0  0
   10.8939    5.4323   21.1150 C   0  0  0  0  0  0  0  0  0  0  0  0
    7.1993    4.4027   23.2981 C   0  0  0  0  0  0  0  0  0  0  0  0
    5.9146    7.7041   24.2828 C   0  0  0  0  0  0  0  0  0  0  0  0
    4.9728    8.7361   20.8428 C   0  0  0  0  0  0  0  0  0  0  0  0
    6.8680    3.0690   23.2038 C   0  0  0  0  0  0  0  0  0  0  0  0
    7.7799    2.1354   22.8849 N   0  0  0  0  0  0  0  0  0  0  0  0
    8.6625   10.1727   23.7390 C   0  0  0  0  0  0  0  0  0  0  0  0
   12.4293    6.9908   22.1995 C   0  0  0  0  0  0  0  0  0  0  0  0
   10.0856    7.5050   21.9499 C   0  0  0  0  0  0  0  0  0  0  0  0
   10.0366    8.7957   21.9444 C   0  0  0  0  0  0  0  0  0  0  0  0
   11.0932    1.8562   21.5779 C   0  0  0  0  0  0  0  0  0  0  0  0
    5.4749    2.6272   23.4506 C   0  0  0  0  0  0  0  0  0  0  0  0
    9.9244    1.4999   22.1062 N   0  0  0  0  0  0  0  0  0  0  0  0
    6.7237    9.5510   22.3794 C   0  0  0  0  0  0  0  0  0  0  0  0
   11.4113    3.1602   21.4083 N   0  0  0  0  0  0  0  0  0  0  0  0
   12.7273    8.3618   22.5324 C   0  0  0  0  0  0  0  0  0  0  0  0
    7.4180    9.4097   23.5252 C   0  0  0  0  0  0  0  0  0  0  0  0
    8.9891    2.4741   22.4138 C   0  0  0  0  0  0  0  0  0  0  0  0
   10.5622    4.0931   21.6722 C   0  0  0  0  0  0  0  0  0  0  0  0
   10.9805    9.6519   24.0862 C   0  0  0  0  0  0  0  0  0  0  0  0
    5.2560    7.7766   23.0746 C   0  0  0  0  0  0  0  0  0  0  0  0
    9.8381    9.5197   23.2062 N   0  0  0  0  0  0  0  0  0  0  0  0
   11.1407    6.5211   21.9765 N   0  0  0  0  0  0  0  0  0  0  0  0
   12.0534    8.6839   23.8800 C   0  0  0  0  0  0  0  0  0  0  0  0
    7.0421    8.5380   24.4900 C   0  0  0  0  0  0  0  0  0  0  0  0
    8.4276    4.8041   22.8477 C   0  0  0  0  0  0  0  0  0  0  0  0
    8.6512   11.1778   24.3788 O   0  0  0  0  0  0  0  0  0  0  0  0
    9.2807    3.7971   22.3219 C   0  0  0  0  0  0  0  0  0  0  0  0
  1  5  1  0
  1 15  4  0
  1 22  4  0
  2 20  1  0
  2 24  1  0
  3  6  4  0
  3 27  4  0
  4 22  4  0
  4 26  4  0
  6  7  4  0
  6 13  1  0
  7 19  4  0
  8 18  1  0
  8 23  1  0
  8 28  2  0
  9 17  1  0
  9 24  1  0
 10 11  1  0
 10 24  1  0
 11 23  1  0
 12 14  4  0
 12 16  4  0
 14 19  4  0
 15 18  4  0
 16 20  4  0
 17 25  1  0
 18 26  4  0
 19 29  4  0
 20 29  4  0
 21 23  1  0
 21 25  1  0
 27 29  4  0
M  END
$$$$

 Created by Python create_sdf_string function

 29 61  0  0  0  0  0  0  0  0999 V2000
    5.4003    8.3323   22.0062 C   0  0  0  0  0  0  0  0  0  0  0  0
   10.6780    5.5526   21.1543 F   0  0  0  0  0  0  0  0  0  0  0  0
    7.4031    4.2324   23.2486 C   0  0  0  0  0  0  0  0  0  0  0  0
    5.9358    7.5929   24.2231 C   0  0  0  0  0  0  0  0  0  0  0  0
    4.7957    8.9340   20.8941 C   0  0  0  0  0  0  0  0  0  0  0  0
    6.9764    3.1852   22.9102 C   0  0  0  0  0  0  0  0  0  0  0  0
    7.8251    2.2508   22.5355 N   0  0  0  0  0  0  0  0  0  0  0  0
    8.7663   10.1286   23.4155 C   0  0  0  0  0  0  0  0  0  0  0  0
   12.3724    6.9679   22.1696 C   0  0  0  0  0  0  0  0  0  0  0  0
    9.9950    7.3399   21.9153 C   0  0  0  0  0  0  0  0  0  0  0  0
   10.0308    8.6679   22.2811 C   0  0  0  0  0  0  0  0  0  0  0  0
   11.0690    1.6423   21.6236 C   0  0  0  0  0  0  0  0  0  0  0  0
    5.1754    2.4047   23.3549 C   0  0  0  0  0  0  0  0  0  0  0  0
    9.8728    1.7617   22.1387 N   0  0  0  0  0  0  0  0  0  0  0  0
    6.6407    9.5096   22.5638 C   0  0  0  0  0  0  0  0  0  0  0  0
   11.4245    3.0972   21.4987 N   0  0  0  0  0  0  0  0  0  0  0  0
   12.4348    8.4702   22.7909 C   0  0  0  0  0  0  0  0  0  0  0  0
    7.2362    9.4219   23.5921 C   0  0  0  0  0  0  0  0  0  0  0  0
    9.0391    2.5236   22.7282 C   0  0  0  0  0  0  0  0  0  0  0  0
   10.6042    4.0130   21.5131 C   0  0  0  0  0  0  0  0  0  0  0  0
    5.3643    7.6952   23.1035 C   0  0  0  0  0  0  0  0  0  0  0  0
    9.8655    9.5255   23.4949 N   0  0  0  0  0  0  0  0  0  0  0  0
   11.2063    6.5092   21.9932 F   0  0  0  0  0  0  0  0  0  0  0  0
   12.1314    9.0447   24.1315 C   0  0  0  0  0  0  0  0  0  0  0  0
    7.4026    8.8214   24.5296 C   0  0  0  0  0  0  0  0  0  0  0  0
    8.6208    4.7841   22.9917 C   0  0  0  0  0  0  0  0  0  0  0  0
    8.8238   10.9011   24.1987 O   0  0  0  0  0  0  0  0  0  0  0  0
    9.3440    3.9723   22.1829 C   0  0  0  0  0  0  0  0  0  0  0  0
   11.1326    9.6447   24.1597 He  0  0  0  0  0  0  0  0  0  0  0  0
  1  5  1  0
  1 15  4  0
  1 16  1  0
  1 21  4  0
  1 24  4  0
  2  3  4  0
  2  5  3  0
  2 11  3  0
  2 12  2  0
  2 18  3  0
  2 20  1  0
  2 23  1  0
  3  6  4  0
  3  9  1  0
  3 26  4  0
  3 27  3  0
  4 13  4  0
  4 21  4  0
  4 25  4  0
  5 18  1  0
  6  7  4  0
  6 10  4  0
  6 13  4  0
  6 20  4  0
  6 28  3  0
  7  9  4  0
  7 19  3  0
  8 18  1  0
  8 19  4  0
  8 27  2  0
  9 17  1  0
  9 20  3  0
  9 23  2  0
  9 25  4  0
  9 27  1  0
 10 11  1  0
 10 23  4  0
 10 28  3  0
 11 22  1  0
 11 23  2  0
 12 14  4  0
 12 16  4  0
 12 18  4  0
 12 22  3  0
 13 17  3  0
 13 21  1  0
 14 19  4  0
 14 25  3  0
 15 18  4  0
 16 20  4  0
 16 24  4  0
 16 28  4  0
 17 24  1  0
 17 28  1  0
 18 25  4  0
 19 28  4  0
 20 28  4  0
 22 24  1  0
 22 28  2  0
 24 27  4  0
 26 28  4  0
M  END
$$$$

 Created by Python create_sdf_string function

 29 32  0  0  0  0  0  0  0  0999 V2000
    5.5431    8.6487   22.1657 C   0  0  0  0  0  0  0  0  0  0  0  0
   10.9829    5.3738   21.1376 C   0  0  0  0  0  0  0  0  0  0  0  0
    7.2186    4.3894   23.2181 C   0  0  0  0  0  0  0  0  0  0  0  0
    5.9759    7.6229   24.2903 C   0  0  0  0  0  0  0  0  0  0  0  0
    4.7739    8.7896   20.9654 C   0  0  0  0  0  0  0  0  0  0  0  0
    6.8695    3.0775   23.0835 C   0  0  0  0  0  0  0  0  0  0  0  0
    7.7840    2.1616   22.7238 N   0  0  0  0  0  0  0  0  0  0  0  0
    8.6950   10.0794   23.6825 C   0  0  0  0  0  0  0  0  0  0  0  0
   12.3533    7.0252   22.2505 C   0  0  0  0  0  0  0  0  0  0  0  0
    9.9996    7.4613   21.9289 C   0  0  0  0  0  0  0  0  0  0  0  0
   10.0853    8.8008   22.0976 C   0  0  0  0  0  0  0  0  0  0  0  0
   11.1114    1.8596   21.6140 C   0  0  0  0  0  0  0  0  0  0  0  0
    5.4482    2.6131   23.3081 C   0  0  0  0  0  0  0  0  0  0  0  0
    9.9358    1.5381   22.1185 N   0  0  0  0  0  0  0  0  0  0  0  0
    6.6557    9.4880   22.3934 C   0  0  0  0  0  0  0  0  0  0  0  0
   11.4149    3.1109   21.3267 N   0  0  0  0  0  0  0  0  0  0  0  0
   12.6341    8.3965   22.6256 C   0  0  0  0  0  0  0  0  0  0  0  0
    7.4342    9.3605   23.5099 C   0  0  0  0  0  0  0  0  0  0  0  0
    9.0074    2.5276   22.3634 C   0  0  0  0  0  0  0  0  0  0  0  0
   10.6059    4.0872   21.6510 C   0  0  0  0  0  0  0  0  0  0  0  0
   11.0070    9.7631   24.1323 C   0  0  0  0  0  0  0  0  0  0  0  0
    5.2613    7.6684   23.0830 C   0  0  0  0  0  0  0  0  0  0  0  0
    9.8809    9.4211   23.3075 N   0  0  0  0  0  0  0  0  0  0  0  0
   11.0865    6.4850   21.8526 N   0  0  0  0  0  0  0  0  0  0  0  0
   12.0484    8.8079   23.9515 C   0  0  0  0  0  0  0  0  0  0  0  0
    7.0781    8.4908   24.4972 C   0  0  0  0  0  0  0  0  0  0  0  0
    8.5048    4.7925   22.8596 C   0  0  0  0  0  0  0  0  0  0  0  0
    8.6764   11.1296   24.1983 O   0  0  0  0  0  0  0  0  0  0  0  0
    9.3586    3.8297   22.3052 C   0  0  0  0  0  0  0  0  0  0  0  0
  1  5  1  0
  1 15  4  0
  1 22  4  0
  2 20  1  0
  2 24  1  0
  3  6  4  0
  3 27  4  0
  4 22  4  0
  4 26  4  0
  6  7  4  0
  6 13  1  0
  7 19  4  0
  8 18  1  0
  8 23  1  0
  8 28  2  0
  9 17  1  0
  9 24  1  0
 10 11  1  0
 10 24  1  0
 11 23  1  0
 12 14  4  0
 12 16  4  0
 14 19  4  0
 15 18  4  0
 16 20  4  0
 17 25  1  0
 18 26  4  0
 19 29  4  0
 20 29  4  0
 21 23  1  0
 21 25  1  0
 27 29  4  0
M  END
$$$$

 Created by Python create_sdf_string function

 29 52  0  0  0  0  0  0  0  0999 V2000
    5.2362    8.5676   22.2217 C   0  0  0  0  0  0  0  0  0  0  0  0
   10.8139    5.2915   21.0644 C   0  0  0  0  0  0  0  0  0  0  0  0
    7.1647    4.2372   22.9797 C   0  0  0  0  0  0  0  0  0  0  0  0
    5.7956    7.5603   24.3165 C   0  0  0  0  0  0  0  0  0  0  0  0
    4.7202    9.0450   21.0422 C   0  0  0  0  0  0  0  0  0  0  0  0
    6.6785    3.2582   22.8907 C   0  0  0  0  0  0  0  0  0  0  0  0
    7.7454    2.3874   22.9570 N   0  0  0  0  0  0  0  0  0  0  0  0
    8.7681   10.2618   23.8578 C   0  0  0  0  0  0  0  0  0  0  0  0
   12.4165    7.0204   22.2075 C   0  0  0  0  0  0  0  0  0  0  0  0
    9.9943    7.2107   21.5747 C   0  0  0  0  0  0  0  0  0  0  0  0
   10.0017    8.6454   22.0506 C   0  0  0  0  0  0  0  0  0  0  0  0
   11.0339    2.0473   21.6475 C   0  0  0  0  0  0  0  0  0  0  0  0
    5.3810    2.2059   23.3221 C   0  0  0  0  0  0  0  0  0  0  0  0
    9.9271    1.3997   21.6952 N   0  0  0  0  0  0  0  0  0  0  0  0
    6.6892    9.4251   22.3548 C   0  0  0  0  0  0  0  0  0  0  0  0
   11.2945    2.9425   21.0672 N   0  0  0  0  0  0  0  0  0  0  0  0
   12.7588    8.2796   22.6333 C   0  0  0  0  0  0  0  0  0  0  0  0
    7.3549    9.3798   23.6668 C   0  0  0  0  0  0  0  0  0  0  0  0
    9.1149    2.6078   22.4870 C   0  0  0  0  0  0  0  0  0  0  0  0
   10.3144    3.8498   21.7235 I   0  0  0  0  0  0  0  0  0  0  0  0
   11.0715    9.5962   24.0437 C   0  0  0  0  0  0  0  0  0  0  0  0
    5.2329    7.5300   23.3077 Cl  0  0  0  0  0  0  0  0  0  0  0  0
    9.8469    9.4679   23.3318 N   0  0  0  0  0  0  0  0  0  0  0  0
   11.2391    6.3974   21.6517 N   0  0  0  0  0  0  0  0  0  0  0  0
   12.1013    8.7718   24.0829 C   0  0  0  0  0  0  0  0  0  0  0  0
    7.1827    8.3004   24.6164 C   0  0  0  0  0  0  0  0  0  0  0  0
    8.2162    4.8759   22.8225 C   0  0  0  0  0  0  0  0  0  0  0  0
    8.7589   11.0415   24.1954 O   0  0  0  0  0  0  0  0  0  0  0  0
    9.2159    3.8975   22.3572 B   0  0  0  0  0  0  0  0  0  0  0  0
  1  5  1  0
  1 15  4  0
  1 19  2  0
  1 21  3  0
  1 22  4  0
  2  5  2  0
  2 10  3  0
  2 14  3  0
  2 18  4  0
  2 20  1  0
  3  6  4  0
  3  7  2  0
  3 13  4  0
  3 27  4  0
  3 29  2  0
  4 22  4  0
  4 26  4  0
  6  7  4  0
  6 25  3  0
  7 14  4  0
  7 19  4  0
  8 23  1  0
  8 28  2  0
  8 29  1  0
  9 17  1  0
  9 20  4  0
  9 24  1  0
 10 17  3  0
 10 21  2  0
 10 22  3  0
 10 23  1  0
 10 24  1  0
 11 23  1  0
 12 14  4  0
 12 18  4  0
 13 15  1  0
 14 19  4  0
 15 18  4  0
 15 23  4  0
 15 25  3  0
 16 20  4  0
 16 24  2  0
 17 25  2  0
 18 26  4  0
 19 20  3  0
 19 23  4  0
 19 29  4  0
 20 29  4  0
 21 23  1  0
 23 27  4  0
 26 29  1  0
 27 29  3  0
M  END
$$$$

 Created by Python create_sdf_string function

 29 32  0  0  0  0  0  0  0  0999 V2000
    5.4911    8.6627   22.2746 C   0  0  0  0  0  0  0  0  0  0  0  0
   10.9056    5.3436   20.9463 C   0  0  0  0  0  0  0  0  0  0  0  0
    7.0848    4.3863   23.0458 C   0  0  0  0  0  0  0  0  0  0  0  0
    5.9105    7.5413   24.3670 C   0  0  0  0  0  0  0  0  0  0  0  0
    4.6850    8.9072   21.1095 C   0  0  0  0  0  0  0  0  0  0  0  0
    6.8111    3.0327   23.0658 C   0  0  0  0  0  0  0  0  0  0  0  0
    7.7639    2.1383   22.7821 N   0  0  0  0  0  0  0  0  0  0  0  0
    8.6834   10.0290   23.7419 C   0  0  0  0  0  0  0  0  0  0  0  0
   12.3616    6.9237   22.1670 C   0  0  0  0  0  0  0  0  0  0  0  0
   10.0432    7.4544   21.6481 C   0  0  0  0  0  0  0  0  0  0  0  0
   10.0397    8.6796   22.0647 C   0  0  0  0  0  0  0  0  0  0  0  0
   10.9751    1.8309   21.4592 C   0  0  0  0  0  0  0  0  0  0  0  0
    5.4346    2.4437   23.3495 C   0  0  0  0  0  0  0  0  0  0  0  0
    9.8591    1.5353   22.0563 N   0  0  0  0  0  0  0  0  0  0  0  0
    6.6601    9.4492   22.4888 C   0  0  0  0  0  0  0  0  0  0  0  0
   11.3395    3.0989   21.2298 N   0  0  0  0  0  0  0  0  0  0  0  0
   12.6424    8.2568   22.5544 C   0  0  0  0  0  0  0  0  0  0  0  0
    7.4220    9.2687   23.5798 C   0  0  0  0  0  0  0  0  0  0  0  0
    8.9557    2.5199   22.3211 C   0  0  0  0  0  0  0  0  0  0  0  0
   10.5118    4.0604   21.5112 C   0  0  0  0  0  0  0  0  0  0  0  0
   11.0379    9.6932   24.0474 C   0  0  0  0  0  0  0  0  0  0  0  0
    5.1468    7.6728   23.1746 C   0  0  0  0  0  0  0  0  0  0  0  0
    9.8695    9.3654   23.2949 N   0  0  0  0  0  0  0  0  0  0  0  0
   11.0963    6.4365   21.7766 N   0  0  0  0  0  0  0  0  0  0  0  0
   12.0546    8.6207   23.9290 C   0  0  0  0  0  0  0  0  0  0  0  0
    7.0769    8.3600   24.5351 C   0  0  0  0  0  0  0  0  0  0  0  0
    8.3461    4.8159   22.6385 C   0  0  0  0  0  0  0  0  0  0  0  0
    8.6801   11.0958   24.2471 O   0  0  0  0  0  0  0  0  0  0  0  0
    9.2432    3.8412   22.1718 C   0  0  0  0  0  0  0  0  0  0  0  0
  1  5  1  0
  1 15  4  0
  1 22  4  0
  2 20  1  0
  2 24  1  0
  3  6  4  0
  3 27  4  0
  4 22  4  0
  4 26  4  0
  6  7  4  0
  6 13  1  0
  7 19  4  0
  8 18  1  0
  8 23  1  0
  8 28  2  0
  9 17  1  0
  9 24  1  0
 10 11  1  0
 10 24  1  0
 11 23  1  0
 12 14  4  0
 12 16  4  0
 14 19  4  0
 15 18  4  0
 16 20  4  0
 17 25  1  0
 18 26  4  0
 19 29  4  0
 20 29  4  0
 21 23  1  0
 21 25  1  0
 27 29  4  0
M  END
$$$$

 Created by Python create_sdf_string function

 29 45  0  0  0  0  0  0  0  0999 V2000
    5.4641    8.5561   22.3053 C   0  0  0  0  0  0  0  0  0  0  0  0
   10.8556    5.4422   20.9744 C   0  0  0  0  0  0  0  0  0  0  0  0
    7.1564    4.4646   23.1913 C   0  0  0  0  0  0  0  0  0  0  0  0
    5.9777    7.6486   24.5082 C   0  0  0  0  0  0  0  0  0  0  0  0
    4.8539    8.7571   21.1363 C   0  0  0  0  0  0  0  0  0  0  0  0
    7.5992    2.0177   22.7743 N   0  0  0  0  0  0  0  0  0  0  0  0
    8.7765    9.8989   23.7066 C   0  0  0  0  0  0  0  0  0  0  0  0
   12.3330    6.9523   22.0645 C   0  0  0  0  0  0  0  0  0  0  0  0
    9.9663    7.3891   21.5482 C   0  0  0  0  0  0  0  0  0  0  0  0
   10.1726    8.6016   22.1747 C   0  0  0  0  0  0  0  0  0  0  0  0
   11.1198    1.7971   21.4566 C   0  0  0  0  0  0  0  0  0  0  0  0
    5.7330    2.4192   23.4509 C   0  0  0  0  0  0  0  0  0  0  0  0
    9.8513    1.7781   22.1078 N   0  0  0  0  0  0  0  0  0  0  0  0
    6.5794    9.6453   22.5371 N   0  0  0  0  0  0  0  0  0  0  0  0
   11.5409    3.2328   21.2382 N   0  0  0  0  0  0  0  0  0  0  0  0
   12.7664    8.2434   22.4639 C   0  0  0  0  0  0  0  0  0  0  0  0
    7.4484    9.2093   23.6607 C   0  0  0  0  0  0  0  0  0  0  0  0
    9.1324    2.6580   22.4687 C   0  0  0  0  0  0  0  0  0  0  0  0
   10.5207    4.0702   21.4132 C   0  0  0  0  0  0  0  0  0  0  0  0
   11.0924    9.9396   24.1104 C   0  0  0  0  0  0  0  0  0  0  0  0
    5.0397    7.6152   23.3934 C   0  0  0  0  0  0  0  0  0  0  0  0
    9.8801    9.3423   23.3262 N   0  0  0  0  0  0  0  0  0  0  0  0
   11.0422    6.3439   21.8925 N   0  0  0  0  0  0  0  0  0  0  0  0
   11.9955    8.4734   23.9009 C   0  0  0  0  0  0  0  0  0  0  0  0
    7.1267    8.4122   24.3308 C   0  0  0  0  0  0  0  0  0  0  0  0
    8.6564    4.4325   22.6330 C   0  0  0  0  0  0  0  0  0  0  0  0
    8.6943   11.2365   24.2001 O   0  0  0  0  0  0  0  0  0  0  0  0
    9.5442    3.6393   21.9647 C   0  0  0  0  0  0  0  0  0  0  0  0
    6.9693    3.0333   22.7706 He  0  0  0  0  0  0  0  0  0  0  0  0
  1  5  1  0
  1  9  3  0
  1 14  4  0
  1 19  1  0
  1 21  4  0
  1 27  1  0
  2 11  4  0
  2 19  1  0
  2 22  3  0
  2 23  1  0
  3  9  2  0
  3 26  4  0
  3 27  2  0
  4 10  4  0
  4 21  4  0
  4 25  4  0
  6 18  4  0
  6 22  2  0
  7 17  1  0
  7 22  1  0
  7 27  2  0
  8 15  1  0
  8 16  1  0
  8 23  1  0
  9 10  1  0
  9 12  2  0
  9 20  3  0
  9 23  1  0
 10 14  1  0
 10 22  1  0
 11 13  4  0
 11 14  3  0
 11 15  4  0
 11 16  2  0
 13 18  4  0
 14 17  4  0
 15 19  4  0
 16 24  1  0
 17 25  4  0
 18 24  4  0
 18 28  4  0
 19 28  4  0
 20 22  1  0
 22 23  4  0
 26 28  4  0
M  END
$$$$

 Created by Python create_sdf_string function

 29 32  0  0  0  0  0  0  0  0999 V2000
    5.5239    8.6472   22.3829 C   0  0  0  0  0  0  0  0  0  0  0  0
   10.9380    5.3868   20.8427 C   0  0  0  0  0  0  0  0  0  0  0  0
    7.2292    4.3562   23.0430 C   0  0  0  0  0  0  0  0  0  0  0  0
    5.9665    7.5646   24.4875 C   0  0  0  0  0  0  0  0  0  0  0  0
    4.7882    8.7838   21.1611 C   0  0  0  0  0  0  0  0  0  0  0  0
    6.9420    3.0172   23.0727 C   0  0  0  0  0  0  0  0  0  0  0  0
    7.8784    2.1191   22.7281 N   0  0  0  0  0  0  0  0  0  0  0  0
    8.7036   10.0086   23.7126 C   0  0  0  0  0  0  0  0  0  0  0  0
   12.3402    6.9107   22.0462 C   0  0  0  0  0  0  0  0  0  0  0  0
   10.0416    7.5128   21.6421 C   0  0  0  0  0  0  0  0  0  0  0  0
   10.0597    8.7481   22.0135 C   0  0  0  0  0  0  0  0  0  0  0  0
   11.1521    1.8355   21.4808 C   0  0  0  0  0  0  0  0  0  0  0  0
    5.5950    2.5274   23.4345 C   0  0  0  0  0  0  0  0  0  0  0  0
    9.9865    1.5228   22.0207 N   0  0  0  0  0  0  0  0  0  0  0  0
    6.6392    9.4365   22.5328 N   0  0  0  0  0  0  0  0  0  0  0  0
   11.4510    3.1033   21.1536 N   0  0  0  0  0  0  0  0  0  0  0  0
   12.6392    8.2456   22.5161 C   0  0  0  0  0  0  0  0  0  0  0  0
    7.4535    9.2596   23.6086 C   0  0  0  0  0  0  0  0  0  0  0  0
    9.0775    2.5068   22.2781 C   0  0  0  0  0  0  0  0  0  0  0  0
   10.6183    4.0715   21.4322 C   0  0  0  0  0  0  0  0  0  0  0  0
   11.0961    9.6998   23.9772 C   0  0  0  0  0  0  0  0  0  0  0  0
    5.1387    7.7138   23.3306 C   0  0  0  0  0  0  0  0  0  0  0  0
    9.8748    9.3419   23.2737 N   0  0  0  0  0  0  0  0  0  0  0  0
   11.0026    6.4157   21.8483 N   0  0  0  0  0  0  0  0  0  0  0  0
   12.0430    8.5203   23.8987 C   0  0  0  0  0  0  0  0  0  0  0  0
    7.1430    8.3550   24.5750 C   0  0  0  0  0  0  0  0  0  0  0  0
    8.4762    4.7511   22.5745 C   0  0  0  0  0  0  0  0  0  0  0  0
    8.7044   11.1206   24.1692 O   0  0  0  0  0  0  0  0  0  0  0  0
    9.3963    3.8219   22.1157 C   0  0  0  0  0  0  0  0  0  0  0  0
  1  5  1  0
  1 15  4  0
  1 22  4  0
  2 20  1  0
  2 24  1  0
  3  6  4  0
  3 27  4  0
  4 22  4  0
  4 26  4  0
  6  7  4  0
  6 13  1  0
  7 19  4  0
  8 18  1  0
  8 23  1  0
  8 28  2  0
  9 17  1  0
  9 24  1  0
 10 11  1  0
 10 24  1  0
 11 23  1  0
 12 14  4  0
 12 16  4  0
 14 19  4  0
 15 18  4  0
 16 20  4  0
 17 25  1  0
 18 26  4  0
 19 29  4  0
 20 29  4  0
 21 23  1  0
 21 25  1  0
 27 29  4  0
M  END
$$$$

 Created by Python create_sdf_string function

 29 50  0  0  0  0  0  0  0  0999 V2000
    5.6315    8.6559   22.3570 C   0  0  0  0  0  0  0  0  0  0  0  0
   10.8744    5.2955   20.8532 C   0  0  0  0  0  0  0  0  0  0  0  0
    7.1922    4.4260   22.9818 C   0  0  0  0  0  0  0  0  0  0  0  0
    6.1779    7.4517   24.1888 C   0  0  0  0  0  0  0  0  0  0  0  0
    7.0565    2.9237   23.1474 C   0  0  0  0  0  0  0  0  0  0  0  0
    7.9176    2.2606   22.8241 P   0  0  0  0  0  0  0  0  0  0  0  0
    8.3740    9.8961   23.7876 Cl  0  0  0  0  0  0  0  0  0  0  0  0
   12.4123    6.9079   22.2703 C   0  0  0  0  0  0  0  0  0  0  0  0
    9.8194    8.4882   22.1172 C   0  0  0  0  0  0  0  0  0  0  0  0
   11.1495    1.8663   21.6058 C   0  0  0  0  0  0  0  0  0  0  0  0
    5.5857    2.6452   23.3962 C   0  0  0  0  0  0  0  0  0  0  0  0
   10.0313    1.6798   22.0233 N   0  0  0  0  0  0  0  0  0  0  0  0
    6.4115    9.5553   22.5382 N   0  0  0  0  0  0  0  0  0  0  0  0
   11.3753    3.1082   21.0496 N   0  0  0  0  0  0  0  0  0  0  0  0
   12.6484    7.9361   22.4615 C   0  0  0  0  0  0  0  0  0  0  0  0
    7.3975    9.3378   23.6195 C   0  0  0  0  0  0  0  0  0  0  0  0
    9.1564    2.5111   22.2633 C   0  0  0  0  0  0  0  0  0  0  0  0
   10.5319    3.7746   21.2957 C   0  0  0  0  0  0  0  0  0  0  0  0
   11.0115    9.8246   24.1747 C   0  0  0  0  0  0  0  0  0  0  0  0
    5.0603    7.6744   23.3708 C   0  0  0  0  0  0  0  0  0  0  0  0
    9.9432    9.2036   23.1980 N   0  0  0  0  0  0  0  0  0  0  0  0
   10.9248    6.3586   21.7170 N   0  0  0  0  0  0  0  0  0  0  0  0
   12.0102    8.3479   23.9353 C   0  0  0  0  0  0  0  0  0  0  0  0
    7.0089    8.3995   24.5262 C   0  0  0  0  0  0  0  0  0  0  0  0
    8.2525    4.8454   22.5518 C   0  0  0  0  0  0  0  0  0  0  0  0
    8.5301   10.9750   24.0806 O   0  0  0  0  0  0  0  0  0  0  0  0
    9.3164    3.8522   22.1855 C   0  0  0  0  0  0  0  0  0  0  0  0
    4.6304    8.6933   21.0083 He  0  0  0  0  0  0  0  0  0  0  0  0
   10.1479    7.7625   21.4466 He  0  0  0  0  0  0  0  0  0  0  0  0
  1 13  4  0
  1 20  4  0
  2 18  1  0
  2 22  1  0
  3  5  4  0
  3 20  2  0
  3 25  4  0
  4 20  4  0
  4 24  4  0
  5  6  4  0
  5 11  1  0
  5 13  4  0
  6  8  3  0
  6 17  4  0
  6 19  2  0
  7 12  3  0
  7 16  1  0
  7 20  3  0
  8  9  4  0
  8 15  1  0
  8 22  1  0
  9 13  4  0
  9 21  1  0
 10 11  2  0
 10 12  4  0
 10 13  4  0
 10 14  4  0
 11 22  4  0
 12 16  3  0
 12 17  4  0
 12 18  1  0
 12 20  2  0
 13 16  4  0
 13 25  1  0
 14 18  4  0
 15 18  4  0
 15 23  1  0
 16 23  4  0
 16 24  4  0
 17 22  3  0
 17 27  4  0
 18 23  2  0
 18 27  4  0
 19 21  1  0
 19 23  1  0
 20 21  3  0
 20 22  1  0
 21 25  1  0
 24 26  2  0
 25 27  4  0
M  END
$$$$

 Created by Python create_sdf_string function

 29 32  0  0  0  0  0  0  0  0999 V2000
    5.4628    8.6365   22.3452 C   0  0  0  0  0  0  0  0  0  0  0  0
   10.8618    5.4134   20.7431 C   0  0  0  0  0  0  0  0  0  0  0  0
    7.1984    4.4134   22.9903 C   0  0  0  0  0  0  0  0  0  0  0  0
    5.9384    7.4648   24.3886 C   0  0  0  0  0  0  0  0  0  0  0  0
    4.6917    8.7920   21.1981 C   0  0  0  0  0  0  0  0  0  0  0  0
    6.9405    3.0682   23.0918 C   0  0  0  0  0  0  0  0  0  0  0  0
    7.9158    2.1539   22.8355 N   0  0  0  0  0  0  0  0  0  0  0  0
    8.5746    9.9690   23.6648 C   0  0  0  0  0  0  0  0  0  0  0  0
   12.2847    6.7328   22.1440 C   0  0  0  0  0  0  0  0  0  0  0  0
   10.2515    7.6993   21.4326 C   0  0  0  0  0  0  0  0  0  0  0  0
    9.7723    8.5421   22.1174 C   0  0  0  0  0  0  0  0  0  0  0  0
   11.1424    1.8433   21.4762 C   0  0  0  0  0  0  0  0  0  0  0  0
    5.6153    2.5860   23.4944 C   0  0  0  0  0  0  0  0  0  0  0  0
   10.0202    1.5447   22.0881 N   0  0  0  0  0  0  0  0  0  0  0  0
    6.5377    9.4547   22.5466 N   0  0  0  0  0  0  0  0  0  0  0  0
   11.4128    3.1182   21.1067 N   0  0  0  0  0  0  0  0  0  0  0  0
   12.5772    8.1109   22.5512 C   0  0  0  0  0  0  0  0  0  0  0  0
    7.3509    9.2304   23.5860 C   0  0  0  0  0  0  0  0  0  0  0  0
    9.0993    2.5128   22.3122 C   0  0  0  0  0  0  0  0  0  0  0  0
   10.5541    4.0734   21.3503 C   0  0  0  0  0  0  0  0  0  0  0  0
   10.9829    9.5827   23.9594 C   0  0  0  0  0  0  0  0  0  0  0  0
    5.1508    7.6260   23.2157 C   0  0  0  0  0  0  0  0  0  0  0  0
    9.7175    9.2821   23.2449 N   0  0  0  0  0  0  0  0  0  0  0  0
   10.9155    6.4539   21.7346 N   0  0  0  0  0  0  0  0  0  0  0  0
   11.9102    8.4094   23.8931 C   0  0  0  0  0  0  0  0  0  0  0  0
    7.0829    8.2713   24.5180 C   0  0  0  0  0  0  0  0  0  0  0  0
    8.4086    4.8167   22.4392 C   0  0  0  0  0  0  0  0  0  0  0  0
    8.5853   11.0726   24.1343 O   0  0  0  0  0  0  0  0  0  0  0  0
    9.3352    3.8341   22.0517 C   0  0  0  0  0  0  0  0  0  0  0  0
  1  5  1  0
  1 15  4  0
  1 22  4  0
  2 20  1  0
  2 24  1  0
  3  6  4  0
  3 27  4  0
  4 22  4  0
  4 26  4  0
  6  7  4  0
  6 13  1  0
  7 19  4  0
  8 18  1  0
  8 23  1  0
  8 28  2  0
  9 17  1  0
  9 24  1  0
 10 11  1  0
 10 24  1  0
 11 23  1  0
 12 14  4  0
 12 16  4  0
 14 19  4  0
 15 18  4  0
 16 20  4  0
 17 25  1  0
 18 26  4  0
 19 29  4  0
 20 29  4  0
 21 23  1  0
 21 25  1  0
 27 29  4  0
M  END
$$$$

 Created by Python create_sdf_string function

 29 43  0  0  0  0  0  0  0  0999 V2000
    5.5218    8.7536   22.3622 C   0  0  0  0  0  0  0  0  0  0  0  0
   11.0690    5.4942   20.5352 C   0  0  0  0  0  0  0  0  0  0  0  0
    6.9547    4.2369   23.0676 C   0  0  0  0  0  0  0  0  0  0  0  0
    5.7983    7.6675   24.4245 C   0  0  0  0  0  0  0  0  0  0  0  0
    4.6493    8.5824   21.3016 C   0  0  0  0  0  0  0  0  0  0  0  0
    6.7201    3.1109   23.1009 C   0  0  0  0  0  0  0  0  0  0  0  0
    7.7870    1.9941   22.8661 N   0  0  0  0  0  0  0  0  0  0  0  0
    8.6268   10.0000   23.7610 C   0  0  0  0  0  0  0  0  0  0  0  0
   12.2787    6.8908   22.1625 C   0  0  0  0  0  0  0  0  0  0  0  0
   10.4009    7.7174   21.2721 C   0  0  0  0  0  0  0  0  0  0  0  0
    9.6157    8.6421   22.0197 C   0  0  0  0  0  0  0  0  0  0  0  0
   11.0102    1.8916   21.7964 C   0  0  0  0  0  0  0  0  0  0  0  0
    5.4238    2.5764   23.5776 C   0  0  0  0  0  0  0  0  0  0  0  0
    9.9922    1.3611   21.9829 N   0  0  0  0  0  0  0  0  0  0  0  0
    6.5202    9.3763   22.4801 N   0  0  0  0  0  0  0  0  0  0  0  0
   11.4032    3.3363   21.1455 N   0  0  0  0  0  0  0  0  0  0  0  0
   12.6080    7.9386   22.8111 C   0  0  0  0  0  0  0  0  0  0  0  0
    9.2111    2.5951   22.4842 C   0  0  0  0  0  0  0  0  0  0  0  0
   10.7346    3.9394   21.3228 C   0  0  0  0  0  0  0  0  0  0  0  0
   10.9131    9.3971   24.2087 C   0  0  0  0  0  0  0  0  0  0  0  0
    5.2359    7.6353   23.0407 N   0  0  0  0  0  0  0  0  0  0  0  0
    9.5290    9.3528   23.2305 N   0  0  0  0  0  0  0  0  0  0  0  0
   10.8706    6.3743   21.7259 N   0  0  0  0  0  0  0  0  0  0  0  0
   11.7743    8.3449   24.0193 F   0  0  0  0  0  0  0  0  0  0  0  0
    6.6555    8.1159   24.5028 C   0  0  0  0  0  0  0  0  0  0  0  0
    8.4532    4.6851   22.6276 C   0  0  0  0  0  0  0  0  0  0  0  0
    8.5438   11.0848   24.0559 O   0  0  0  0  0  0  0  0  0  0  0  0
    7.3133    9.3241   23.3222 He  0  0  0  0  0  0  0  0  0  0  0  0
    9.3506    3.6830   22.0969 He  0  0  0  0  0  0  0  0  0  0  0  0
  1  5  1  0
  1 15  4  0
  1 21  4  0
  2 19  1  0
  2 23  1  0
  3  6  4  0
  3 26  4  0
  4  6  2  0
  4 10  4  0
  4 21  4  0
  4 25  4  0
  4 27  3  0
  5  6  1  0
  6  7  4  0
  6 13  1  0
  7  8  4  0
  7 18  4  0
  8 15  1  0
  8 22  1  0
  8 27  2  0
  9 17  1  0
  9 23  1  0
 10 11  1  0
 10 17  4  0
 10 23  1  0
 10 24  4  0
 11 15  1  0
 11 20  2  0
 11 22  1  0
 12 14  4  0
 12 16  4  0
 14 18  4  0
 14 23  3  0
 14 24  4  0
 15 19  2  0
 15 20  4  0
 16 19  4  0
 16 20  4  0
 17 24  1  0
 20 22  1  0
 20 24  1  0
 22 25  4  0
 23 27  4  0
M  END
$$$$

 Created by Python create_sdf_string function

 29 32  0  0  0  0  0  0  0  0999 V2000
    5.4626    8.5921   22.3010 C   0  0  0  0  0  0  0  0  0  0  0  0
   10.8647    5.3878   20.7371 C   0  0  0  0  0  0  0  0  0  0  0  0
    7.1828    4.3702   22.9860 C   0  0  0  0  0  0  0  0  0  0  0  0
    5.8177    7.5531   24.4051 C   0  0  0  0  0  0  0  0  0  0  0  0
    4.6468    8.7447   21.1275 C   0  0  0  0  0  0  0  0  0  0  0  0
    6.8837    3.0373   23.1262 C   0  0  0  0  0  0  0  0  0  0  0  0
    7.8437    2.1199   22.8438 N   0  0  0  0  0  0  0  0  0  0  0  0
    8.5158    9.9448   23.6664 C   0  0  0  0  0  0  0  0  0  0  0  0
   12.3090    6.7223   22.1468 C   0  0  0  0  0  0  0  0  0  0  0  0
   10.3902    7.7847   21.2624 C   0  0  0  0  0  0  0  0  0  0  0  0
    9.6724    8.5533   22.0152 C   0  0  0  0  0  0  0  0  0  0  0  0
   11.1347    1.8591   21.5826 C   0  0  0  0  0  0  0  0  0  0  0  0
    5.5044    2.5811   23.5625 C   0  0  0  0  0  0  0  0  0  0  0  0
   10.0016    1.5255   22.1384 N   0  0  0  0  0  0  0  0  0  0  0  0
    6.5685    9.3741   22.4453 N   0  0  0  0  0  0  0  0  0  0  0  0
   11.4295    3.1295   21.2031 N   0  0  0  0  0  0  0  0  0  0  0  0
   12.5628    7.9985   22.7651 C   0  0  0  0  0  0  0  0  0  0  0  0
    7.3033    9.2166   23.5594 C   0  0  0  0  0  0  0  0  0  0  0  0
    9.0546    2.4858   22.3406 C   0  0  0  0  0  0  0  0  0  0  0  0
   10.5731    4.0793   21.3887 C   0  0  0  0  0  0  0  0  0  0  0  0
   10.8509    9.4078   24.0441 C   0  0  0  0  0  0  0  0  0  0  0  0
    5.1095    7.6862   23.2080 N   0  0  0  0  0  0  0  0  0  0  0  0
    9.6344    9.2508   23.2307 N   0  0  0  0  0  0  0  0  0  0  0  0
   10.9178    6.5052   21.7099 N   0  0  0  0  0  0  0  0  0  0  0  0
   11.6898    8.2105   23.9919 C   0  0  0  0  0  0  0  0  0  0  0  0
    6.9601    8.3497   24.5536 C   0  0  0  0  0  0  0  0  0  0  0  0
    8.4213    4.7671   22.4628 C   0  0  0  0  0  0  0  0  0  0  0  0
    8.5268   11.0544   24.1056 O   0  0  0  0  0  0  0  0  0  0  0  0
    9.3390    3.8094   22.0725 C   0  0  0  0  0  0  0  0  0  0  0  0
  1  5  1  0
  1 15  4  0
  1 22  4  0
  2 20  1  0
  2 24  1  0
  3  6  4  0
  3 27  4  0
  4 22  4  0
  4 26  4  0
  6  7  4  0
  6 13  1  0
  7 19  4  0
  8 18  1  0
  8 23  1  0
  8 28  2  0
  9 17  1  0
  9 24  1  0
 10 11  1  0
 10 24  1  0
 11 23  1  0
 12 14  4  0
 12 16  4  0
 14 19  4  0
 15 18  4  0
 16 20  4  0
 17 25  1  0
 18 26  4  0
 19 29  4  0
 20 29  4  0
 21 23  1  0
 21 25  1  0
 27 29  4  0
M  END
$$$$

 Created by Python create_sdf_string function

 29 42  0  0  0  0  0  0  0  0999 V2000
    5.4579    8.8104   22.4778 C   0  0  0  0  0  0  0  0  0  0  0  0
   10.8460    5.5200   20.7673 N   0  0  0  0  0  0  0  0  0  0  0  0
    7.3628    4.4129   22.8529 C   0  0  0  0  0  0  0  0  0  0  0  0
    5.8980    7.6359   24.3761 C   0  0  0  0  0  0  0  0  0  0  0  0
    6.8323    3.1655   23.1814 C   0  0  0  0  0  0  0  0  0  0  0  0
    7.5849    2.3475   22.8494 N   0  0  0  0  0  0  0  0  0  0  0  0
    8.4470   10.1921   23.6386 C   0  0  0  0  0  0  0  0  0  0  0  0
   12.1879    6.7053   22.1267 C   0  0  0  0  0  0  0  0  0  0  0  0
   10.3506    7.8021   21.1680 C   0  0  0  0  0  0  0  0  0  0  0  0
   10.9189    1.6247   21.5391 C   0  0  0  0  0  0  0  0  0  0  0  0
    5.3423    2.5275   23.4116 C   0  0  0  0  0  0  0  0  0  0  0  0
    9.9728    1.5416   22.1825 N   0  0  0  0  0  0  0  0  0  0  0  0
    6.4649    9.3753   22.3312 N   0  0  0  0  0  0  0  0  0  0  0  0
   11.5475    3.3097   21.3363 N   0  0  0  0  0  0  0  0  0  0  0  0
   12.6059    8.0729   22.6276 C   0  0  0  0  0  0  0  0  0  0  0  0
    7.2965    9.3097   23.3899 C   0  0  0  0  0  0  0  0  0  0  0  0
   10.5514    4.1103   21.2171 C   0  0  0  0  0  0  0  0  0  0  0  0
   10.8790    9.4995   24.0077 C   0  0  0  0  0  0  0  0  0  0  0  0
    5.1088    7.5769   23.2135 N   0  0  0  0  0  0  0  0  0  0  0  0
    9.6738    9.0558   23.4314 N   0  0  0  0  0  0  0  0  0  0  0  0
   10.9333    6.5794   21.8188 N   0  0  0  0  0  0  0  0  0  0  0  0
   11.7827    7.9732   23.9950 C   0  0  0  0  0  0  0  0  0  0  0  0
    6.9956    8.4434   24.5511 C   0  0  0  0  0  0  0  0  0  0  0  0
    8.3764    4.9165   22.4370 C   0  0  0  0  0  0  0  0  0  0  0  0
    8.5208   11.0409   24.0165 O   0  0  0  0  0  0  0  0  0  0  0  0
    9.1802    3.6917   22.2377 C   0  0  0  0  0  0  0  0  0  0  0  0
    4.6645    8.7687   21.3347 He  0  0  0  0  0  0  0  0  0  0  0  0
    9.5203    8.3679   21.9846 He  0  0  0  0  0  0  0  0  0  0  0  0
    8.9502    2.4214   22.4826 He  0  0  0  0  0  0  0  0  0  0  0  0
  1 10  2  0
  1 11  2  0
  1 13  4  0
  1 19  4  0
  1 22  2  0
  2  3  1  0
  2 17  1  0
  2 21  1  0
  2 23  1  0
  2 24  4  0
  3  5  4  0
  3 24  4  0
  4 19  4  0
  4 23  4  0
  5  6  4  0
  5 11  1  0
  5 14  1  0
  5 15  2  0
  7 15  1  0
  7 16  1  0
  7 20  1  0
  8 15  1  0
  8 18  4  0
  8 21  1  0
  9 21  1  0
 10 12  3  0
 10 17  4  0
 10 23  2  0
 11 20  2  0
 11 25  3  0
 13 16  4  0
 14 26  4  0
 15 22  1  0
 16 23  4  0
 17 18  2  0
 17 19  1  0
 17 26  4  0
 18 20  1  0
 18 22  1  0
 18 26  2  0
 20 25  1  0
 24 26  4  0
M  END
$$$$

 Created by Python create_sdf_string function

 29 32  0  0  0  0  0  0  0  0999 V2000
    5.3958    8.6296   22.3644 C   0  0  0  0  0  0  0  0  0  0  0  0
   10.7781    5.3854   20.7825 C   0  0  0  0  0  0  0  0  0  0  0  0
    7.1306    4.4811   22.9161 C   0  0  0  0  0  0  0  0  0  0  0  0
    5.8747    7.5866   24.4392 C   0  0  0  0  0  0  0  0  0  0  0  0
    4.5558    8.7948   21.3039 N   0  0  0  0  0  0  0  0  0  0  0  0
    6.8292    3.1390   23.0710 C   0  0  0  0  0  0  0  0  0  0  0  0
    7.7694    2.2054   22.8759 N   0  0  0  0  0  0  0  0  0  0  0  0
    8.5312    9.9820   23.6071 C   0  0  0  0  0  0  0  0  0  0  0  0
   12.3041    6.6503   22.0488 C   0  0  0  0  0  0  0  0  0  0  0  0
   10.3914    7.7965   21.2733 C   0  0  0  0  0  0  0  0  0  0  0  0
    9.5653    8.4363   22.0700 C   0  0  0  0  0  0  0  0  0  0  0  0
   11.0583    1.8776   21.5794 C   0  0  0  0  0  0  0  0  0  0  0  0
    5.4540    2.6535   23.4646 C   0  0  0  0  0  0  0  0  0  0  0  0
    9.8993    1.5644   22.1303 N   0  0  0  0  0  0  0  0  0  0  0  0
    6.4975    9.4203   22.4507 N   0  0  0  0  0  0  0  0  0  0  0  0
   11.3678    3.0912   21.1873 N   0  0  0  0  0  0  0  0  0  0  0  0
   12.5861    7.9635   22.6611 C   0  0  0  0  0  0  0  0  0  0  0  0
    7.2812    9.2678   23.5294 C   0  0  0  0  0  0  0  0  0  0  0  0
    8.9680    2.5509   22.3481 C   0  0  0  0  0  0  0  0  0  0  0  0
   10.4997    4.0763   21.4166 C   0  0  0  0  0  0  0  0  0  0  0  0
   10.8747    9.3788   23.9219 C   0  0  0  0  0  0  0  0  0  0  0  0
    5.0927    7.7033   23.2686 N   0  0  0  0  0  0  0  0  0  0  0  0
    9.6268    9.1649   23.2418 N   0  0  0  0  0  0  0  0  0  0  0  0
   10.9176    6.5012   21.6580 N   0  0  0  0  0  0  0  0  0  0  0  0
   11.7207    8.1132   23.9353 C   0  0  0  0  0  0  0  0  0  0  0  0
    6.9948    8.3912   24.5356 C   0  0  0  0  0  0  0  0  0  0  0  0
    8.3541    4.8554   22.3918 C   0  0  0  0  0  0  0  0  0  0  0  0
    8.6130   11.0913   24.0376 O   0  0  0  0  0  0  0  0  0  0  0  0
    9.2717    3.8413   22.0683 C   0  0  0  0  0  0  0  0  0  0  0  0
  1  5  1  0
  1 15  4  0
  1 22  4  0
  2 20  1  0
  2 24  1  0
  3  6  4  0
  3 27  4  0
  4 22  4  0
  4 26  4  0
  6  7  4  0
  6 13  1  0
  7 19  4  0
  8 18  1  0
  8 23  1  0
  8 28  2  0
  9 17  1  0
  9 24  1  0
 10 11  1  0
 10 24  1  0
 11 23  1  0
 12 14  4  0
 12 16  4  0
 14 19  4  0
 15 18  4  0
 16 20  4  0
 17 25  1  0
 18 26  4  0
 19 29  4  0
 20 29  4  0
 21 23  1  0
 21 25  1  0
 27 29  4  0
M  END
$$$$

 Created by Python create_sdf_string function

 29 45  0  0  0  0  0  0  0  0999 V2000
    5.3857    8.6018   22.1990 C   0  0  0  0  0  0  0  0  0  0  0  0
   10.7435    5.4076   20.8426 C   0  0  0  0  0  0  0  0  0  0  0  0
    7.0836    4.4529   22.8642 C   0  0  0  0  0  0  0  0  0  0  0  0
    5.8971    7.4900   24.3979 C   0  0  0  0  0  0  0  0  0  0  0  0
    4.4210    8.7260   21.1741 N   0  0  0  0  0  0  0  0  0  0  0  0
    7.7816    2.3467   22.9521 N   0  0  0  0  0  0  0  0  0  0  0  0
    8.5926    9.9072   23.5396 C   0  0  0  0  0  0  0  0  0  0  0  0
   12.3358    6.7363   22.1984 C   0  0  0  0  0  0  0  0  0  0  0  0
   10.3768    7.8379   21.0528 C   0  0  0  0  0  0  0  0  0  0  0  0
    9.5624    8.4061   22.0651 C   0  0  0  0  0  0  0  0  0  0  0  0
   10.9721    1.7922   21.5165 C   0  0  0  0  0  0  0  0  0  0  0  0
    5.4005    2.7918   23.4995 C   0  0  0  0  0  0  0  0  0  0  0  0
    9.9213    1.6272   22.0632 N   0  0  0  0  0  0  0  0  0  0  0  0
    6.5033    9.5198   22.4884 N   0  0  0  0  0  0  0  0  0  0  0  0
   11.3476    3.1273   21.1201 N   0  0  0  0  0  0  0  0  0  0  0  0
   12.6385    8.0056   22.6325 C   0  0  0  0  0  0  0  0  0  0  0  0
    7.4333    9.1901   23.4367 C   0  0  0  0  0  0  0  0  0  0  0  0
    8.7296    2.4346   22.3649 C   0  0  0  0  0  0  0  0  0  0  0  0
   10.2795    3.9800   21.2633 C   0  0  0  0  0  0  0  0  0  0  0  0
   10.8957    9.3711   24.0000 C   0  0  0  0  0  0  0  0  0  0  0  0
    5.0914    7.7445   23.1951 N   0  0  0  0  0  0  0  0  0  0  0  0
    9.7510    9.1365   23.3833 N   0  0  0  0  0  0  0  0  0  0  0  0
   10.9238    6.5575   21.5764 N   0  0  0  0  0  0  0  0  0  0  0  0
   11.8080    8.0638   23.8416 C   0  0  0  0  0  0  0  0  0  0  0  0
    7.0183    8.3435   24.5425 C   0  0  0  0  0  0  0  0  0  0  0  0
    8.4167    5.0433   22.3636 C   0  0  0  0  0  0  0  0  0  0  0  0
    8.5352   11.1676   23.9366 O   0  0  0  0  0  0  0  0  0  0  0  0
    9.5336    3.7754   21.8480 C   0  0  0  0  0  0  0  0  0  0  0  0
    6.8839    3.1563   23.0780 He  0  0  0  0  0  0  0  0  0  0  0  0
  1  5  1  0
  1 14  4  0
  1 21  4  0
  2  7  3  0
  2 19  1  0
  2 23  1  0
  2 28  4  0
  3 23  1  0
  3 25  4  0
  3 26  4  0
  4 21  4  0
  4 25  4  0
  5 17  2  0
  6  8  2  0
  6 18  4  0
  6 28  1  0
  7 17  1  0
  7 27  2  0
  8 14  1  0
  8 16  1  0
  8 17  1  0
  8 23  1  0
  9 10  1  0
  9 23  1  0
 10 12  3  0
 10 22  1  0
 10 26  2  0
 11 13  4  0
 11 15  4  0
 11 18  4  0
 12 20  2  0
 13 18  4  0
 14 15  2  0
 14 19  2  0
 14 21  4  0
 15 19  4  0
 16 22  4  0
 16 24  1  0
 17 20  1  0
 17 25  4  0
 18 28  4  0
 19 28  4  0
 20 22  1  0
 20 24  1  0
 26 28  4  0
M  END
$$$$

 Created by Python create_sdf_string function

 29 32  0  0  0  0  0  0  0  0999 V2000
    5.3929    8.6410   22.3288 C   0  0  0  0  0  0  0  0  0  0  0  0
   10.7803    5.4141   20.6982 C   0  0  0  0  0  0  0  0  0  0  0  0
    7.1183    4.5232   22.8597 C   0  0  0  0  0  0  0  0  0  0  0  0
    5.8646    7.5265   24.3762 C   0  0  0  0  0  0  0  0  0  0  0  0
    4.5341    8.7724   21.2233 N   0  0  0  0  0  0  0  0  0  0  0  0
    6.8369    3.1986   23.0775 C   0  0  0  0  0  0  0  0  0  0  0  0
    7.7612    2.2514   22.8697 N   0  0  0  0  0  0  0  0  0  0  0  0
    8.5716    9.9245   23.5874 C   0  0  0  0  0  0  0  0  0  0  0  0
   12.3327    6.6458   22.0541 C   0  0  0  0  0  0  0  0  0  0  0  0
   10.4916    7.8588   21.1724 C   0  0  0  0  0  0  0  0  0  0  0  0
    9.5644    8.3948   22.0227 C   0  0  0  0  0  0  0  0  0  0  0  0
   10.9809    1.8254   21.4761 C   0  0  0  0  0  0  0  0  0  0  0  0
    5.5006    2.8001   23.5210 C   0  0  0  0  0  0  0  0  0  0  0  0
    9.8454    1.5681   22.0752 N   0  0  0  0  0  0  0  0  0  0  0  0
    6.4990    9.4190   22.4562 N   0  0  0  0  0  0  0  0  0  0  0  0
   11.2648    3.0921   21.0806 N   0  0  0  0  0  0  0  0  0  0  0  0
   12.6224    7.9861   22.6233 C   0  0  0  0  0  0  0  0  0  0  0  0
    7.3179    9.2056   23.5198 C   0  0  0  0  0  0  0  0  0  0  0  0
    8.9506    2.5680   22.3050 C   0  0  0  0  0  0  0  0  0  0  0  0
   10.4391    4.0861   21.3064 C   0  0  0  0  0  0  0  0  0  0  0  0
   10.9060    9.3253   23.8907 C   0  0  0  0  0  0  0  0  0  0  0  0
    5.0865    7.7183   23.2110 N   0  0  0  0  0  0  0  0  0  0  0  0
    9.6563    9.1667   23.2101 N   0  0  0  0  0  0  0  0  0  0  0  0
   10.9537    6.5118   21.6011 N   0  0  0  0  0  0  0  0  0  0  0  0
   11.7949    8.1177   23.9088 C   0  0  0  0  0  0  0  0  0  0  0  0
    7.0323    8.3078   24.5131 C   0  0  0  0  0  0  0  0  0  0  0  0
    8.3281    4.8859   22.2805 C   0  0  0  0  0  0  0  0  0  0  0  0
    8.5922   11.0673   23.9175 O   0  0  0  0  0  0  0  0  0  0  0  0
    9.2394    3.8660   21.9771 C   0  0  0  0  0  0  0  0  0  0  0  0
  1  5  1  0
  1 15  4  0
  1 22  4  0
  2 20  1  0
  2 24  1  0
  3  6  4  0
  3 27  4  0
  4 22  4  0
  4 26  4  0
  6  7  4  0
  6 13  1  0
  7 19  4  0
  8 18  1  0
  8 23  1  0
  8 28  2  0
  9 17  1  0
  9 24  1  0
 10 11  1  0
 10 24  1  0
 11 23  1  0
 12 14  4  0
 12 16  4  0
 14 19  4  0
 15 18  4  0
 16 20  4  0
 17 25  1  0
 18 26  4  0
 19 29  4  0
 20 29  4  0
 21 23  1  0
 21 25  1  0
 27 29  4  0
M  END
$$$$

 Created by Python create_sdf_string function

 29 33  0  0  0  0  0  0  0  0999 V2000
    5.3617    8.6105   22.3692 C   0  0  0  0  0  0  0  0  0  0  0  0
   10.8185    5.2376   20.7151 C   0  0  0  0  0  0  0  0  0  0  0  0
    7.1141    4.5876   22.9861 C   0  0  0  0  0  0  0  0  0  0  0  0
    4.6216    8.7831   21.1433 N   0  0  0  0  0  0  0  0  0  0  0  0
    6.7662    3.0442   23.1884 C   0  0  0  0  0  0  0  0  0  0  0  0
    7.7940    2.2423   23.0126 N   0  0  0  0  0  0  0  0  0  0  0  0
    8.5113    9.8632   23.6169 C   0  0  0  0  0  0  0  0  0  0  0  0
   12.3497    6.5221   22.1171 C   0  0  0  0  0  0  0  0  0  0  0  0
   10.7399    7.9480   21.1574 C   0  0  0  0  0  0  0  0  0  0  0  0
    9.5251    8.5766   22.0510 C   0  0  0  0  0  0  0  0  0  0  0  0
   10.9285    1.9030   21.3168 C   0  0  0  0  0  0  0  0  0  0  0  0
    5.5680    2.7914   23.4910 C   0  0  0  0  0  0  0  0  0  0  0  0
    9.8961    1.4919   21.8858 N   0  0  0  0  0  0  0  0  0  0  0  0
    6.5169    9.3530   22.4586 N   0  0  0  0  0  0  0  0  0  0  0  0
   11.2588    3.0267   21.0168 N   0  0  0  0  0  0  0  0  0  0  0  0
   12.6107    7.7511   22.7484 C   0  0  0  0  0  0  0  0  0  0  0  0
    8.9129    2.6228   22.4052 C   0  0  0  0  0  0  0  0  0  0  0  0
   10.5232    3.9894   21.2318 C   0  0  0  0  0  0  0  0  0  0  0  0
   11.0528    9.4318   24.0302 C   0  0  0  0  0  0  0  0  0  0  0  0
    4.9915    7.5749   23.3652 N   0  0  0  0  0  0  0  0  0  0  0  0
   11.0025    6.4774   21.6158 N   0  0  0  0  0  0  0  0  0  0  0  0
   11.7640    8.1340   23.9293 C   0  0  0  0  0  0  0  0  0  0  0  0
    6.8639    8.3630   24.5842 C   0  0  0  0  0  0  0  0  0  0  0  0
    8.4227    4.8740   22.3470 C   0  0  0  0  0  0  0  0  0  0  0  0
    8.6105   11.0688   23.7751 O   0  0  0  0  0  0  0  0  0  0  0  0
    9.3551    3.7722   21.9392 C   0  0  0  0  0  0  0  0  0  0  0  0
    6.0179    7.4733   24.2076 He  0  0  0  0  0  0  0  0  0  0  0  0
    7.3380    9.3843   23.5903 He  0  0  0  0  0  0  0  0  0  0  0  0
    9.6658    9.0387   23.1185 He  0  0  0  0  0  0  0  0  0  0  0  0
  1  2  2  0
  1  4  1  0
  1 14  4  0
  2  8  4  0
  2 18  1  0
  2 21  1  0
  3  5  4  0
  3 24  4  0
  4  5  1  0
  5  6  4  0
  5 12  1  0
  6 20  3  0
  7 15  2  0
  7 18  1  0
  7 24  3  0
  7 25  2  0
  7 26  3  0
  8 16  1  0
  8 21  1  0
  8 22  3  0
  9 10  1  0
  9 21  1  0
 10 23  3  0
 11 13  4  0
 11 15  4  0
 13 17  4  0
 15 18  4  0
 16 25  2  0
 17 24  4  0
 17 26  4  0
 18 26  4  0
 19 22  3  0
 24 26  4  0
M  END
$$$$

 Created by Python create_sdf_string function

 29 32  0  0  0  0  0  0  0  0999 V2000
    5.4125    8.5931   22.3641 C   0  0  0  0  0  0  0  0  0  0  0  0
   10.8349    5.3666   20.6629 C   0  0  0  0  0  0  0  0  0  0  0  0
    7.1758    4.5147   22.9246 C   0  0  0  0  0  0  0  0  0  0  0  0
    5.8619    7.4792   24.4120 C   0  0  0  0  0  0  0  0  0  0  0  0
    4.6122    8.7777   21.2361 N   0  0  0  0  0  0  0  0  0  0  0  0
    6.8883    3.1809   23.1407 C   0  0  0  0  0  0  0  0  0  0  0  0
    7.8131    2.2247   22.9041 N   0  0  0  0  0  0  0  0  0  0  0  0
    8.5494    9.8991   23.5838 C   0  0  0  0  0  0  0  0  0  0  0  0
   12.3779    6.5138   22.1072 C   0  0  0  0  0  0  0  0  0  0  0  0
   10.6836    7.9447   21.2219 C   0  0  0  0  0  0  0  0  0  0  0  0
    9.6350    8.4311   21.9685 C   0  0  0  0  0  0  0  0  0  0  0  0
   10.9452    1.7988   21.3113 C   0  0  0  0  0  0  0  0  0  0  0  0
    5.5543    2.7852   23.5792 C   0  0  0  0  0  0  0  0  0  0  0  0
    9.8442    1.5480   21.9699 N   0  0  0  0  0  0  0  0  0  0  0  0
    6.4890    9.3707   22.5050 N   0  0  0  0  0  0  0  0  0  0  0  0
   11.2739    3.0677   20.9623 N   0  0  0  0  0  0  0  0  0  0  0  0
   12.6909    7.7967   22.7749 C   0  0  0  0  0  0  0  0  0  0  0  0
    7.2979    9.1863   23.5479 C   0  0  0  0  0  0  0  0  0  0  0  0
    8.9844    2.5512   22.2768 C   0  0  0  0  0  0  0  0  0  0  0  0
   10.4711    4.0649   21.2640 C   0  0  0  0  0  0  0  0  0  0  0  0
   10.9534    9.3249   23.8733 C   0  0  0  0  0  0  0  0  0  0  0  0
    5.0965    7.6374   23.2538 N   0  0  0  0  0  0  0  0  0  0  0  0
    9.6554    9.1428   23.2031 N   0  0  0  0  0  0  0  0  0  0  0  0
   11.0082    6.5184   21.5520 N   0  0  0  0  0  0  0  0  0  0  0  0
   11.7622    8.0572   23.9295 C   0  0  0  0  0  0  0  0  0  0  0  0
    6.9633    8.2983   24.5503 C   0  0  0  0  0  0  0  0  0  0  0  0
    8.3877    4.8560   22.3259 C   0  0  0  0  0  0  0  0  0  0  0  0
    8.5996   11.0502   23.8592 O   0  0  0  0  0  0  0  0  0  0  0  0
    9.2805    3.8568   21.9697 C   0  0  0  0  0  0  0  0  0  0  0  0
  1  5  1  0
  1 15  4  0
  1 22  4  0
  2 20  1  0
  2 24  1  0
  3  6  4  0
  3 27  4  0
  4 22  4  0
  4 26  4  0
  6  7  4  0
  6 13  1  0
  7 19  4  0
  8 18  1  0
  8 23  1  0
  8 28  2  0
  9 17  1  0
  9 24  1  0
 10 11  1  0
 10 24  1  0
 11 23  1  0
 12 14  4  0
 12 16  4  0
 14 19  4  0
 15 18  4  0
 16 20  4  0
 17 25  1  0
 18 26  4  0
 19 29  4  0
 20 29  4  0
 21 23  1  0
 21 25  1  0
 27 29  4  0
M  END
$$$$

 Created by Python create_sdf_string function

 29 34  0  0  0  0  0  0  0  0999 V2000
    5.4503    8.4834   22.3224 C   0  0  0  0  0  0  0  0  0  0  0  0
   10.8870    5.3295   20.6021 C   0  0  0  0  0  0  0  0  0  0  0  0
    7.1164    4.4920   22.8389 C   0  0  0  0  0  0  0  0  0  0  0  0
    5.8273    7.4838   24.4261 C   0  0  0  0  0  0  0  0  0  0  0  0
    4.5001    8.8355   21.1529 N   0  0  0  0  0  0  0  0  0  0  0  0
    7.7550    2.2587   22.8219 N   0  0  0  0  0  0  0  0  0  0  0  0
    8.4313    9.9068   23.5980 C   0  0  0  0  0  0  0  0  0  0  0  0
   12.3331    6.5302   22.2608 C   0  0  0  0  0  0  0  0  0  0  0  0
    9.6328    8.4481   21.9107 C   0  0  0  0  0  0  0  0  0  0  0  0
    5.6646    2.7917   23.7316 C   0  0  0  0  0  0  0  0  0  0  0  0
    9.8319    1.5272   22.0293 N   0  0  0  0  0  0  0  0  0  0  0  0
    6.5261    9.4492   22.6072 N   0  0  0  0  0  0  0  0  0  0  0  0
   11.2607    2.9437   20.8612 N   0  0  0  0  0  0  0  0  0  0  0  0
   12.6501    7.8015   22.7248 C   0  0  0  0  0  0  0  0  0  0  0  0
    7.2623    9.0844   23.6019 C   0  0  0  0  0  0  0  0  0  0  0  0
    8.9843    2.7181   22.2045 C   0  0  0  0  0  0  0  0  0  0  0  0
   10.4156    4.0306   21.2614 C   0  0  0  0  0  0  0  0  0  0  0  0
   11.1002    9.3462   23.8192 C   0  0  0  0  0  0  0  0  0  0  0  0
    5.0749    7.6952   23.2336 N   0  0  0  0  0  0  0  0  0  0  0  0
    9.4628    9.1127   23.3218 N   0  0  0  0  0  0  0  0  0  0  0  0
   10.9360    6.5531   21.5655 N   0  0  0  0  0  0  0  0  0  0  0  0
   11.7589    8.0226   23.9265 C   0  0  0  0  0  0  0  0  0  0  0  0
    7.0045    8.2481   24.4974 C   0  0  0  0  0  0  0  0  0  0  0  0
    8.3481    4.7910   22.4079 C   0  0  0  0  0  0  0  0  0  0  0  0
    8.6627   11.1832   23.8952 C   0  0  0  0  0  0  0  0  0  0  0  0
    9.4539    3.9269   21.9126 C   0  0  0  0  0  0  0  0  0  0  0  0
    7.0787    3.1831   23.1226 He  0  0  0  0  0  0  0  0  0  0  0  0
   10.5119    7.8553   21.2135 He  0  0  0  0  0  0  0  0  0  0  0  0
   10.9654    1.8369   21.1864 He  0  0  0  0  0  0  0  0  0  0  0  0
  1  5  1  0
  1 12  4  0
  1 19  4  0
  2 17  1  0
  2 21  1  0
  3 24  4  0
  4 19  4  0
  4 23  4  0
  5  9  4  0
  5 11  1  0
  6  9  2  0
  6 16  4  0
  7 15  1  0
  7 20  1  0
  7 25  2  0
  8 14  1  0
  8 17  2  0
  8 21  1  0
  9 20  1  0
 10 24  3  0
 11 16  4  0
 12 15  4  0
 12 26  1  0
 14 22  1  0
 15 23  4  0
 15 24  2  0
 16 18  3  0
 16 26  4  0
 17 26  4  0
 18 20  1  0
 18 22  1  0
 20 22  2  0
 23 25  3  0
 24 26  4  0
M  END
$$$$

 Created by Python create_sdf_string function

 29 32  0  0  0  0  0  0  0  0999 V2000
    5.3966    8.5984   22.3706 C   0  0  0  0  0  0  0  0  0  0  0  0
   10.8739    5.4006   20.6243 C   0  0  0  0  0  0  0  0  0  0  0  0
    7.1903    4.5239   22.8865 C   0  0  0  0  0  0  0  0  0  0  0  0
    5.8380    7.4650   24.3992 C   0  0  0  0  0  0  0  0  0  0  0  0
    4.5862    8.7876   21.2375 N   0  0  0  0  0  0  0  0  0  0  0  0
    6.9391    3.2047   23.1205 C   0  0  0  0  0  0  0  0  0  0  0  0
    7.8344    2.2540   22.8348 N   0  0  0  0  0  0  0  0  0  0  0  0
    8.5374    9.8991   23.6269 C   0  0  0  0  0  0  0  0  0  0  0  0
   12.3241    6.4792   22.1663 C   0  0  0  0  0  0  0  0  0  0  0  0
   10.6176    7.8645   21.2453 C   0  0  0  0  0  0  0  0  0  0  0  0
    9.5736    8.4449   21.9572 C   0  0  0  0  0  0  0  0  0  0  0  0
   10.9519    1.7876   21.2250 C   0  0  0  0  0  0  0  0  0  0  0  0
    5.6854    2.7827   23.7320 C   0  0  0  0  0  0  0  0  0  0  0  0
    9.8568    1.5577   21.9104 N   0  0  0  0  0  0  0  0  0  0  0  0
    6.4876    9.3640   22.5207 N   0  0  0  0  0  0  0  0  0  0  0  0
   11.2623    3.0601   20.8532 N   0  0  0  0  0  0  0  0  0  0  0  0
   12.6736    7.7825   22.7273 C   0  0  0  0  0  0  0  0  0  0  0  0
    7.2858    9.1529   23.5694 C   0  0  0  0  0  0  0  0  0  0  0  0
    9.0045    2.5817   22.2139 C   0  0  0  0  0  0  0  0  0  0  0  0
   10.5016    4.0846   21.1899 C   0  0  0  0  0  0  0  0  0  0  0  0
   10.9535    9.3373   23.7607 C   0  0  0  0  0  0  0  0  0  0  0  0
    5.0674    7.6549   23.2404 N   0  0  0  0  0  0  0  0  0  0  0  0
    9.6161    9.1213   23.2444 N   0  0  0  0  0  0  0  0  0  0  0  0
   10.9622    6.5037   21.5837 N   0  0  0  0  0  0  0  0  0  0  0  0
   11.7521    8.0699   23.9274 C   0  0  0  0  0  0  0  0  0  0  0  0
    6.9962    8.2392   24.5362 C   0  0  0  0  0  0  0  0  0  0  0  0
    8.4124    4.8767   22.2885 C   0  0  0  0  0  0  0  0  0  0  0  0
    8.6130   11.1180   23.9173 O   0  0  0  0  0  0  0  0  0  0  0  0
    9.3036    3.9003   21.9121 C   0  0  0  0  0  0  0  0  0  0  0  0
  1  5  1  0
  1 15  4  0
  1 22  4  0
  2 20  1  0
  2 24  1  0
  3  6  4  0
  3 27  4  0
  4 22  4  0
  4 26  4  0
  6  7  4  0
  6 13  1  0
  7 19  4  0
  8 18  1  0
  8 23  1  0
  8 28  2  0
  9 17  1  0
  9 24  1  0
 10 11  1  0
 10 24  1  0
 11 23  1  0
 12 14  4  0
 12 16  4  0
 14 19  4  0
 15 18  4  0
 16 20  4  0
 17 25  1  0
 18 26  4  0
 19 29  4  0
 20 29  4  0
 21 23  1  0
 21 25  1  0
 27 29  4  0
M  END
$$$$

 Created by Python create_sdf_string function

 29 42  0  0  0  0  0  0  0  0999 V2000
    5.4073    8.7652   22.4346 C   0  0  0  0  0  0  0  0  0  0  0  0
   10.7455    5.3346   20.6219 C   0  0  0  0  0  0  0  0  0  0  0  0
    7.1831    4.4578   22.8848 C   0  0  0  0  0  0  0  0  0  0  0  0
    5.8271    7.5267   24.3561 C   0  0  0  0  0  0  0  0  0  0  0  0
    4.5735    8.8632   21.3234 N   0  0  0  0  0  0  0  0  0  0  0  0
    6.9371    3.2151   23.1885 C   0  0  0  0  0  0  0  0  0  0  0  0
    7.7103    2.1964   22.8693 N   0  0  0  0  0  0  0  0  0  0  0  0
    8.4744    9.9126   23.6402 C   0  0  0  0  0  0  0  0  0  0  0  0
   12.3179    6.4439   22.1678 C   0  0  0  0  0  0  0  0  0  0  0  0
   10.6997    7.9593   21.2103 C   0  0  0  0  0  0  0  0  0  0  0  0
    9.5297    8.4307   22.0324 C   0  0  0  0  0  0  0  0  0  0  0  0
   10.8659    1.8711   21.1861 C   0  0  0  0  0  0  0  0  0  0  0  0
    5.7385    2.8965   23.6014 C   0  0  0  0  0  0  0  0  0  0  0  0
    9.8128    1.6871   21.8997 N   0  0  0  0  0  0  0  0  0  0  0  0
    6.4646    9.2576   22.5165 N   0  0  0  0  0  0  0  0  0  0  0  0
   11.2811    2.9879   20.7718 N   0  0  0  0  0  0  0  0  0  0  0  0
   12.7533    7.7995   22.8284 C   0  0  0  0  0  0  0  0  0  0  0  0
    7.2788    9.1915   23.5548 C   0  0  0  0  0  0  0  0  0  0  0  0
    9.0702    2.5211   22.1709 C   0  0  0  0  0  0  0  0  0  0  0  0
   10.5162    3.9932   21.3014 C   0  0  0  0  0  0  0  0  0  0  0  0
   11.0065    9.3428   23.6109 C   0  0  0  0  0  0  0  0  0  0  0  0
    4.9912    7.6225   23.2542 N   0  0  0  0  0  0  0  0  0  0  0  0
   10.9424    6.4907   21.6548 N   0  0  0  0  0  0  0  0  0  0  0  0
   11.7386    8.1383   23.8377 C   0  0  0  0  0  0  0  0  0  0  0  0
    7.0535    8.2624   24.6414 C   0  0  0  0  0  0  0  0  0  0  0  0
    8.3249    4.9691   22.3717 C   0  0  0  0  0  0  0  0  0  0  0  0
    8.5656   11.0303   23.9317 O   0  0  0  0  0  0  0  0  0  0  0  0
    9.2232    3.9275   21.9377 C   0  0  0  0  0  0  0  0  0  0  0  0
    9.6974    9.0332   23.2357 He  0  0  0  0  0  0  0  0  0  0  0  0
  1  5  1  0
  1 15  4  0
  1 22  4  0
  1 24  2  0
  2 20  1  0
  2 23  1  0
  2 26  1  0
  3  5  1  0
  3  6  4  0
  3 26  4  0
  4 15  1  0
  4 25  4  0
  5 25  3  0
  6  7  4  0
  6 13  1  0
  6 25  1  0
  6 28  1  0
  7 19  4  0
  8 16  1  0
  8 18  1  0
  8 20  4  0
  8 27  2  0
  8 28  2  0
  9 17  1  0
  9 23  1  0
 10 11  1  0
 10 23  1  0
 10 26  1  0
 12 14  4  0
 12 16  4  0
 13 28  3  0
 14 19  4  0
 15 18  4  0
 16 20  4  0
 17 24  4  0
 18 25  4  0
 19 24  3  0
 19 26  4  0
 19 28  4  0
 20 25  2  0
 21 24  1  0
 26 28  4  0
M  END
$$$$

 Created by Python create_sdf_string function

 29 32  0  0  0  0  0  0  0  0999 V2000
    5.3896    8.6430   22.4212 C   0  0  0  0  0  0  0  0  0  0  0  0
   10.7916    5.4206   20.6580 C   0  0  0  0  0  0  0  0  0  0  0  0
    7.1862    4.5457   22.9167 C   0  0  0  0  0  0  0  0  0  0  0  0
    5.8212    7.5032   24.4349 C   0  0  0  0  0  0  0  0  0  0  0  0
    4.5643    8.8717   21.3621 N   0  0  0  0  0  0  0  0  0  0  0  0
    6.9079    3.2196   23.1364 C   0  0  0  0  0  0  0  0  0  0  0  0
    7.8093    2.2704   22.8274 N   0  0  0  0  0  0  0  0  0  0  0  0
    8.5551    9.8731   23.6370 C   0  0  0  0  0  0  0  0  0  0  0  0
   12.3612    6.4615   22.1612 C   0  0  0  0  0  0  0  0  0  0  0  0
   10.6763    7.9550   21.2808 C   0  0  0  0  0  0  0  0  0  0  0  0
    9.5183    8.4007   21.9527 C   0  0  0  0  0  0  0  0  0  0  0  0
   10.8845    1.8180   21.1919 C   0  0  0  0  0  0  0  0  0  0  0  0
    5.6554    2.8203   23.6934 C   0  0  0  0  0  0  0  0  0  0  0  0
    9.7966    1.5844   21.8727 N   0  0  0  0  0  0  0  0  0  0  0  0
    6.4925    9.3567   22.5339 N   0  0  0  0  0  0  0  0  0  0  0  0
   11.2127    3.0953   20.8512 N   0  0  0  0  0  0  0  0  0  0  0  0
   12.7536    7.7597   22.8018 C   0  0  0  0  0  0  0  0  0  0  0  0
    7.2976    9.1460   23.5782 C   0  0  0  0  0  0  0  0  0  0  0  0
    8.9616    2.5891   22.2071 C   0  0  0  0  0  0  0  0  0  0  0  0
   10.4545    4.0939   21.2032 C   0  0  0  0  0  0  0  0  0  0  0  0
   10.9846    9.3535   23.6306 C   0  0  0  0  0  0  0  0  0  0  0  0
    5.0474    7.7059   23.2996 N   0  0  0  0  0  0  0  0  0  0  0  0
    9.6297    9.1065   23.2174 N   0  0  0  0  0  0  0  0  0  0  0  0
   10.9790    6.5179   21.6137 N   0  0  0  0  0  0  0  0  0  0  0  0
   11.7590    8.1132   23.8918 C   0  0  0  0  0  0  0  0  0  0  0  0
    6.9832    8.2428   24.5739 C   0  0  0  0  0  0  0  0  0  0  0  0
    8.3874    4.9042   22.2967 C   0  0  0  0  0  0  0  0  0  0  0  0
    8.5838   11.0038   23.9514 O   0  0  0  0  0  0  0  0  0  0  0  0
    9.2665    3.9074   21.9209 C   0  0  0  0  0  0  0  0  0  0  0  0
  1  5  1  0
  1 15  4  0
  1 22  4  0
  2 20  1  0
  2 24  1  0
  3  6  4  0
  3 27  4  0
  4 22  4  0
  4 26  4  0
  6  7  4  0
  6 13  1  0
  7 19  4  0
  8 18  1  0
  8 23  1  0
  8 28  2  0
  9 17  1  0
  9 24  1  0
 10 11  1  0
 10 24  1  0
 11 23  1  0
 12 14  4  0
 12 16  4  0
 14 19  4  0
 15 18  4  0
 16 20  4  0
 17 25  1  0
 18 26  4  0
 19 29  4  0
 20 29  4  0
 21 23  1  0
 21 25  1  0
 27 29  4  0
M  END
$$$$

 Created by Python create_sdf_string function

 29 27  0  0  0  0  0  0  0  0999 V2000
    5.3361    8.5809   22.2934 C   0  0  0  0  0  0  0  0  0  0  0  0
   10.9085    5.4463   20.6168 C   0  0  0  0  0  0  0  0  0  0  0  0
    7.1509    4.5448   22.8975 C   0  0  0  0  0  0  0  0  0  0  0  0
    4.5357    9.0113   21.4549 N   0  0  0  0  0  0  0  0  0  0  0  0
    6.9080    3.1939   23.2373 C   0  0  0  0  0  0  0  0  0  0  0  0
    7.7773    2.3021   22.9782 N   0  0  0  0  0  0  0  0  0  0  0  0
    8.5728    9.9276   23.7116 C   0  0  0  0  0  0  0  0  0  0  0  0
   10.6334    7.8350   21.3809 C   0  0  0  0  0  0  0  0  0  0  0  0
    9.5155    8.4222   21.8188 C   0  0  0  0  0  0  0  0  0  0  0  0
   10.9321    1.7172   21.1022 C   0  0  0  0  0  0  0  0  0  0  0  0
    5.7218    2.8227   23.7285 C   0  0  0  0  0  0  0  0  0  0  0  0
    9.7366    1.6886   21.9833 N   0  0  0  0  0  0  0  0  0  0  0  0
    6.5599    9.2790   22.7208 N   0  0  0  0  0  0  0  0  0  0  0  0
   11.3759    3.1141   20.8373 N   0  0  0  0  0  0  0  0  0  0  0  0
   12.7199    7.8433   22.8476 C   0  0  0  0  0  0  0  0  0  0  0  0
    7.2845    9.2385   23.5368 C   0  0  0  0  0  0  0  0  0  0  0  0
    8.8918    2.6586   22.0591 C   0  0  0  0  0  0  0  0  0  0  0  0
   10.5414    4.2839   21.2035 C   0  0  0  0  0  0  0  0  0  0  0  0
    5.0124    7.6719   23.4987 N   0  0  0  0  0  0  0  0  0  0  0  0
    9.7040    8.9658   23.2493 N   0  0  0  0  0  0  0  0  0  0  0  0
   10.9247    6.4730   21.5444 N   0  0  0  0  0  0  0  0  0  0  0  0
    6.8543    8.2400   24.5785 C   0  0  0  0  0  0  0  0  0  0  0  0
    8.3550    4.7764   22.2348 C   0  0  0  0  0  0  0  0  0  0  0  0
    8.5979   11.0545   24.0036 O   0  0  0  0  0  0  0  0  0  0  0  0
    5.8431    7.5409   24.4675 He  0  0  0  0  0  0  0  0  0  0  0  0
   12.3870    6.3574   22.0468 He  0  0  0  0  0  0  0  0  0  0  0  0
   11.0027    9.2715   23.6379 He  0  0  0  0  0  0  0  0  0  0  0  0
   11.7020    8.0537   23.8839 He  0  0  0  0  0  0  0  0  0  0  0  0
    9.2866    3.9195   21.9482 He  0  0  0  0  0  0  0  0  0  0  0  0
  1  4  1  0
  1 13  4  0
  1 19  4  0
  2 18  1  0
  2 21  1  0
  3  5  4  0
  3 20  4  0
  3 23  4  0
  5  6  4  0
  5 11  1  0
  6 17  4  0
  7 16  1  0
  7 20  1  0
  7 24  2  0
  8  9  1  0
  8 11  4  0
  8 21  1  0
  9 20  1  0
  9 22  2  0
 10 12  4  0
 10 14  4  0
 12 16  2  0
 12 17  4  0
 13 16  4  0
 14 18  4  0
 16 22  4  0
 22 24  3  0
M  END
$$$$

 Created by Python create_sdf_string function

 29 32  0  0  0  0  0  0  0  0999 V2000
    5.3597    8.6437   22.4907 C   0  0  0  0  0  0  0  0  0  0  0  0
   10.8531    5.4534   20.6150 C   0  0  0  0  0  0  0  0  0  0  0  0
    7.1716    4.5780   22.8932 C   0  0  0  0  0  0  0  0  0  0  0  0
    5.7933    7.5071   24.5327 C   0  0  0  0  0  0  0  0  0  0  0  0
    4.5224    8.9000   21.4374 N   0  0  0  0  0  0  0  0  0  0  0  0
    6.9266    3.2438   23.1668 C   0  0  0  0  0  0  0  0  0  0  0  0
    7.8345    2.3019   22.8483 N   0  0  0  0  0  0  0  0  0  0  0  0
    8.5621    9.8524   23.6680 C   0  0  0  0  0  0  0  0  0  0  0  0
   12.3722    6.4560   22.0984 C   0  0  0  0  0  0  0  0  0  0  0  0
   10.6575    7.9223   21.2721 C   0  0  0  0  0  0  0  0  0  0  0  0
    9.5295    8.4277   21.9270 C   0  0  0  0  0  0  0  0  0  0  0  0
   10.8894    1.8302   21.1800 C   0  0  0  0  0  0  0  0  0  0  0  0
    5.6843    2.8088   23.8058 C   0  0  0  0  0  0  0  0  0  0  0  0
    9.7869    1.5878   21.8482 N   0  0  0  0  0  0  0  0  0  0  0  0
    6.5023    9.3242   22.5770 N   0  0  0  0  0  0  0  0  0  0  0  0
   11.2562    3.1109   20.8609 N   0  0  0  0  0  0  0  0  0  0  0  0
   12.7244    7.7329   22.7948 C   0  0  0  0  0  0  0  0  0  0  0  0
    7.2988    9.1281   23.6203 C   0  0  0  0  0  0  0  0  0  0  0  0
    8.9625    2.6237   22.1946 C   0  0  0  0  0  0  0  0  0  0  0  0
   10.4733    4.1342   21.1757 C   0  0  0  0  0  0  0  0  0  0  0  0
   10.9542    9.2886   23.6693 C   0  0  0  0  0  0  0  0  0  0  0  0
    5.0212    7.7192   23.3903 N   0  0  0  0  0  0  0  0  0  0  0  0
    9.6256    9.1237   23.1938 N   0  0  0  0  0  0  0  0  0  0  0  0
   10.9857    6.5449   21.5934 N   0  0  0  0  0  0  0  0  0  0  0  0
   11.7015    8.0421   23.8426 C   0  0  0  0  0  0  0  0  0  0  0  0
    6.9473    8.2597   24.6311 C   0  0  0  0  0  0  0  0  0  0  0  0
    8.3563    4.9069   22.2228 C   0  0  0  0  0  0  0  0  0  0  0  0
    8.6101   10.9884   24.0218 O   0  0  0  0  0  0  0  0  0  0  0  0
    9.2658    3.9369   21.8713 C   0  0  0  0  0  0  0  0  0  0  0  0
  1  5  1  0
  1 15  4  0
  1 22  4  0
  2 20  1  0
  2 24  1  0
  3  6  4  0
  3 27  4  0
  4 22  4  0
  4 26  4  0
  6  7  4  0
  6 13  1  0
  7 19  4  0
  8 18  1  0
  8 23  1  0
  8 28  2  0
  9 17  1  0
  9 24  1  0
 10 11  1  0
 10 24  1  0
 11 23  1  0
 12 14  4  0
 12 16  4  0
 14 19  4  0
 15 18  4  0
 16 20  4  0
 17 25  1  0
 18 26  4  0
 19 29  4  0
 20 29  4  0
 21 23  1  0
 21 25  1  0
 27 29  4  0
M  END
$$$$

 Created by Python create_sdf_string function

 29 37  0  0  0  0  0  0  0  0999 V2000
    5.3861    8.6905   22.4678 C   0  0  0  0  0  0  0  0  0  0  0  0
   10.8564    5.3971   20.6294 C   0  0  0  0  0  0  0  0  0  0  0  0
    7.2034    4.5668   22.8463 C   0  0  0  0  0  0  0  0  0  0  0  0
    5.8166    7.4479   24.6604 C   0  0  0  0  0  0  0  0  0  0  0  0
    4.4707    8.8684   21.4336 N   0  0  0  0  0  0  0  0  0  0  0  0
    6.9787    3.3484   23.1539 C   0  0  0  0  0  0  0  0  0  0  0  0
    7.9639    2.3365   22.8689 N   0  0  0  0  0  0  0  0  0  0  0  0
    8.5493    9.8187   23.5735 C   0  0  0  0  0  0  0  0  0  0  0  0
   12.3702    6.4803   21.9705 C   0  0  0  0  0  0  0  0  0  0  0  0
   10.6850    8.0256   21.2745 C   0  0  0  0  0  0  0  0  0  0  0  0
    9.6179    8.3552   22.0712 C   0  0  0  0  0  0  0  0  0  0  0  0
   10.9356    1.7458   21.1381 C   0  0  0  0  0  0  0  0  0  0  0  0
    5.6295    2.8967   23.7880 C   0  0  0  0  0  0  0  0  0  0  0  0
    9.7964    1.6118   21.8776 N   0  0  0  0  0  0  0  0  0  0  0  0
    6.5269    9.2156   22.6043 N   0  0  0  0  0  0  0  0  0  0  0  0
   11.2644    3.2278   20.9382 N   0  0  0  0  0  0  0  0  0  0  0  0
   12.7337    7.8372   22.8152 C   0  0  0  0  0  0  0  0  0  0  0  0
    7.3637    9.1180   23.7067 C   0  0  0  0  0  0  0  0  0  0  0  0
    8.9351    2.6705   22.1640 C   0  0  0  0  0  0  0  0  0  0  0  0
   10.5798    4.1503   21.1634 C   0  0  0  0  0  0  0  0  0  0  0  0
   10.9621    9.3561   23.6741 C   0  0  0  0  0  0  0  0  0  0  0  0
    5.0222    7.8054   23.3342 N   0  0  0  0  0  0  0  0  0  0  0  0
    9.7193    9.0800   23.0884 N   0  0  0  0  0  0  0  0  0  0  0  0
   11.0493    6.4778   21.5338 N   0  0  0  0  0  0  0  0  0  0  0  0
   11.6758    8.0736   23.8969 C   0  0  0  0  0  0  0  0  0  0  0  0
    6.9958    8.2575   24.5506 C   0  0  0  0  0  0  0  0  0  0  0  0
    8.4619    4.9688   22.2224 C   0  0  0  0  0  0  0  0  0  0  0  0
    8.5142   11.0341   24.0286 O   0  0  0  0  0  0  0  0  0  0  0  0
    9.2317    3.9233   21.9355 C   0  0  0  0  0  0  0  0  0  0  0  0
  1  5  1  0
  1 15  4  0
  1 22  4  0
  2  8  4  0
  2 18  2  0
  2 20  1  0
  2 24  1  0
  3  6  4  0
  4 10  3  0
  4 22  4  0
  4 26  4  0
  6  7  4  0
  6  8  1  0
  6 13  1  0
  6 21  1  0
  6 23  3  0
  7 19  4  0
  8 18  1  0
  8 23  1  0
  8 28  2  0
  9 17  1  0
  9 24  1  0
 10 11  1  0
 10 24  1  0
 11 23  1  0
 12 16  4  0
 14 19  4  0
 14 26  3  0
 15 18  4  0
 15 20  3  0
 16 20  4  0
 17 25  1  0
 18 26  4  0
 20 29  4  0
 21 23  1  0
 21 25  4  0
 27 29  1  0
M  END
$$$$

 Created by Python create_sdf_string function

 29 32  0  0  0  0  0  0  0  0999 V2000
    5.3720    8.6425   22.5105 C   0  0  0  0  0  0  0  0  0  0  0  0
   10.8703    5.4302   20.5959 C   0  0  0  0  0  0  0  0  0  0  0  0
    7.2280    4.6218   22.8553 C   0  0  0  0  0  0  0  0  0  0  0  0
    5.8063    7.5228   24.5620 C   0  0  0  0  0  0  0  0  0  0  0  0
    4.5090    8.8664   21.4514 N   0  0  0  0  0  0  0  0  0  0  0  0
    6.9771    3.2954   23.1406 C   0  0  0  0  0  0  0  0  0  0  0  0
    7.8631    2.3246   22.8409 N   0  0  0  0  0  0  0  0  0  0  0  0
    8.5619    9.8405   23.6416 C   0  0  0  0  0  0  0  0  0  0  0  0
   12.4043    6.5229   22.0280 C   0  0  0  0  0  0  0  0  0  0  0  0
   10.6831    8.0028   21.2519 C   0  0  0  0  0  0  0  0  0  0  0  0
    9.5497    8.3630   21.9840 C   0  0  0  0  0  0  0  0  0  0  0  0
   10.9297    1.8252   21.1752 C   0  0  0  0  0  0  0  0  0  0  0  0
    5.6921    2.8995   23.7836 C   0  0  0  0  0  0  0  0  0  0  0  0
    9.8164    1.5993   21.8353 N   0  0  0  0  0  0  0  0  0  0  0  0
    6.5137    9.3106   22.5752 N   0  0  0  0  0  0  0  0  0  0  0  0
   11.2717    3.1082   20.8746 N   0  0  0  0  0  0  0  0  0  0  0  0
   12.7409    7.7854   22.7937 C   0  0  0  0  0  0  0  0  0  0  0  0
    7.3181    9.1020   23.6212 C   0  0  0  0  0  0  0  0  0  0  0  0
    8.9984    2.6459   22.1769 C   0  0  0  0  0  0  0  0  0  0  0  0
   10.4930    4.1311   21.1766 C   0  0  0  0  0  0  0  0  0  0  0  0
   10.9318    9.3372   23.6622 C   0  0  0  0  0  0  0  0  0  0  0  0
    5.0235    7.7700   23.4197 N   0  0  0  0  0  0  0  0  0  0  0  0
    9.6256    9.1859   23.1352 N   0  0  0  0  0  0  0  0  0  0  0  0
   11.0427    6.5751   21.5080 N   0  0  0  0  0  0  0  0  0  0  0  0
   11.6705    8.0469   23.8481 C   0  0  0  0  0  0  0  0  0  0  0  0
    7.0100    8.2420   24.6365 C   0  0  0  0  0  0  0  0  0  0  0  0
    8.4156    4.9715   22.2066 C   0  0  0  0  0  0  0  0  0  0  0  0
    8.5508   10.9782   24.0245 O   0  0  0  0  0  0  0  0  0  0  0  0
    9.2972    3.9527   21.8643 C   0  0  0  0  0  0  0  0  0  0  0  0
  1  5  1  0
  1 15  4  0
  1 22  4  0
  2 20  1  0
  2 24  1  0
  3  6  4  0
  3 27  4  0
  4 22  4  0
  4 26  4  0
  6  7  4  0
  6 13  1  0
  7 19  4  0
  8 18  1  0
  8 23  1  0
  8 28  2  0
  9 17  1  0
  9 24  1  0
 10 11  1  0
 10 24  1  0
 11 23  1  0
 12 14  4  0
 12 16  4  0
 14 19  4  0
 15 18  4  0
 16 20  4  0
 17 25  1  0
 18 26  4  0
 19 29  4  0
 20 29  4  0
 21 23  1  0
 21 25  1  0
 27 29  4  0
M  END
$$$$

 Created by Python create_sdf_string function

 29 36  0  0  0  0  0  0  0  0999 V2000
    5.3090    8.6914   22.4904 C   0  0  0  0  0  0  0  0  0  0  0  0
   10.9450    5.4493   20.6438 C   0  0  0  0  0  0  0  0  0  0  0  0
    7.2196    4.6448   22.7808 C   0  0  0  0  0  0  0  0  0  0  0  0
    5.7846    7.4458   24.5909 C   0  0  0  0  0  0  0  0  0  0  0  0
    4.4438    8.8355   21.4883 N   0  0  0  0  0  0  0  0  0  0  0  0
    6.9739    3.1470   23.1169 C   0  0  0  0  0  0  0  0  0  0  0  0
    7.8369    2.2526   22.8473 N   0  0  0  0  0  0  0  0  0  0  0  0
    8.5832    9.8303   23.6290 C   0  0  0  0  0  0  0  0  0  0  0  0
   12.5238    6.5307   21.9382 C   0  0  0  0  0  0  0  0  0  0  0  0
   10.7615    8.0531   21.3401 C   0  0  0  0  0  0  0  0  0  0  0  0
    9.5952    8.3164   22.0035 C   0  0  0  0  0  0  0  0  0  0  0  0
   10.9051    1.8518   21.1845 C   0  0  0  0  0  0  0  0  0  0  0  0
    5.6554    2.9254   23.8424 C   0  0  0  0  0  0  0  0  0  0  0  0
    9.7820    1.6140   21.8461 N   0  0  0  0  0  0  0  0  0  0  0  0
    6.4854    9.2652   22.5991 N   0  0  0  0  0  0  0  0  0  0  0  0
   11.2769    2.9872   20.8190 N   0  0  0  0  0  0  0  0  0  0  0  0
   12.7041    7.8621   22.8590 C   0  0  0  0  0  0  0  0  0  0  0  0
    7.2831    9.0926   23.6566 C   0  0  0  0  0  0  0  0  0  0  0  0
    8.9799    2.6300   22.2051 C   0  0  0  0  0  0  0  0  0  0  0  0
   10.4550    4.1890   21.1872 C   0  0  0  0  0  0  0  0  0  0  0  0
   10.8276    9.4531   23.6183 C   0  0  0  0  0  0  0  0  0  0  0  0
    4.9709    7.7961   23.3963 N   0  0  0  0  0  0  0  0  0  0  0  0
    9.6742    9.0846   23.1566 N   0  0  0  0  0  0  0  0  0  0  0  0
   11.0835    6.5427   21.5793 N   0  0  0  0  0  0  0  0  0  0  0  0
   11.7079    8.1017   23.8039 C   0  0  0  0  0  0  0  0  0  0  0  0
    8.4538    5.0257   22.2152 C   0  0  0  0  0  0  0  0  0  0  0  0
    8.5760   10.9367   24.0946 O   0  0  0  0  0  0  0  0  0  0  0  0
    9.2983    3.9392   21.8035 C   0  0  0  0  0  0  0  0  0  0  0  0
    7.0388    8.2763   24.7333 He  0  0  0  0  0  0  0  0  0  0  0  0
  1  5  1  0
  1 13  4  0
  1 15  4  0
  1 22  4  0
  1 24  4  0
  2 20  1  0
  2 24  1  0
  3  6  4  0
  3 26  4  0
  4  7  2  0
  4 22  4  0
  6  7  4  0
  6 13  1  0
  6 22  2  0
  6 24  3  0
  7 19  4  0
  8 18  1  0
  8 27  2  0
  9 17  1  0
  9 24  1  0
 10 11  1  0
 11 16  3  0
 11 23  1  0
 12 14  4  0
 12 16  4  0
 13 20  3  0
 14 19  4  0
 15 18  4  0
 16 20  4  0
 17 25  1  0
 19 23  3  0
 19 28  4  0
 20 28  4  0
 21 23  1  0
 21 25  1  0
 26 28  4  0
M  END
$$$$

 Created by Python create_sdf_string function

 29 32  0  0  0  0  0  0  0  0999 V2000
    5.3379    8.6580   22.5340 C   0  0  0  0  0  0  0  0  0  0  0  0
   10.9311    5.4426   20.6259 C   0  0  0  0  0  0  0  0  0  0  0  0
    7.2057    4.5919   22.8219 C   0  0  0  0  0  0  0  0  0  0  0  0
    5.7945    7.5274   24.5707 C   0  0  0  0  0  0  0  0  0  0  0  0
    4.4748    8.8678   21.4919 N   0  0  0  0  0  0  0  0  0  0  0  0
    6.9772    3.2682   23.1146 C   0  0  0  0  0  0  0  0  0  0  0  0
    7.8428    2.2805   22.8179 N   0  0  0  0  0  0  0  0  0  0  0  0
    8.5500    9.8196   23.6642 C   0  0  0  0  0  0  0  0  0  0  0  0
   12.5075    6.5962   21.9939 C   0  0  0  0  0  0  0  0  0  0  0  0
   10.7304    8.0374   21.2662 C   0  0  0  0  0  0  0  0  0  0  0  0
    9.5402    8.3485   21.9692 C   0  0  0  0  0  0  0  0  0  0  0  0
   10.9051    1.8281   21.1743 C   0  0  0  0  0  0  0  0  0  0  0  0
    5.7165    2.9115   23.8035 C   0  0  0  0  0  0  0  0  0  0  0  0
    9.8144    1.5910   21.8354 N   0  0  0  0  0  0  0  0  0  0  0  0
    6.4799    9.3180   22.5972 N   0  0  0  0  0  0  0  0  0  0  0  0
   11.2384    3.0819   20.8340 N   0  0  0  0  0  0  0  0  0  0  0  0
   12.7691    7.8323   22.8229 C   0  0  0  0  0  0  0  0  0  0  0  0
    7.2829    9.1048   23.6301 C   0  0  0  0  0  0  0  0  0  0  0  0
    8.9873    2.6109   22.1565 C   0  0  0  0  0  0  0  0  0  0  0  0
   10.4900    4.1292   21.1588 C   0  0  0  0  0  0  0  0  0  0  0  0
   10.9239    9.3765   23.6294 C   0  0  0  0  0  0  0  0  0  0  0  0
    4.9974    7.7816   23.4552 N   0  0  0  0  0  0  0  0  0  0  0  0
    9.5864    9.1383   23.1487 N   0  0  0  0  0  0  0  0  0  0  0  0
   11.0920    6.6007   21.5411 N   0  0  0  0  0  0  0  0  0  0  0  0
   11.6792    8.1142   23.8095 C   0  0  0  0  0  0  0  0  0  0  0  0
    6.9906    8.2576   24.6594 C   0  0  0  0  0  0  0  0  0  0  0  0
    8.4101    4.9328   22.1854 C   0  0  0  0  0  0  0  0  0  0  0  0
    8.5902   10.9175   24.0986 O   0  0  0  0  0  0  0  0  0  0  0  0
    9.2958    3.9237   21.8411 C   0  0  0  0  0  0  0  0  0  0  0  0
  1  5  1  0
  1 15  4  0
  1 22  4  0
  2 20  1  0
  2 24  1  0
  3  6  4  0
  3 27  4  0
  4 22  4  0
  4 26  4  0
  6  7  4  0
  6 13  1  0
  7 19  4  0
  8 18  1  0
  8 23  1  0
  8 28  2  0
  9 17  1  0
  9 24  1  0
 10 11  1  0
 10 24  1  0
 11 23  1  0
 12 14  4  0
 12 16  4  0
 14 19  4  0
 15 18  4  0
 16 20  4  0
 17 25  1  0
 18 26  4  0
 19 29  4  0
 20 29  4  0
 21 23  1  0
 21 25  1  0
 27 29  4  0
M  END
$$$$

 Created by Python create_sdf_string function

 29 38  0  0  0  0  0  0  0  0999 V2000
    5.2467    8.6167   22.5609 C   0  0  0  0  0  0  0  0  0  0  0  0
   11.0247    5.4825   20.6091 C   0  0  0  0  0  0  0  0  0  0  0  0
    7.2307    4.6208   22.8115 C   0  0  0  0  0  0  0  0  0  0  0  0
    5.7908    7.4990   24.4781 C   0  0  0  0  0  0  0  0  0  0  0  0
    4.5591    8.9577   21.5248 N   0  0  0  0  0  0  0  0  0  0  0  0
    6.9608    3.2915   23.0847 C   0  0  0  0  0  0  0  0  0  0  0  0
    7.8947    2.2555   22.8564 N   0  0  0  0  0  0  0  0  0  0  0  0
    8.5198    9.8317   23.8119 C   0  0  0  0  0  0  0  0  0  0  0  0
   12.5007    6.5768   22.0316 C   0  0  0  0  0  0  0  0  0  0  0  0
   10.6730    7.9906   21.2947 C   0  0  0  0  0  0  0  0  0  0  0  0
    9.5710    8.4285   21.9457 C   0  0  0  0  0  0  0  0  0  0  0  0
   10.8478    1.8291   21.1861 C   0  0  0  0  0  0  0  0  0  0  0  0
    5.6703    2.9314   23.7624 C   0  0  0  0  0  0  0  0  0  0  0  0
    9.7995    1.5665   21.8547 N   0  0  0  0  0  0  0  0  0  0  0  0
    6.5260    9.3384   22.6505 N   0  0  0  0  0  0  0  0  0  0  0  0
   11.3210    3.1089   20.7609 N   0  0  0  0  0  0  0  0  0  0  0  0
   12.8965    7.8510   22.8500 C   0  0  0  0  0  0  0  0  0  0  0  0
    7.2898    9.0894   23.7131 C   0  0  0  0  0  0  0  0  0  0  0  0
    8.9322    2.5939   22.1778 C   0  0  0  0  0  0  0  0  0  0  0  0
   10.4107    4.1391   21.1128 C   0  0  0  0  0  0  0  0  0  0  0  0
   10.9099    9.4142   23.5888 C   0  0  0  0  0  0  0  0  0  0  0  0
    5.0196    7.9134   23.4393 N   0  0  0  0  0  0  0  0  0  0  0  0
    9.5039    9.1673   23.1089 N   0  0  0  0  0  0  0  0  0  0  0  0
   11.1331    6.7084   21.5673 N   0  0  0  0  0  0  0  0  0  0  0  0
   11.6675    8.1216   23.7783 C   0  0  0  0  0  0  0  0  0  0  0  0
    7.0439    8.1881   24.6093 C   0  0  0  0  0  0  0  0  0  0  0  0
    8.4224    4.8602   22.1906 C   0  0  0  0  0  0  0  0  0  0  0  0
    8.5264   11.0330   24.1699 O   0  0  0  0  0  0  0  0  0  0  0  0
    9.3164    3.9457   21.7920 C   0  0  0  0  0  0  0  0  0  0  0  0
  1  5  1  0
  1 15  4  0
  1 22  4  0
  2 20  1  0
  2 24  1  0
  3  6  4  0
  3 27  4  0
  4 22  4  0
  4 26  4  0
  5 26  1  0
  6  7  4  0
  6 13  1  0
  6 14  4  0
  6 17  4  0
  7 19  4  0
  8 18  1  0
  8 23  1  0
  8 28  2  0
  9 17  1  0
  9 24  1  0
 10 11  1  0
 10 19  3  0
 10 24  1  0
 11 23  1  0
 12 14  4  0
 12 16  4  0
 13 15  1  0
 14 19  4  0
 15 18  4  0
 16 20  4  0
 17 25  1  0
 18 26  4  0
 19 29  4  0
 20 29  4  0
 21 23  1  0
 21 25  1  0
 25 28  3  0
 27 29  4  0
M  END
$$$$

 Created by Python create_sdf_string function

 29 32  0  0  0  0  0  0  0  0999 V2000
    5.3499    8.7127   22.5625 C   0  0  0  0  0  0  0  0  0  0  0  0
   10.9748    5.4853   20.6348 C   0  0  0  0  0  0  0  0  0  0  0  0
    7.2345    4.5788   22.8146 C   0  0  0  0  0  0  0  0  0  0  0  0
    5.8048    7.5120   24.5233 C   0  0  0  0  0  0  0  0  0  0  0  0
    4.5363    8.9580   21.5203 N   0  0  0  0  0  0  0  0  0  0  0  0
    6.9669    3.2753   23.1072 C   0  0  0  0  0  0  0  0  0  0  0  0
    7.8406    2.2926   22.8209 N   0  0  0  0  0  0  0  0  0  0  0  0
    8.5235    9.8530   23.7270 C   0  0  0  0  0  0  0  0  0  0  0  0
   12.5280    6.5997   22.0288 C   0  0  0  0  0  0  0  0  0  0  0  0
   10.7299    8.0321   21.2677 C   0  0  0  0  0  0  0  0  0  0  0  0
    9.5134    8.4157   21.9166 C   0  0  0  0  0  0  0  0  0  0  0  0
   10.8919    1.8379   21.1530 C   0  0  0  0  0  0  0  0  0  0  0  0
    5.7033    2.9208   23.7540 C   0  0  0  0  0  0  0  0  0  0  0  0
    9.8130    1.5812   21.8279 N   0  0  0  0  0  0  0  0  0  0  0  0
    6.4935    9.3551   22.6528 N   0  0  0  0  0  0  0  0  0  0  0  0
   11.2401    3.0937   20.7865 N   0  0  0  0  0  0  0  0  0  0  0  0
   12.8471    7.8371   22.8287 C   0  0  0  0  0  0  0  0  0  0  0  0
    7.3020    9.1000   23.6853 C   0  0  0  0  0  0  0  0  0  0  0  0
    8.9832    2.5951   22.1491 C   0  0  0  0  0  0  0  0  0  0  0  0
   10.4863    4.1481   21.1235 C   0  0  0  0  0  0  0  0  0  0  0  0
   10.9237    9.3893   23.5782 C   0  0  0  0  0  0  0  0  0  0  0  0
    4.9954    7.8298   23.4635 N   0  0  0  0  0  0  0  0  0  0  0  0
    9.5605    9.1981   23.1388 N   0  0  0  0  0  0  0  0  0  0  0  0
   11.1296    6.6597   21.5706 N   0  0  0  0  0  0  0  0  0  0  0  0
   11.6758    8.1069   23.8004 C   0  0  0  0  0  0  0  0  0  0  0  0
    6.9908    8.1731   24.6408 C   0  0  0  0  0  0  0  0  0  0  0  0
    8.4247    4.8961   22.1496 C   0  0  0  0  0  0  0  0  0  0  0  0
    8.5363   10.9668   24.1818 O   0  0  0  0  0  0  0  0  0  0  0  0
    9.3010    3.9171   21.8011 C   0  0  0  0  0  0  0  0  0  0  0  0
  1  5  1  0
  1 15  4  0
  1 22  4  0
  2 20  1  0
  2 24  1  0
  3  6  4  0
  3 27  4  0
  4 22  4  0
  4 26  4  0
  6  7  4  0
  6 13  1  0
  7 19  4  0
  8 18  1  0
  8 23  1  0
  8 28  2  0
  9 17  1  0
  9 24  1  0
 10 11  1  0
 10 24  1  0
 11 23  1  0
 12 14  4  0
 12 16  4  0
 14 19  4  0
 15 18  4  0
 16 20  4  0
 17 25  1  0
 18 26  4  0
 19 29  4  0
 20 29  4  0
 21 23  1  0
 21 25  1  0
 27 29  4  0
M  END
$$$$

 Created by Python create_sdf_string function

 29 39  0  0  0  0  0  0  0  0999 V2000
    5.4486    8.6583   22.5613 C   0  0  0  0  0  0  0  0  0  0  0  0
   10.9597    5.5070   20.5550 C   0  0  0  0  0  0  0  0  0  0  0  0
    7.3312    4.5295   22.8265 C   0  0  0  0  0  0  0  0  0  0  0  0
    5.6925    7.4828   24.5680 C   0  0  0  0  0  0  0  0  0  0  0  0
    4.5693    9.0291   21.4949 N   0  0  0  0  0  0  0  0  0  0  0  0
    7.0094    3.1824   23.0838 C   0  0  0  0  0  0  0  0  0  0  0  0
    7.9145    2.2677   22.8210 N   0  0  0  0  0  0  0  0  0  0  0  0
    8.5299    9.8479   23.6513 C   0  0  0  0  0  0  0  0  0  0  0  0
   12.4508    6.5651   21.9866 C   0  0  0  0  0  0  0  0  0  0  0  0
   10.7143    8.0651   21.1941 C   0  0  0  0  0  0  0  0  0  0  0  0
    9.5648    8.3631   21.9336 C   0  0  0  0  0  0  0  0  0  0  0  0
   10.8457    1.8198   21.1694 C   0  0  0  0  0  0  0  0  0  0  0  0
    5.6422    2.9664   23.7991 C   0  0  0  0  0  0  0  0  0  0  0  0
    9.7612    1.5133   21.7793 N   0  0  0  0  0  0  0  0  0  0  0  0
    6.4012    9.3386   22.5929 N   0  0  0  0  0  0  0  0  0  0  0  0
   11.1808    3.1439   20.7884 C   0  0  0  0  0  0  0  0  0  0  0  0
   12.8497    7.8893   22.8392 C   0  0  0  0  0  0  0  0  0  0  0  0
    7.3065    9.0696   23.7154 C   0  0  0  0  0  0  0  0  0  0  0  0
    8.9195    2.6690   22.2164 C   0  0  0  0  0  0  0  0  0  0  0  0
   10.4183    4.1535   21.0621 C   0  0  0  0  0  0  0  0  0  0  0  0
   10.9757    9.3469   23.5679 C   0  0  0  0  0  0  0  0  0  0  0  0
    4.8990    7.8302   23.4850 N   0  0  0  0  0  0  0  0  0  0  0  0
    9.5520    9.2496   23.1384 N   0  0  0  0  0  0  0  0  0  0  0  0
   11.1224    6.6269   21.6281 N   0  0  0  0  0  0  0  0  0  0  0  0
   11.6318    8.1525   23.8574 C   0  0  0  0  0  0  0  0  0  0  0  0
    6.9647    8.1903   24.7026 C   0  0  0  0  0  0  0  0  0  0  0  0
    8.4205    4.9627   22.0955 C   0  0  0  0  0  0  0  0  0  0  0  0
    8.5301   10.9708   24.1600 O   0  0  0  0  0  0  0  0  0  0  0  0
    9.2955    3.7667   21.6960 C   0  0  0  0  0  0  0  0  0  0  0  0
  1  5  1  0
  1 15  4  0
  1 22  4  0
  2 20  1  0
  2 23  3  0
  2 24  1  0
  3  6  4  0
  3 27  4  0
  4 22  4  0
  4 26  4  0
  6  7  4  0
  6 13  1  0
  7 19  4  0
  7 20  3  0
  8 18  1  0
  8 23  1  0
  8 28  2  0
  9 12  4  0
  9 17  1  0
  9 20  3  0
  9 24  4  0
 10 11  1  0
 10 24  1  0
 11 23  1  0
 12 14  4  0
 12 16  4  0
 14 19  4  0
 15 18  4  0
 15 29  3  0
 16 20  4  0
 17 25  1  0
 18 26  4  0
 19 29  4  0
 20 29  4  0
 21 22  4  0
 21 23  1  0
 21 25  1  0
 24 25  4  0
 27 29  4  0
M  END
$$$$

 Created by Python create_sdf_string function

 29 32  0  0  0  0  0  0  0  0999 V2000
    5.3481    8.6969   22.5809 C   0  0  0  0  0  0  0  0  0  0  0  0
   10.9093    5.5051   20.5902 C   0  0  0  0  0  0  0  0  0  0  0  0
    7.2728    4.5424   22.8093 C   0  0  0  0  0  0  0  0  0  0  0  0
    5.7398    7.5199   24.5846 C   0  0  0  0  0  0  0  0  0  0  0  0
    4.5615    8.9830   21.5105 N   0  0  0  0  0  0  0  0  0  0  0  0
    6.9934    3.2477   23.1174 C   0  0  0  0  0  0  0  0  0  0  0  0
    7.8550    2.2672   22.8108 N   0  0  0  0  0  0  0  0  0  0  0  0
    8.5484    9.8269   23.6936 C   0  0  0  0  0  0  0  0  0  0  0  0
   12.5094    6.6071   22.0120 C   0  0  0  0  0  0  0  0  0  0  0  0
   10.7205    8.0245   21.2341 C   0  0  0  0  0  0  0  0  0  0  0  0
    9.5151    8.3929   21.9286 C   0  0  0  0  0  0  0  0  0  0  0  0
   10.8749    1.7920   21.1275 C   0  0  0  0  0  0  0  0  0  0  0  0
    5.7028    2.9475   23.7815 C   0  0  0  0  0  0  0  0  0  0  0  0
    9.7861    1.5342   21.8026 N   0  0  0  0  0  0  0  0  0  0  0  0
    6.5032    9.3307   22.6505 N   0  0  0  0  0  0  0  0  0  0  0  0
   11.2052    3.0974   20.7487 C   0  0  0  0  0  0  0  0  0  0  0  0
   12.8119    7.8439   22.8264 C   0  0  0  0  0  0  0  0  0  0  0  0
    7.2931    9.0866   23.6734 C   0  0  0  0  0  0  0  0  0  0  0  0
    8.9687    2.5808   22.1199 C   0  0  0  0  0  0  0  0  0  0  0  0
   10.4569    4.1515   21.0773 C   0  0  0  0  0  0  0  0  0  0  0  0
   10.9508    9.3881   23.5605 C   0  0  0  0  0  0  0  0  0  0  0  0
    4.9458    7.8131   23.4907 N   0  0  0  0  0  0  0  0  0  0  0  0
    9.6016    9.2030   23.1084 N   0  0  0  0  0  0  0  0  0  0  0  0
   11.1091    6.6152   21.5513 N   0  0  0  0  0  0  0  0  0  0  0  0
   11.6461    8.0938   23.7962 C   0  0  0  0  0  0  0  0  0  0  0  0
    6.9486    8.2063   24.6699 C   0  0  0  0  0  0  0  0  0  0  0  0
    8.4151    4.8893   22.0994 C   0  0  0  0  0  0  0  0  0  0  0  0
    8.5370   10.9266   24.1538 O   0  0  0  0  0  0  0  0  0  0  0  0
    9.2890    3.8965   21.7655 C   0  0  0  0  0  0  0  0  0  0  0  0
  1  5  1  0
  1 15  4  0
  1 22  4  0
  2 20  1  0
  2 24  1  0
  3  6  4  0
  3 27  4  0
  4 22  4  0
  4 26  4  0
  6  7  4  0
  6 13  1  0
  7 19  4  0
  8 18  1  0
  8 23  1  0
  8 28  2  0
  9 17  1  0
  9 24  1  0
 10 11  1  0
 10 24  1  0
 11 23  1  0
 12 14  4  0
 12 16  4  0
 14 19  4  0
 15 18  4  0
 16 20  4  0
 17 25  1  0
 18 26  4  0
 19 29  4  0
 20 29  4  0
 21 23  1  0
 21 25  1  0
 27 29  4  0
M  END
$$$$

 Created by Python create_sdf_string function

 29 42  0  0  0  0  0  0  0  0999 V2000
    5.3409    8.6898   22.5956 C   0  0  0  0  0  0  0  0  0  0  0  0
   10.9252    5.4013   20.6101 C   0  0  0  0  0  0  0  0  0  0  0  0
    7.2947    4.5166   22.8073 C   0  0  0  0  0  0  0  0  0  0  0  0
    5.7203    7.5605   24.6109 C   0  0  0  0  0  0  0  0  0  0  0  0
    4.4988    8.9342   21.5249 N   0  0  0  0  0  0  0  0  0  0  0  0
    6.9864    3.1972   23.1602 C   0  0  0  0  0  0  0  0  0  0  0  0
    7.8253    2.2242   22.7070 N   0  0  0  0  0  0  0  0  0  0  0  0
    8.4924    9.8371   23.6698 C   0  0  0  0  0  0  0  0  0  0  0  0
   12.4516    6.5344   22.0037 C   0  0  0  0  0  0  0  0  0  0  0  0
   10.6775    7.9983   21.1854 C   0  0  0  0  0  0  0  0  0  0  0  0
    9.5528    8.4009   21.9252 C   0  0  0  0  0  0  0  0  0  0  0  0
   10.9416    1.8645   21.0958 C   0  0  0  0  0  0  0  0  0  0  0  0
    5.6345    2.9763   23.8021 C   0  0  0  0  0  0  0  0  0  0  0  0
    9.8363    1.5265   21.8495 N   0  0  0  0  0  0  0  0  0  0  0  0
    6.5551    9.3117   22.5962 N   0  0  0  0  0  0  0  0  0  0  0  0
   11.2096    3.0694   20.8084 C   0  0  0  0  0  0  0  0  0  0  0  0
   12.7225    7.8004   22.8180 C   0  0  0  0  0  0  0  0  0  0  0  0
    7.3173    9.1260   23.6189 C   0  0  0  0  0  0  0  0  0  0  0  0
    9.0369    2.5746   22.1380 C   0  0  0  0  0  0  0  0  0  0  0  0
   10.3061    4.1633   21.1017 C   0  0  0  0  0  0  0  0  0  0  0  0
   10.9189    9.3752   23.5389 C   0  0  0  0  0  0  0  0  0  0  0  0
    4.9929    7.8432   23.4111 N   0  0  0  0  0  0  0  0  0  0  0  0
    9.5475    9.3005   23.1461 N   0  0  0  0  0  0  0  0  0  0  0  0
   11.1402    6.6535   21.5498 N   0  0  0  0  0  0  0  0  0  0  0  0
   11.6465    8.0598   23.8280 C   0  0  0  0  0  0  0  0  0  0  0  0
    6.9224    8.2084   24.7000 C   0  0  0  0  0  0  0  0  0  0  0  0
    8.4483    4.9364   22.1548 C   0  0  0  0  0  0  0  0  0  0  0  0
    8.5257   10.9427   24.1896 O   0  0  0  0  0  0  0  0  0  0  0  0
    9.3020    3.9240   21.8758 C   0  0  0  0  0  0  0  0  0  0  0  0
  1  5  1  0
  1 15  4  0
  1 20  2  0
  1 22  4  0
  1 24  1  0
  2 20  1  0
  2 24  1  0
  3  6  4  0
  3 27  4  0
  4 22  4  0
  4 26  4  0
  5 17  1  0
  6  7  4  0
  6  8  4  0
  6 13  1  0
  6 22  1  0
  7  8  4  0
  7 10  3  0
  7 19  4  0
  8 18  1  0
  8 23  1  0
  8 28  2  0
  9 17  1  0
  9 24  1  0
 10 11  1  0
 10 21  2  0
 10 24  1  0
 11 23  1  0
 12 14  4  0
 12 16  4  0
 14 19  4  0
 15 18  4  0
 16 20  4  0
 17 18  3  0
 17 25  1  0
 18 26  4  0
 19 29  4  0
 20 29  4  0
 21 23  1  0
 21 25  1  0
 25 26  4  0
 27 29  4  0
M  END
$$$$

 Created by Python create_sdf_string function

 29 32  0  0  0  0  0  0  0  0999 V2000
    5.3565    8.6973   22.5645 C   0  0  0  0  0  0  0  0  0  0  0  0
   10.8928    5.4806   20.5880 C   0  0  0  0  0  0  0  0  0  0  0  0
    7.2534    4.5470   22.8448 C   0  0  0  0  0  0  0  0  0  0  0  0
    5.7519    7.5770   24.5948 C   0  0  0  0  0  0  0  0  0  0  0  0
    4.5090    8.9400   21.5320 N   0  0  0  0  0  0  0  0  0  0  0  0
    6.9794    3.2296   23.1133 C   0  0  0  0  0  0  0  0  0  0  0  0
    7.8477    2.2382   22.7698 N   0  0  0  0  0  0  0  0  0  0  0  0
    8.5380    9.8496   23.6942 C   0  0  0  0  0  0  0  0  0  0  0  0
   12.4629    6.5556   22.0068 C   0  0  0  0  0  0  0  0  0  0  0  0
   10.7253    8.0256   21.2140 C   0  0  0  0  0  0  0  0  0  0  0  0
    9.5163    8.4107   21.9000 C   0  0  0  0  0  0  0  0  0  0  0  0
   10.9228    1.7947   21.1252 C   0  0  0  0  0  0  0  0  0  0  0  0
    5.6786    2.9410   23.7915 C   0  0  0  0  0  0  0  0  0  0  0  0
    9.8380    1.5476   21.8154 N   0  0  0  0  0  0  0  0  0  0  0  0
    6.5131    9.3211   22.6105 N   0  0  0  0  0  0  0  0  0  0  0  0
   11.2278    3.1000   20.7657 C   0  0  0  0  0  0  0  0  0  0  0  0
   12.7602    7.7732   22.7988 C   0  0  0  0  0  0  0  0  0  0  0  0
    7.3018    9.1080   23.6639 C   0  0  0  0  0  0  0  0  0  0  0  0
    8.9862    2.5688   22.1259 C   0  0  0  0  0  0  0  0  0  0  0  0
   10.4507    4.1350   21.0992 C   0  0  0  0  0  0  0  0  0  0  0  0
   10.9492    9.3785   23.5652 C   0  0  0  0  0  0  0  0  0  0  0  0
    4.9834    7.8352   23.4782 N   0  0  0  0  0  0  0  0  0  0  0  0
    9.5950    9.2350   23.0828 N   0  0  0  0  0  0  0  0  0  0  0  0
   11.0996    6.6261   21.5052 N   0  0  0  0  0  0  0  0  0  0  0  0
   11.6257    8.0564   23.7842 C   0  0  0  0  0  0  0  0  0  0  0  0
    6.9404    8.2561   24.6796 C   0  0  0  0  0  0  0  0  0  0  0  0
    8.4206    4.8876   22.1755 C   0  0  0  0  0  0  0  0  0  0  0  0
    8.5262   10.9157   24.1894 O   0  0  0  0  0  0  0  0  0  0  0  0
    9.2821    3.8933   21.8012 C   0  0  0  0  0  0  0  0  0  0  0  0
  1  5  1  0
  1 15  4  0
  1 22  4  0
  2 20  1  0
  2 24  1  0
  3  6  4  0
  3 27  4  0
  4 22  4  0
  4 26  4  0
  6  7  4  0
  6 13  1  0
  7 19  4  0
  8 18  1  0
  8 23  1  0
  8 28  2  0
  9 17  1  0
  9 24  1  0
 10 11  1  0
 10 24  1  0
 11 23  1  0
 12 14  4  0
 12 16  4  0
 14 19  4  0
 15 18  4  0
 16 20  4  0
 17 25  1  0
 18 26  4  0
 19 29  4  0
 20 29  4  0
 21 23  1  0
 21 25  1  0
 27 29  4  0
M  END
$$$$

 Created by Python create_sdf_string function

 29 35  0  0  0  0  0  0  0  0999 V2000
    5.3837    8.7359   22.5571 C   0  0  0  0  0  0  0  0  0  0  0  0
   10.9200    5.4865   20.5935 C   0  0  0  0  0  0  0  0  0  0  0  0
    7.2051    4.5285   22.8378 C   0  0  0  0  0  0  0  0  0  0  0  0
    5.7187    7.5216   24.5665 C   0  0  0  0  0  0  0  0  0  0  0  0
    4.5029    8.8988   21.5463 N   0  0  0  0  0  0  0  0  0  0  0  0
    6.8884    3.2567   23.0795 C   0  0  0  0  0  0  0  0  0  0  0  0
    7.8260    2.2505   22.7805 N   0  0  0  0  0  0  0  0  0  0  0  0
    8.5871    9.8040   23.6569 C   0  0  0  0  0  0  0  0  0  0  0  0
   12.4374    6.6026   22.0604 C   0  0  0  0  0  0  0  0  0  0  0  0
   10.7447    7.9864   21.2187 C   0  0  0  0  0  0  0  0  0  0  0  0
    9.5298    8.4414   21.8991 C   0  0  0  0  0  0  0  0  0  0  0  0
   10.9414    1.7850   21.1184 S   0  0  0  0  0  0  0  0  0  0  0  0
    5.7305    2.9496   23.7861 C   0  0  0  0  0  0  0  0  0  0  0  0
    9.8262    1.5213   21.7952 N   0  0  0  0  0  0  0  0  0  0  0  0
    6.5512    9.2963   22.5634 N   0  0  0  0  0  0  0  0  0  0  0  0
   11.2044    3.0568   20.7160 C   0  0  0  0  0  0  0  0  0  0  0  0
   12.7962    7.7855   22.7596 C   0  0  0  0  0  0  0  0  0  0  0  0
    7.3123    9.0379   23.6459 C   0  0  0  0  0  0  0  0  0  0  0  0
    8.9276    2.5767   22.1011 C   0  0  0  0  0  0  0  0  0  0  0  0
   10.4337    4.1108   21.0842 C   0  0  0  0  0  0  0  0  0  0  0  0
   10.9472    9.4104   23.5979 C   0  0  0  0  0  0  0  0  0  0  0  0
    4.9363    7.8318   23.4680 N   0  0  0  0  0  0  0  0  0  0  0  0
    9.6461    9.2565   23.0163 N   0  0  0  0  0  0  0  0  0  0  0  0
   11.1145    6.5699   21.5278 N   0  0  0  0  0  0  0  0  0  0  0  0
   11.6081    8.0507   23.7416 C   0  0  0  0  0  0  0  0  0  0  0  0
    7.0073    8.1975   24.6619 C   0  0  0  0  0  0  0  0  0  0  0  0
    8.3860    4.8964   22.1244 C   0  0  0  0  0  0  0  0  0  0  0  0
    8.4922   10.9514   24.1430 O   0  0  0  0  0  0  0  0  0  0  0  0
    9.2944    3.8428   21.7487 C   0  0  0  0  0  0  0  0  0  0  0  0
  1  5  1  0
  1 15  4  0
  1 22  4  0
  2 20  1  0
  2 24  1  0
  3  6  4  0
  3 27  4  0
  4 19  2  0
  4 22  4  0
  4 26  4  0
  6  7  4  0
  6 13  1  0
  7 19  4  0
  8 18  1  0
  8 23  1  0
  8 28  2  0
  9 17  1  0
  9 24  1  0
  9 28  4  0
 10 11  1  0
 10 24  1  0
 11 23  1  0
 12 14  4  0
 12 16  4  0
 12 25  4  0
 14 19  4  0
 15 18  4  0
 16 20  4  0
 17 25  1  0
 18 26  4  0
 19 29  4  0
 20 29  4  0
 21 23  1  0
 21 25  1  0
 27 29  4  0
M  END
$$$$

 Created by Python create_sdf_string function

 29 32  0  0  0  0  0  0  0  0999 V2000
    5.3687    8.7046   22.5617 C   0  0  0  0  0  0  0  0  0  0  0  0
   10.9146    5.4771   20.6020 C   0  0  0  0  0  0  0  0  0  0  0  0
    7.2310    4.5496   22.8027 C   0  0  0  0  0  0  0  0  0  0  0  0
    5.7677    7.5447   24.5781 C   0  0  0  0  0  0  0  0  0  0  0  0
    4.5172    8.9237   21.5458 N   0  0  0  0  0  0  0  0  0  0  0  0
    6.9385    3.2412   23.0886 C   0  0  0  0  0  0  0  0  0  0  0  0
    7.8034    2.2612   22.7648 N   0  0  0  0  0  0  0  0  0  0  0  0
    8.5561    9.8273   23.6492 C   0  0  0  0  0  0  0  0  0  0  0  0
   12.4549    6.5697   22.0134 C   0  0  0  0  0  0  0  0  0  0  0  0
   10.7414    8.0011   21.2122 C   0  0  0  0  0  0  0  0  0  0  0  0
    9.5388    8.4249   21.8591 C   0  0  0  0  0  0  0  0  0  0  0  0
   10.9117    1.7573   21.1115 C   0  0  0  0  0  0  0  0  0  0  0  0
    5.7254    2.9212   23.7824 C   0  0  0  0  0  0  0  0  0  0  0  0
    9.7978    1.5209   21.7891 N   0  0  0  0  0  0  0  0  0  0  0  0
    6.5396    9.2994   22.6029 N   0  0  0  0  0  0  0  0  0  0  0  0
   11.2097    3.0663   20.7182 C   0  0  0  0  0  0  0  0  0  0  0  0
   12.7842    7.7988   22.7671 C   0  0  0  0  0  0  0  0  0  0  0  0
    7.3394    9.0633   23.6423 C   0  0  0  0  0  0  0  0  0  0  0  0
    8.9554    2.5492   22.0982 C   0  0  0  0  0  0  0  0  0  0  0  0
   10.4556    4.1243   21.0617 C   0  0  0  0  0  0  0  0  0  0  0  0
   10.9606    9.3818   23.5743 C   0  0  0  0  0  0  0  0  0  0  0  0
    4.9793    7.8459   23.4931 N   0  0  0  0  0  0  0  0  0  0  0  0
    9.6302    9.2562   23.0312 N   0  0  0  0  0  0  0  0  0  0  0  0
   11.1009    6.6101   21.5314 N   0  0  0  0  0  0  0  0  0  0  0  0
   11.6564    8.0717   23.7745 C   0  0  0  0  0  0  0  0  0  0  0  0
    6.9791    8.2068   24.6439 C   0  0  0  0  0  0  0  0  0  0  0  0
    8.3989    4.8596   22.1124 C   0  0  0  0  0  0  0  0  0  0  0  0
    8.5204   10.9136   24.1402 O   0  0  0  0  0  0  0  0  0  0  0  0
    9.2789    3.8787   21.7476 C   0  0  0  0  0  0  0  0  0  0  0  0
  1  5  1  0
  1 15  4  0
  1 22  4  0
  2 20  1  0
  2 24  1  0
  3  6  4  0
  3 27  4  0
  4 22  4  0
  4 26  4  0
  6  7  4  0
  6 13  1  0
  7 19  4  0
  8 18  1  0
  8 23  1  0
  8 28  2  0
  9 17  1  0
  9 24  1  0
 10 11  1  0
 10 24  1  0
 11 23  1  0
 12 14  4  0
 12 16  4  0
 14 19  4  0
 15 18  4  0
 16 20  4  0
 17 25  1  0
 18 26  4  0
 19 29  4  0
 20 29  4  0
 21 23  1  0
 21 25  1  0
 27 29  4  0
M  END
$$$$

 Created by Python create_sdf_string function

 29 36  0  0  0  0  0  0  0  0999 V2000
    5.3485    8.7125   22.5612 C   0  0  0  0  0  0  0  0  0  0  0  0
   10.9318    5.4294   20.5962 C   0  0  0  0  0  0  0  0  0  0  0  0
    7.2328    4.5148   22.8442 C   0  0  0  0  0  0  0  0  0  0  0  0
    5.8299    7.5068   24.6247 C   0  0  0  0  0  0  0  0  0  0  0  0
    4.4479    8.8864   21.5834 N   0  0  0  0  0  0  0  0  0  0  0  0
    6.8965    3.2594   23.1206 C   0  0  0  0  0  0  0  0  0  0  0  0
    7.7861    2.2532   22.7670 N   0  0  0  0  0  0  0  0  0  0  0  0
    8.5324    9.8422   23.6665 C   0  0  0  0  0  0  0  0  0  0  0  0
   12.4787    6.5787   22.0260 C   0  0  0  0  0  0  0  0  0  0  0  0
   10.7399    8.0358   21.2185 C   0  0  0  0  0  0  0  0  0  0  0  0
    9.5192    8.5123   21.8378 C   0  0  0  0  0  0  0  0  0  0  0  0
   10.9563    1.7946   21.1036 C   0  0  0  0  0  0  0  0  0  0  0  0
    5.6877    2.9889   23.7831 C   0  0  0  0  0  0  0  0  0  0  0  0
    9.7771    1.4808   21.7631 N   0  0  0  0  0  0  0  0  0  0  0  0
    6.5434    9.3078   22.5748 N   0  0  0  0  0  0  0  0  0  0  0  0
   11.1901    3.0781   20.6627 C   0  0  0  0  0  0  0  0  0  0  0  0
   12.7621    7.8663   22.7783 C   0  0  0  0  0  0  0  0  0  0  0  0
    7.3514    9.0209   23.6389 C   0  0  0  0  0  0  0  0  0  0  0  0
    8.9642    2.5860   22.1162 C   0  0  0  0  0  0  0  0  0  0  0  0
   10.5168    4.2016   21.0484 C   0  0  0  0  0  0  0  0  0  0  0  0
   10.9333    9.3276   23.5804 C   0  0  0  0  0  0  0  0  0  0  0  0
    4.9492    7.8324   23.4436 N   0  0  0  0  0  0  0  0  0  0  0  0
    9.6216    9.2415   23.0403 N   0  0  0  0  0  0  0  0  0  0  0  0
   11.1577    6.5916   21.5050 N   0  0  0  0  0  0  0  0  0  0  0  0
   11.7020    8.0466   23.7599 C   0  0  0  0  0  0  0  0  0  0  0  0
    7.0386    8.1763   24.6434 I   0  0  0  0  0  0  0  0  0  0  0  0
    8.3686    4.8488   22.1091 C   0  0  0  0  0  0  0  0  0  0  0  0
    8.5801   10.8859   24.1963 O   0  0  0  0  0  0  0  0  0  0  0  0
    9.3054    3.8660   21.7570 C   0  0  0  0  0  0  0  0  0  0  0  0
  1  5  1  0
  1 15  4  0
  1 22  4  0
  2 20  1  0
  2 24  1  0
  3  6  4  0
  3 10  1  0
  3 27  4  0
  4 22  4  0
  4 26  4  0
  6  7  4  0
  6 13  1  0
  7 19  4  0
  8 18  1  0
  8 23  1  0
  8 28  2  0
  9 17  1  0
  9 24  1  0
 10 11  1  0
 10 24  1  0
 11 23  1  0
 12 14  4  0
 12 16  4  0
 12 17  1  0
 12 20  4  0
 14 19  4  0
 15 18  4  0
 16 20  4  0
 16 29  2  0
 17 25  1  0
 18 26  4  0
 19 29  4  0
 20 29  4  0
 21 23  1  0
 21 25  1  0
 27 29  4  0
M  END
$$$$

 Created by Python create_sdf_string function

 29 32  0  0  0  0  0  0  0  0999 V2000
    5.3577    8.6952   22.5730 C   0  0  0  0  0  0  0  0  0  0  0  0
   10.9326    5.4655   20.5762 C   0  0  0  0  0  0  0  0  0  0  0  0
    7.2381    4.5503   22.8162 C   0  0  0  0  0  0  0  0  0  0  0  0
    5.8283    7.5318   24.5768 C   0  0  0  0  0  0  0  0  0  0  0  0
    4.4572    8.9049   21.5810 N   0  0  0  0  0  0  0  0  0  0  0  0
    6.9284    3.2502   23.1105 C   0  0  0  0  0  0  0  0  0  0  0  0
    7.7910    2.2731   22.7688 N   0  0  0  0  0  0  0  0  0  0  0  0
    8.5626    9.8242   23.6643 C   0  0  0  0  0  0  0  0  0  0  0  0
   12.4821    6.5852   22.0009 C   0  0  0  0  0  0  0  0  0  0  0  0
   10.7659    8.0526   21.2096 C   0  0  0  0  0  0  0  0  0  0  0  0
    9.5304    8.4930   21.8083 C   0  0  0  0  0  0  0  0  0  0  0  0
   10.9099    1.7830   21.0883 C   0  0  0  0  0  0  0  0  0  0  0  0
    5.6931    2.9591   23.7854 C   0  0  0  0  0  0  0  0  0  0  0  0
    9.7922    1.5220   21.7661 N   0  0  0  0  0  0  0  0  0  0  0  0
    6.5257    9.3052   22.6012 N   0  0  0  0  0  0  0  0  0  0  0  0
   11.1994    3.0749   20.6939 C   0  0  0  0  0  0  0  0  0  0  0  0
   12.7861    7.8315   22.7518 C   0  0  0  0  0  0  0  0  0  0  0  0
    7.3547    9.0687   23.6212 C   0  0  0  0  0  0  0  0  0  0  0  0
    8.9528    2.5625   22.0938 C   0  0  0  0  0  0  0  0  0  0  0  0
   10.4738    4.1383   21.0550 C   0  0  0  0  0  0  0  0  0  0  0  0
   10.9608    9.3409   23.5862 C   0  0  0  0  0  0  0  0  0  0  0  0
    5.0173    7.8281   23.5080 N   0  0  0  0  0  0  0  0  0  0  0  0
    9.6387    9.2321   23.0536 N   0  0  0  0  0  0  0  0  0  0  0  0
   11.1294    6.6304   21.4727 N   0  0  0  0  0  0  0  0  0  0  0  0
   11.6857    8.0709   23.7840 C   0  0  0  0  0  0  0  0  0  0  0  0
    7.0279    8.2060   24.6159 C   0  0  0  0  0  0  0  0  0  0  0  0
    8.4012    4.8534   22.1095 C   0  0  0  0  0  0  0  0  0  0  0  0
    8.5746   10.8749   24.1984 O   0  0  0  0  0  0  0  0  0  0  0  0
    9.2858    3.8843   21.7491 C   0  0  0  0  0  0  0  0  0  0  0  0
  1  5  1  0
  1 15  4  0
  1 22  4  0
  2 20  1  0
  2 24  1  0
  3  6  4  0
  3 27  4  0
  4 22  4  0
  4 26  4  0
  6  7  4  0
  6 13  1  0
  7 19  4  0
  8 18  1  0
  8 23  1  0
  8 28  2  0
  9 17  1  0
  9 24  1  0
 10 11  1  0
 10 24  1  0
 11 23  1  0
 12 14  4  0
 12 16  4  0
 14 19  4  0
 15 18  4  0
 16 20  4  0
 17 25  1  0
 18 26  4  0
 19 29  4  0
 20 29  4  0
 21 23  1  0
 21 25  1  0
 27 29  4  0
M  END
$$$$

 Created by Python create_sdf_string function

 29 35  0  0  0  0  0  0  0  0999 V2000
    5.3817    8.6782   22.5800 C   0  0  0  0  0  0  0  0  0  0  0  0
   10.8980    5.4660   20.5104 C   0  0  0  0  0  0  0  0  0  0  0  0
    7.2639    4.5757   22.8365 C   0  0  0  0  0  0  0  0  0  0  0  0
    5.8294    7.5406   24.5702 C   0  0  0  0  0  0  0  0  0  0  0  0
    4.4283    8.8954   21.5639 N   0  0  0  0  0  0  0  0  0  0  0  0
    6.9285    3.2402   23.0847 C   0  0  0  0  0  0  0  0  0  0  0  0
    7.8008    2.2834   22.7676 N   0  0  0  0  0  0  0  0  0  0  0  0
    8.5566    9.8224   23.5757 C   0  0  0  0  0  0  0  0  0  0  0  0
   12.4394    6.5990   21.9981 C   0  0  0  0  0  0  0  0  0  0  0  0
   10.7863    8.0590   21.2080 C   0  0  0  0  0  0  0  0  0  0  0  0
    9.4972    8.5261   21.8082 C   0  0  0  0  0  0  0  0  0  0  0  0
   10.8697    1.7633   21.0996 C   0  0  0  0  0  0  0  0  0  0  0  0
    5.6977    2.9581   23.8223 C   0  0  0  0  0  0  0  0  0  0  0  0
    9.7563    1.5328   21.7849 N   0  0  0  0  0  0  0  0  0  0  0  0
    6.4907    9.3262   22.5791 N   0  0  0  0  0  0  0  0  0  0  0  0
   11.1963    3.0528   20.6865 C   0  0  0  0  0  0  0  0  0  0  0  0
   12.8092    7.8337   22.8336 C   0  0  0  0  0  0  0  0  0  0  0  0
    7.3790    9.0709   23.6325 C   0  0  0  0  0  0  0  0  0  0  0  0
    9.0341    2.5830   22.0833 C   0  0  0  0  0  0  0  0  0  0  0  0
   10.5305    4.1435   21.0337 C   0  0  0  0  0  0  0  0  0  0  0  0
   10.9215    9.3521   23.5775 C   0  0  0  0  0  0  0  0  0  0  0  0
    5.0744    7.8284   23.5337 N   0  0  0  0  0  0  0  0  0  0  0  0
    9.6425    9.2222   23.0631 N   0  0  0  0  0  0  0  0  0  0  0  0
   11.1802    6.5882   21.4691 N   0  0  0  0  0  0  0  0  0  0  0  0
   11.7245    8.0089   23.7829 C   0  0  0  0  0  0  0  0  0  0  0  0
    7.0876    8.2611   24.6228 C   0  0  0  0  0  0  0  0  0  0  0  0
    8.3975    4.8669   22.1108 C   0  0  0  0  0  0  0  0  0  0  0  0
    8.5967   10.8344   24.1878 O   0  0  0  0  0  0  0  0  0  0  0  0
    9.2645    3.8951   21.7671 C   0  0  0  0  0  0  0  0  0  0  0  0
  1  5  1  0
  1 15  4  0
  1 22  4  0
  2 20  1  0
  2 24  1  0
  3  6  4  0
  3 27  4  0
  4 22  4  0
  4 26  4  0
  5 19  2  0
  6  7  4  0
  6 13  1  0
  7 19  4  0
  8 18  1  0
  8 23  1  0
  8 28  2  0
  9 17  1  0
  9 24  1  0
 10 11  1  0
 10 24  1  0
 11 23  1  0
 12 14  4  0
 12 16  4  0
 14 19  4  0
 15 18  4  0
 16 20  4  0
 16 29  4  0
 17 25  1  0
 18 19  3  0
 18 26  1  0
 19 29  4  0
 20 29  4  0
 21 23  1  0
 21 25  1  0
 27 29  4  0
M  END
$$$$

 Created by Python create_sdf_string function

 29 32  0  0  0  0  0  0  0  0999 V2000
    5.3540    8.6799   22.5841 C   0  0  0  0  0  0  0  0  0  0  0  0
   10.9087    5.4787   20.5378 C   0  0  0  0  0  0  0  0  0  0  0  0
    7.2585    4.5657   22.8128 C   0  0  0  0  0  0  0  0  0  0  0  0
    5.8799    7.5669   24.5761 C   0  0  0  0  0  0  0  0  0  0  0  0
    4.4532    8.8908   21.5910 N   0  0  0  0  0  0  0  0  0  0  0  0
    6.9592    3.2571   23.0967 C   0  0  0  0  0  0  0  0  0  0  0  0
    7.8185    2.2695   22.7607 N   0  0  0  0  0  0  0  0  0  0  0  0
    8.5896    9.8120   23.6256 C   0  0  0  0  0  0  0  0  0  0  0  0
   12.4734    6.5825   21.9787 C   0  0  0  0  0  0  0  0  0  0  0  0
   10.7975    8.0602   21.1978 C   0  0  0  0  0  0  0  0  0  0  0  0
    9.5543    8.4957   21.7758 C   0  0  0  0  0  0  0  0  0  0  0  0
   10.8822    1.7552   21.0763 C   0  0  0  0  0  0  0  0  0  0  0  0
    5.7273    2.9446   23.7990 C   0  0  0  0  0  0  0  0  0  0  0  0
    9.7858    1.5372   21.7694 N   0  0  0  0  0  0  0  0  0  0  0  0
    6.5028    9.3134   22.5958 N   0  0  0  0  0  0  0  0  0  0  0  0
   11.2023    3.0564   20.6944 C   0  0  0  0  0  0  0  0  0  0  0  0
   12.8167    7.7908   22.7864 C   0  0  0  0  0  0  0  0  0  0  0  0
    7.3581    9.0854   23.6031 C   0  0  0  0  0  0  0  0  0  0  0  0
    8.9685    2.5734   22.0856 C   0  0  0  0  0  0  0  0  0  0  0  0
   10.4831    4.1350   21.0379 C   0  0  0  0  0  0  0  0  0  0  0  0
   10.9802    9.3351   23.5789 C   0  0  0  0  0  0  0  0  0  0  0  0
    5.0476    7.8216   23.5191 N   0  0  0  0  0  0  0  0  0  0  0  0
    9.6600    9.2126   23.0392 N   0  0  0  0  0  0  0  0  0  0  0  0
   11.1374    6.6345   21.4544 N   0  0  0  0  0  0  0  0  0  0  0  0
   11.6984    8.0412   23.8003 C   0  0  0  0  0  0  0  0  0  0  0  0
    7.0486    8.2326   24.6332 C   0  0  0  0  0  0  0  0  0  0  0  0
    8.4269    4.8807   22.1034 C   0  0  0  0  0  0  0  0  0  0  0  0
    8.6093   10.8442   24.1675 O   0  0  0  0  0  0  0  0  0  0  0  0
    9.2980    3.8911   21.7397 C   0  0  0  0  0  0  0  0  0  0  0  0
  1  5  1  0
  1 15  4  0
  1 22  4  0
  2 20  1  0
  2 24  1  0
  3  6  4  0
  3 27  4  0
  4 22  4  0
  4 26  4  0
  6  7  4  0
  6 13  1  0
  7 19  4  0
  8 18  1  0
  8 23  1  0
  8 28  2  0
  9 17  1  0
  9 24  1  0
 10 11  1  0
 10 24  1  0
 11 23  1  0
 12 14  4  0
 12 16  4  0
 14 19  4  0
 15 18  4  0
 16 20  4  0
 17 25  1  0
 18 26  4  0
 19 29  4  0
 20 29  4  0
 21 23  1  0
 21 25  1  0
 27 29  4  0
M  END
$$$$

 Created by Python create_sdf_string function

 29 37  0  0  0  0  0  0  0  0999 V2000
    5.3762    8.7024   22.5923 C   0  0  0  0  0  0  0  0  0  0  0  0
   10.8961    5.5029   20.5462 C   0  0  0  0  0  0  0  0  0  0  0  0
    7.2494    4.6005   22.8278 C   0  0  0  0  0  0  0  0  0  0  0  0
    5.9025    7.5513   24.6464 C   0  0  0  0  0  0  0  0  0  0  0  0
    4.4874    8.8796   21.5883 N   0  0  0  0  0  0  0  0  0  0  0  0
    6.9546    3.2832   23.1071 C   0  0  0  0  0  0  0  0  0  0  0  0
    7.8030    2.2512   22.7784 N   0  0  0  0  0  0  0  0  0  0  0  0
    8.6085    9.8183   23.6638 C   0  0  0  0  0  0  0  0  0  0  0  0
   12.5218    6.5920   21.9863 C   0  0  0  0  0  0  0  0  0  0  0  0
   10.7874    8.0948   21.1864 C   0  0  0  0  0  0  0  0  0  0  0  0
    9.6060    8.5006   21.7659 C   0  0  0  0  0  0  0  0  0  0  0  0
   10.8912    1.6984   21.0735 C   0  0  0  0  0  0  0  0  0  0  0  0
    5.7098    2.9085   23.8186 C   0  0  0  0  0  0  0  0  0  0  0  0
    9.8323    1.5531   21.7965 N   0  0  0  0  0  0  0  0  0  0  0  0
    6.4997    9.3201   22.5761 N   0  0  0  0  0  0  0  0  0  0  0  0
   11.1923    3.0351   20.6634 C   0  0  0  0  0  0  0  0  0  0  0  0
   12.8140    7.7780   22.7822 C   0  0  0  0  0  0  0  0  0  0  0  0
    7.3526    9.0532   23.5997 C   0  0  0  0  0  0  0  0  0  0  0  0
    8.9831    2.6036   22.0938 C   0  0  0  0  0  0  0  0  0  0  0  0
   10.4819    4.1088   21.0644 C   0  0  0  0  0  0  0  0  0  0  0  0
   10.9951    9.3328   23.5971 C   0  0  0  0  0  0  0  0  0  0  0  0
    5.0269    7.8551   23.4982 N   0  0  0  0  0  0  0  0  0  0  0  0
    9.6976    9.2122   23.0465 N   0  0  0  0  0  0  0  0  0  0  0  0
   11.1556    6.6371   21.4924 N   0  0  0  0  0  0  0  0  0  0  0  0
   11.7098    8.0326   23.7852 C   0  0  0  0  0  0  0  0  0  0  0  0
    7.0134    8.2231   24.6495 C   0  0  0  0  0  0  0  0  0  0  0  0
    8.4268    4.8574   22.0836 C   0  0  0  0  0  0  0  0  0  0  0  0
    8.5927   10.8433   24.1499 O   0  0  0  0  0  0  0  0  0  0  0  0
    9.3255    3.9273   21.7259 C   0  0  0  0  0  0  0  0  0  0  0  0
  1  5  1  0
  1 15  4  0
  1 19  3  0
  1 22  4  0
  2  8  1  0
  2 20  1  0
  2 24  1  0
  3  6  4  0
  3 27  4  0
  4 14  1  0
  4 22  4  0
  4 26  4  0
  6  7  4  0
  7 19  4  0
  8 11  4  0
  8 18  1  0
  8 23  1  0
  8 28  2  0
  9 17  1  0
  9 24  1  0
  9 29  1  0
 10 11  1  0
 10 24  1  0
 11 23  1  0
 12 14  4  0
 12 16  4  0
 14 19  4  0
 15 18  4  0
 16 20  4  0
 17 19  3  0
 17 25  1  0
 18 26  4  0
 19 29  4  0
 20 29  4  0
 21 23  3  0
 21 25  1  0
 27 29  4  0
M  END
$$$$

 Created by Python create_sdf_string function

 29 32  0  0  0  0  0  0  0  0999 V2000
    5.3770    8.6897   22.5991 C   0  0  0  0  0  0  0  0  0  0  0  0
   10.9065    5.4825   20.5735 C   0  0  0  0  0  0  0  0  0  0  0  0
    7.2594    4.5805   22.8044 C   0  0  0  0  0  0  0  0  0  0  0  0
    5.8756    7.5704   24.6070 C   0  0  0  0  0  0  0  0  0  0  0  0
    4.4959    8.8915   21.5998 N   0  0  0  0  0  0  0  0  0  0  0  0
    6.9720    3.2693   23.1033 C   0  0  0  0  0  0  0  0  0  0  0  0
    7.8281    2.2815   22.7683 N   0  0  0  0  0  0  0  0  0  0  0  0
    8.6093    9.8107   23.6389 C   0  0  0  0  0  0  0  0  0  0  0  0
   12.5080    6.5863   21.9541 C   0  0  0  0  0  0  0  0  0  0  0  0
   10.8313    8.0845   21.1692 C   0  0  0  0  0  0  0  0  0  0  0  0
    9.5957    8.5082   21.7692 C   0  0  0  0  0  0  0  0  0  0  0  0
   10.8963    1.7356   21.0604 C   0  0  0  0  0  0  0  0  0  0  0  0
    5.7235    2.9185   23.8119 C   0  0  0  0  0  0  0  0  0  0  0  0
    9.8134    1.5399   21.7758 N   0  0  0  0  0  0  0  0  0  0  0  0
    6.5321    9.3183   22.6124 N   0  0  0  0  0  0  0  0  0  0  0  0
   11.2143    3.0379   20.6673 C   0  0  0  0  0  0  0  0  0  0  0  0
   12.8369    7.7722   22.7906 C   0  0  0  0  0  0  0  0  0  0  0  0
    7.3702    9.0849   23.6278 C   0  0  0  0  0  0  0  0  0  0  0  0
    8.9850    2.5715   22.0871 C   0  0  0  0  0  0  0  0  0  0  0  0
   10.4845    4.1240   21.0383 C   0  0  0  0  0  0  0  0  0  0  0  0
   11.0087    9.3293   23.5847 C   0  0  0  0  0  0  0  0  0  0  0  0
    5.0492    7.8347   23.5367 N   0  0  0  0  0  0  0  0  0  0  0  0
    9.6791    9.2081   23.0341 N   0  0  0  0  0  0  0  0  0  0  0  0
   11.1422    6.6724   21.4665 N   0  0  0  0  0  0  0  0  0  0  0  0
   11.7099    8.0315   23.7858 C   0  0  0  0  0  0  0  0  0  0  0  0
    7.0512    8.2448   24.6483 C   0  0  0  0  0  0  0  0  0  0  0  0
    8.4323    4.8813   22.0888 C   0  0  0  0  0  0  0  0  0  0  0  0
    8.6123   10.8543   24.1583 O   0  0  0  0  0  0  0  0  0  0  0  0
    9.3077    3.8920   21.7308 C   0  0  0  0  0  0  0  0  0  0  0  0
  1  5  1  0
  1 15  4  0
  1 22  4  0
  2 20  1  0
  2 24  1  0
  3  6  4  0
  3 27  4  0
  4 22  4  0
  4 26  4  0
  6  7  4  0
  6 13  1  0
  7 19  4  0
  8 18  1  0
  8 23  1  0
  8 28  2  0
  9 17  1  0
  9 24  1  0
 10 11  1  0
 10 24  1  0
 11 23  1  0
 12 14  4  0
 12 16  4  0
 14 19  4  0
 15 18  4  0
 16 20  4  0
 17 25  1  0
 18 26  4  0
 19 29  4  0
 20 29  4  0
 21 23  1  0
 21 25  1  0
 27 29  4  0
M  END
$$$$

 Created by Python create_sdf_string function

 29 32  0  0  0  0  0  0  0  0999 V2000
    5.3664    8.6975   22.6283 C   0  0  0  0  0  0  0  0  0  0  0  0
   10.8959    5.4998   20.5387 C   0  0  0  0  0  0  0  0  0  0  0  0
    7.2774    4.5768   22.7899 C   0  0  0  0  0  0  0  0  0  0  0  0
    5.8829    7.5783   24.6198 C   0  0  0  0  0  0  0  0  0  0  0  0
    4.4993    8.8810   21.5985 O   0  0  0  0  0  0  0  0  0  0  0  0
    6.9671    3.2407   23.1245 C   0  0  0  0  0  0  0  0  0  0  0  0
    7.7874    2.2887   22.7448 N   0  0  0  0  0  0  0  0  0  0  0  0
    8.5865    9.8372   23.6369 C   0  0  0  0  0  0  0  0  0  0  0  0
   12.4988    6.6170   21.9561 C   0  0  0  0  0  0  0  0  0  0  0  0
   10.8216    8.0570   21.1631 C   0  0  0  0  0  0  0  0  0  0  0  0
    9.5429    8.5191   21.7405 C   0  0  0  0  0  0  0  0  0  0  0  0
   10.8642    1.7036   21.0744 C   0  0  0  0  0  0  0  0  0  0  0  0
    5.7324    2.8944   23.7734 C   0  0  0  0  0  0  0  0  0  0  0  0
    9.8479    1.5488   21.7451 N   0  0  0  0  0  0  0  0  0  0  0  0
   11.1773    3.0381   20.6440 C   0  0  0  0  0  0  0  0  0  0  0  0
   12.8190    7.7253   22.7821 C   0  0  0  0  0  0  0  0  0  0  0  0
    7.3560    9.0805   23.6604 C   0  0  0  0  0  0  0  0  0  0  0  0
    8.9746    2.5560   22.0986 C   0  0  0  0  0  0  0  0  0  0  0  0
   10.4167    4.1082   21.0386 C   0  0  0  0  0  0  0  0  0  0  0  0
   11.0266    9.3451   23.5686 C   0  0  0  0  0  0  0  0  0  0  0  0
    5.0199    7.8344   23.5311 N   0  0  0  0  0  0  0  0  0  0  0  0
    9.6632    9.2251   23.0277 N   0  0  0  0  0  0  0  0  0  0  0  0
   11.1619    6.6745   21.4448 N   0  0  0  0  0  0  0  0  0  0  0  0
   11.7266    8.0310   23.7716 C   0  0  0  0  0  0  0  0  0  0  0  0
    7.0268    8.2484   24.6243 C   0  0  0  0  0  0  0  0  0  0  0  0
    8.4159    4.8466   22.0712 C   0  0  0  0  0  0  0  0  0  0  0  0
    8.6377   10.8385   24.1389 O   0  0  0  0  0  0  0  0  0  0  0  0
    9.2976    3.8906   21.7432 C   0  0  0  0  0  0  0  0  0  0  0  0
    6.5040    9.3161   22.5893 He  0  0  0  0  0  0  0  0  0  0  0  0
  1  5  1  0
  1 21  4  0
  2 19  1  0
  2 23  1  0
  3  6  4  0
  3 26  4  0
  4 21  4  0
  4 25  4  0
  6  7  4  0
  6 13  1  0
  7 18  4  0
  8 17  1  0
  8 22  1  0
  8 27  2  0
  9 16  1  0
  9 23  1  0
 10 11  1  0
 10 23  1  0
 11 22  1  0
 12 14  4  0
 12 15  4  0
 14 18  4  0
 14 23  4  0
 15 19  4  0
 16 24  1  0
 17 18  2  0
 17 25  4  0
 18 28  4  0
 19 28  4  0
 20 22  1  0
 20 24  1  0
 26 28  4  0
M  END
$$$$

 Created by Python create_sdf_string function

 29 32  0  0  0  0  0  0  0  0999 V2000
    5.3541    8.6849   22.6092 C   0  0  0  0  0  0  0  0  0  0  0  0
   10.8951    5.4892   20.5734 C   0  0  0  0  0  0  0  0  0  0  0  0
    7.2595    4.5511   22.7977 C   0  0  0  0  0  0  0  0  0  0  0  0
    5.8752    7.5748   24.6264 C   0  0  0  0  0  0  0  0  0  0  0  0
    4.4959    8.8815   21.6139 O   0  0  0  0  0  0  0  0  0  0  0  0
    6.9707    3.2456   23.1021 C   0  0  0  0  0  0  0  0  0  0  0  0
    7.8218    2.2664   22.7551 N   0  0  0  0  0  0  0  0  0  0  0  0
    8.6232    9.8193   23.6347 C   0  0  0  0  0  0  0  0  0  0  0  0
   12.4877    6.5964   21.9223 C   0  0  0  0  0  0  0  0  0  0  0  0
   10.8413    8.0956   21.1538 C   0  0  0  0  0  0  0  0  0  0  0  0
    9.5794    8.5244   21.7508 C   0  0  0  0  0  0  0  0  0  0  0  0
   10.8793    1.7331   21.0500 C   0  0  0  0  0  0  0  0  0  0  0  0
    5.7499    2.8927   23.7738 C   0  0  0  0  0  0  0  0  0  0  0  0
    9.7995    1.5251   21.7590 N   0  0  0  0  0  0  0  0  0  0  0  0
    6.5215    9.3174   22.6091 N   0  0  0  0  0  0  0  0  0  0  0  0
   11.1929    3.0342   20.6479 C   0  0  0  0  0  0  0  0  0  0  0  0
   12.8416    7.7441   22.7860 C   0  0  0  0  0  0  0  0  0  0  0  0
    7.3744    9.0993   23.6299 C   0  0  0  0  0  0  0  0  0  0  0  0
    8.9691    2.5495   22.0776 C   0  0  0  0  0  0  0  0  0  0  0  0
   10.4538    4.1114   21.0177 C   0  0  0  0  0  0  0  0  0  0  0  0
   11.0310    9.3300   23.5433 C   0  0  0  0  0  0  0  0  0  0  0  0
    5.0377    7.8245   23.5673 N   0  0  0  0  0  0  0  0  0  0  0  0
    9.6874    9.2192   23.0266 N   0  0  0  0  0  0  0  0  0  0  0  0
   11.1465    6.6955   21.4389 N   0  0  0  0  0  0  0  0  0  0  0  0
   11.7256    8.0286   23.7728 C   0  0  0  0  0  0  0  0  0  0  0  0
    7.0506    8.2678   24.6385 C   0  0  0  0  0  0  0  0  0  0  0  0
    8.4217    4.8551   22.0813 C   0  0  0  0  0  0  0  0  0  0  0  0
    8.6549   10.8587   24.1550 O   0  0  0  0  0  0  0  0  0  0  0  0
    9.2883    3.8651   21.7208 C   0  0  0  0  0  0  0  0  0  0  0  0
  1  5  1  0
  1 15  4  0
  1 22  4  0
  2 20  1  0
  2 24  1  0
  3  6  4  0
  3 27  4  0
  4 22  4  0
  4 26  4  0
  6  7  4  0
  6 13  1  0
  7 19  4  0
  8 18  1  0
  8 23  1  0
  8 28  2  0
  9 17  1  0
  9 24  1  0
 10 11  1  0
 10 24  1  0
 11 23  1  0
 12 14  4  0
 12 16  4  0
 14 19  4  0
 15 18  4  0
 16 20  4  0
 17 25  1  0
 18 26  4  0
 19 29  4  0
 20 29  4  0
 21 23  1  0
 21 25  1  0
 27 29  4  0
M  END
$$$$

 Created by Python create_sdf_string function

 29 32  0  0  0  0  0  0  0  0999 V2000
    5.3378    8.6700   22.6037 C   0  0  0  0  0  0  0  0  0  0  0  0
   10.8829    5.4745   20.5614 C   0  0  0  0  0  0  0  0  0  0  0  0
    7.2865    4.5363   22.7801 C   0  0  0  0  0  0  0  0  0  0  0  0
    5.8934    7.5691   24.6090 C   0  0  0  0  0  0  0  0  0  0  0  0
    4.4783    8.8940   21.6173 O   0  0  0  0  0  0  0  0  0  0  0  0
    6.9651    3.2598   23.1028 C   0  0  0  0  0  0  0  0  0  0  0  0
    7.8191    2.2660   22.7467 N   0  0  0  0  0  0  0  0  0  0  0  0
    8.6377    9.8247   23.6465 C   0  0  0  0  0  0  0  0  0  0  0  0
   12.4994    6.5817   21.9175 C   0  0  0  0  0  0  0  0  0  0  0  0
   10.8585    8.0799   21.1399 C   0  0  0  0  0  0  0  0  0  0  0  0
    9.5740    8.5261   21.7628 C   0  0  0  0  0  0  0  0  0  0  0  0
   10.8416    1.7179   21.0434 C   0  0  0  0  0  0  0  0  0  0  0  0
    5.7340    2.8718   23.7929 C   0  0  0  0  0  0  0  0  0  0  0  0
    9.7849    1.5333   21.7574 N   0  0  0  0  0  0  0  0  0  0  0  0
    6.5384    9.3141   22.5833 N   0  0  0  0  0  0  0  0  0  0  0  0
   11.2048    3.0623   20.5897 C   0  0  0  0  0  0  0  0  0  0  0  0
   12.8316    7.7287   22.7868 C   0  0  0  0  0  0  0  0  0  0  0  0
    7.4008    9.1266   23.6328 C   0  0  0  0  0  0  0  0  0  0  0  0
    8.9494    2.5400   22.0724 C   0  0  0  0  0  0  0  0  0  0  0  0
   10.4540    4.0893   21.0159 C   0  0  0  0  0  0  0  0  0  0  0  0
   11.0296    9.3453   23.5337 C   0  0  0  0  0  0  0  0  0  0  0  0
    5.0514    7.8227   23.5969 N   0  0  0  0  0  0  0  0  0  0  0  0
    9.6957    9.2076   23.0300 N   0  0  0  0  0  0  0  0  0  0  0  0
   11.1406    6.6911   21.4253 N   0  0  0  0  0  0  0  0  0  0  0  0
   11.7419    7.9862   23.8034 C   0  0  0  0  0  0  0  0  0  0  0  0
    7.0674    8.3013   24.6641 C   0  0  0  0  0  0  0  0  0  0  0  0
    8.3907    4.8680   22.0872 C   0  0  0  0  0  0  0  0  0  0  0  0
    8.6493   10.8645   24.1836 O   0  0  0  0  0  0  0  0  0  0  0  0
    9.3018    3.8585   21.7110 C   0  0  0  0  0  0  0  0  0  0  0  0
  1  5  1  0
  1 15  4  0
  1 22  4  0
  2 20  1  0
  2 24  1  0
  3  6  4  0
  3 27  4  0
  4 22  4  0
  4 26  4  0
  6  7  4  0
  6 13  1  0
  7 19  4  0
  8 18  1  0
  8 23  1  0
  8 28  2  0
  9 17  1  0
  9 24  1  0
 10 11  1  0
 10 24  1  0
 11 23  1  0
 12 14  4  0
 12 16  3  0
 14 19  4  0
 15 18  4  0
 16 20  4  0
 17 25  1  0
 18 26  4  0
 19 29  4  0
 20 29  4  0
 21 23  1  0
 21 25  1  0
 27 29  4  0
M  END
$$$$

 Created by Python create_sdf_string function

 29 32  0  0  0  0  0  0  0  0999 V2000
    5.3753    8.6853   22.6233 C   0  0  0  0  0  0  0  0  0  0  0  0
   10.8881    5.4709   20.5660 C   0  0  0  0  0  0  0  0  0  0  0  0
    7.2654    4.5352   22.7896 C   0  0  0  0  0  0  0  0  0  0  0  0
    5.9137    7.5860   24.6227 C   0  0  0  0  0  0  0  0  0  0  0  0
    4.4946    8.8886   21.6396 O   0  0  0  0  0  0  0  0  0  0  0  0
    6.9772    3.2421   23.0904 C   0  0  0  0  0  0  0  0  0  0  0  0
    7.8179    2.2535   22.7499 N   0  0  0  0  0  0  0  0  0  0  0  0
    8.6412    9.8211   23.6384 C   0  0  0  0  0  0  0  0  0  0  0  0
   12.4926    6.5839   21.9027 C   0  0  0  0  0  0  0  0  0  0  0  0
   10.8622    8.1273   21.1370 C   0  0  0  0  0  0  0  0  0  0  0  0
    9.6063    8.5339   21.7543 C   0  0  0  0  0  0  0  0  0  0  0  0
   10.8653    1.7271   21.0176 C   0  0  0  0  0  0  0  0  0  0  0  0
    5.7516    2.8750   23.7865 C   0  0  0  0  0  0  0  0  0  0  0  0
    9.7870    1.5222   21.7336 N   0  0  0  0  0  0  0  0  0  0  0  0
    6.5417    9.3085   22.6182 N   0  0  0  0  0  0  0  0  0  0  0  0
   11.1884    3.0171   20.6190 C   0  0  0  0  0  0  0  0  0  0  0  0
   12.8273    7.7375   22.7791 C   0  0  0  0  0  0  0  0  0  0  0  0
    7.3965    9.1165   23.6358 C   0  0  0  0  0  0  0  0  0  0  0  0
    8.9565    2.5410   22.0623 C   0  0  0  0  0  0  0  0  0  0  0  0
   10.4610    4.1000   20.9971 C   0  0  0  0  0  0  0  0  0  0  0  0
   11.0475    9.3280   23.5320 C   0  0  0  0  0  0  0  0  0  0  0  0
    5.0627    7.8271   23.5959 N   0  0  0  0  0  0  0  0  0  0  0  0
    9.7141    9.2094   23.0256 N   0  0  0  0  0  0  0  0  0  0  0  0
   11.1432    6.7052   21.4135 N   0  0  0  0  0  0  0  0  0  0  0  0
   11.7311    8.0135   23.7825 C   0  0  0  0  0  0  0  0  0  0  0  0
    7.0643    8.3057   24.6512 C   0  0  0  0  0  0  0  0  0  0  0  0
    8.4194    4.8515   22.0760 C   0  0  0  0  0  0  0  0  0  0  0  0
    8.6760   10.8674   24.1858 O   0  0  0  0  0  0  0  0  0  0  0  0
    9.2881    3.8567   21.7033 C   0  0  0  0  0  0  0  0  0  0  0  0
  1  5  1  0
  1 15  4  0
  1 22  4  0
  2 20  1  0
  2 24  1  0
  3  6  4  0
  3 27  4  0
  4 22  4  0
  4 26  4  0
  6  7  4  0
  6 13  1  0
  7 19  4  0
  8 18  1  0
  8 23  1  0
  8 28  2  0
  9 17  1  0
  9 24  1  0
 10 11  1  0
 10 24  1  0
 11 23  1  0
 12 14  4  0
 12 16  4  0
 14 19  4  0
 15 18  4  0
 16 20  4  0
 17 25  1  0
 18 26  4  0
 19 29  4  0
 20 29  4  0
 21 23  1  0
 21 25  1  0
 27 29  4  0
M  END
$$$$

 Created by Python create_sdf_string function

 29 34  0  0  0  0  0  0  0  0999 V2000
    5.3659    8.6896   22.6210 C   0  0  0  0  0  0  0  0  0  0  0  0
   10.9075    5.4831   20.5667 C   0  0  0  0  0  0  0  0  0  0  0  0
    7.2493    4.5250   22.7978 C   0  0  0  0  0  0  0  0  0  0  0  0
    5.9286    7.6016   24.6294 C   0  0  0  0  0  0  0  0  0  0  0  0
    4.5006    8.8873   21.6474 O   0  0  0  0  0  0  0  0  0  0  0  0
    6.9559    3.2415   23.0797 C   0  0  0  0  0  0  0  0  0  0  0  0
    7.8016    2.2230   22.7547 N   0  0  0  0  0  0  0  0  0  0  0  0
    8.6328    9.8266   23.6422 C   0  0  0  0  0  0  0  0  0  0  0  0
   12.4895    6.5616   21.8861 C   0  0  0  0  0  0  0  0  0  0  0  0
   10.8371    8.1363   21.1485 C   0  0  0  0  0  0  0  0  0  0  0  0
    9.6160    8.5459   21.7555 C   0  0  0  0  0  0  0  0  0  0  0  0
   10.8743    1.7118   21.0089 C   0  0  0  0  0  0  0  0  0  0  0  0
    5.7589    2.8720   23.8027 C   0  0  0  0  0  0  0  0  0  0  0  0
    9.7937    1.5003   21.7348 N   0  0  0  0  0  0  0  0  0  0  0  0
    6.5671    9.3230   22.6136 N   0  0  0  0  0  0  0  0  0  0  0  0
   11.1967    3.0055   20.6210 C   0  0  0  0  0  0  0  0  0  0  0  0
   12.8090    7.7368   22.7575 C   0  0  0  0  0  0  0  0  0  0  0  0
    7.4193    9.1037   23.6293 C   0  0  0  0  0  0  0  0  0  0  0  0
    8.9454    2.5399   22.0770 C   0  0  0  0  0  0  0  0  0  0  0  0
   10.4508    4.1077   21.0113 C   0  0  0  0  0  0  0  0  0  0  0  0
   11.0330    9.3272   23.5327 C   0  0  0  0  0  0  0  0  0  0  0  0
    5.0500    7.8194   23.5656 N   0  0  0  0  0  0  0  0  0  0  0  0
    9.7133    9.2040   23.0375 N   0  0  0  0  0  0  0  0  0  0  0  0
   11.1589    6.7033   21.3889 N   0  0  0  0  0  0  0  0  0  0  0  0
   11.7451    8.0279   23.7838 C   0  0  0  0  0  0  0  0  0  0  0  0
    7.0743    8.3240   24.6469 C   0  0  0  0  0  0  0  0  0  0  0  0
    8.3895    4.8396   22.0496 C   0  0  0  0  0  0  0  0  0  0  0  0
    8.6623   10.8563   24.1841 O   0  0  0  0  0  0  0  0  0  0  0  0
    9.2663    3.8567   21.7188 C   0  0  0  0  0  0  0  0  0  0  0  0
  1  5  1  0
  1 15  4  0
  1 22  4  0
  2 20  1  0
  2 24  1  0
  3  6  4  0
  3  8  3  0
  3 27  4  0
  4 10  1  0
  4 22  4  0
  4 26  4  0
  6  7  4  0
  6 13  1  0
  7 19  4  0
  8 18  1  0
  8 23  1  0
  8 28  2  0
  9 17  4  0
  9 24  1  0
 10 11  1  0
 10 24  1  0
 11 23  1  0
 12 14  4  0
 12 16  4  0
 14 19  4  0
 15 18  4  0
 16 20  4  0
 17 25  1  0
 18 26  4  0
 19 29  4  0
 20 29  4  0
 21 23  1  0
 21 25  1  0
 27 29  4  0
M  END
$$$$

 Created by Python create_sdf_string function

 29 32  0  0  0  0  0  0  0  0999 V2000
    5.3946    8.6965   22.6296 C   0  0  0  0  0  0  0  0  0  0  0  0
   10.9052    5.4719   20.5683 C   0  0  0  0  0  0  0  0  0  0  0  0
    7.2505    4.5256   22.7827 C   0  0  0  0  0  0  0  0  0  0  0  0
    5.9280    7.6131   24.6269 C   0  0  0  0  0  0  0  0  0  0  0  0
    4.5150    8.8881   21.6634 O   0  0  0  0  0  0  0  0  0  0  0  0
    6.9683    3.2276   23.0832 C   0  0  0  0  0  0  0  0  0  0  0  0
    7.8116    2.2374   22.7487 N   0  0  0  0  0  0  0  0  0  0  0  0
    8.6544    9.8200   23.6359 C   0  0  0  0  0  0  0  0  0  0  0  0
   12.5162    6.5663   21.8802 C   0  0  0  0  0  0  0  0  0  0  0  0
   10.8682    8.1581   21.1387 C   0  0  0  0  0  0  0  0  0  0  0  0
    9.6176    8.5529   21.7478 C   0  0  0  0  0  0  0  0  0  0  0  0
   10.8743    1.7157   21.0027 C   0  0  0  0  0  0  0  0  0  0  0  0
    5.7618    2.8698   23.7991 C   0  0  0  0  0  0  0  0  0  0  0  0
    9.7860    1.5008   21.7232 N   0  0  0  0  0  0  0  0  0  0  0  0
    6.5568    9.3206   22.6284 N   0  0  0  0  0  0  0  0  0  0  0  0
   11.1835    3.0129   20.6298 C   0  0  0  0  0  0  0  0  0  0  0  0
   12.8408    7.7402   22.7386 C   0  0  0  0  0  0  0  0  0  0  0  0
    7.4110    9.1153   23.6363 C   0  0  0  0  0  0  0  0  0  0  0  0
    8.9604    2.5229   22.0537 C   0  0  0  0  0  0  0  0  0  0  0  0
   10.4705    4.0995   20.9908 C   0  0  0  0  0  0  0  0  0  0  0  0
   11.0545    9.3248   23.5251 C   0  0  0  0  0  0  0  0  0  0  0  0
    5.0773    7.8268   23.5881 N   0  0  0  0  0  0  0  0  0  0  0  0
    9.7177    9.2125   23.0260 N   0  0  0  0  0  0  0  0  0  0  0  0
   11.1614    6.7271   21.3794 N   0  0  0  0  0  0  0  0  0  0  0  0
   11.7578    8.0344   23.7594 C   0  0  0  0  0  0  0  0  0  0  0  0
    7.0803    8.3138   24.6599 C   0  0  0  0  0  0  0  0  0  0  0  0
    8.3991    4.8310   22.0585 C   0  0  0  0  0  0  0  0  0  0  0  0
    8.6808   10.8551   24.1817 O   0  0  0  0  0  0  0  0  0  0  0  0
    9.2855    3.8407   21.6918 C   0  0  0  0  0  0  0  0  0  0  0  0
  1  5  1  0
  1 15  4  0
  1 22  4  0
  2 20  1  0
  2 24  1  0
  3  6  4  0
  3 27  4  0
  4 22  4  0
  4 26  4  0
  6  7  4  0
  6 13  1  0
  7 19  4  0
  8 18  1  0
  8 23  1  0
  8 28  2  0
  9 17  1  0
  9 24  1  0
 10 11  1  0
 10 24  1  0
 11 23  1  0
 12 14  4  0
 12 16  4  0
 14 19  4  0
 15 18  4  0
 16 20  4  0
 17 25  1  0
 18 26  4  0
 19 29  4  0
 20 29  4  0
 21 23  1  0
 21 25  1  0
 27 29  4  0
M  END
$$$$

 Created by Python create_sdf_string function

 29 34  0  0  0  0  0  0  0  0999 V2000
    5.3966    8.6934   22.6157 C   0  0  0  0  0  0  0  0  0  0  0  0
   10.9204    5.4640   20.5570 C   0  0  0  0  0  0  0  0  0  0  0  0
    7.2592    4.5209   22.7705 C   0  0  0  0  0  0  0  0  0  0  0  0
    5.9328    7.6096   24.6450 C   0  0  0  0  0  0  0  0  0  0  0  0
    4.4991    8.8981   21.6660 O   0  0  0  0  0  0  0  0  0  0  0  0
    6.9643    3.2391   23.0769 C   0  0  0  0  0  0  0  0  0  0  0  0
    7.8086    2.2305   22.7606 N   0  0  0  0  0  0  0  0  0  0  0  0
    8.6534    9.8156   23.6332 C   0  0  0  0  0  0  0  0  0  0  0  0
   12.5122    6.5895   21.8876 C   0  0  0  0  0  0  0  0  0  0  0  0
   10.8679    8.1510   21.1378 C   0  0  0  0  0  0  0  0  0  0  0  0
    9.6277    8.5476   21.7533 C   0  0  0  0  0  0  0  0  0  0  0  0
   10.8802    1.7238   20.9990 C   0  0  0  0  0  0  0  0  0  0  0  0
    5.7530    2.8617   23.7957 C   0  0  0  0  0  0  0  0  0  0  0  0
    9.7908    1.4956   21.7236 N   0  0  0  0  0  0  0  0  0  0  0  0
    6.5547    9.3228   22.6033 N   0  0  0  0  0  0  0  0  0  0  0  0
   11.2038    3.0319   20.6370 C   0  0  0  0  0  0  0  0  0  0  0  0
   12.8547    7.7360   22.7438 C   0  0  0  0  0  0  0  0  0  0  0  0
    7.4008    9.1134   23.6377 C   0  0  0  0  0  0  0  0  0  0  0  0
    8.9754    2.5202   22.0596 C   0  0  0  0  0  0  0  0  0  0  0  0
   10.4747    4.1104   21.0033 C   0  0  0  0  0  0  0  0  0  0  0  0
   11.0670    9.3328   23.5299 C   0  0  0  0  0  0  0  0  0  0  0  0
    5.0829    7.8373   23.5870 N   0  0  0  0  0  0  0  0  0  0  0  0
    9.7137    9.2172   23.0260 N   0  0  0  0  0  0  0  0  0  0  0  0
   11.1534    6.7280   21.3923 N   0  0  0  0  0  0  0  0  0  0  0  0
   11.7492    8.0315   23.7481 C   0  0  0  0  0  0  0  0  0  0  0  0
    7.0953    8.3250   24.6584 C   0  0  0  0  0  0  0  0  0  0  0  0
    8.4012    4.8469   22.0596 C   0  0  0  0  0  0  0  0  0  0  0  0
    8.6894   10.8569   24.1873 O   0  0  0  0  0  0  0  0  0  0  0  0
    9.2868    3.8452   21.7029 C   0  0  0  0  0  0  0  0  0  0  0  0
  1  5  1  0
  1 15  4  0
  1 22  4  0
  2 10  1  0
  2 20  1  0
  2 24  1  0
  3  6  4  0
  3 27  4  0
  4 22  4  0
  4 26  4  0
  6  7  4  0
  6 13  1  0
  7 19  4  0
  8 18  1  0
  8 23  1  0
  8 28  2  0
  9 17  1  0
  9 24  1  0
 10 11  1  0
 10 24  1  0
 11 23  1  0
 12 14  4  0
 12 16  4  0
 14 19  4  0
 15 18  4  0
 16 20  4  0
 17 25  1  0
 18 26  4  0
 19 29  4  0
 20 29  4  0
 21 23  1  0
 21 25  1  0
 22 26  1  0
 27 29  4  0
M  END
$$$$

 Created by Python create_sdf_string function

 29 32  0  0  0  0  0  0  0  0999 V2000
    5.4095    8.6977   22.6368 C   0  0  0  0  0  0  0  0  0  0  0  0
   10.9175    5.4638   20.5594 C   0  0  0  0  0  0  0  0  0  0  0  0
    7.2600    4.5277   22.7640 C   0  0  0  0  0  0  0  0  0  0  0  0
    5.9414    7.6104   24.6549 C   0  0  0  0  0  0  0  0  0  0  0  0
    4.5125    8.8903   21.6802 O   0  0  0  0  0  0  0  0  0  0  0  0
    6.9771    3.2289   23.0750 C   0  0  0  0  0  0  0  0  0  0  0  0
    7.8252    2.2372   22.7460 N   0  0  0  0  0  0  0  0  0  0  0  0
    8.6706    9.8265   23.6365 C   0  0  0  0  0  0  0  0  0  0  0  0
   12.5049    6.5880   21.8678 C   0  0  0  0  0  0  0  0  0  0  0  0
   10.8929    8.1825   21.1468 C   0  0  0  0  0  0  0  0  0  0  0  0
    9.6302    8.5658   21.7470 C   0  0  0  0  0  0  0  0  0  0  0  0
   10.8806    1.7244   20.9952 C   0  0  0  0  0  0  0  0  0  0  0  0
    5.7608    2.8632   23.7906 C   0  0  0  0  0  0  0  0  0  0  0  0
    9.7991    1.4937   21.7068 N   0  0  0  0  0  0  0  0  0  0  0  0
    6.5693    9.3322   22.6164 N   0  0  0  0  0  0  0  0  0  0  0  0
   11.1980    3.0185   20.6380 C   0  0  0  0  0  0  0  0  0  0  0  0
   12.8634    7.7398   22.7416 C   0  0  0  0  0  0  0  0  0  0  0  0
    7.4190    9.1256   23.6344 C   0  0  0  0  0  0  0  0  0  0  0  0
    8.9702    2.5184   22.0473 C   0  0  0  0  0  0  0  0  0  0  0  0
   10.4781    4.1017   20.9948 C   0  0  0  0  0  0  0  0  0  0  0  0
   11.0744    9.3315   23.5223 C   0  0  0  0  0  0  0  0  0  0  0  0
    5.1260    7.8512   23.6010 N   0  0  0  0  0  0  0  0  0  0  0  0
    9.7319    9.2243   23.0205 N   0  0  0  0  0  0  0  0  0  0  0  0
   11.1613    6.7324   21.3765 N   0  0  0  0  0  0  0  0  0  0  0  0
   11.7542    8.0295   23.7410 C   0  0  0  0  0  0  0  0  0  0  0  0
    7.0893    8.3195   24.6582 C   0  0  0  0  0  0  0  0  0  0  0  0
    8.4155    4.8258   22.0550 C   0  0  0  0  0  0  0  0  0  0  0  0
    8.7049   10.8658   24.1841 O   0  0  0  0  0  0  0  0  0  0  0  0
    9.2979    3.8365   21.6887 C   0  0  0  0  0  0  0  0  0  0  0  0
  1  5  1  0
  1 15  4  0
  1 22  4  0
  2 20  1  0
  2 24  1  0
  3  6  4  0
  3 27  4  0
  4 22  4  0
  4 26  4  0
  6  7  4  0
  6 13  1  0
  7 19  4  0
  8 18  1  0
  8 23  1  0
  8 28  2  0
  9 17  1  0
  9 24  1  0
 10 11  1  0
 10 24  1  0
 11 23  1  0
 12 14  4  0
 12 16  4  0
 14 19  4  0
 15 18  4  0
 16 20  4  0
 17 25  1  0
 18 26  4  0
 19 29  4  0
 20 29  4  0
 21 23  1  0
 21 25  1  0
 27 29  4  0
M  END
$$$$

 Created by Python create_sdf_string function

 29 33  0  0  0  0  0  0  0  0999 V2000
    5.4171    8.7069   22.6337 C   0  0  0  0  0  0  0  0  0  0  0  0
   10.9067    5.4700   20.5564 C   0  0  0  0  0  0  0  0  0  0  0  0
    7.2485    4.5154   22.7592 C   0  0  0  0  0  0  0  0  0  0  0  0
    5.9373    7.6035   24.6555 C   0  0  0  0  0  0  0  0  0  0  0  0
    4.5071    8.8920   21.6835 O   0  0  0  0  0  0  0  0  0  0  0  0
    6.9818    3.2291   23.0830 C   0  0  0  0  0  0  0  0  0  0  0  0
    7.8226    2.2418   22.7413 N   0  0  0  0  0  0  0  0  0  0  0  0
    8.6643    9.8218   23.6396 C   0  0  0  0  0  0  0  0  0  0  0  0
   12.5166    6.5810   21.8696 C   0  0  0  0  0  0  0  0  0  0  0  0
   10.8882    8.1674   21.1406 C   0  0  0  0  0  0  0  0  0  0  0  0
    9.6418    8.5693   21.7502 C   0  0  0  0  0  0  0  0  0  0  0  0
   10.8844    1.7366   20.9911 C   0  0  0  0  0  0  0  0  0  0  0  0
    5.7656    2.8628   23.7984 C   0  0  0  0  0  0  0  0  0  0  0  0
    9.7961    1.4827   21.7171 N   0  0  0  0  0  0  0  0  0  0  0  0
    6.5678    9.3190   22.6148 N   0  0  0  0  0  0  0  0  0  0  0  0
   11.1891    3.0093   20.6420 C   0  0  0  0  0  0  0  0  0  0  0  0
   12.8576    7.7395   22.7506 C   0  0  0  0  0  0  0  0  0  0  0  0
    7.4268    9.1316   23.6363 C   0  0  0  0  0  0  0  0  0  0  0  0
    8.9706    2.5161   22.0478 C   0  0  0  0  0  0  0  0  0  0  0  0
   10.4769    4.1003   20.9926 C   0  0  0  0  0  0  0  0  0  0  0  0
   11.0755    9.3251   23.5250 C   0  0  0  0  0  0  0  0  0  0  0  0
    5.1085    7.8485   23.5983 N   0  0  0  0  0  0  0  0  0  0  0  0
    9.7346    9.2301   23.0144 N   0  0  0  0  0  0  0  0  0  0  0  0
   11.1513    6.7339   21.3720 N   0  0  0  0  0  0  0  0  0  0  0  0
   11.7555    8.0348   23.7371 C   0  0  0  0  0  0  0  0  0  0  0  0
    7.0933    8.3259   24.6731 C   0  0  0  0  0  0  0  0  0  0  0  0
    8.4214    4.8260   22.0637 C   0  0  0  0  0  0  0  0  0  0  0  0
    8.7075   10.8807   24.1858 O   0  0  0  0  0  0  0  0  0  0  0  0
    9.2912    3.8314   21.6956 C   0  0  0  0  0  0  0  0  0  0  0  0
  1  5  1  0
  1 15  4  0
  1 22  4  0
  2 20  1  0
  2 24  1  0
  3  6  4  0
  3 27  4  0
  4 22  4  0
  4 26  4  0
  6  7  4  0
  6 13  1  0
  7 19  4  0
  8 15  2  0
  8 18  1  0
  8 23  1  0
  8 28  2  0
  9 17  1  0
  9 24  1  0
 10 11  1  0
 10 24  1  0
 11 23  1  0
 12 14  4  0
 12 16  4  0
 14 19  4  0
 15 18  4  0
 16 20  4  0
 17 25  1  0
 18 26  4  0
 19 29  4  0
 20 29  4  0
 21 23  1  0
 21 25  1  0
 27 29  4  0
M  END
$$$$

 Created by Python create_sdf_string function

 29 32  0  0  0  0  0  0  0  0999 V2000
    5.4328    8.7088   22.6523 C   0  0  0  0  0  0  0  0  0  0  0  0
   10.9117    5.4641   20.5528 C   0  0  0  0  0  0  0  0  0  0  0  0
    7.2618    4.5162   22.7553 C   0  0  0  0  0  0  0  0  0  0  0  0
    5.9523    7.6195   24.6552 C   0  0  0  0  0  0  0  0  0  0  0  0
    4.5301    8.8952   21.6957 O   0  0  0  0  0  0  0  0  0  0  0  0
    6.9865    3.2182   23.0752 C   0  0  0  0  0  0  0  0  0  0  0  0
    7.8327    2.2330   22.7344 N   0  0  0  0  0  0  0  0  0  0  0  0
    8.6827    9.8322   23.6340 C   0  0  0  0  0  0  0  0  0  0  0  0
   12.5126    6.5873   21.8569 C   0  0  0  0  0  0  0  0  0  0  0  0
   10.9166    8.2011   21.1390 C   0  0  0  0  0  0  0  0  0  0  0  0
    9.6528    8.5826   21.7401 C   0  0  0  0  0  0  0  0  0  0  0  0
   10.8786    1.7226   20.9921 C   0  0  0  0  0  0  0  0  0  0  0  0
    5.7733    2.8607   23.7943 C   0  0  0  0  0  0  0  0  0  0  0  0
    9.7984    1.4841   21.6999 N   0  0  0  0  0  0  0  0  0  0  0  0
    6.5895    9.3291   22.6366 N   0  0  0  0  0  0  0  0  0  0  0  0
   11.1945    3.0135   20.6345 C   0  0  0  0  0  0  0  0  0  0  0  0
   12.8635    7.7379   22.7378 C   0  0  0  0  0  0  0  0  0  0  0  0
    7.4344    9.1319   23.6453 C   0  0  0  0  0  0  0  0  0  0  0  0
    8.9735    2.5096   22.0371 C   0  0  0  0  0  0  0  0  0  0  0  0
   10.4790    4.0967   20.9847 C   0  0  0  0  0  0  0  0  0  0  0  0
   11.0878    9.3295   23.5147 C   0  0  0  0  0  0  0  0  0  0  0  0
    5.1168    7.8496   23.6114 N   0  0  0  0  0  0  0  0  0  0  0  0
    9.7464    9.2339   23.0171 N   0  0  0  0  0  0  0  0  0  0  0  0
   11.1680    6.7475   21.3555 N   0  0  0  0  0  0  0  0  0  0  0  0
   11.7659    8.0357   23.7334 C   0  0  0  0  0  0  0  0  0  0  0  0
    7.1032    8.3324   24.6733 C   0  0  0  0  0  0  0  0  0  0  0  0
    8.4233    4.8101   22.0575 C   0  0  0  0  0  0  0  0  0  0  0  0
    8.7236   10.8679   24.1819 O   0  0  0  0  0  0  0  0  0  0  0  0
    9.3022    3.8266   21.6826 C   0  0  0  0  0  0  0  0  0  0  0  0
  1  5  1  0
  1 15  4  0
  1 22  4  0
  2 20  1  0
  2 24  1  0
  3  6  4  0
  3 27  4  0
  4 22  4  0
  4 26  4  0
  6  7  4  0
  6 13  1  0
  7 19  4  0
  8 18  1  0
  8 23  1  0
  8 28  2  0
  9 17  1  0
  9 24  1  0
 10 11  1  0
 10 24  1  0
 11 23  1  0
 12 14  4  0
 12 16  4  0
 14 19  4  0
 15 18  4  0
 16 20  4  0
 17 25  1  0
 18 26  4  0
 19 29  4  0
 20 29  4  0
 21 23  1  0
 21 25  1  0
 27 29  4  0
M  END
$$$$

 Created by Python create_sdf_string function

 29 34  0  0  0  0  0  0  0  0999 V2000
    5.4337    8.7137   22.6533 C   0  0  0  0  0  0  0  0  0  0  0  0
   10.9075    5.4646   20.5520 C   0  0  0  0  0  0  0  0  0  0  0  0
    7.2587    4.5174   22.7597 C   0  0  0  0  0  0  0  0  0  0  0  0
    5.9513    7.6167   24.6598 C   0  0  0  0  0  0  0  0  0  0  0  0
    4.5343    8.9037   21.6969 O   0  0  0  0  0  0  0  0  0  0  0  0
    6.9809    3.2180   23.0739 C   0  0  0  0  0  0  0  0  0  0  0  0
    7.8337    2.2352   22.7338 N   0  0  0  0  0  0  0  0  0  0  0  0
    8.6816    9.8374   23.6349 C   0  0  0  0  0  0  0  0  0  0  0  0
   12.5255    6.5891   21.8550 C   0  0  0  0  0  0  0  0  0  0  0  0
   10.9180    8.2072   21.1379 C   0  0  0  0  0  0  0  0  0  0  0  0
    9.6513    8.5793   21.7377 C   0  0  0  0  0  0  0  0  0  0  0  0
   10.8813    1.7179   20.9936 C   0  0  0  0  0  0  0  0  0  0  0  0
    5.7701    2.8572   23.7950 C   0  0  0  0  0  0  0  0  0  0  0  0
    9.7989    1.4853   21.7031 N   0  0  0  0  0  0  0  0  0  0  0  0
    6.5889    9.3333   22.6375 N   0  0  0  0  0  0  0  0  0  0  0  0
   11.1951    3.0113   20.6342 C   0  0  0  0  0  0  0  0  0  0  0  0
   12.8591    7.7366   22.7359 C   0  0  0  0  0  0  0  0  0  0  0  0
    7.4362    9.1317   23.6418 C   0  0  0  0  0  0  0  0  0  0  0  0
    8.9736    2.5116   22.0385 C   0  0  0  0  0  0  0  0  0  0  0  0
   10.4781    4.0936   20.9817 C   0  0  0  0  0  0  0  0  0  0  0  0
   11.0875    9.3267   23.5177 C   0  0  0  0  0  0  0  0  0  0  0  0
    5.1153    7.8489   23.6070 N   0  0  0  0  0  0  0  0  0  0  0  0
    9.7458    9.2285   23.0174 N   0  0  0  0  0  0  0  0  0  0  0  0
   11.1682    6.7447   21.3589 N   0  0  0  0  0  0  0  0  0  0  0  0
   11.7619    8.0337   23.7310 C   0  0  0  0  0  0  0  0  0  0  0  0
    7.1070    8.3279   24.6728 C   0  0  0  0  0  0  0  0  0  0  0  0
    8.4251    4.8103   22.0591 C   0  0  0  0  0  0  0  0  0  0  0  0
    8.7253   10.8680   24.1864 O   0  0  0  0  0  0  0  0  0  0  0  0
    9.3038    3.8223   21.6784 C   0  0  0  0  0  0  0  0  0  0  0  0
  1  5  1  0
  1 15  4  0
  1 22  4  0
  2 20  1  0
  2 24  1  0
  3  6  4  0
  3 27  4  0
  4 22  4  0
  4 26  4  0
  6  7  4  0
  6 13  1  0
  7 19  4  0
  8 18  1  0
  8 23  1  0
  8 28  2  0
  9 17  1  0
  9 24  1  0
 10 11  1  0
 10 24  1  0
 11 23  1  0
 12 14  4  0
 12 16  4  0
 14 19  4  0
 15 18  4  0
 15 28  4  0
 16 20  4  0
 16 27  1  0
 17 25  1  0
 18 26  4  0
 19 29  4  0
 20 29  4  0
 21 23  1  0
 21 25  1  0
 27 29  4  0
M  END
$$$$

 Created by Python create_sdf_string function

 29 32  0  0  0  0  0  0  0  0999 V2000
    5.4450    8.7154   22.6662 C   0  0  0  0  0  0  0  0  0  0  0  0
   10.9154    5.4574   20.5483 C   0  0  0  0  0  0  0  0  0  0  0  0
    7.2709    4.5089   22.7542 C   0  0  0  0  0  0  0  0  0  0  0  0
    5.9698    7.6329   24.6581 C   0  0  0  0  0  0  0  0  0  0  0  0
    4.5542    8.9057   21.7104 O   0  0  0  0  0  0  0  0  0  0  0  0
    6.9895    3.2085   23.0690 C   0  0  0  0  0  0  0  0  0  0  0  0
    7.8391    2.2253   22.7260 N   0  0  0  0  0  0  0  0  0  0  0  0
    8.6968    9.8373   23.6359 C   0  0  0  0  0  0  0  0  0  0  0  0
   12.5135    6.5957   21.8396 C   0  0  0  0  0  0  0  0  0  0  0  0
   10.9406    8.2330   21.1350 C   0  0  0  0  0  0  0  0  0  0  0  0
    9.6648    8.5956   21.7310 C   0  0  0  0  0  0  0  0  0  0  0  0
   10.8829    1.7153   20.9865 C   0  0  0  0  0  0  0  0  0  0  0  0
    5.7768    2.8533   23.7910 C   0  0  0  0  0  0  0  0  0  0  0  0
    9.7977    1.4791   21.6912 N   0  0  0  0  0  0  0  0  0  0  0  0
    6.5976    9.3401   22.6478 N   0  0  0  0  0  0  0  0  0  0  0  0
   11.2031    3.0042   20.6246 C   0  0  0  0  0  0  0  0  0  0  0  0
   12.8688    7.7370   22.7287 C   0  0  0  0  0  0  0  0  0  0  0  0
    7.4487    9.1361   23.6506 C   0  0  0  0  0  0  0  0  0  0  0  0
    8.9772    2.5025   22.0273 C   0  0  0  0  0  0  0  0  0  0  0  0
   10.4859    4.0901   20.9730 C   0  0  0  0  0  0  0  0  0  0  0  0
   11.0962    9.3293   23.5072 C   0  0  0  0  0  0  0  0  0  0  0  0
    5.1273    7.8529   23.6208 N   0  0  0  0  0  0  0  0  0  0  0  0
    9.7552    9.2338   23.0171 N   0  0  0  0  0  0  0  0  0  0  0  0
   11.1797    6.7591   21.3326 N   0  0  0  0  0  0  0  0  0  0  0  0
   11.7728    8.0337   23.7267 C   0  0  0  0  0  0  0  0  0  0  0  0
    7.1194    8.3344   24.6775 C   0  0  0  0  0  0  0  0  0  0  0  0
    8.4311    4.7963   22.0500 C   0  0  0  0  0  0  0  0  0  0  0  0
    8.7393   10.8706   24.1871 O   0  0  0  0  0  0  0  0  0  0  0  0
    9.3093    3.8166   21.6712 C   0  0  0  0  0  0  0  0  0  0  0  0
  1  5  1  0
  1 15  4  0
  1 22  4  0
  2 20  1  0
  2 24  1  0
  3  6  4  0
  3 27  4  0
  4 22  4  0
  4 26  4  0
  6  7  4  0
  6 13  1  0
  7 19  4  0
  8 18  1  0
  8 23  1  0
  8 28  2  0
  9 17  1  0
  9 24  1  0
 10 11  1  0
 10 24  1  0
 11 23  1  0
 12 14  4  0
 12 16  4  0
 14 19  4  0
 15 18  4  0
 16 20  4  0
 17 25  1  0
 18 26  4  0
 19 29  4  0
 20 29  4  0
 21 23  1  0
 21 25  1  0
 27 29  4  0
M  END
$$$$

 Created by Python create_sdf_string function

 29 32  0  0  0  0  0  0  0  0999 V2000
    5.4450    8.7154   22.6662 C   0  0  0  0  0  0  0  0  0  0  0  0
   10.9154    5.4574   20.5483 C   0  0  0  0  0  0  0  0  0  0  0  0
    7.2709    4.5089   22.7542 C   0  0  0  0  0  0  0  0  0  0  0  0
    5.9698    7.6329   24.6581 C   0  0  0  0  0  0  0  0  0  0  0  0
    4.5542    8.9057   21.7104 O   0  0  0  0  0  0  0  0  0  0  0  0
    6.9895    3.2085   23.0690 C   0  0  0  0  0  0  0  0  0  0  0  0
    7.8391    2.2253   22.7260 N   0  0  0  0  0  0  0  0  0  0  0  0
    8.6968    9.8373   23.6359 C   0  0  0  0  0  0  0  0  0  0  0  0
   12.5135    6.5957   21.8396 C   0  0  0  0  0  0  0  0  0  0  0  0
   10.9406    8.2330   21.1350 C   0  0  0  0  0  0  0  0  0  0  0  0
    9.6648    8.5956   21.7310 C   0  0  0  0  0  0  0  0  0  0  0  0
   10.8829    1.7153   20.9865 C   0  0  0  0  0  0  0  0  0  0  0  0
    5.7768    2.8533   23.7910 C   0  0  0  0  0  0  0  0  0  0  0  0
    9.7977    1.4791   21.6912 N   0  0  0  0  0  0  0  0  0  0  0  0
    6.5976    9.3401   22.6478 N   0  0  0  0  0  0  0  0  0  0  0  0
   11.2031    3.0042   20.6246 C   0  0  0  0  0  0  0  0  0  0  0  0
   12.8688    7.7370   22.7287 C   0  0  0  0  0  0  0  0  0  0  0  0
    7.4487    9.1361   23.6506 C   0  0  0  0  0  0  0  0  0  0  0  0
    8.9772    2.5025   22.0273 C   0  0  0  0  0  0  0  0  0  0  0  0
   10.4859    4.0901   20.9730 C   0  0  0  0  0  0  0  0  0  0  0  0
   11.0962    9.3293   23.5072 C   0  0  0  0  0  0  0  0  0  0  0  0
    5.1273    7.8529   23.6208 N   0  0  0  0  0  0  0  0  0  0  0  0
    9.7552    9.2338   23.0171 N   0  0  0  0  0  0  0  0  0  0  0  0
   11.1797    6.7591   21.3326 N   0  0  0  0  0  0  0  0  0  0  0  0
   11.7728    8.0337   23.7267 C   0  0  0  0  0  0  0  0  0  0  0  0
    7.1194    8.3344   24.6775 C   0  0  0  0  0  0  0  0  0  0  0  0
    8.4311    4.7963   22.0500 C   0  0  0  0  0  0  0  0  0  0  0  0
    8.7393   10.8706   24.1871 O   0  0  0  0  0  0  0  0  0  0  0  0
    9.3093    3.8166   21.6712 C   0  0  0  0  0  0  0  0  0  0  0  0
  1  5  1  0
  1 15  4  0
  1 22  4  0
  2 20  1  0
  2 24  1  0
  3  6  4  0
  3 27  4  0
  4 22  4  0
  4 26  4  0
  6  7  4  0
  6 13  1  0
  7 19  4  0
  8 18  1  0
  8 23  1  0
  8 28  2  0
  9 17  1  0
  9 24  1  0
 10 11  1  0
 10 24  1  0
 11 23  1  0
 12 14  4  0
 12 16  4  0
 14 19  4  0
 15 18  4  0
 16 20  4  0
 17 25  1  0
 18 26  4  0
 19 29  4  0
 20 29  4  0
 21 23  1  0
 21 25  1  0
 27 29  4  0
M  END
$$$$

 Created by Python create_sdf_string function

 29 32  0  0  0  0  0  0  0  0999 V2000
    5.4450    8.7154   22.6662 C   0  0  0  0  0  0  0  0  0  0  0  0
   10.9154    5.4574   20.5483 C   0  0  0  0  0  0  0  0  0  0  0  0
    7.2709    4.5089   22.7542 C   0  0  0  0  0  0  0  0  0  0  0  0
    5.9698    7.6329   24.6581 C   0  0  0  0  0  0  0  0  0  0  0  0
    4.5542    8.9057   21.7104 O   0  0  0  0  0  0  0  0  0  0  0  0
    6.9895    3.2085   23.0690 C   0  0  0  0  0  0  0  0  0  0  0  0
    7.8391    2.2253   22.7260 N   0  0  0  0  0  0  0  0  0  0  0  0
    8.6968    9.8373   23.6359 C   0  0  0  0  0  0  0  0  0  0  0  0
   12.5135    6.5957   21.8396 C   0  0  0  0  0  0  0  0  0  0  0  0
   10.9406    8.2330   21.1350 C   0  0  0  0  0  0  0  0  0  0  0  0
    9.6648    8.5956   21.7310 C   0  0  0  0  0  0  0  0  0  0  0  0
   10.8829    1.7153   20.9865 C   0  0  0  0  0  0  0  0  0  0  0  0
    5.7768    2.8533   23.7910 C   0  0  0  0  0  0  0  0  0  0  0  0
    9.7977    1.4791   21.6912 N   0  0  0  0  0  0  0  0  0  0  0  0
    6.5976    9.3401   22.6478 N   0  0  0  0  0  0  0  0  0  0  0  0
   11.2031    3.0042   20.6246 C   0  0  0  0  0  0  0  0  0  0  0  0
   12.8688    7.7370   22.7287 C   0  0  0  0  0  0  0  0  0  0  0  0
    7.4487    9.1361   23.6506 C   0  0  0  0  0  0  0  0  0  0  0  0
    8.9772    2.5025   22.0273 C   0  0  0  0  0  0  0  0  0  0  0  0
   10.4859    4.0901   20.9730 C   0  0  0  0  0  0  0  0  0  0  0  0
   11.0962    9.3293   23.5072 C   0  0  0  0  0  0  0  0  0  0  0  0
    5.1273    7.8529   23.6208 N   0  0  0  0  0  0  0  0  0  0  0  0
    9.7552    9.2338   23.0171 N   0  0  0  0  0  0  0  0  0  0  0  0
   11.1797    6.7591   21.3326 N   0  0  0  0  0  0  0  0  0  0  0  0
   11.7728    8.0337   23.7267 C   0  0  0  0  0  0  0  0  0  0  0  0
    7.1194    8.3344   24.6775 C   0  0  0  0  0  0  0  0  0  0  0  0
    8.4311    4.7963   22.0500 C   0  0  0  0  0  0  0  0  0  0  0  0
    8.7393   10.8706   24.1871 O   0  0  0  0  0  0  0  0  0  0  0  0
    9.3093    3.8166   21.6712 C   0  0  0  0  0  0  0  0  0  0  0  0
  1  5  1  0
  1 15  4  0
  1 22  4  0
  2 20  1  0
  2 24  1  0
  3  6  4  0
  3 27  4  0
  4 22  4  0
  4 26  4  0
  6  7  4  0
  6 13  1  0
  7 19  4  0
  8 18  1  0
  8 23  1  0
  8 28  2  0
  9 17  1  0
  9 24  1  0
 10 11  1  0
 10 24  1  0
 11 23  1  0
 12 14  4  0
 12 16  4  0
 14 19  4  0
 15 18  4  0
 16 20  4  0
 17 25  1  0
 18 26  4  0
 19 29  4  0
 20 29  4  0
 21 23  1  0
 21 25  1  0
 27 29  4  0
M  END
$$$$

 Created by Python create_sdf_string function

 29 32  0  0  0  0  0  0  0  0999 V2000
    5.4450    8.7154   22.6662 C   0  0  0  0  0  0  0  0  0  0  0  0
   10.9154    5.4574   20.5483 C   0  0  0  0  0  0  0  0  0  0  0  0
    7.2709    4.5089   22.7542 C   0  0  0  0  0  0  0  0  0  0  0  0
    5.9698    7.6329   24.6581 C   0  0  0  0  0  0  0  0  0  0  0  0
    4.5542    8.9057   21.7104 O   0  0  0  0  0  0  0  0  0  0  0  0
    6.9895    3.2085   23.0690 C   0  0  0  0  0  0  0  0  0  0  0  0
    7.8391    2.2253   22.7260 N   0  0  0  0  0  0  0  0  0  0  0  0
    8.6968    9.8373   23.6359 C   0  0  0  0  0  0  0  0  0  0  0  0
   12.5135    6.5957   21.8396 C   0  0  0  0  0  0  0  0  0  0  0  0
   10.9406    8.2330   21.1350 C   0  0  0  0  0  0  0  0  0  0  0  0
    9.6648    8.5956   21.7310 C   0  0  0  0  0  0  0  0  0  0  0  0
   10.8829    1.7153   20.9865 C   0  0  0  0  0  0  0  0  0  0  0  0
    5.7768    2.8533   23.7910 C   0  0  0  0  0  0  0  0  0  0  0  0
    9.7977    1.4791   21.6912 N   0  0  0  0  0  0  0  0  0  0  0  0
    6.5976    9.3401   22.6478 N   0  0  0  0  0  0  0  0  0  0  0  0
   11.2031    3.0042   20.6246 C   0  0  0  0  0  0  0  0  0  0  0  0
   12.8688    7.7370   22.7287 C   0  0  0  0  0  0  0  0  0  0  0  0
    7.4487    9.1361   23.6506 C   0  0  0  0  0  0  0  0  0  0  0  0
    8.9772    2.5025   22.0273 C   0  0  0  0  0  0  0  0  0  0  0  0
   10.4859    4.0901   20.9730 C   0  0  0  0  0  0  0  0  0  0  0  0
   11.0962    9.3293   23.5072 C   0  0  0  0  0  0  0  0  0  0  0  0
    5.1273    7.8529   23.6208 N   0  0  0  0  0  0  0  0  0  0  0  0
    9.7552    9.2338   23.0171 N   0  0  0  0  0  0  0  0  0  0  0  0
   11.1797    6.7591   21.3326 N   0  0  0  0  0  0  0  0  0  0  0  0
   11.7728    8.0337   23.7267 C   0  0  0  0  0  0  0  0  0  0  0  0
    7.1194    8.3344   24.6775 C   0  0  0  0  0  0  0  0  0  0  0  0
    8.4311    4.7963   22.0500 C   0  0  0  0  0  0  0  0  0  0  0  0
    8.7393   10.8706   24.1871 O   0  0  0  0  0  0  0  0  0  0  0  0
    9.3093    3.8166   21.6712 C   0  0  0  0  0  0  0  0  0  0  0  0
  1  5  1  0
  1 15  4  0
  1 22  4  0
  2 20  1  0
  2 24  1  0
  3  6  4  0
  3 27  4  0
  4 22  4  0
  4 26  4  0
  6  7  4  0
  6 13  1  0
  7 19  4  0
  8 18  1  0
  8 23  1  0
  8 28  2  0
  9 17  1  0
  9 24  1  0
 10 11  1  0
 10 24  1  0
 11 23  1  0
 12 14  4  0
 12 16  4  0
 14 19  4  0
 15 18  4  0
 16 20  4  0
 17 25  1  0
 18 26  4  0
 19 29  4  0
 20 29  4  0
 21 23  1  0
 21 25  1  0
 27 29  4  0
M  END
$$$$

 Created by Python create_sdf_string function

 29 32  0  0  0  0  0  0  0  0999 V2000
    5.4450    8.7154   22.6662 C   0  0  0  0  0  0  0  0  0  0  0  0
   10.9154    5.4574   20.5483 C   0  0  0  0  0  0  0  0  0  0  0  0
    7.2709    4.5089   22.7542 C   0  0  0  0  0  0  0  0  0  0  0  0
    5.9698    7.6329   24.6581 C   0  0  0  0  0  0  0  0  0  0  0  0
    4.5542    8.9057   21.7104 O   0  0  0  0  0  0  0  0  0  0  0  0
    6.9895    3.2085   23.0690 C   0  0  0  0  0  0  0  0  0  0  0  0
    7.8391    2.2253   22.7260 N   0  0  0  0  0  0  0  0  0  0  0  0
    8.6968    9.8373   23.6359 C   0  0  0  0  0  0  0  0  0  0  0  0
   12.5135    6.5957   21.8396 C   0  0  0  0  0  0  0  0  0  0  0  0
   10.9406    8.2330   21.1350 C   0  0  0  0  0  0  0  0  0  0  0  0
    9.6648    8.5956   21.7310 C   0  0  0  0  0  0  0  0  0  0  0  0
   10.8829    1.7153   20.9865 C   0  0  0  0  0  0  0  0  0  0  0  0
    5.7768    2.8533   23.7910 C   0  0  0  0  0  0  0  0  0  0  0  0
    9.7977    1.4791   21.6912 N   0  0  0  0  0  0  0  0  0  0  0  0
    6.5976    9.3401   22.6478 N   0  0  0  0  0  0  0  0  0  0  0  0
   11.2031    3.0042   20.6246 C   0  0  0  0  0  0  0  0  0  0  0  0
   12.8688    7.7370   22.7287 C   0  0  0  0  0  0  0  0  0  0  0  0
    7.4487    9.1361   23.6506 C   0  0  0  0  0  0  0  0  0  0  0  0
    8.9772    2.5025   22.0273 C   0  0  0  0  0  0  0  0  0  0  0  0
   10.4859    4.0901   20.9730 C   0  0  0  0  0  0  0  0  0  0  0  0
   11.0962    9.3293   23.5072 C   0  0  0  0  0  0  0  0  0  0  0  0
    5.1273    7.8529   23.6208 N   0  0  0  0  0  0  0  0  0  0  0  0
    9.7552    9.2338   23.0171 N   0  0  0  0  0  0  0  0  0  0  0  0
   11.1797    6.7591   21.3326 N   0  0  0  0  0  0  0  0  0  0  0  0
   11.7728    8.0337   23.7267 C   0  0  0  0  0  0  0  0  0  0  0  0
    7.1194    8.3344   24.6775 C   0  0  0  0  0  0  0  0  0  0  0  0
    8.4311    4.7963   22.0500 C   0  0  0  0  0  0  0  0  0  0  0  0
    8.7393   10.8706   24.1871 O   0  0  0  0  0  0  0  0  0  0  0  0
    9.3093    3.8166   21.6712 C   0  0  0  0  0  0  0  0  0  0  0  0
  1  5  1  0
  1 15  4  0
  1 22  4  0
  2 20  1  0
  2 24  1  0
  3  6  4  0
  3 27  4  0
  4 22  4  0
  4 26  4  0
  6  7  4  0
  6 13  1  0
  7 19  4  0
  8 18  1  0
  8 23  1  0
  8 28  2  0
  9 17  1  0
  9 24  1  0
 10 11  1  0
 10 24  1  0
 11 23  1  0
 12 14  4  0
 12 16  4  0
 14 19  4  0
 15 18  4  0
 16 20  4  0
 17 25  1  0
 18 26  4  0
 19 29  4  0
 20 29  4  0
 21 23  1  0
 21 25  1  0
 27 29  4  0
M  END
$$$$

 Created by Python create_sdf_string function

 29 32  0  0  0  0  0  0  0  0999 V2000
    5.4450    8.7154   22.6662 C   0  0  0  0  0  0  0  0  0  0  0  0
   10.9154    5.4574   20.5483 C   0  0  0  0  0  0  0  0  0  0  0  0
    7.2709    4.5089   22.7542 C   0  0  0  0  0  0  0  0  0  0  0  0
    5.9698    7.6329   24.6581 C   0  0  0  0  0  0  0  0  0  0  0  0
    4.5542    8.9057   21.7104 O   0  0  0  0  0  0  0  0  0  0  0  0
    6.9895    3.2085   23.0690 C   0  0  0  0  0  0  0  0  0  0  0  0
    7.8391    2.2253   22.7260 N   0  0  0  0  0  0  0  0  0  0  0  0
    8.6968    9.8373   23.6359 C   0  0  0  0  0  0  0  0  0  0  0  0
   12.5135    6.5957   21.8396 C   0  0  0  0  0  0  0  0  0  0  0  0
   10.9406    8.2330   21.1350 C   0  0  0  0  0  0  0  0  0  0  0  0
    9.6648    8.5956   21.7310 C   0  0  0  0  0  0  0  0  0  0  0  0
   10.8829    1.7153   20.9865 C   0  0  0  0  0  0  0  0  0  0  0  0
    5.7768    2.8533   23.7910 C   0  0  0  0  0  0  0  0  0  0  0  0
    9.7977    1.4791   21.6912 N   0  0  0  0  0  0  0  0  0  0  0  0
    6.5976    9.3401   22.6478 N   0  0  0  0  0  0  0  0  0  0  0  0
   11.2031    3.0042   20.6246 C   0  0  0  0  0  0  0  0  0  0  0  0
   12.8688    7.7370   22.7287 C   0  0  0  0  0  0  0  0  0  0  0  0
    7.4487    9.1361   23.6506 C   0  0  0  0  0  0  0  0  0  0  0  0
    8.9772    2.5025   22.0273 C   0  0  0  0  0  0  0  0  0  0  0  0
   10.4859    4.0901   20.9730 C   0  0  0  0  0  0  0  0  0  0  0  0
   11.0962    9.3293   23.5072 C   0  0  0  0  0  0  0  0  0  0  0  0
    5.1273    7.8529   23.6208 N   0  0  0  0  0  0  0  0  0  0  0  0
    9.7552    9.2338   23.0171 N   0  0  0  0  0  0  0  0  0  0  0  0
   11.1797    6.7591   21.3326 N   0  0  0  0  0  0  0  0  0  0  0  0
   11.7728    8.0337   23.7267 C   0  0  0  0  0  0  0  0  0  0  0  0
    7.1194    8.3344   24.6775 C   0  0  0  0  0  0  0  0  0  0  0  0
    8.4311    4.7963   22.0500 C   0  0  0  0  0  0  0  0  0  0  0  0
    8.7393   10.8706   24.1871 O   0  0  0  0  0  0  0  0  0  0  0  0
    9.3093    3.8166   21.6712 C   0  0  0  0  0  0  0  0  0  0  0  0
  1  5  1  0
  1 15  4  0
  1 22  4  0
  2 20  1  0
  2 24  1  0
  3  6  4  0
  3 27  4  0
  4 22  4  0
  4 26  4  0
  6  7  4  0
  6 13  1  0
  7 19  4  0
  8 18  1  0
  8 23  1  0
  8 28  2  0
  9 17  1  0
  9 24  1  0
 10 11  1  0
 10 24  1  0
 11 23  1  0
 12 14  4  0
 12 16  4  0
 14 19  4  0
 15 18  4  0
 16 20  4  0
 17 25  1  0
 18 26  4  0
 19 29  4  0
 20 29  4  0
 21 23  1  0
 21 25  1  0
 27 29  4  0
M  END
$$$$

 Created by Python create_sdf_string function

 29 32  0  0  0  0  0  0  0  0999 V2000
    5.4450    8.7154   22.6662 C   0  0  0  0  0  0  0  0  0  0  0  0
   10.9154    5.4574   20.5483 C   0  0  0  0  0  0  0  0  0  0  0  0
    7.2709    4.5089   22.7542 C   0  0  0  0  0  0  0  0  0  0  0  0
    5.9698    7.6329   24.6581 C   0  0  0  0  0  0  0  0  0  0  0  0
    4.5542    8.9057   21.7104 O   0  0  0  0  0  0  0  0  0  0  0  0
    6.9895    3.2085   23.0690 C   0  0  0  0  0  0  0  0  0  0  0  0
    7.8391    2.2253   22.7260 N   0  0  0  0  0  0  0  0  0  0  0  0
    8.6968    9.8373   23.6359 C   0  0  0  0  0  0  0  0  0  0  0  0
   12.5135    6.5957   21.8396 C   0  0  0  0  0  0  0  0  0  0  0  0
   10.9406    8.2330   21.1350 C   0  0  0  0  0  0  0  0  0  0  0  0
    9.6648    8.5956   21.7310 C   0  0  0  0  0  0  0  0  0  0  0  0
   10.8829    1.7153   20.9865 C   0  0  0  0  0  0  0  0  0  0  0  0
    5.7768    2.8533   23.7910 C   0  0  0  0  0  0  0  0  0  0  0  0
    9.7977    1.4791   21.6912 N   0  0  0  0  0  0  0  0  0  0  0  0
    6.5976    9.3401   22.6478 N   0  0  0  0  0  0  0  0  0  0  0  0
   11.2031    3.0042   20.6246 C   0  0  0  0  0  0  0  0  0  0  0  0
   12.8688    7.7370   22.7287 C   0  0  0  0  0  0  0  0  0  0  0  0
    7.4487    9.1361   23.6506 C   0  0  0  0  0  0  0  0  0  0  0  0
    8.9772    2.5025   22.0273 C   0  0  0  0  0  0  0  0  0  0  0  0
   10.4859    4.0901   20.9730 C   0  0  0  0  0  0  0  0  0  0  0  0
   11.0962    9.3293   23.5072 C   0  0  0  0  0  0  0  0  0  0  0  0
    5.1273    7.8529   23.6208 N   0  0  0  0  0  0  0  0  0  0  0  0
    9.7552    9.2338   23.0171 N   0  0  0  0  0  0  0  0  0  0  0  0
   11.1797    6.7591   21.3326 N   0  0  0  0  0  0  0  0  0  0  0  0
   11.7728    8.0337   23.7267 C   0  0  0  0  0  0  0  0  0  0  0  0
    7.1194    8.3344   24.6775 C   0  0  0  0  0  0  0  0  0  0  0  0
    8.4311    4.7963   22.0500 C   0  0  0  0  0  0  0  0  0  0  0  0
    8.7393   10.8706   24.1871 O   0  0  0  0  0  0  0  0  0  0  0  0
    9.3093    3.8166   21.6712 C   0  0  0  0  0  0  0  0  0  0  0  0
  1  5  1  0
  1 15  4  0
  1 22  4  0
  2 20  1  0
  2 24  1  0
  3  6  4  0
  3 27  4  0
  4 22  4  0
  4 26  4  0
  6  7  4  0
  6 13  1  0
  7 19  4  0
  8 18  1  0
  8 23  1  0
  8 28  2  0
  9 17  1  0
  9 24  1  0
 10 11  1  0
 10 24  1  0
 11 23  1  0
 12 14  4  0
 12 16  4  0
 14 19  4  0
 15 18  4  0
 16 20  4  0
 17 25  1  0
 18 26  4  0
 19 29  4  0
 20 29  4  0
 21 23  1  0
 21 25  1  0
 27 29  4  0
M  END
$$$$

 Created by Python create_sdf_string function

 29 32  0  0  0  0  0  0  0  0999 V2000
    5.4450    8.7154   22.6662 C   0  0  0  0  0  0  0  0  0  0  0  0
   10.9154    5.4574   20.5483 C   0  0  0  0  0  0  0  0  0  0  0  0
    7.2709    4.5089   22.7542 C   0  0  0  0  0  0  0  0  0  0  0  0
    5.9698    7.6329   24.6581 C   0  0  0  0  0  0  0  0  0  0  0  0
    4.5542    8.9057   21.7104 O   0  0  0  0  0  0  0  0  0  0  0  0
    6.9895    3.2085   23.0690 C   0  0  0  0  0  0  0  0  0  0  0  0
    7.8391    2.2253   22.7260 N   0  0  0  0  0  0  0  0  0  0  0  0
    8.6968    9.8373   23.6359 C   0  0  0  0  0  0  0  0  0  0  0  0
   12.5135    6.5957   21.8396 C   0  0  0  0  0  0  0  0  0  0  0  0
   10.9406    8.2330   21.1350 C   0  0  0  0  0  0  0  0  0  0  0  0
    9.6648    8.5956   21.7310 C   0  0  0  0  0  0  0  0  0  0  0  0
   10.8829    1.7153   20.9865 C   0  0  0  0  0  0  0  0  0  0  0  0
    5.7768    2.8533   23.7910 C   0  0  0  0  0  0  0  0  0  0  0  0
    9.7977    1.4791   21.6912 N   0  0  0  0  0  0  0  0  0  0  0  0
    6.5976    9.3401   22.6478 N   0  0  0  0  0  0  0  0  0  0  0  0
   11.2031    3.0042   20.6246 C   0  0  0  0  0  0  0  0  0  0  0  0
   12.8688    7.7370   22.7287 C   0  0  0  0  0  0  0  0  0  0  0  0
    7.4487    9.1361   23.6506 C   0  0  0  0  0  0  0  0  0  0  0  0
    8.9772    2.5025   22.0273 C   0  0  0  0  0  0  0  0  0  0  0  0
   10.4859    4.0901   20.9730 C   0  0  0  0  0  0  0  0  0  0  0  0
   11.0962    9.3293   23.5072 C   0  0  0  0  0  0  0  0  0  0  0  0
    5.1273    7.8529   23.6208 N   0  0  0  0  0  0  0  0  0  0  0  0
    9.7552    9.2338   23.0171 N   0  0  0  0  0  0  0  0  0  0  0  0
   11.1797    6.7591   21.3326 N   0  0  0  0  0  0  0  0  0  0  0  0
   11.7728    8.0337   23.7267 C   0  0  0  0  0  0  0  0  0  0  0  0
    7.1194    8.3344   24.6775 C   0  0  0  0  0  0  0  0  0  0  0  0
    8.4311    4.7963   22.0500 C   0  0  0  0  0  0  0  0  0  0  0  0
    8.7393   10.8706   24.1871 O   0  0  0  0  0  0  0  0  0  0  0  0
    9.3093    3.8166   21.6712 C   0  0  0  0  0  0  0  0  0  0  0  0
  1  5  1  0
  1 15  4  0
  1 22  4  0
  2 20  1  0
  2 24  1  0
  3  6  4  0
  3 27  4  0
  4 22  4  0
  4 26  4  0
  6  7  4  0
  6 13  1  0
  7 19  4  0
  8 18  1  0
  8 23  1  0
  8 28  2  0
  9 17  1  0
  9 24  1  0
 10 11  1  0
 10 24  1  0
 11 23  1  0
 12 14  4  0
 12 16  4  0
 14 19  4  0
 15 18  4  0
 16 20  4  0
 17 25  1  0
 18 26  4  0
 19 29  4  0
 20 29  4  0
 21 23  1  0
 21 25  1  0
 27 29  4  0
M  END
$$$$

 Created by Python create_sdf_string function

 29 32  0  0  0  0  0  0  0  0999 V2000
    5.4450    8.7154   22.6662 C   0  0  0  0  0  0  0  0  0  0  0  0
   10.9154    5.4574   20.5483 C   0  0  0  0  0  0  0  0  0  0  0  0
    7.2709    4.5089   22.7542 C   0  0  0  0  0  0  0  0  0  0  0  0
    5.9698    7.6329   24.6581 C   0  0  0  0  0  0  0  0  0  0  0  0
    4.5542    8.9057   21.7104 O   0  0  0  0  0  0  0  0  0  0  0  0
    6.9895    3.2085   23.0690 C   0  0  0  0  0  0  0  0  0  0  0  0
    7.8391    2.2253   22.7260 N   0  0  0  0  0  0  0  0  0  0  0  0
    8.6968    9.8373   23.6359 C   0  0  0  0  0  0  0  0  0  0  0  0
   12.5135    6.5957   21.8396 C   0  0  0  0  0  0  0  0  0  0  0  0
   10.9406    8.2330   21.1350 C   0  0  0  0  0  0  0  0  0  0  0  0
    9.6648    8.5956   21.7310 C   0  0  0  0  0  0  0  0  0  0  0  0
   10.8829    1.7153   20.9865 C   0  0  0  0  0  0  0  0  0  0  0  0
    5.7768    2.8533   23.7910 C   0  0  0  0  0  0  0  0  0  0  0  0
    9.7977    1.4791   21.6912 N   0  0  0  0  0  0  0  0  0  0  0  0
    6.5976    9.3401   22.6478 N   0  0  0  0  0  0  0  0  0  0  0  0
   11.2031    3.0042   20.6246 C   0  0  0  0  0  0  0  0  0  0  0  0
   12.8688    7.7370   22.7287 C   0  0  0  0  0  0  0  0  0  0  0  0
    7.4487    9.1361   23.6506 C   0  0  0  0  0  0  0  0  0  0  0  0
    8.9772    2.5025   22.0273 C   0  0  0  0  0  0  0  0  0  0  0  0
   10.4859    4.0901   20.9730 C   0  0  0  0  0  0  0  0  0  0  0  0
   11.0962    9.3293   23.5072 C   0  0  0  0  0  0  0  0  0  0  0  0
    5.1273    7.8529   23.6208 N   0  0  0  0  0  0  0  0  0  0  0  0
    9.7552    9.2338   23.0171 N   0  0  0  0  0  0  0  0  0  0  0  0
   11.1797    6.7591   21.3326 N   0  0  0  0  0  0  0  0  0  0  0  0
   11.7728    8.0337   23.7267 C   0  0  0  0  0  0  0  0  0  0  0  0
    7.1194    8.3344   24.6775 C   0  0  0  0  0  0  0  0  0  0  0  0
    8.4311    4.7963   22.0500 C   0  0  0  0  0  0  0  0  0  0  0  0
    8.7393   10.8706   24.1871 O   0  0  0  0  0  0  0  0  0  0  0  0
    9.3093    3.8166   21.6712 C   0  0  0  0  0  0  0  0  0  0  0  0
  1  5  1  0
  1 15  4  0
  1 22  4  0
  2 20  1  0
  2 24  1  0
  3  6  4  0
  3 27  4  0
  4 22  4  0
  4 26  4  0
  6  7  4  0
  6 13  1  0
  7 19  4  0
  8 18  1  0
  8 23  1  0
  8 28  2  0
  9 17  1  0
  9 24  1  0
 10 11  1  0
 10 24  1  0
 11 23  1  0
 12 14  4  0
 12 16  4  0
 14 19  4  0
 15 18  4  0
 16 20  4  0
 17 25  1  0
 18 26  4  0
 19 29  4  0
 20 29  4  0
 21 23  1  0
 21 25  1  0
 27 29  4  0
M  END
$$$$

 Created by Python create_sdf_string function

 29 32  0  0  0  0  0  0  0  0999 V2000
    5.4450    8.7154   22.6662 C   0  0  0  0  0  0  0  0  0  0  0  0
   10.9154    5.4574   20.5483 C   0  0  0  0  0  0  0  0  0  0  0  0
    7.2709    4.5089   22.7542 C   0  0  0  0  0  0  0  0  0  0  0  0
    5.9698    7.6329   24.6581 C   0  0  0  0  0  0  0  0  0  0  0  0
    4.5542    8.9057   21.7104 O   0  0  0  0  0  0  0  0  0  0  0  0
    6.9895    3.2085   23.0690 C   0  0  0  0  0  0  0  0  0  0  0  0
    7.8391    2.2253   22.7260 N   0  0  0  0  0  0  0  0  0  0  0  0
    8.6968    9.8373   23.6359 C   0  0  0  0  0  0  0  0  0  0  0  0
   12.5135    6.5957   21.8396 C   0  0  0  0  0  0  0  0  0  0  0  0
   10.9406    8.2330   21.1350 C   0  0  0  0  0  0  0  0  0  0  0  0
    9.6648    8.5956   21.7310 C   0  0  0  0  0  0  0  0  0  0  0  0
   10.8829    1.7153   20.9865 C   0  0  0  0  0  0  0  0  0  0  0  0
    5.7768    2.8533   23.7910 C   0  0  0  0  0  0  0  0  0  0  0  0
    9.7977    1.4791   21.6912 N   0  0  0  0  0  0  0  0  0  0  0  0
    6.5976    9.3401   22.6478 N   0  0  0  0  0  0  0  0  0  0  0  0
   11.2031    3.0042   20.6246 C   0  0  0  0  0  0  0  0  0  0  0  0
   12.8688    7.7370   22.7287 C   0  0  0  0  0  0  0  0  0  0  0  0
    7.4487    9.1361   23.6506 C   0  0  0  0  0  0  0  0  0  0  0  0
    8.9772    2.5025   22.0273 C   0  0  0  0  0  0  0  0  0  0  0  0
   10.4859    4.0901   20.9730 C   0  0  0  0  0  0  0  0  0  0  0  0
   11.0962    9.3293   23.5072 C   0  0  0  0  0  0  0  0  0  0  0  0
    5.1273    7.8529   23.6208 N   0  0  0  0  0  0  0  0  0  0  0  0
    9.7552    9.2338   23.0171 N   0  0  0  0  0  0  0  0  0  0  0  0
   11.1797    6.7591   21.3326 N   0  0  0  0  0  0  0  0  0  0  0  0
   11.7728    8.0337   23.7267 C   0  0  0  0  0  0  0  0  0  0  0  0
    7.1194    8.3344   24.6775 C   0  0  0  0  0  0  0  0  0  0  0  0
    8.4311    4.7963   22.0500 C   0  0  0  0  0  0  0  0  0  0  0  0
    8.7393   10.8706   24.1871 O   0  0  0  0  0  0  0  0  0  0  0  0
    9.3093    3.8166   21.6712 C   0  0  0  0  0  0  0  0  0  0  0  0
  1  5  1  0
  1 15  4  0
  1 22  4  0
  2 20  1  0
  2 24  1  0
  3  6  4  0
  3 27  4  0
  4 22  4  0
  4 26  4  0
  6  7  4  0
  6 13  1  0
  7 19  4  0
  8 18  1  0
  8 23  1  0
  8 28  2  0
  9 17  1  0
  9 24  1  0
 10 11  1  0
 10 24  1  0
 11 23  1  0
 12 14  4  0
 12 16  4  0
 14 19  4  0
 15 18  4  0
 16 20  4  0
 17 25  1  0
 18 26  4  0
 19 29  4  0
 20 29  4  0
 21 23  1  0
 21 25  1  0
 27 29  4  0
M  END
$$$$

 Created by Python create_sdf_string function

 29 32  0  0  0  0  0  0  0  0999 V2000
    5.4450    8.7154   22.6662 C   0  0  0  0  0  0  0  0  0  0  0  0
   10.9154    5.4574   20.5483 C   0  0  0  0  0  0  0  0  0  0  0  0
    7.2709    4.5089   22.7542 C   0  0  0  0  0  0  0  0  0  0  0  0
    5.9698    7.6329   24.6581 C   0  0  0  0  0  0  0  0  0  0  0  0
    4.5542    8.9057   21.7104 O   0  0  0  0  0  0  0  0  0  0  0  0
    6.9895    3.2085   23.0690 C   0  0  0  0  0  0  0  0  0  0  0  0
    7.8391    2.2253   22.7260 N   0  0  0  0  0  0  0  0  0  0  0  0
    8.6968    9.8373   23.6359 C   0  0  0  0  0  0  0  0  0  0  0  0
   12.5135    6.5957   21.8396 C   0  0  0  0  0  0  0  0  0  0  0  0
   10.9406    8.2330   21.1350 C   0  0  0  0  0  0  0  0  0  0  0  0
    9.6648    8.5956   21.7310 C   0  0  0  0  0  0  0  0  0  0  0  0
   10.8829    1.7153   20.9865 C   0  0  0  0  0  0  0  0  0  0  0  0
    5.7768    2.8533   23.7910 C   0  0  0  0  0  0  0  0  0  0  0  0
    9.7977    1.4791   21.6912 N   0  0  0  0  0  0  0  0  0  0  0  0
    6.5976    9.3401   22.6478 N   0  0  0  0  0  0  0  0  0  0  0  0
   11.2031    3.0042   20.6246 C   0  0  0  0  0  0  0  0  0  0  0  0
   12.8688    7.7370   22.7287 C   0  0  0  0  0  0  0  0  0  0  0  0
    7.4487    9.1361   23.6506 C   0  0  0  0  0  0  0  0  0  0  0  0
    8.9772    2.5025   22.0273 C   0  0  0  0  0  0  0  0  0  0  0  0
   10.4859    4.0901   20.9730 C   0  0  0  0  0  0  0  0  0  0  0  0
   11.0962    9.3293   23.5072 C   0  0  0  0  0  0  0  0  0  0  0  0
    5.1273    7.8529   23.6208 N   0  0  0  0  0  0  0  0  0  0  0  0
    9.7552    9.2338   23.0171 N   0  0  0  0  0  0  0  0  0  0  0  0
   11.1797    6.7591   21.3326 N   0  0  0  0  0  0  0  0  0  0  0  0
   11.7728    8.0337   23.7267 C   0  0  0  0  0  0  0  0  0  0  0  0
    7.1194    8.3344   24.6775 C   0  0  0  0  0  0  0  0  0  0  0  0
    8.4311    4.7963   22.0500 C   0  0  0  0  0  0  0  0  0  0  0  0
    8.7393   10.8706   24.1871 O   0  0  0  0  0  0  0  0  0  0  0  0
    9.3093    3.8166   21.6712 C   0  0  0  0  0  0  0  0  0  0  0  0
  1  5  1  0
  1 15  4  0
  1 22  4  0
  2 20  1  0
  2 24  1  0
  3  6  4  0
  3 27  4  0
  4 22  4  0
  4 26  4  0
  6  7  4  0
  6 13  1  0
  7 19  4  0
  8 18  1  0
  8 23  1  0
  8 28  2  0
  9 17  1  0
  9 24  1  0
 10 11  1  0
 10 24  1  0
 11 23  1  0
 12 14  4  0
 12 16  4  0
 14 19  4  0
 15 18  4  0
 16 20  4  0
 17 25  1  0
 18 26  4  0
 19 29  4  0
 20 29  4  0
 21 23  1  0
 21 25  1  0
 27 29  4  0
M  END
$$$$

 Created by Python create_sdf_string function

 29 32  0  0  0  0  0  0  0  0999 V2000
    5.4450    8.7154   22.6662 C   0  0  0  0  0  0  0  0  0  0  0  0
   10.9154    5.4574   20.5483 C   0  0  0  0  0  0  0  0  0  0  0  0
    7.2709    4.5089   22.7542 C   0  0  0  0  0  0  0  0  0  0  0  0
    5.9698    7.6329   24.6581 C   0  0  0  0  0  0  0  0  0  0  0  0
    4.5542    8.9057   21.7104 O   0  0  0  0  0  0  0  0  0  0  0  0
    6.9895    3.2085   23.0690 C   0  0  0  0  0  0  0  0  0  0  0  0
    7.8391    2.2253   22.7260 N   0  0  0  0  0  0  0  0  0  0  0  0
    8.6968    9.8373   23.6359 C   0  0  0  0  0  0  0  0  0  0  0  0
   12.5135    6.5957   21.8396 C   0  0  0  0  0  0  0  0  0  0  0  0
   10.9406    8.2330   21.1350 C   0  0  0  0  0  0  0  0  0  0  0  0
    9.6648    8.5956   21.7310 C   0  0  0  0  0  0  0  0  0  0  0  0
   10.8829    1.7153   20.9865 C   0  0  0  0  0  0  0  0  0  0  0  0
    5.7768    2.8533   23.7910 C   0  0  0  0  0  0  0  0  0  0  0  0
    9.7977    1.4791   21.6912 N   0  0  0  0  0  0  0  0  0  0  0  0
    6.5976    9.3401   22.6478 N   0  0  0  0  0  0  0  0  0  0  0  0
   11.2031    3.0042   20.6246 C   0  0  0  0  0  0  0  0  0  0  0  0
   12.8688    7.7370   22.7287 C   0  0  0  0  0  0  0  0  0  0  0  0
    7.4487    9.1361   23.6506 C   0  0  0  0  0  0  0  0  0  0  0  0
    8.9772    2.5025   22.0273 C   0  0  0  0  0  0  0  0  0  0  0  0
   10.4859    4.0901   20.9730 C   0  0  0  0  0  0  0  0  0  0  0  0
   11.0962    9.3293   23.5072 C   0  0  0  0  0  0  0  0  0  0  0  0
    5.1273    7.8529   23.6208 N   0  0  0  0  0  0  0  0  0  0  0  0
    9.7552    9.2338   23.0171 N   0  0  0  0  0  0  0  0  0  0  0  0
   11.1797    6.7591   21.3326 N   0  0  0  0  0  0  0  0  0  0  0  0
   11.7728    8.0337   23.7267 C   0  0  0  0  0  0  0  0  0  0  0  0
    7.1194    8.3344   24.6775 C   0  0  0  0  0  0  0  0  0  0  0  0
    8.4311    4.7963   22.0500 C   0  0  0  0  0  0  0  0  0  0  0  0
    8.7393   10.8706   24.1871 O   0  0  0  0  0  0  0  0  0  0  0  0
    9.3093    3.8166   21.6712 C   0  0  0  0  0  0  0  0  0  0  0  0
  1  5  1  0
  1 15  4  0
  1 22  4  0
  2 20  1  0
  2 24  1  0
  3  6  4  0
  3 27  4  0
  4 22  4  0
  4 26  4  0
  6  7  4  0
  6 13  1  0
  7 19  4  0
  8 18  1  0
  8 23  1  0
  8 28  2  0
  9 17  1  0
  9 24  1  0
 10 11  1  0
 10 24  1  0
 11 23  1  0
 12 14  4  0
 12 16  4  0
 14 19  4  0
 15 18  4  0
 16 20  4  0
 17 25  1  0
 18 26  4  0
 19 29  4  0
 20 29  4  0
 21 23  1  0
 21 25  1  0
 27 29  4  0
M  END
$$$$

 Created by Python create_sdf_string function

 29 32  0  0  0  0  0  0  0  0999 V2000
    5.4450    8.7154   22.6662 C   0  0  0  0  0  0  0  0  0  0  0  0
   10.9154    5.4574   20.5483 C   0  0  0  0  0  0  0  0  0  0  0  0
    7.2709    4.5089   22.7542 C   0  0  0  0  0  0  0  0  0  0  0  0
    5.9698    7.6329   24.6581 C   0  0  0  0  0  0  0  0  0  0  0  0
    4.5542    8.9057   21.7104 O   0  0  0  0  0  0  0  0  0  0  0  0
    6.9895    3.2085   23.0690 C   0  0  0  0  0  0  0  0  0  0  0  0
    7.8391    2.2253   22.7260 N   0  0  0  0  0  0  0  0  0  0  0  0
    8.6968    9.8373   23.6359 C   0  0  0  0  0  0  0  0  0  0  0  0
   12.5135    6.5957   21.8396 C   0  0  0  0  0  0  0  0  0  0  0  0
   10.9406    8.2330   21.1350 C   0  0  0  0  0  0  0  0  0  0  0  0
    9.6648    8.5956   21.7310 C   0  0  0  0  0  0  0  0  0  0  0  0
   10.8829    1.7153   20.9865 C   0  0  0  0  0  0  0  0  0  0  0  0
    5.7768    2.8533   23.7910 C   0  0  0  0  0  0  0  0  0  0  0  0
    9.7977    1.4791   21.6912 N   0  0  0  0  0  0  0  0  0  0  0  0
    6.5976    9.3401   22.6478 N   0  0  0  0  0  0  0  0  0  0  0  0
   11.2031    3.0042   20.6246 C   0  0  0  0  0  0  0  0  0  0  0  0
   12.8688    7.7370   22.7287 C   0  0  0  0  0  0  0  0  0  0  0  0
    7.4487    9.1361   23.6506 C   0  0  0  0  0  0  0  0  0  0  0  0
    8.9772    2.5025   22.0273 C   0  0  0  0  0  0  0  0  0  0  0  0
   10.4859    4.0901   20.9730 C   0  0  0  0  0  0  0  0  0  0  0  0
   11.0962    9.3293   23.5072 C   0  0  0  0  0  0  0  0  0  0  0  0
    5.1273    7.8529   23.6208 N   0  0  0  0  0  0  0  0  0  0  0  0
    9.7552    9.2338   23.0171 N   0  0  0  0  0  0  0  0  0  0  0  0
   11.1797    6.7591   21.3326 N   0  0  0  0  0  0  0  0  0  0  0  0
   11.7728    8.0337   23.7267 C   0  0  0  0  0  0  0  0  0  0  0  0
    7.1194    8.3344   24.6775 C   0  0  0  0  0  0  0  0  0  0  0  0
    8.4311    4.7963   22.0500 C   0  0  0  0  0  0  0  0  0  0  0  0
    8.7393   10.8706   24.1871 O   0  0  0  0  0  0  0  0  0  0  0  0
    9.3093    3.8166   21.6712 C   0  0  0  0  0  0  0  0  0  0  0  0
  1  5  1  0
  1 15  4  0
  1 22  4  0
  2 20  1  0
  2 24  1  0
  3  6  4  0
  3 27  4  0
  4 22  4  0
  4 26  4  0
  6  7  4  0
  6 13  1  0
  7 19  4  0
  8 18  1  0
  8 23  1  0
  8 28  2  0
  9 17  1  0
  9 24  1  0
 10 11  1  0
 10 24  1  0
 11 23  1  0
 12 14  4  0
 12 16  4  0
 14 19  4  0
 15 18  4  0
 16 20  4  0
 17 25  1  0
 18 26  4  0
 19 29  4  0
 20 29  4  0
 21 23  1  0
 21 25  1  0
 27 29  4  0
M  END
$$$$

 Created by Python create_sdf_string function

 29 32  0  0  0  0  0  0  0  0999 V2000
    5.4450    8.7154   22.6662 C   0  0  0  0  0  0  0  0  0  0  0  0
   10.9154    5.4574   20.5483 C   0  0  0  0  0  0  0  0  0  0  0  0
    7.2709    4.5089   22.7542 C   0  0  0  0  0  0  0  0  0  0  0  0
    5.9698    7.6329   24.6581 C   0  0  0  0  0  0  0  0  0  0  0  0
    4.5542    8.9057   21.7104 O   0  0  0  0  0  0  0  0  0  0  0  0
    6.9895    3.2085   23.0690 C   0  0  0  0  0  0  0  0  0  0  0  0
    7.8391    2.2253   22.7260 N   0  0  0  0  0  0  0  0  0  0  0  0
    8.6968    9.8373   23.6359 C   0  0  0  0  0  0  0  0  0  0  0  0
   12.5135    6.5957   21.8396 C   0  0  0  0  0  0  0  0  0  0  0  0
   10.9406    8.2330   21.1350 C   0  0  0  0  0  0  0  0  0  0  0  0
    9.6648    8.5956   21.7310 C   0  0  0  0  0  0  0  0  0  0  0  0
   10.8829    1.7153   20.9865 C   0  0  0  0  0  0  0  0  0  0  0  0
    5.7768    2.8533   23.7910 C   0  0  0  0  0  0  0  0  0  0  0  0
    9.7977    1.4791   21.6912 N   0  0  0  0  0  0  0  0  0  0  0  0
    6.5976    9.3401   22.6478 N   0  0  0  0  0  0  0  0  0  0  0  0
   11.2031    3.0042   20.6246 C   0  0  0  0  0  0  0  0  0  0  0  0
   12.8688    7.7370   22.7287 C   0  0  0  0  0  0  0  0  0  0  0  0
    7.4487    9.1361   23.6506 C   0  0  0  0  0  0  0  0  0  0  0  0
    8.9772    2.5025   22.0273 C   0  0  0  0  0  0  0  0  0  0  0  0
   10.4859    4.0901   20.9730 C   0  0  0  0  0  0  0  0  0  0  0  0
   11.0962    9.3293   23.5072 C   0  0  0  0  0  0  0  0  0  0  0  0
    5.1273    7.8529   23.6208 N   0  0  0  0  0  0  0  0  0  0  0  0
    9.7552    9.2338   23.0171 N   0  0  0  0  0  0  0  0  0  0  0  0
   11.1797    6.7591   21.3326 N   0  0  0  0  0  0  0  0  0  0  0  0
   11.7728    8.0337   23.7267 C   0  0  0  0  0  0  0  0  0  0  0  0
    7.1194    8.3344   24.6775 C   0  0  0  0  0  0  0  0  0  0  0  0
    8.4311    4.7963   22.0500 C   0  0  0  0  0  0  0  0  0  0  0  0
    8.7393   10.8706   24.1871 O   0  0  0  0  0  0  0  0  0  0  0  0
    9.3093    3.8166   21.6712 C   0  0  0  0  0  0  0  0  0  0  0  0
  1  5  1  0
  1 15  4  0
  1 22  4  0
  2 20  1  0
  2 24  1  0
  3  6  4  0
  3 27  4  0
  4 22  4  0
  4 26  4  0
  6  7  4  0
  6 13  1  0
  7 19  4  0
  8 18  1  0
  8 23  1  0
  8 28  2  0
  9 17  1  0
  9 24  1  0
 10 11  1  0
 10 24  1  0
 11 23  1  0
 12 14  4  0
 12 16  4  0
 14 19  4  0
 15 18  4  0
 16 20  4  0
 17 25  1  0
 18 26  4  0
 19 29  4  0
 20 29  4  0
 21 23  1  0
 21 25  1  0
 27 29  4  0
M  END
$$$$

 Created by Python create_sdf_string function

 29 32  0  0  0  0  0  0  0  0999 V2000
    5.4450    8.7154   22.6662 C   0  0  0  0  0  0  0  0  0  0  0  0
   10.9154    5.4574   20.5483 C   0  0  0  0  0  0  0  0  0  0  0  0
    7.2709    4.5089   22.7542 C   0  0  0  0  0  0  0  0  0  0  0  0
    5.9698    7.6329   24.6581 C   0  0  0  0  0  0  0  0  0  0  0  0
    4.5542    8.9057   21.7104 O   0  0  0  0  0  0  0  0  0  0  0  0
    6.9895    3.2085   23.0690 C   0  0  0  0  0  0  0  0  0  0  0  0
    7.8391    2.2253   22.7260 N   0  0  0  0  0  0  0  0  0  0  0  0
    8.6968    9.8373   23.6359 C   0  0  0  0  0  0  0  0  0  0  0  0
   12.5135    6.5957   21.8396 C   0  0  0  0  0  0  0  0  0  0  0  0
   10.9406    8.2330   21.1350 C   0  0  0  0  0  0  0  0  0  0  0  0
    9.6648    8.5956   21.7310 C   0  0  0  0  0  0  0  0  0  0  0  0
   10.8829    1.7153   20.9865 C   0  0  0  0  0  0  0  0  0  0  0  0
    5.7768    2.8533   23.7910 C   0  0  0  0  0  0  0  0  0  0  0  0
    9.7977    1.4791   21.6912 N   0  0  0  0  0  0  0  0  0  0  0  0
    6.5976    9.3401   22.6478 N   0  0  0  0  0  0  0  0  0  0  0  0
   11.2031    3.0042   20.6246 C   0  0  0  0  0  0  0  0  0  0  0  0
   12.8688    7.7370   22.7287 C   0  0  0  0  0  0  0  0  0  0  0  0
    7.4487    9.1361   23.6506 C   0  0  0  0  0  0  0  0  0  0  0  0
    8.9772    2.5025   22.0273 C   0  0  0  0  0  0  0  0  0  0  0  0
   10.4859    4.0901   20.9730 C   0  0  0  0  0  0  0  0  0  0  0  0
   11.0962    9.3293   23.5072 C   0  0  0  0  0  0  0  0  0  0  0  0
    5.1273    7.8529   23.6208 N   0  0  0  0  0  0  0  0  0  0  0  0
    9.7552    9.2338   23.0171 N   0  0  0  0  0  0  0  0  0  0  0  0
   11.1797    6.7591   21.3326 N   0  0  0  0  0  0  0  0  0  0  0  0
   11.7728    8.0337   23.7267 C   0  0  0  0  0  0  0  0  0  0  0  0
    7.1194    8.3344   24.6775 C   0  0  0  0  0  0  0  0  0  0  0  0
    8.4311    4.7963   22.0500 C   0  0  0  0  0  0  0  0  0  0  0  0
    8.7393   10.8706   24.1871 O   0  0  0  0  0  0  0  0  0  0  0  0
    9.3093    3.8166   21.6712 C   0  0  0  0  0  0  0  0  0  0  0  0
  1  5  1  0
  1 15  4  0
  1 22  4  0
  2 20  1  0
  2 24  1  0
  3  6  4  0
  3 27  4  0
  4 22  4  0
  4 26  4  0
  6  7  4  0
  6 13  1  0
  7 19  4  0
  8 18  1  0
  8 23  1  0
  8 28  2  0
  9 17  1  0
  9 24  1  0
 10 11  1  0
 10 24  1  0
 11 23  1  0
 12 14  4  0
 12 16  4  0
 14 19  4  0
 15 18  4  0
 16 20  4  0
 17 25  1  0
 18 26  4  0
 19 29  4  0
 20 29  4  0
 21 23  1  0
 21 25  1  0
 27 29  4  0
M  END
$$$$

 Created by Python create_sdf_string function

 29 32  0  0  0  0  0  0  0  0999 V2000
    5.4450    8.7154   22.6662 C   0  0  0  0  0  0  0  0  0  0  0  0
   10.9154    5.4574   20.5483 C   0  0  0  0  0  0  0  0  0  0  0  0
    7.2709    4.5089   22.7542 C   0  0  0  0  0  0  0  0  0  0  0  0
    5.9698    7.6329   24.6581 C   0  0  0  0  0  0  0  0  0  0  0  0
    4.5542    8.9057   21.7104 O   0  0  0  0  0  0  0  0  0  0  0  0
    6.9895    3.2085   23.0690 C   0  0  0  0  0  0  0  0  0  0  0  0
    7.8391    2.2253   22.7260 N   0  0  0  0  0  0  0  0  0  0  0  0
    8.6968    9.8373   23.6359 C   0  0  0  0  0  0  0  0  0  0  0  0
   12.5135    6.5957   21.8396 C   0  0  0  0  0  0  0  0  0  0  0  0
   10.9406    8.2330   21.1350 C   0  0  0  0  0  0  0  0  0  0  0  0
    9.6648    8.5956   21.7310 C   0  0  0  0  0  0  0  0  0  0  0  0
   10.8829    1.7153   20.9865 C   0  0  0  0  0  0  0  0  0  0  0  0
    5.7768    2.8533   23.7910 C   0  0  0  0  0  0  0  0  0  0  0  0
    9.7977    1.4791   21.6912 N   0  0  0  0  0  0  0  0  0  0  0  0
    6.5976    9.3401   22.6478 N   0  0  0  0  0  0  0  0  0  0  0  0
   11.2031    3.0042   20.6246 C   0  0  0  0  0  0  0  0  0  0  0  0
   12.8688    7.7370   22.7287 C   0  0  0  0  0  0  0  0  0  0  0  0
    7.4487    9.1361   23.6506 C   0  0  0  0  0  0  0  0  0  0  0  0
    8.9772    2.5025   22.0273 C   0  0  0  0  0  0  0  0  0  0  0  0
   10.4859    4.0901   20.9730 C   0  0  0  0  0  0  0  0  0  0  0  0
   11.0962    9.3293   23.5072 C   0  0  0  0  0  0  0  0  0  0  0  0
    5.1273    7.8529   23.6208 N   0  0  0  0  0  0  0  0  0  0  0  0
    9.7552    9.2338   23.0171 N   0  0  0  0  0  0  0  0  0  0  0  0
   11.1797    6.7591   21.3326 N   0  0  0  0  0  0  0  0  0  0  0  0
   11.7728    8.0337   23.7267 C   0  0  0  0  0  0  0  0  0  0  0  0
    7.1194    8.3344   24.6775 C   0  0  0  0  0  0  0  0  0  0  0  0
    8.4311    4.7963   22.0500 C   0  0  0  0  0  0  0  0  0  0  0  0
    8.7393   10.8706   24.1871 O   0  0  0  0  0  0  0  0  0  0  0  0
    9.3093    3.8166   21.6712 C   0  0  0  0  0  0  0  0  0  0  0  0
  1  5  1  0
  1 15  4  0
  1 22  4  0
  2 20  1  0
  2 24  1  0
  3  6  4  0
  3 27  4  0
  4 22  4  0
  4 26  4  0
  6  7  4  0
  6 13  1  0
  7 19  4  0
  8 18  1  0
  8 23  1  0
  8 28  2  0
  9 17  1  0
  9 24  1  0
 10 11  1  0
 10 24  1  0
 11 23  1  0
 12 14  4  0
 12 16  4  0
 14 19  4  0
 15 18  4  0
 16 20  4  0
 17 25  1  0
 18 26  4  0
 19 29  4  0
 20 29  4  0
 21 23  1  0
 21 25  1  0
 27 29  4  0
M  END
$$$$

 Created by Python create_sdf_string function

 29 32  0  0  0  0  0  0  0  0999 V2000
    5.4450    8.7154   22.6662 C   0  0  0  0  0  0  0  0  0  0  0  0
   10.9154    5.4574   20.5483 C   0  0  0  0  0  0  0  0  0  0  0  0
    7.2709    4.5089   22.7542 C   0  0  0  0  0  0  0  0  0  0  0  0
    5.9698    7.6329   24.6581 C   0  0  0  0  0  0  0  0  0  0  0  0
    4.5542    8.9057   21.7104 O   0  0  0  0  0  0  0  0  0  0  0  0
    6.9895    3.2085   23.0690 C   0  0  0  0  0  0  0  0  0  0  0  0
    7.8391    2.2253   22.7260 N   0  0  0  0  0  0  0  0  0  0  0  0
    8.6968    9.8373   23.6359 C   0  0  0  0  0  0  0  0  0  0  0  0
   12.5135    6.5957   21.8396 C   0  0  0  0  0  0  0  0  0  0  0  0
   10.9406    8.2330   21.1350 C   0  0  0  0  0  0  0  0  0  0  0  0
    9.6648    8.5956   21.7310 C   0  0  0  0  0  0  0  0  0  0  0  0
   10.8829    1.7153   20.9865 C   0  0  0  0  0  0  0  0  0  0  0  0
    5.7768    2.8533   23.7910 C   0  0  0  0  0  0  0  0  0  0  0  0
    9.7977    1.4791   21.6912 N   0  0  0  0  0  0  0  0  0  0  0  0
    6.5976    9.3401   22.6478 N   0  0  0  0  0  0  0  0  0  0  0  0
   11.2031    3.0042   20.6246 C   0  0  0  0  0  0  0  0  0  0  0  0
   12.8688    7.7370   22.7287 C   0  0  0  0  0  0  0  0  0  0  0  0
    7.4487    9.1361   23.6506 C   0  0  0  0  0  0  0  0  0  0  0  0
    8.9772    2.5025   22.0273 C   0  0  0  0  0  0  0  0  0  0  0  0
   10.4859    4.0901   20.9730 C   0  0  0  0  0  0  0  0  0  0  0  0
   11.0962    9.3293   23.5072 C   0  0  0  0  0  0  0  0  0  0  0  0
    5.1273    7.8529   23.6208 N   0  0  0  0  0  0  0  0  0  0  0  0
    9.7552    9.2338   23.0171 N   0  0  0  0  0  0  0  0  0  0  0  0
   11.1797    6.7591   21.3326 N   0  0  0  0  0  0  0  0  0  0  0  0
   11.7728    8.0337   23.7267 C   0  0  0  0  0  0  0  0  0  0  0  0
    7.1194    8.3344   24.6775 C   0  0  0  0  0  0  0  0  0  0  0  0
    8.4311    4.7963   22.0500 C   0  0  0  0  0  0  0  0  0  0  0  0
    8.7393   10.8706   24.1871 O   0  0  0  0  0  0  0  0  0  0  0  0
    9.3093    3.8166   21.6712 C   0  0  0  0  0  0  0  0  0  0  0  0
  1  5  1  0
  1 15  4  0
  1 22  4  0
  2 20  1  0
  2 24  1  0
  3  6  4  0
  3 27  4  0
  4 22  4  0
  4 26  4  0
  6  7  4  0
  6 13  1  0
  7 19  4  0
  8 18  1  0
  8 23  1  0
  8 28  2  0
  9 17  1  0
  9 24  1  0
 10 11  1  0
 10 24  1  0
 11 23  1  0
 12 14  4  0
 12 16  4  0
 14 19  4  0
 15 18  4  0
 16 20  4  0
 17 25  1  0
 18 26  4  0
 19 29  4  0
 20 29  4  0
 21 23  1  0
 21 25  1  0
 27 29  4  0
M  END
$$$$

 Created by Python create_sdf_string function

 29 32  0  0  0  0  0  0  0  0999 V2000
    5.4450    8.7154   22.6662 C   0  0  0  0  0  0  0  0  0  0  0  0
   10.9154    5.4574   20.5483 C   0  0  0  0  0  0  0  0  0  0  0  0
    7.2709    4.5089   22.7542 C   0  0  0  0  0  0  0  0  0  0  0  0
    5.9698    7.6329   24.6581 C   0  0  0  0  0  0  0  0  0  0  0  0
    4.5542    8.9057   21.7104 O   0  0  0  0  0  0  0  0  0  0  0  0
    6.9895    3.2085   23.0690 C   0  0  0  0  0  0  0  0  0  0  0  0
    7.8391    2.2253   22.7260 N   0  0  0  0  0  0  0  0  0  0  0  0
    8.6968    9.8373   23.6359 C   0  0  0  0  0  0  0  0  0  0  0  0
   12.5135    6.5957   21.8396 C   0  0  0  0  0  0  0  0  0  0  0  0
   10.9406    8.2330   21.1350 C   0  0  0  0  0  0  0  0  0  0  0  0
    9.6648    8.5956   21.7310 C   0  0  0  0  0  0  0  0  0  0  0  0
   10.8829    1.7153   20.9865 C   0  0  0  0  0  0  0  0  0  0  0  0
    5.7768    2.8533   23.7910 C   0  0  0  0  0  0  0  0  0  0  0  0
    9.7977    1.4791   21.6912 N   0  0  0  0  0  0  0  0  0  0  0  0
    6.5976    9.3401   22.6478 N   0  0  0  0  0  0  0  0  0  0  0  0
   11.2031    3.0042   20.6246 C   0  0  0  0  0  0  0  0  0  0  0  0
   12.8688    7.7370   22.7287 C   0  0  0  0  0  0  0  0  0  0  0  0
    7.4487    9.1361   23.6506 C   0  0  0  0  0  0  0  0  0  0  0  0
    8.9772    2.5025   22.0273 C   0  0  0  0  0  0  0  0  0  0  0  0
   10.4859    4.0901   20.9730 C   0  0  0  0  0  0  0  0  0  0  0  0
   11.0962    9.3293   23.5072 C   0  0  0  0  0  0  0  0  0  0  0  0
    5.1273    7.8529   23.6208 N   0  0  0  0  0  0  0  0  0  0  0  0
    9.7552    9.2338   23.0171 N   0  0  0  0  0  0  0  0  0  0  0  0
   11.1797    6.7591   21.3326 N   0  0  0  0  0  0  0  0  0  0  0  0
   11.7728    8.0337   23.7267 C   0  0  0  0  0  0  0  0  0  0  0  0
    7.1194    8.3344   24.6775 C   0  0  0  0  0  0  0  0  0  0  0  0
    8.4311    4.7963   22.0500 C   0  0  0  0  0  0  0  0  0  0  0  0
    8.7393   10.8706   24.1871 O   0  0  0  0  0  0  0  0  0  0  0  0
    9.3093    3.8166   21.6712 C   0  0  0  0  0  0  0  0  0  0  0  0
  1  5  1  0
  1 15  4  0
  1 22  4  0
  2 20  1  0
  2 24  1  0
  3  6  4  0
  3 27  4  0
  4 22  4  0
  4 26  4  0
  6  7  4  0
  6 13  1  0
  7 19  4  0
  8 18  1  0
  8 23  1  0
  8 28  2  0
  9 17  1  0
  9 24  1  0
 10 11  1  0
 10 24  1  0
 11 23  1  0
 12 14  4  0
 12 16  4  0
 14 19  4  0
 15 18  4  0
 16 20  4  0
 17 25  1  0
 18 26  4  0
 19 29  4  0
 20 29  4  0
 21 23  1  0
 21 25  1  0
 27 29  4  0
M  END
$$$$

 Created by Python create_sdf_string function

 29 32  0  0  0  0  0  0  0  0999 V2000
    5.4450    8.7154   22.6662 C   0  0  0  0  0  0  0  0  0  0  0  0
   10.9154    5.4574   20.5483 C   0  0  0  0  0  0  0  0  0  0  0  0
    7.2709    4.5089   22.7542 C   0  0  0  0  0  0  0  0  0  0  0  0
    5.9698    7.6329   24.6581 C   0  0  0  0  0  0  0  0  0  0  0  0
    4.5542    8.9057   21.7104 O   0  0  0  0  0  0  0  0  0  0  0  0
    6.9895    3.2085   23.0690 C   0  0  0  0  0  0  0  0  0  0  0  0
    7.8391    2.2253   22.7260 N   0  0  0  0  0  0  0  0  0  0  0  0
    8.6968    9.8373   23.6359 C   0  0  0  0  0  0  0  0  0  0  0  0
   12.5135    6.5957   21.8396 C   0  0  0  0  0  0  0  0  0  0  0  0
   10.9406    8.2330   21.1350 C   0  0  0  0  0  0  0  0  0  0  0  0
    9.6648    8.5956   21.7310 C   0  0  0  0  0  0  0  0  0  0  0  0
   10.8829    1.7153   20.9865 C   0  0  0  0  0  0  0  0  0  0  0  0
    5.7768    2.8533   23.7910 C   0  0  0  0  0  0  0  0  0  0  0  0
    9.7977    1.4791   21.6912 N   0  0  0  0  0  0  0  0  0  0  0  0
    6.5976    9.3401   22.6478 N   0  0  0  0  0  0  0  0  0  0  0  0
   11.2031    3.0042   20.6246 C   0  0  0  0  0  0  0  0  0  0  0  0
   12.8688    7.7370   22.7287 C   0  0  0  0  0  0  0  0  0  0  0  0
    7.4487    9.1361   23.6506 C   0  0  0  0  0  0  0  0  0  0  0  0
    8.9772    2.5025   22.0273 C   0  0  0  0  0  0  0  0  0  0  0  0
   10.4859    4.0901   20.9730 C   0  0  0  0  0  0  0  0  0  0  0  0
   11.0962    9.3293   23.5072 C   0  0  0  0  0  0  0  0  0  0  0  0
    5.1273    7.8529   23.6208 N   0  0  0  0  0  0  0  0  0  0  0  0
    9.7552    9.2338   23.0171 N   0  0  0  0  0  0  0  0  0  0  0  0
   11.1797    6.7591   21.3326 N   0  0  0  0  0  0  0  0  0  0  0  0
   11.7728    8.0337   23.7267 C   0  0  0  0  0  0  0  0  0  0  0  0
    7.1194    8.3344   24.6775 C   0  0  0  0  0  0  0  0  0  0  0  0
    8.4311    4.7963   22.0500 C   0  0  0  0  0  0  0  0  0  0  0  0
    8.7393   10.8706   24.1871 O   0  0  0  0  0  0  0  0  0  0  0  0
    9.3093    3.8166   21.6712 C   0  0  0  0  0  0  0  0  0  0  0  0
  1  5  1  0
  1 15  4  0
  1 22  4  0
  2 20  1  0
  2 24  1  0
  3  6  4  0
  3 27  4  0
  4 22  4  0
  4 26  4  0
  6  7  4  0
  6 13  1  0
  7 19  4  0
  8 18  1  0
  8 23  1  0
  8 28  2  0
  9 17  1  0
  9 24  1  0
 10 11  1  0
 10 24  1  0
 11 23  1  0
 12 14  4  0
 12 16  4  0
 14 19  4  0
 15 18  4  0
 16 20  4  0
 17 25  1  0
 18 26  4  0
 19 29  4  0
 20 29  4  0
 21 23  1  0
 21 25  1  0
 27 29  4  0
M  END
$$$$

 Created by Python create_sdf_string function

 29 32  0  0  0  0  0  0  0  0999 V2000
    5.4450    8.7154   22.6662 C   0  0  0  0  0  0  0  0  0  0  0  0
   10.9154    5.4574   20.5483 C   0  0  0  0  0  0  0  0  0  0  0  0
    7.2709    4.5089   22.7542 C   0  0  0  0  0  0  0  0  0  0  0  0
    5.9698    7.6329   24.6581 C   0  0  0  0  0  0  0  0  0  0  0  0
    4.5542    8.9057   21.7104 O   0  0  0  0  0  0  0  0  0  0  0  0
    6.9895    3.2085   23.0690 C   0  0  0  0  0  0  0  0  0  0  0  0
    7.8391    2.2253   22.7260 N   0  0  0  0  0  0  0  0  0  0  0  0
    8.6968    9.8373   23.6359 C   0  0  0  0  0  0  0  0  0  0  0  0
   12.5135    6.5957   21.8396 C   0  0  0  0  0  0  0  0  0  0  0  0
   10.9406    8.2330   21.1350 C   0  0  0  0  0  0  0  0  0  0  0  0
    9.6648    8.5956   21.7310 C   0  0  0  0  0  0  0  0  0  0  0  0
   10.8829    1.7153   20.9865 C   0  0  0  0  0  0  0  0  0  0  0  0
    5.7768    2.8533   23.7910 C   0  0  0  0  0  0  0  0  0  0  0  0
    9.7977    1.4791   21.6912 N   0  0  0  0  0  0  0  0  0  0  0  0
    6.5976    9.3401   22.6478 N   0  0  0  0  0  0  0  0  0  0  0  0
   11.2031    3.0042   20.6246 C   0  0  0  0  0  0  0  0  0  0  0  0
   12.8688    7.7370   22.7287 C   0  0  0  0  0  0  0  0  0  0  0  0
    7.4487    9.1361   23.6506 C   0  0  0  0  0  0  0  0  0  0  0  0
    8.9772    2.5025   22.0273 C   0  0  0  0  0  0  0  0  0  0  0  0
   10.4859    4.0901   20.9730 C   0  0  0  0  0  0  0  0  0  0  0  0
   11.0962    9.3293   23.5072 C   0  0  0  0  0  0  0  0  0  0  0  0
    5.1273    7.8529   23.6208 N   0  0  0  0  0  0  0  0  0  0  0  0
    9.7552    9.2338   23.0171 N   0  0  0  0  0  0  0  0  0  0  0  0
   11.1797    6.7591   21.3326 N   0  0  0  0  0  0  0  0  0  0  0  0
   11.7728    8.0337   23.7267 C   0  0  0  0  0  0  0  0  0  0  0  0
    7.1194    8.3344   24.6775 C   0  0  0  0  0  0  0  0  0  0  0  0
    8.4311    4.7963   22.0500 C   0  0  0  0  0  0  0  0  0  0  0  0
    8.7393   10.8706   24.1871 O   0  0  0  0  0  0  0  0  0  0  0  0
    9.3093    3.8166   21.6712 C   0  0  0  0  0  0  0  0  0  0  0  0
  1  5  1  0
  1 15  4  0
  1 22  4  0
  2 20  1  0
  2 24  1  0
  3  6  4  0
  3 27  4  0
  4 22  4  0
  4 26  4  0
  6  7  4  0
  6 13  1  0
  7 19  4  0
  8 18  1  0
  8 23  1  0
  8 28  2  0
  9 17  1  0
  9 24  1  0
 10 11  1  0
 10 24  1  0
 11 23  1  0
 12 14  4  0
 12 16  4  0
 14 19  4  0
 15 18  4  0
 16 20  4  0
 17 25  1  0
 18 26  4  0
 19 29  4  0
 20 29  4  0
 21 23  1  0
 21 25  1  0
 27 29  4  0
M  END
$$$$

 Created by Python create_sdf_string function

 29 32  0  0  0  0  0  0  0  0999 V2000
    5.4450    8.7154   22.6662 C   0  0  0  0  0  0  0  0  0  0  0  0
   10.9154    5.4574   20.5483 C   0  0  0  0  0  0  0  0  0  0  0  0
    7.2709    4.5089   22.7542 C   0  0  0  0  0  0  0  0  0  0  0  0
    5.9698    7.6329   24.6581 C   0  0  0  0  0  0  0  0  0  0  0  0
    4.5542    8.9057   21.7104 O   0  0  0  0  0  0  0  0  0  0  0  0
    6.9895    3.2085   23.0690 C   0  0  0  0  0  0  0  0  0  0  0  0
    7.8391    2.2253   22.7260 N   0  0  0  0  0  0  0  0  0  0  0  0
    8.6968    9.8373   23.6359 C   0  0  0  0  0  0  0  0  0  0  0  0
   12.5135    6.5957   21.8396 C   0  0  0  0  0  0  0  0  0  0  0  0
   10.9406    8.2330   21.1350 C   0  0  0  0  0  0  0  0  0  0  0  0
    9.6648    8.5956   21.7310 C   0  0  0  0  0  0  0  0  0  0  0  0
   10.8829    1.7153   20.9865 C   0  0  0  0  0  0  0  0  0  0  0  0
    5.7768    2.8533   23.7910 C   0  0  0  0  0  0  0  0  0  0  0  0
    9.7977    1.4791   21.6912 N   0  0  0  0  0  0  0  0  0  0  0  0
    6.5976    9.3401   22.6478 N   0  0  0  0  0  0  0  0  0  0  0  0
   11.2031    3.0042   20.6246 C   0  0  0  0  0  0  0  0  0  0  0  0
   12.8688    7.7370   22.7287 C   0  0  0  0  0  0  0  0  0  0  0  0
    7.4487    9.1361   23.6506 C   0  0  0  0  0  0  0  0  0  0  0  0
    8.9772    2.5025   22.0273 C   0  0  0  0  0  0  0  0  0  0  0  0
   10.4859    4.0901   20.9730 C   0  0  0  0  0  0  0  0  0  0  0  0
   11.0962    9.3293   23.5072 C   0  0  0  0  0  0  0  0  0  0  0  0
    5.1273    7.8529   23.6208 N   0  0  0  0  0  0  0  0  0  0  0  0
    9.7552    9.2338   23.0171 N   0  0  0  0  0  0  0  0  0  0  0  0
   11.1797    6.7591   21.3326 N   0  0  0  0  0  0  0  0  0  0  0  0
   11.7728    8.0337   23.7267 C   0  0  0  0  0  0  0  0  0  0  0  0
    7.1194    8.3344   24.6775 C   0  0  0  0  0  0  0  0  0  0  0  0
    8.4311    4.7963   22.0500 C   0  0  0  0  0  0  0  0  0  0  0  0
    8.7393   10.8706   24.1871 O   0  0  0  0  0  0  0  0  0  0  0  0
    9.3093    3.8166   21.6712 C   0  0  0  0  0  0  0  0  0  0  0  0
  1  5  1  0
  1 15  4  0
  1 22  4  0
  2 20  1  0
  2 24  1  0
  3  6  4  0
  3 27  4  0
  4 22  4  0
  4 26  4  0
  6  7  4  0
  6 13  1  0
  7 19  4  0
  8 18  1  0
  8 23  1  0
  8 28  2  0
  9 17  1  0
  9 24  1  0
 10 11  1  0
 10 24  1  0
 11 23  1  0
 12 14  4  0
 12 16  4  0
 14 19  4  0
 15 18  4  0
 16 20  4  0
 17 25  1  0
 18 26  4  0
 19 29  4  0
 20 29  4  0
 21 23  1  0
 21 25  1  0
 27 29  4  0
M  END
$$$$

 Created by Python create_sdf_string function

 29 32  0  0  0  0  0  0  0  0999 V2000
    5.4450    8.7154   22.6662 C   0  0  0  0  0  0  0  0  0  0  0  0
   10.9154    5.4574   20.5483 C   0  0  0  0  0  0  0  0  0  0  0  0
    7.2709    4.5089   22.7542 C   0  0  0  0  0  0  0  0  0  0  0  0
    5.9698    7.6329   24.6581 C   0  0  0  0  0  0  0  0  0  0  0  0
    4.5542    8.9057   21.7104 O   0  0  0  0  0  0  0  0  0  0  0  0
    6.9895    3.2085   23.0690 C   0  0  0  0  0  0  0  0  0  0  0  0
    7.8391    2.2253   22.7260 N   0  0  0  0  0  0  0  0  0  0  0  0
    8.6968    9.8373   23.6359 C   0  0  0  0  0  0  0  0  0  0  0  0
   12.5135    6.5957   21.8396 C   0  0  0  0  0  0  0  0  0  0  0  0
   10.9406    8.2330   21.1350 C   0  0  0  0  0  0  0  0  0  0  0  0
    9.6648    8.5956   21.7310 C   0  0  0  0  0  0  0  0  0  0  0  0
   10.8829    1.7153   20.9865 C   0  0  0  0  0  0  0  0  0  0  0  0
    5.7768    2.8533   23.7910 C   0  0  0  0  0  0  0  0  0  0  0  0
    9.7977    1.4791   21.6912 N   0  0  0  0  0  0  0  0  0  0  0  0
    6.5976    9.3401   22.6478 N   0  0  0  0  0  0  0  0  0  0  0  0
   11.2031    3.0042   20.6246 C   0  0  0  0  0  0  0  0  0  0  0  0
   12.8688    7.7370   22.7287 C   0  0  0  0  0  0  0  0  0  0  0  0
    7.4487    9.1361   23.6506 C   0  0  0  0  0  0  0  0  0  0  0  0
    8.9772    2.5025   22.0273 C   0  0  0  0  0  0  0  0  0  0  0  0
   10.4859    4.0901   20.9730 C   0  0  0  0  0  0  0  0  0  0  0  0
   11.0962    9.3293   23.5072 C   0  0  0  0  0  0  0  0  0  0  0  0
    5.1273    7.8529   23.6208 N   0  0  0  0  0  0  0  0  0  0  0  0
    9.7552    9.2338   23.0171 N   0  0  0  0  0  0  0  0  0  0  0  0
   11.1797    6.7591   21.3326 N   0  0  0  0  0  0  0  0  0  0  0  0
   11.7728    8.0337   23.7267 C   0  0  0  0  0  0  0  0  0  0  0  0
    7.1194    8.3344   24.6775 C   0  0  0  0  0  0  0  0  0  0  0  0
    8.4311    4.7963   22.0500 C   0  0  0  0  0  0  0  0  0  0  0  0
    8.7393   10.8706   24.1871 O   0  0  0  0  0  0  0  0  0  0  0  0
    9.3093    3.8166   21.6712 C   0  0  0  0  0  0  0  0  0  0  0  0
  1  5  1  0
  1 15  4  0
  1 22  4  0
  2 20  1  0
  2 24  1  0
  3  6  4  0
  3 27  4  0
  4 22  4  0
  4 26  4  0
  6  7  4  0
  6 13  1  0
  7 19  4  0
  8 18  1  0
  8 23  1  0
  8 28  2  0
  9 17  1  0
  9 24  1  0
 10 11  1  0
 10 24  1  0
 11 23  1  0
 12 14  4  0
 12 16  4  0
 14 19  4  0
 15 18  4  0
 16 20  4  0
 17 25  1  0
 18 26  4  0
 19 29  4  0
 20 29  4  0
 21 23  1  0
 21 25  1  0
 27 29  4  0
M  END
$$$$

 Created by Python create_sdf_string function

 29 32  0  0  0  0  0  0  0  0999 V2000
    5.4450    8.7154   22.6662 C   0  0  0  0  0  0  0  0  0  0  0  0
   10.9154    5.4574   20.5483 C   0  0  0  0  0  0  0  0  0  0  0  0
    7.2709    4.5089   22.7542 C   0  0  0  0  0  0  0  0  0  0  0  0
    5.9698    7.6329   24.6581 C   0  0  0  0  0  0  0  0  0  0  0  0
    4.5542    8.9057   21.7104 O   0  0  0  0  0  0  0  0  0  0  0  0
    6.9895    3.2085   23.0690 C   0  0  0  0  0  0  0  0  0  0  0  0
    7.8391    2.2253   22.7260 N   0  0  0  0  0  0  0  0  0  0  0  0
    8.6968    9.8373   23.6359 C   0  0  0  0  0  0  0  0  0  0  0  0
   12.5135    6.5957   21.8396 C   0  0  0  0  0  0  0  0  0  0  0  0
   10.9406    8.2330   21.1350 C   0  0  0  0  0  0  0  0  0  0  0  0
    9.6648    8.5956   21.7310 C   0  0  0  0  0  0  0  0  0  0  0  0
   10.8829    1.7153   20.9865 C   0  0  0  0  0  0  0  0  0  0  0  0
    5.7768    2.8533   23.7910 C   0  0  0  0  0  0  0  0  0  0  0  0
    9.7977    1.4791   21.6912 N   0  0  0  0  0  0  0  0  0  0  0  0
    6.5976    9.3401   22.6478 N   0  0  0  0  0  0  0  0  0  0  0  0
   11.2031    3.0042   20.6246 C   0  0  0  0  0  0  0  0  0  0  0  0
   12.8688    7.7370   22.7287 C   0  0  0  0  0  0  0  0  0  0  0  0
    7.4487    9.1361   23.6506 C   0  0  0  0  0  0  0  0  0  0  0  0
    8.9772    2.5025   22.0273 C   0  0  0  0  0  0  0  0  0  0  0  0
   10.4859    4.0901   20.9730 C   0  0  0  0  0  0  0  0  0  0  0  0
   11.0962    9.3293   23.5072 C   0  0  0  0  0  0  0  0  0  0  0  0
    5.1273    7.8529   23.6208 N   0  0  0  0  0  0  0  0  0  0  0  0
    9.7552    9.2338   23.0171 N   0  0  0  0  0  0  0  0  0  0  0  0
   11.1797    6.7591   21.3326 N   0  0  0  0  0  0  0  0  0  0  0  0
   11.7728    8.0337   23.7267 C   0  0  0  0  0  0  0  0  0  0  0  0
    7.1194    8.3344   24.6775 C   0  0  0  0  0  0  0  0  0  0  0  0
    8.4311    4.7963   22.0500 C   0  0  0  0  0  0  0  0  0  0  0  0
    8.7393   10.8706   24.1871 O   0  0  0  0  0  0  0  0  0  0  0  0
    9.3093    3.8166   21.6712 C   0  0  0  0  0  0  0  0  0  0  0  0
  1  5  1  0
  1 15  4  0
  1 22  4  0
  2 20  1  0
  2 24  1  0
  3  6  4  0
  3 27  4  0
  4 22  4  0
  4 26  4  0
  6  7  4  0
  6 13  1  0
  7 19  4  0
  8 18  1  0
  8 23  1  0
  8 28  2  0
  9 17  1  0
  9 24  1  0
 10 11  1  0
 10 24  1  0
 11 23  1  0
 12 14  4  0
 12 16  4  0
 14 19  4  0
 15 18  4  0
 16 20  4  0
 17 25  1  0
 18 26  4  0
 19 29  4  0
 20 29  4  0
 21 23  1  0
 21 25  1  0
 27 29  4  0
M  END
$$$$

 Created by Python create_sdf_string function

 29 32  0  0  0  0  0  0  0  0999 V2000
    5.4450    8.7154   22.6662 C   0  0  0  0  0  0  0  0  0  0  0  0
   10.9154    5.4574   20.5483 C   0  0  0  0  0  0  0  0  0  0  0  0
    7.2709    4.5089   22.7542 C   0  0  0  0  0  0  0  0  0  0  0  0
    5.9698    7.6329   24.6581 C   0  0  0  0  0  0  0  0  0  0  0  0
    4.5542    8.9057   21.7104 O   0  0  0  0  0  0  0  0  0  0  0  0
    6.9895    3.2085   23.0690 C   0  0  0  0  0  0  0  0  0  0  0  0
    7.8391    2.2253   22.7260 N   0  0  0  0  0  0  0  0  0  0  0  0
    8.6968    9.8373   23.6359 C   0  0  0  0  0  0  0  0  0  0  0  0
   12.5135    6.5957   21.8396 C   0  0  0  0  0  0  0  0  0  0  0  0
   10.9406    8.2330   21.1350 C   0  0  0  0  0  0  0  0  0  0  0  0
    9.6648    8.5956   21.7310 C   0  0  0  0  0  0  0  0  0  0  0  0
   10.8829    1.7153   20.9865 C   0  0  0  0  0  0  0  0  0  0  0  0
    5.7768    2.8533   23.7910 C   0  0  0  0  0  0  0  0  0  0  0  0
    9.7977    1.4791   21.6912 N   0  0  0  0  0  0  0  0  0  0  0  0
    6.5976    9.3401   22.6478 N   0  0  0  0  0  0  0  0  0  0  0  0
   11.2031    3.0042   20.6246 C   0  0  0  0  0  0  0  0  0  0  0  0
   12.8688    7.7370   22.7287 C   0  0  0  0  0  0  0  0  0  0  0  0
    7.4487    9.1361   23.6506 C   0  0  0  0  0  0  0  0  0  0  0  0
    8.9772    2.5025   22.0273 C   0  0  0  0  0  0  0  0  0  0  0  0
   10.4859    4.0901   20.9730 C   0  0  0  0  0  0  0  0  0  0  0  0
   11.0962    9.3293   23.5072 C   0  0  0  0  0  0  0  0  0  0  0  0
    5.1273    7.8529   23.6208 N   0  0  0  0  0  0  0  0  0  0  0  0
    9.7552    9.2338   23.0171 N   0  0  0  0  0  0  0  0  0  0  0  0
   11.1797    6.7591   21.3326 N   0  0  0  0  0  0  0  0  0  0  0  0
   11.7728    8.0337   23.7267 C   0  0  0  0  0  0  0  0  0  0  0  0
    7.1194    8.3344   24.6775 C   0  0  0  0  0  0  0  0  0  0  0  0
    8.4311    4.7963   22.0500 C   0  0  0  0  0  0  0  0  0  0  0  0
    8.7393   10.8706   24.1871 O   0  0  0  0  0  0  0  0  0  0  0  0
    9.3093    3.8166   21.6712 C   0  0  0  0  0  0  0  0  0  0  0  0
  1  5  1  0
  1 15  4  0
  1 22  4  0
  2 20  1  0
  2 24  1  0
  3  6  4  0
  3 27  4  0
  4 22  4  0
  4 26  4  0
  6  7  4  0
  6 13  1  0
  7 19  4  0
  8 18  1  0
  8 23  1  0
  8 28  2  0
  9 17  1  0
  9 24  1  0
 10 11  1  0
 10 24  1  0
 11 23  1  0
 12 14  4  0
 12 16  4  0
 14 19  4  0
 15 18  4  0
 16 20  4  0
 17 25  1  0
 18 26  4  0
 19 29  4  0
 20 29  4  0
 21 23  1  0
 21 25  1  0
 27 29  4  0
M  END
$$$$

 Created by Python create_sdf_string function

 29 32  0  0  0  0  0  0  0  0999 V2000
    5.4450    8.7154   22.6662 C   0  0  0  0  0  0  0  0  0  0  0  0
   10.9154    5.4574   20.5483 C   0  0  0  0  0  0  0  0  0  0  0  0
    7.2709    4.5089   22.7542 C   0  0  0  0  0  0  0  0  0  0  0  0
    5.9698    7.6329   24.6581 C   0  0  0  0  0  0  0  0  0  0  0  0
    4.5542    8.9057   21.7104 O   0  0  0  0  0  0  0  0  0  0  0  0
    6.9895    3.2085   23.0690 C   0  0  0  0  0  0  0  0  0  0  0  0
    7.8391    2.2253   22.7260 N   0  0  0  0  0  0  0  0  0  0  0  0
    8.6968    9.8373   23.6359 C   0  0  0  0  0  0  0  0  0  0  0  0
   12.5135    6.5957   21.8396 C   0  0  0  0  0  0  0  0  0  0  0  0
   10.9406    8.2330   21.1350 C   0  0  0  0  0  0  0  0  0  0  0  0
    9.6648    8.5956   21.7310 C   0  0  0  0  0  0  0  0  0  0  0  0
   10.8829    1.7153   20.9865 C   0  0  0  0  0  0  0  0  0  0  0  0
    5.7768    2.8533   23.7910 C   0  0  0  0  0  0  0  0  0  0  0  0
    9.7977    1.4791   21.6912 N   0  0  0  0  0  0  0  0  0  0  0  0
    6.5976    9.3401   22.6478 N   0  0  0  0  0  0  0  0  0  0  0  0
   11.2031    3.0042   20.6246 C   0  0  0  0  0  0  0  0  0  0  0  0
   12.8688    7.7370   22.7287 C   0  0  0  0  0  0  0  0  0  0  0  0
    7.4487    9.1361   23.6506 C   0  0  0  0  0  0  0  0  0  0  0  0
    8.9772    2.5025   22.0273 C   0  0  0  0  0  0  0  0  0  0  0  0
   10.4859    4.0901   20.9730 C   0  0  0  0  0  0  0  0  0  0  0  0
   11.0962    9.3293   23.5072 C   0  0  0  0  0  0  0  0  0  0  0  0
    5.1273    7.8529   23.6208 N   0  0  0  0  0  0  0  0  0  0  0  0
    9.7552    9.2338   23.0171 N   0  0  0  0  0  0  0  0  0  0  0  0
   11.1797    6.7591   21.3326 N   0  0  0  0  0  0  0  0  0  0  0  0
   11.7728    8.0337   23.7267 C   0  0  0  0  0  0  0  0  0  0  0  0
    7.1194    8.3344   24.6775 C   0  0  0  0  0  0  0  0  0  0  0  0
    8.4311    4.7963   22.0500 C   0  0  0  0  0  0  0  0  0  0  0  0
    8.7393   10.8706   24.1871 O   0  0  0  0  0  0  0  0  0  0  0  0
    9.3093    3.8166   21.6712 C   0  0  0  0  0  0  0  0  0  0  0  0
  1  5  1  0
  1 15  4  0
  1 22  4  0
  2 20  1  0
  2 24  1  0
  3  6  4  0
  3 27  4  0
  4 22  4  0
  4 26  4  0
  6  7  4  0
  6 13  1  0
  7 19  4  0
  8 18  1  0
  8 23  1  0
  8 28  2  0
  9 17  1  0
  9 24  1  0
 10 11  1  0
 10 24  1  0
 11 23  1  0
 12 14  4  0
 12 16  4  0
 14 19  4  0
 15 18  4  0
 16 20  4  0
 17 25  1  0
 18 26  4  0
 19 29  4  0
 20 29  4  0
 21 23  1  0
 21 25  1  0
 27 29  4  0
M  END
$$$$

 Created by Python create_sdf_string function

 29 32  0  0  0  0  0  0  0  0999 V2000
    5.4450    8.7154   22.6662 C   0  0  0  0  0  0  0  0  0  0  0  0
   10.9154    5.4574   20.5483 C   0  0  0  0  0  0  0  0  0  0  0  0
    7.2709    4.5089   22.7542 C   0  0  0  0  0  0  0  0  0  0  0  0
    5.9698    7.6329   24.6581 C   0  0  0  0  0  0  0  0  0  0  0  0
    4.5542    8.9057   21.7104 O   0  0  0  0  0  0  0  0  0  0  0  0
    6.9895    3.2085   23.0690 C   0  0  0  0  0  0  0  0  0  0  0  0
    7.8391    2.2253   22.7260 N   0  0  0  0  0  0  0  0  0  0  0  0
    8.6968    9.8373   23.6359 C   0  0  0  0  0  0  0  0  0  0  0  0
   12.5135    6.5957   21.8396 C   0  0  0  0  0  0  0  0  0  0  0  0
   10.9406    8.2330   21.1350 C   0  0  0  0  0  0  0  0  0  0  0  0
    9.6648    8.5956   21.7310 C   0  0  0  0  0  0  0  0  0  0  0  0
   10.8829    1.7153   20.9865 C   0  0  0  0  0  0  0  0  0  0  0  0
    5.7768    2.8533   23.7910 C   0  0  0  0  0  0  0  0  0  0  0  0
    9.7977    1.4791   21.6912 N   0  0  0  0  0  0  0  0  0  0  0  0
    6.5976    9.3401   22.6478 N   0  0  0  0  0  0  0  0  0  0  0  0
   11.2031    3.0042   20.6246 C   0  0  0  0  0  0  0  0  0  0  0  0
   12.8688    7.7370   22.7287 C   0  0  0  0  0  0  0  0  0  0  0  0
    7.4487    9.1361   23.6506 C   0  0  0  0  0  0  0  0  0  0  0  0
    8.9772    2.5025   22.0273 C   0  0  0  0  0  0  0  0  0  0  0  0
   10.4859    4.0901   20.9730 C   0  0  0  0  0  0  0  0  0  0  0  0
   11.0962    9.3293   23.5072 C   0  0  0  0  0  0  0  0  0  0  0  0
    5.1273    7.8529   23.6208 N   0  0  0  0  0  0  0  0  0  0  0  0
    9.7552    9.2338   23.0171 N   0  0  0  0  0  0  0  0  0  0  0  0
   11.1797    6.7591   21.3326 N   0  0  0  0  0  0  0  0  0  0  0  0
   11.7728    8.0337   23.7267 C   0  0  0  0  0  0  0  0  0  0  0  0
    7.1194    8.3344   24.6775 C   0  0  0  0  0  0  0  0  0  0  0  0
    8.4311    4.7963   22.0500 C   0  0  0  0  0  0  0  0  0  0  0  0
    8.7393   10.8706   24.1871 O   0  0  0  0  0  0  0  0  0  0  0  0
    9.3093    3.8166   21.6712 C   0  0  0  0  0  0  0  0  0  0  0  0
  1  5  1  0
  1 15  4  0
  1 22  4  0
  2 20  1  0
  2 24  1  0
  3  6  4  0
  3 27  4  0
  4 22  4  0
  4 26  4  0
  6  7  4  0
  6 13  1  0
  7 19  4  0
  8 18  1  0
  8 23  1  0
  8 28  2  0
  9 17  1  0
  9 24  1  0
 10 11  1  0
 10 24  1  0
 11 23  1  0
 12 14  4  0
 12 16  4  0
 14 19  4  0
 15 18  4  0
 16 20  4  0
 17 25  1  0
 18 26  4  0
 19 29  4  0
 20 29  4  0
 21 23  1  0
 21 25  1  0
 27 29  4  0
M  END
$$$$

 Created by Python create_sdf_string function

 29 32  0  0  0  0  0  0  0  0999 V2000
    5.4450    8.7154   22.6662 C   0  0  0  0  0  0  0  0  0  0  0  0
   10.9154    5.4574   20.5483 C   0  0  0  0  0  0  0  0  0  0  0  0
    7.2709    4.5089   22.7542 C   0  0  0  0  0  0  0  0  0  0  0  0
    5.9698    7.6329   24.6581 C   0  0  0  0  0  0  0  0  0  0  0  0
    4.5542    8.9057   21.7104 O   0  0  0  0  0  0  0  0  0  0  0  0
    6.9895    3.2085   23.0690 C   0  0  0  0  0  0  0  0  0  0  0  0
    7.8391    2.2253   22.7260 N   0  0  0  0  0  0  0  0  0  0  0  0
    8.6968    9.8373   23.6359 C   0  0  0  0  0  0  0  0  0  0  0  0
   12.5135    6.5957   21.8396 C   0  0  0  0  0  0  0  0  0  0  0  0
   10.9406    8.2330   21.1350 C   0  0  0  0  0  0  0  0  0  0  0  0
    9.6648    8.5956   21.7310 C   0  0  0  0  0  0  0  0  0  0  0  0
   10.8829    1.7153   20.9865 C   0  0  0  0  0  0  0  0  0  0  0  0
    5.7768    2.8533   23.7910 C   0  0  0  0  0  0  0  0  0  0  0  0
    9.7977    1.4791   21.6912 N   0  0  0  0  0  0  0  0  0  0  0  0
    6.5976    9.3401   22.6478 N   0  0  0  0  0  0  0  0  0  0  0  0
   11.2031    3.0042   20.6246 C   0  0  0  0  0  0  0  0  0  0  0  0
   12.8688    7.7370   22.7287 C   0  0  0  0  0  0  0  0  0  0  0  0
    7.4487    9.1361   23.6506 C   0  0  0  0  0  0  0  0  0  0  0  0
    8.9772    2.5025   22.0273 C   0  0  0  0  0  0  0  0  0  0  0  0
   10.4859    4.0901   20.9730 C   0  0  0  0  0  0  0  0  0  0  0  0
   11.0962    9.3293   23.5072 C   0  0  0  0  0  0  0  0  0  0  0  0
    5.1273    7.8529   23.6208 N   0  0  0  0  0  0  0  0  0  0  0  0
    9.7552    9.2338   23.0171 N   0  0  0  0  0  0  0  0  0  0  0  0
   11.1797    6.7591   21.3326 N   0  0  0  0  0  0  0  0  0  0  0  0
   11.7728    8.0337   23.7267 C   0  0  0  0  0  0  0  0  0  0  0  0
    7.1194    8.3344   24.6775 C   0  0  0  0  0  0  0  0  0  0  0  0
    8.4311    4.7963   22.0500 C   0  0  0  0  0  0  0  0  0  0  0  0
    8.7393   10.8706   24.1871 O   0  0  0  0  0  0  0  0  0  0  0  0
    9.3093    3.8166   21.6712 C   0  0  0  0  0  0  0  0  0  0  0  0
  1  5  1  0
  1 15  4  0
  1 22  4  0
  2 20  1  0
  2 24  1  0
  3  6  4  0
  3 27  4  0
  4 22  4  0
  4 26  4  0
  6  7  4  0
  6 13  1  0
  7 19  4  0
  8 18  1  0
  8 23  1  0
  8 28  2  0
  9 17  1  0
  9 24  1  0
 10 11  1  0
 10 24  1  0
 11 23  1  0
 12 14  4  0
 12 16  4  0
 14 19  4  0
 15 18  4  0
 16 20  4  0
 17 25  1  0
 18 26  4  0
 19 29  4  0
 20 29  4  0
 21 23  1  0
 21 25  1  0
 27 29  4  0
M  END
$$$$

 Created by Python create_sdf_string function

 29 32  0  0  0  0  0  0  0  0999 V2000
    5.4450    8.7154   22.6662 C   0  0  0  0  0  0  0  0  0  0  0  0
   10.9154    5.4574   20.5483 C   0  0  0  0  0  0  0  0  0  0  0  0
    7.2709    4.5089   22.7542 C   0  0  0  0  0  0  0  0  0  0  0  0
    5.9698    7.6329   24.6581 C   0  0  0  0  0  0  0  0  0  0  0  0
    4.5542    8.9057   21.7104 O   0  0  0  0  0  0  0  0  0  0  0  0
    6.9895    3.2085   23.0690 C   0  0  0  0  0  0  0  0  0  0  0  0
    7.8391    2.2253   22.7260 N   0  0  0  0  0  0  0  0  0  0  0  0
    8.6968    9.8373   23.6359 C   0  0  0  0  0  0  0  0  0  0  0  0
   12.5135    6.5957   21.8396 C   0  0  0  0  0  0  0  0  0  0  0  0
   10.9406    8.2330   21.1350 C   0  0  0  0  0  0  0  0  0  0  0  0
    9.6648    8.5956   21.7310 C   0  0  0  0  0  0  0  0  0  0  0  0
   10.8829    1.7153   20.9865 C   0  0  0  0  0  0  0  0  0  0  0  0
    5.7768    2.8533   23.7910 C   0  0  0  0  0  0  0  0  0  0  0  0
    9.7977    1.4791   21.6912 N   0  0  0  0  0  0  0  0  0  0  0  0
    6.5976    9.3401   22.6478 N   0  0  0  0  0  0  0  0  0  0  0  0
   11.2031    3.0042   20.6246 C   0  0  0  0  0  0  0  0  0  0  0  0
   12.8688    7.7370   22.7287 C   0  0  0  0  0  0  0  0  0  0  0  0
    7.4487    9.1361   23.6506 C   0  0  0  0  0  0  0  0  0  0  0  0
    8.9772    2.5025   22.0273 C   0  0  0  0  0  0  0  0  0  0  0  0
   10.4859    4.0901   20.9730 C   0  0  0  0  0  0  0  0  0  0  0  0
   11.0962    9.3293   23.5072 C   0  0  0  0  0  0  0  0  0  0  0  0
    5.1273    7.8529   23.6208 N   0  0  0  0  0  0  0  0  0  0  0  0
    9.7552    9.2338   23.0171 N   0  0  0  0  0  0  0  0  0  0  0  0
   11.1797    6.7591   21.3326 N   0  0  0  0  0  0  0  0  0  0  0  0
   11.7728    8.0337   23.7267 C   0  0  0  0  0  0  0  0  0  0  0  0
    7.1194    8.3344   24.6775 C   0  0  0  0  0  0  0  0  0  0  0  0
    8.4311    4.7963   22.0500 C   0  0  0  0  0  0  0  0  0  0  0  0
    8.7393   10.8706   24.1871 O   0  0  0  0  0  0  0  0  0  0  0  0
    9.3093    3.8166   21.6712 C   0  0  0  0  0  0  0  0  0  0  0  0
  1  5  1  0
  1 15  4  0
  1 22  4  0
  2 20  1  0
  2 24  1  0
  3  6  4  0
  3 27  4  0
  4 22  4  0
  4 26  4  0
  6  7  4  0
  6 13  1  0
  7 19  4  0
  8 18  1  0
  8 23  1  0
  8 28  2  0
  9 17  1  0
  9 24  1  0
 10 11  1  0
 10 24  1  0
 11 23  1  0
 12 14  4  0
 12 16  4  0
 14 19  4  0
 15 18  4  0
 16 20  4  0
 17 25  1  0
 18 26  4  0
 19 29  4  0
 20 29  4  0
 21 23  1  0
 21 25  1  0
 27 29  4  0
M  END
$$$$

 Created by Python create_sdf_string function

 29 32  0  0  0  0  0  0  0  0999 V2000
    5.4450    8.7154   22.6662 C   0  0  0  0  0  0  0  0  0  0  0  0
   10.9154    5.4574   20.5483 C   0  0  0  0  0  0  0  0  0  0  0  0
    7.2709    4.5089   22.7542 C   0  0  0  0  0  0  0  0  0  0  0  0
    5.9698    7.6329   24.6581 C   0  0  0  0  0  0  0  0  0  0  0  0
    4.5542    8.9057   21.7104 O   0  0  0  0  0  0  0  0  0  0  0  0
    6.9895    3.2085   23.0690 C   0  0  0  0  0  0  0  0  0  0  0  0
    7.8391    2.2253   22.7260 N   0  0  0  0  0  0  0  0  0  0  0  0
    8.6968    9.8373   23.6359 C   0  0  0  0  0  0  0  0  0  0  0  0
   12.5135    6.5957   21.8396 C   0  0  0  0  0  0  0  0  0  0  0  0
   10.9406    8.2330   21.1350 C   0  0  0  0  0  0  0  0  0  0  0  0
    9.6648    8.5956   21.7310 C   0  0  0  0  0  0  0  0  0  0  0  0
   10.8829    1.7153   20.9865 C   0  0  0  0  0  0  0  0  0  0  0  0
    5.7768    2.8533   23.7910 C   0  0  0  0  0  0  0  0  0  0  0  0
    9.7977    1.4791   21.6912 N   0  0  0  0  0  0  0  0  0  0  0  0
    6.5976    9.3401   22.6478 N   0  0  0  0  0  0  0  0  0  0  0  0
   11.2031    3.0042   20.6246 C   0  0  0  0  0  0  0  0  0  0  0  0
   12.8688    7.7370   22.7287 C   0  0  0  0  0  0  0  0  0  0  0  0
    7.4487    9.1361   23.6506 C   0  0  0  0  0  0  0  0  0  0  0  0
    8.9772    2.5025   22.0273 C   0  0  0  0  0  0  0  0  0  0  0  0
   10.4859    4.0901   20.9730 C   0  0  0  0  0  0  0  0  0  0  0  0
   11.0962    9.3293   23.5072 C   0  0  0  0  0  0  0  0  0  0  0  0
    5.1273    7.8529   23.6208 N   0  0  0  0  0  0  0  0  0  0  0  0
    9.7552    9.2338   23.0171 N   0  0  0  0  0  0  0  0  0  0  0  0
   11.1797    6.7591   21.3326 N   0  0  0  0  0  0  0  0  0  0  0  0
   11.7728    8.0337   23.7267 C   0  0  0  0  0  0  0  0  0  0  0  0
    7.1194    8.3344   24.6775 C   0  0  0  0  0  0  0  0  0  0  0  0
    8.4311    4.7963   22.0500 C   0  0  0  0  0  0  0  0  0  0  0  0
    8.7393   10.8706   24.1871 O   0  0  0  0  0  0  0  0  0  0  0  0
    9.3093    3.8166   21.6712 C   0  0  0  0  0  0  0  0  0  0  0  0
  1  5  1  0
  1 15  4  0
  1 22  4  0
  2 20  1  0
  2 24  1  0
  3  6  4  0
  3 27  4  0
  4 22  4  0
  4 26  4  0
  6  7  4  0
  6 13  1  0
  7 19  4  0
  8 18  1  0
  8 23  1  0
  8 28  2  0
  9 17  1  0
  9 24  1  0
 10 11  1  0
 10 24  1  0
 11 23  1  0
 12 14  4  0
 12 16  4  0
 14 19  4  0
 15 18  4  0
 16 20  4  0
 17 25  1  0
 18 26  4  0
 19 29  4  0
 20 29  4  0
 21 23  1  0
 21 25  1  0
 27 29  4  0
M  END
$$$$

 Created by Python create_sdf_string function

 29 32  0  0  0  0  0  0  0  0999 V2000
    5.4450    8.7154   22.6662 C   0  0  0  0  0  0  0  0  0  0  0  0
   10.9154    5.4574   20.5483 C   0  0  0  0  0  0  0  0  0  0  0  0
    7.2709    4.5089   22.7542 C   0  0  0  0  0  0  0  0  0  0  0  0
    5.9698    7.6329   24.6581 C   0  0  0  0  0  0  0  0  0  0  0  0
    4.5542    8.9057   21.7104 O   0  0  0  0  0  0  0  0  0  0  0  0
    6.9895    3.2085   23.0690 C   0  0  0  0  0  0  0  0  0  0  0  0
    7.8391    2.2253   22.7260 N   0  0  0  0  0  0  0  0  0  0  0  0
    8.6968    9.8373   23.6359 C   0  0  0  0  0  0  0  0  0  0  0  0
   12.5135    6.5957   21.8396 C   0  0  0  0  0  0  0  0  0  0  0  0
   10.9406    8.2330   21.1350 C   0  0  0  0  0  0  0  0  0  0  0  0
    9.6648    8.5956   21.7310 C   0  0  0  0  0  0  0  0  0  0  0  0
   10.8829    1.7153   20.9865 C   0  0  0  0  0  0  0  0  0  0  0  0
    5.7768    2.8533   23.7910 C   0  0  0  0  0  0  0  0  0  0  0  0
    9.7977    1.4791   21.6912 N   0  0  0  0  0  0  0  0  0  0  0  0
    6.5976    9.3401   22.6478 N   0  0  0  0  0  0  0  0  0  0  0  0
   11.2031    3.0042   20.6246 C   0  0  0  0  0  0  0  0  0  0  0  0
   12.8688    7.7370   22.7287 C   0  0  0  0  0  0  0  0  0  0  0  0
    7.4487    9.1361   23.6506 C   0  0  0  0  0  0  0  0  0  0  0  0
    8.9772    2.5025   22.0273 C   0  0  0  0  0  0  0  0  0  0  0  0
   10.4859    4.0901   20.9730 C   0  0  0  0  0  0  0  0  0  0  0  0
   11.0962    9.3293   23.5072 C   0  0  0  0  0  0  0  0  0  0  0  0
    5.1273    7.8529   23.6208 N   0  0  0  0  0  0  0  0  0  0  0  0
    9.7552    9.2338   23.0171 N   0  0  0  0  0  0  0  0  0  0  0  0
   11.1797    6.7591   21.3326 N   0  0  0  0  0  0  0  0  0  0  0  0
   11.7728    8.0337   23.7267 C   0  0  0  0  0  0  0  0  0  0  0  0
    7.1194    8.3344   24.6775 C   0  0  0  0  0  0  0  0  0  0  0  0
    8.4311    4.7963   22.0500 C   0  0  0  0  0  0  0  0  0  0  0  0
    8.7393   10.8706   24.1871 O   0  0  0  0  0  0  0  0  0  0  0  0
    9.3093    3.8166   21.6712 C   0  0  0  0  0  0  0  0  0  0  0  0
  1  5  1  0
  1 15  4  0
  1 22  4  0
  2 20  1  0
  2 24  1  0
  3  6  4  0
  3 27  4  0
  4 22  4  0
  4 26  4  0
  6  7  4  0
  6 13  1  0
  7 19  4  0
  8 18  1  0
  8 23  1  0
  8 28  2  0
  9 17  1  0
  9 24  1  0
 10 11  1  0
 10 24  1  0
 11 23  1  0
 12 14  4  0
 12 16  4  0
 14 19  4  0
 15 18  4  0
 16 20  4  0
 17 25  1  0
 18 26  4  0
 19 29  4  0
 20 29  4  0
 21 23  1  0
 21 25  1  0
 27 29  4  0
M  END
$$$$

 Created by Python create_sdf_string function

 29 32  0  0  0  0  0  0  0  0999 V2000
    5.4450    8.7154   22.6662 C   0  0  0  0  0  0  0  0  0  0  0  0
   10.9154    5.4574   20.5483 C   0  0  0  0  0  0  0  0  0  0  0  0
    7.2709    4.5089   22.7542 C   0  0  0  0  0  0  0  0  0  0  0  0
    5.9698    7.6329   24.6581 C   0  0  0  0  0  0  0  0  0  0  0  0
    4.5542    8.9057   21.7104 O   0  0  0  0  0  0  0  0  0  0  0  0
    6.9895    3.2085   23.0690 C   0  0  0  0  0  0  0  0  0  0  0  0
    7.8391    2.2253   22.7260 N   0  0  0  0  0  0  0  0  0  0  0  0
    8.6968    9.8373   23.6359 C   0  0  0  0  0  0  0  0  0  0  0  0
   12.5135    6.5957   21.8396 C   0  0  0  0  0  0  0  0  0  0  0  0
   10.9406    8.2330   21.1350 C   0  0  0  0  0  0  0  0  0  0  0  0
    9.6648    8.5956   21.7310 C   0  0  0  0  0  0  0  0  0  0  0  0
   10.8829    1.7153   20.9865 C   0  0  0  0  0  0  0  0  0  0  0  0
    5.7768    2.8533   23.7910 C   0  0  0  0  0  0  0  0  0  0  0  0
    9.7977    1.4791   21.6912 N   0  0  0  0  0  0  0  0  0  0  0  0
    6.5976    9.3401   22.6478 N   0  0  0  0  0  0  0  0  0  0  0  0
   11.2031    3.0042   20.6246 C   0  0  0  0  0  0  0  0  0  0  0  0
   12.8688    7.7370   22.7287 C   0  0  0  0  0  0  0  0  0  0  0  0
    7.4487    9.1361   23.6506 C   0  0  0  0  0  0  0  0  0  0  0  0
    8.9772    2.5025   22.0273 C   0  0  0  0  0  0  0  0  0  0  0  0
   10.4859    4.0901   20.9730 C   0  0  0  0  0  0  0  0  0  0  0  0
   11.0962    9.3293   23.5072 C   0  0  0  0  0  0  0  0  0  0  0  0
    5.1273    7.8529   23.6208 N   0  0  0  0  0  0  0  0  0  0  0  0
    9.7552    9.2338   23.0171 N   0  0  0  0  0  0  0  0  0  0  0  0
   11.1797    6.7591   21.3326 N   0  0  0  0  0  0  0  0  0  0  0  0
   11.7728    8.0337   23.7267 C   0  0  0  0  0  0  0  0  0  0  0  0
    7.1194    8.3344   24.6775 C   0  0  0  0  0  0  0  0  0  0  0  0
    8.4311    4.7963   22.0500 C   0  0  0  0  0  0  0  0  0  0  0  0
    8.7393   10.8706   24.1871 O   0  0  0  0  0  0  0  0  0  0  0  0
    9.3093    3.8166   21.6712 C   0  0  0  0  0  0  0  0  0  0  0  0
  1  5  1  0
  1 15  4  0
  1 22  4  0
  2 20  1  0
  2 24  1  0
  3  6  4  0
  3 27  4  0
  4 22  4  0
  4 26  4  0
  6  7  4  0
  6 13  1  0
  7 19  4  0
  8 18  1  0
  8 23  1  0
  8 28  2  0
  9 17  1  0
  9 24  1  0
 10 11  1  0
 10 24  1  0
 11 23  1  0
 12 14  4  0
 12 16  4  0
 14 19  4  0
 15 18  4  0
 16 20  4  0
 17 25  1  0
 18 26  4  0
 19 29  4  0
 20 29  4  0
 21 23  1  0
 21 25  1  0
 27 29  4  0
M  END
$$$$

 Created by Python create_sdf_string function

 29 32  0  0  0  0  0  0  0  0999 V2000
    5.4450    8.7154   22.6662 C   0  0  0  0  0  0  0  0  0  0  0  0
   10.9154    5.4574   20.5483 C   0  0  0  0  0  0  0  0  0  0  0  0
    7.2709    4.5089   22.7542 C   0  0  0  0  0  0  0  0  0  0  0  0
    5.9698    7.6329   24.6581 C   0  0  0  0  0  0  0  0  0  0  0  0
    4.5542    8.9057   21.7104 O   0  0  0  0  0  0  0  0  0  0  0  0
    6.9895    3.2085   23.0690 C   0  0  0  0  0  0  0  0  0  0  0  0
    7.8391    2.2253   22.7260 N   0  0  0  0  0  0  0  0  0  0  0  0
    8.6968    9.8373   23.6359 C   0  0  0  0  0  0  0  0  0  0  0  0
   12.5135    6.5957   21.8396 C   0  0  0  0  0  0  0  0  0  0  0  0
   10.9406    8.2330   21.1350 C   0  0  0  0  0  0  0  0  0  0  0  0
    9.6648    8.5956   21.7310 C   0  0  0  0  0  0  0  0  0  0  0  0
   10.8829    1.7153   20.9865 C   0  0  0  0  0  0  0  0  0  0  0  0
    5.7768    2.8533   23.7910 C   0  0  0  0  0  0  0  0  0  0  0  0
    9.7977    1.4791   21.6912 N   0  0  0  0  0  0  0  0  0  0  0  0
    6.5976    9.3401   22.6478 N   0  0  0  0  0  0  0  0  0  0  0  0
   11.2031    3.0042   20.6246 C   0  0  0  0  0  0  0  0  0  0  0  0
   12.8688    7.7370   22.7287 C   0  0  0  0  0  0  0  0  0  0  0  0
    7.4487    9.1361   23.6506 C   0  0  0  0  0  0  0  0  0  0  0  0
    8.9772    2.5025   22.0273 C   0  0  0  0  0  0  0  0  0  0  0  0
   10.4859    4.0901   20.9730 C   0  0  0  0  0  0  0  0  0  0  0  0
   11.0962    9.3293   23.5072 C   0  0  0  0  0  0  0  0  0  0  0  0
    5.1273    7.8529   23.6208 N   0  0  0  0  0  0  0  0  0  0  0  0
    9.7552    9.2338   23.0171 N   0  0  0  0  0  0  0  0  0  0  0  0
   11.1797    6.7591   21.3326 N   0  0  0  0  0  0  0  0  0  0  0  0
   11.7728    8.0337   23.7267 C   0  0  0  0  0  0  0  0  0  0  0  0
    7.1194    8.3344   24.6775 C   0  0  0  0  0  0  0  0  0  0  0  0
    8.4311    4.7963   22.0500 C   0  0  0  0  0  0  0  0  0  0  0  0
    8.7393   10.8706   24.1871 O   0  0  0  0  0  0  0  0  0  0  0  0
    9.3093    3.8166   21.6712 C   0  0  0  0  0  0  0  0  0  0  0  0
  1  5  1  0
  1 15  4  0
  1 22  4  0
  2 20  1  0
  2 24  1  0
  3  6  4  0
  3 27  4  0
  4 22  4  0
  4 26  4  0
  6  7  4  0
  6 13  1  0
  7 19  4  0
  8 18  1  0
  8 23  1  0
  8 28  2  0
  9 17  1  0
  9 24  1  0
 10 11  1  0
 10 24  1  0
 11 23  1  0
 12 14  4  0
 12 16  4  0
 14 19  4  0
 15 18  4  0
 16 20  4  0
 17 25  1  0
 18 26  4  0
 19 29  4  0
 20 29  4  0
 21 23  1  0
 21 25  1  0
 27 29  4  0
M  END
$$$$

 Created by Python create_sdf_string function

 29 32  0  0  0  0  0  0  0  0999 V2000
    5.4450    8.7154   22.6662 C   0  0  0  0  0  0  0  0  0  0  0  0
   10.9154    5.4574   20.5483 C   0  0  0  0  0  0  0  0  0  0  0  0
    7.2709    4.5089   22.7542 C   0  0  0  0  0  0  0  0  0  0  0  0
    5.9698    7.6329   24.6581 C   0  0  0  0  0  0  0  0  0  0  0  0
    4.5542    8.9057   21.7104 O   0  0  0  0  0  0  0  0  0  0  0  0
    6.9895    3.2085   23.0690 C   0  0  0  0  0  0  0  0  0  0  0  0
    7.8391    2.2253   22.7260 N   0  0  0  0  0  0  0  0  0  0  0  0
    8.6968    9.8373   23.6359 C   0  0  0  0  0  0  0  0  0  0  0  0
   12.5135    6.5957   21.8396 C   0  0  0  0  0  0  0  0  0  0  0  0
   10.9406    8.2330   21.1350 C   0  0  0  0  0  0  0  0  0  0  0  0
    9.6648    8.5956   21.7310 C   0  0  0  0  0  0  0  0  0  0  0  0
   10.8829    1.7153   20.9865 C   0  0  0  0  0  0  0  0  0  0  0  0
    5.7768    2.8533   23.7910 C   0  0  0  0  0  0  0  0  0  0  0  0
    9.7977    1.4791   21.6912 N   0  0  0  0  0  0  0  0  0  0  0  0
    6.5976    9.3401   22.6478 N   0  0  0  0  0  0  0  0  0  0  0  0
   11.2031    3.0042   20.6246 C   0  0  0  0  0  0  0  0  0  0  0  0
   12.8688    7.7370   22.7287 C   0  0  0  0  0  0  0  0  0  0  0  0
    7.4487    9.1361   23.6506 C   0  0  0  0  0  0  0  0  0  0  0  0
    8.9772    2.5025   22.0273 C   0  0  0  0  0  0  0  0  0  0  0  0
   10.4859    4.0901   20.9730 C   0  0  0  0  0  0  0  0  0  0  0  0
   11.0962    9.3293   23.5072 C   0  0  0  0  0  0  0  0  0  0  0  0
    5.1273    7.8529   23.6208 N   0  0  0  0  0  0  0  0  0  0  0  0
    9.7552    9.2338   23.0171 N   0  0  0  0  0  0  0  0  0  0  0  0
   11.1797    6.7591   21.3326 N   0  0  0  0  0  0  0  0  0  0  0  0
   11.7728    8.0337   23.7267 C   0  0  0  0  0  0  0  0  0  0  0  0
    7.1194    8.3344   24.6775 C   0  0  0  0  0  0  0  0  0  0  0  0
    8.4311    4.7963   22.0500 C   0  0  0  0  0  0  0  0  0  0  0  0
    8.7393   10.8706   24.1871 O   0  0  0  0  0  0  0  0  0  0  0  0
    9.3093    3.8166   21.6712 C   0  0  0  0  0  0  0  0  0  0  0  0
  1  5  1  0
  1 15  4  0
  1 22  4  0
  2 20  1  0
  2 24  1  0
  3  6  4  0
  3 27  4  0
  4 22  4  0
  4 26  4  0
  6  7  4  0
  6 13  1  0
  7 19  4  0
  8 18  1  0
  8 23  1  0
  8 28  2  0
  9 17  1  0
  9 24  1  0
 10 11  1  0
 10 24  1  0
 11 23  1  0
 12 14  4  0
 12 16  4  0
 14 19  4  0
 15 18  4  0
 16 20  4  0
 17 25  1  0
 18 26  4  0
 19 29  4  0
 20 29  4  0
 21 23  1  0
 21 25  1  0
 27 29  4  0
M  END
$$$$

 Created by Python create_sdf_string function

 29 32  0  0  0  0  0  0  0  0999 V2000
    5.4450    8.7154   22.6662 C   0  0  0  0  0  0  0  0  0  0  0  0
   10.9154    5.4574   20.5483 C   0  0  0  0  0  0  0  0  0  0  0  0
    7.2709    4.5089   22.7542 C   0  0  0  0  0  0  0  0  0  0  0  0
    5.9698    7.6329   24.6581 C   0  0  0  0  0  0  0  0  0  0  0  0
    4.5542    8.9057   21.7104 O   0  0  0  0  0  0  0  0  0  0  0  0
    6.9895    3.2085   23.0690 C   0  0  0  0  0  0  0  0  0  0  0  0
    7.8391    2.2253   22.7260 N   0  0  0  0  0  0  0  0  0  0  0  0
    8.6968    9.8373   23.6359 C   0  0  0  0  0  0  0  0  0  0  0  0
   12.5135    6.5957   21.8396 C   0  0  0  0  0  0  0  0  0  0  0  0
   10.9406    8.2330   21.1350 C   0  0  0  0  0  0  0  0  0  0  0  0
    9.6648    8.5956   21.7310 C   0  0  0  0  0  0  0  0  0  0  0  0
   10.8829    1.7153   20.9865 C   0  0  0  0  0  0  0  0  0  0  0  0
    5.7768    2.8533   23.7910 C   0  0  0  0  0  0  0  0  0  0  0  0
    9.7977    1.4791   21.6912 N   0  0  0  0  0  0  0  0  0  0  0  0
    6.5976    9.3401   22.6478 N   0  0  0  0  0  0  0  0  0  0  0  0
   11.2031    3.0042   20.6246 C   0  0  0  0  0  0  0  0  0  0  0  0
   12.8688    7.7370   22.7287 C   0  0  0  0  0  0  0  0  0  0  0  0
    7.4487    9.1361   23.6506 C   0  0  0  0  0  0  0  0  0  0  0  0
    8.9772    2.5025   22.0273 C   0  0  0  0  0  0  0  0  0  0  0  0
   10.4859    4.0901   20.9730 C   0  0  0  0  0  0  0  0  0  0  0  0
   11.0962    9.3293   23.5072 C   0  0  0  0  0  0  0  0  0  0  0  0
    5.1273    7.8529   23.6208 N   0  0  0  0  0  0  0  0  0  0  0  0
    9.7552    9.2338   23.0171 N   0  0  0  0  0  0  0  0  0  0  0  0
   11.1797    6.7591   21.3326 N   0  0  0  0  0  0  0  0  0  0  0  0
   11.7728    8.0337   23.7267 C   0  0  0  0  0  0  0  0  0  0  0  0
    7.1194    8.3344   24.6775 C   0  0  0  0  0  0  0  0  0  0  0  0
    8.4311    4.7963   22.0500 C   0  0  0  0  0  0  0  0  0  0  0  0
    8.7393   10.8706   24.1871 O   0  0  0  0  0  0  0  0  0  0  0  0
    9.3093    3.8166   21.6712 C   0  0  0  0  0  0  0  0  0  0  0  0
  1  5  1  0
  1 15  4  0
  1 22  4  0
  2 20  1  0
  2 24  1  0
  3  6  4  0
  3 27  4  0
  4 22  4  0
  4 26  4  0
  6  7  4  0
  6 13  1  0
  7 19  4  0
  8 18  1  0
  8 23  1  0
  8 28  2  0
  9 17  1  0
  9 24  1  0
 10 11  1  0
 10 24  1  0
 11 23  1  0
 12 14  4  0
 12 16  4  0
 14 19  4  0
 15 18  4  0
 16 20  4  0
 17 25  1  0
 18 26  4  0
 19 29  4  0
 20 29  4  0
 21 23  1  0
 21 25  1  0
 27 29  4  0
M  END
$$$$

 Created by Python create_sdf_string function

 29 32  0  0  0  0  0  0  0  0999 V2000
    5.4450    8.7154   22.6662 C   0  0  0  0  0  0  0  0  0  0  0  0
   10.9154    5.4574   20.5483 C   0  0  0  0  0  0  0  0  0  0  0  0
    7.2709    4.5089   22.7542 C   0  0  0  0  0  0  0  0  0  0  0  0
    5.9698    7.6329   24.6581 C   0  0  0  0  0  0  0  0  0  0  0  0
    4.5542    8.9057   21.7104 O   0  0  0  0  0  0  0  0  0  0  0  0
    6.9895    3.2085   23.0690 C   0  0  0  0  0  0  0  0  0  0  0  0
    7.8391    2.2253   22.7260 N   0  0  0  0  0  0  0  0  0  0  0  0
    8.6968    9.8373   23.6359 C   0  0  0  0  0  0  0  0  0  0  0  0
   12.5135    6.5957   21.8396 C   0  0  0  0  0  0  0  0  0  0  0  0
   10.9406    8.2330   21.1350 C   0  0  0  0  0  0  0  0  0  0  0  0
    9.6648    8.5956   21.7310 C   0  0  0  0  0  0  0  0  0  0  0  0
   10.8829    1.7153   20.9865 C   0  0  0  0  0  0  0  0  0  0  0  0
    5.7768    2.8533   23.7910 C   0  0  0  0  0  0  0  0  0  0  0  0
    9.7977    1.4791   21.6912 N   0  0  0  0  0  0  0  0  0  0  0  0
    6.5976    9.3401   22.6478 N   0  0  0  0  0  0  0  0  0  0  0  0
   11.2031    3.0042   20.6246 C   0  0  0  0  0  0  0  0  0  0  0  0
   12.8688    7.7370   22.7287 C   0  0  0  0  0  0  0  0  0  0  0  0
    7.4487    9.1361   23.6506 C   0  0  0  0  0  0  0  0  0  0  0  0
    8.9772    2.5025   22.0273 C   0  0  0  0  0  0  0  0  0  0  0  0
   10.4859    4.0901   20.9730 C   0  0  0  0  0  0  0  0  0  0  0  0
   11.0962    9.3293   23.5072 C   0  0  0  0  0  0  0  0  0  0  0  0
    5.1273    7.8529   23.6208 N   0  0  0  0  0  0  0  0  0  0  0  0
    9.7552    9.2338   23.0171 N   0  0  0  0  0  0  0  0  0  0  0  0
   11.1797    6.7591   21.3326 N   0  0  0  0  0  0  0  0  0  0  0  0
   11.7728    8.0337   23.7267 C   0  0  0  0  0  0  0  0  0  0  0  0
    7.1194    8.3344   24.6775 C   0  0  0  0  0  0  0  0  0  0  0  0
    8.4311    4.7963   22.0500 C   0  0  0  0  0  0  0  0  0  0  0  0
    8.7393   10.8706   24.1871 O   0  0  0  0  0  0  0  0  0  0  0  0
    9.3093    3.8166   21.6712 C   0  0  0  0  0  0  0  0  0  0  0  0
  1  5  1  0
  1 15  4  0
  1 22  4  0
  2 20  1  0
  2 24  1  0
  3  6  4  0
  3 27  4  0
  4 22  4  0
  4 26  4  0
  6  7  4  0
  6 13  1  0
  7 19  4  0
  8 18  1  0
  8 23  1  0
  8 28  2  0
  9 17  1  0
  9 24  1  0
 10 11  1  0
 10 24  1  0
 11 23  1  0
 12 14  4  0
 12 16  4  0
 14 19  4  0
 15 18  4  0
 16 20  4  0
 17 25  1  0
 18 26  4  0
 19 29  4  0
 20 29  4  0
 21 23  1  0
 21 25  1  0
 27 29  4  0
M  END
$$$$

 Created by Python create_sdf_string function

 29 32  0  0  0  0  0  0  0  0999 V2000
    5.4450    8.7154   22.6662 C   0  0  0  0  0  0  0  0  0  0  0  0
   10.9154    5.4574   20.5483 C   0  0  0  0  0  0  0  0  0  0  0  0
    7.2709    4.5089   22.7542 C   0  0  0  0  0  0  0  0  0  0  0  0
    5.9698    7.6329   24.6581 C   0  0  0  0  0  0  0  0  0  0  0  0
    4.5542    8.9057   21.7104 O   0  0  0  0  0  0  0  0  0  0  0  0
    6.9895    3.2085   23.0690 C   0  0  0  0  0  0  0  0  0  0  0  0
    7.8391    2.2253   22.7260 N   0  0  0  0  0  0  0  0  0  0  0  0
    8.6968    9.8373   23.6359 C   0  0  0  0  0  0  0  0  0  0  0  0
   12.5135    6.5957   21.8396 C   0  0  0  0  0  0  0  0  0  0  0  0
   10.9406    8.2330   21.1350 C   0  0  0  0  0  0  0  0  0  0  0  0
    9.6648    8.5956   21.7310 C   0  0  0  0  0  0  0  0  0  0  0  0
   10.8829    1.7153   20.9865 C   0  0  0  0  0  0  0  0  0  0  0  0
    5.7768    2.8533   23.7910 C   0  0  0  0  0  0  0  0  0  0  0  0
    9.7977    1.4791   21.6912 N   0  0  0  0  0  0  0  0  0  0  0  0
    6.5976    9.3401   22.6478 N   0  0  0  0  0  0  0  0  0  0  0  0
   11.2031    3.0042   20.6246 C   0  0  0  0  0  0  0  0  0  0  0  0
   12.8688    7.7370   22.7287 C   0  0  0  0  0  0  0  0  0  0  0  0
    7.4487    9.1361   23.6506 C   0  0  0  0  0  0  0  0  0  0  0  0
    8.9772    2.5025   22.0273 C   0  0  0  0  0  0  0  0  0  0  0  0
   10.4859    4.0901   20.9730 C   0  0  0  0  0  0  0  0  0  0  0  0
   11.0962    9.3293   23.5072 C   0  0  0  0  0  0  0  0  0  0  0  0
    5.1273    7.8529   23.6208 N   0  0  0  0  0  0  0  0  0  0  0  0
    9.7552    9.2338   23.0171 N   0  0  0  0  0  0  0  0  0  0  0  0
   11.1797    6.7591   21.3326 N   0  0  0  0  0  0  0  0  0  0  0  0
   11.7728    8.0337   23.7267 C   0  0  0  0  0  0  0  0  0  0  0  0
    7.1194    8.3344   24.6775 C   0  0  0  0  0  0  0  0  0  0  0  0
    8.4311    4.7963   22.0500 C   0  0  0  0  0  0  0  0  0  0  0  0
    8.7393   10.8706   24.1871 O   0  0  0  0  0  0  0  0  0  0  0  0
    9.3093    3.8166   21.6712 C   0  0  0  0  0  0  0  0  0  0  0  0
  1  5  1  0
  1 15  4  0
  1 22  4  0
  2 20  1  0
  2 24  1  0
  3  6  4  0
  3 27  4  0
  4 22  4  0
  4 26  4  0
  6  7  4  0
  6 13  1  0
  7 19  4  0
  8 18  1  0
  8 23  1  0
  8 28  2  0
  9 17  1  0
  9 24  1  0
 10 11  1  0
 10 24  1  0
 11 23  1  0
 12 14  4  0
 12 16  4  0
 14 19  4  0
 15 18  4  0
 16 20  4  0
 17 25  1  0
 18 26  4  0
 19 29  4  0
 20 29  4  0
 21 23  1  0
 21 25  1  0
 27 29  4  0
M  END
$$$$

 Created by Python create_sdf_string function

 29 32  0  0  0  0  0  0  0  0999 V2000
    5.4450    8.7154   22.6662 C   0  0  0  0  0  0  0  0  0  0  0  0
   10.9154    5.4574   20.5483 C   0  0  0  0  0  0  0  0  0  0  0  0
    7.2709    4.5089   22.7542 C   0  0  0  0  0  0  0  0  0  0  0  0
    5.9698    7.6329   24.6581 C   0  0  0  0  0  0  0  0  0  0  0  0
    4.5542    8.9057   21.7104 O   0  0  0  0  0  0  0  0  0  0  0  0
    6.9895    3.2085   23.0690 C   0  0  0  0  0  0  0  0  0  0  0  0
    7.8391    2.2253   22.7260 N   0  0  0  0  0  0  0  0  0  0  0  0
    8.6968    9.8373   23.6359 C   0  0  0  0  0  0  0  0  0  0  0  0
   12.5135    6.5957   21.8396 C   0  0  0  0  0  0  0  0  0  0  0  0
   10.9406    8.2330   21.1350 C   0  0  0  0  0  0  0  0  0  0  0  0
    9.6648    8.5956   21.7310 C   0  0  0  0  0  0  0  0  0  0  0  0
   10.8829    1.7153   20.9865 C   0  0  0  0  0  0  0  0  0  0  0  0
    5.7768    2.8533   23.7910 C   0  0  0  0  0  0  0  0  0  0  0  0
    9.7977    1.4791   21.6912 N   0  0  0  0  0  0  0  0  0  0  0  0
    6.5976    9.3401   22.6478 N   0  0  0  0  0  0  0  0  0  0  0  0
   11.2031    3.0042   20.6246 C   0  0  0  0  0  0  0  0  0  0  0  0
   12.8688    7.7370   22.7287 C   0  0  0  0  0  0  0  0  0  0  0  0
    7.4487    9.1361   23.6506 C   0  0  0  0  0  0  0  0  0  0  0  0
    8.9772    2.5025   22.0273 C   0  0  0  0  0  0  0  0  0  0  0  0
   10.4859    4.0901   20.9730 C   0  0  0  0  0  0  0  0  0  0  0  0
   11.0962    9.3293   23.5072 C   0  0  0  0  0  0  0  0  0  0  0  0
    5.1273    7.8529   23.6208 N   0  0  0  0  0  0  0  0  0  0  0  0
    9.7552    9.2338   23.0171 N   0  0  0  0  0  0  0  0  0  0  0  0
   11.1797    6.7591   21.3326 N   0  0  0  0  0  0  0  0  0  0  0  0
   11.7728    8.0337   23.7267 C   0  0  0  0  0  0  0  0  0  0  0  0
    7.1194    8.3344   24.6775 C   0  0  0  0  0  0  0  0  0  0  0  0
    8.4311    4.7963   22.0500 C   0  0  0  0  0  0  0  0  0  0  0  0
    8.7393   10.8706   24.1871 O   0  0  0  0  0  0  0  0  0  0  0  0
    9.3093    3.8166   21.6712 C   0  0  0  0  0  0  0  0  0  0  0  0
  1  5  1  0
  1 15  4  0
  1 22  4  0
  2 20  1  0
  2 24  1  0
  3  6  4  0
  3 27  4  0
  4 22  4  0
  4 26  4  0
  6  7  4  0
  6 13  1  0
  7 19  4  0
  8 18  1  0
  8 23  1  0
  8 28  2  0
  9 17  1  0
  9 24  1  0
 10 11  1  0
 10 24  1  0
 11 23  1  0
 12 14  4  0
 12 16  4  0
 14 19  4  0
 15 18  4  0
 16 20  4  0
 17 25  1  0
 18 26  4  0
 19 29  4  0
 20 29  4  0
 21 23  1  0
 21 25  1  0
 27 29  4  0
M  END
$$$$

 Created by Python create_sdf_string function

 29 32  0  0  0  0  0  0  0  0999 V2000
    5.4450    8.7154   22.6662 C   0  0  0  0  0  0  0  0  0  0  0  0
   10.9154    5.4574   20.5483 C   0  0  0  0  0  0  0  0  0  0  0  0
    7.2709    4.5089   22.7542 C   0  0  0  0  0  0  0  0  0  0  0  0
    5.9698    7.6329   24.6581 C   0  0  0  0  0  0  0  0  0  0  0  0
    4.5542    8.9057   21.7104 O   0  0  0  0  0  0  0  0  0  0  0  0
    6.9895    3.2085   23.0690 C   0  0  0  0  0  0  0  0  0  0  0  0
    7.8391    2.2253   22.7260 N   0  0  0  0  0  0  0  0  0  0  0  0
    8.6968    9.8373   23.6359 C   0  0  0  0  0  0  0  0  0  0  0  0
   12.5135    6.5957   21.8396 C   0  0  0  0  0  0  0  0  0  0  0  0
   10.9406    8.2330   21.1350 C   0  0  0  0  0  0  0  0  0  0  0  0
    9.6648    8.5956   21.7310 C   0  0  0  0  0  0  0  0  0  0  0  0
   10.8829    1.7153   20.9865 C   0  0  0  0  0  0  0  0  0  0  0  0
    5.7768    2.8533   23.7910 C   0  0  0  0  0  0  0  0  0  0  0  0
    9.7977    1.4791   21.6912 N   0  0  0  0  0  0  0  0  0  0  0  0
    6.5976    9.3401   22.6478 N   0  0  0  0  0  0  0  0  0  0  0  0
   11.2031    3.0042   20.6246 C   0  0  0  0  0  0  0  0  0  0  0  0
   12.8688    7.7370   22.7287 C   0  0  0  0  0  0  0  0  0  0  0  0
    7.4487    9.1361   23.6506 C   0  0  0  0  0  0  0  0  0  0  0  0
    8.9772    2.5025   22.0273 C   0  0  0  0  0  0  0  0  0  0  0  0
   10.4859    4.0901   20.9730 C   0  0  0  0  0  0  0  0  0  0  0  0
   11.0962    9.3293   23.5072 C   0  0  0  0  0  0  0  0  0  0  0  0
    5.1273    7.8529   23.6208 N   0  0  0  0  0  0  0  0  0  0  0  0
    9.7552    9.2338   23.0171 N   0  0  0  0  0  0  0  0  0  0  0  0
   11.1797    6.7591   21.3326 N   0  0  0  0  0  0  0  0  0  0  0  0
   11.7728    8.0337   23.7267 C   0  0  0  0  0  0  0  0  0  0  0  0
    7.1194    8.3344   24.6775 C   0  0  0  0  0  0  0  0  0  0  0  0
    8.4311    4.7963   22.0500 C   0  0  0  0  0  0  0  0  0  0  0  0
    8.7393   10.8706   24.1871 O   0  0  0  0  0  0  0  0  0  0  0  0
    9.3093    3.8166   21.6712 C   0  0  0  0  0  0  0  0  0  0  0  0
  1  5  1  0
  1 15  4  0
  1 22  4  0
  2 20  1  0
  2 24  1  0
  3  6  4  0
  3 27  4  0
  4 22  4  0
  4 26  4  0
  6  7  4  0
  6 13  1  0
  7 19  4  0
  8 18  1  0
  8 23  1  0
  8 28  2  0
  9 17  1  0
  9 24  1  0
 10 11  1  0
 10 24  1  0
 11 23  1  0
 12 14  4  0
 12 16  4  0
 14 19  4  0
 15 18  4  0
 16 20  4  0
 17 25  1  0
 18 26  4  0
 19 29  4  0
 20 29  4  0
 21 23  1  0
 21 25  1  0
 27 29  4  0
M  END
$$$$

 Created by Python create_sdf_string function

 29 32  0  0  0  0  0  0  0  0999 V2000
    5.4450    8.7154   22.6662 C   0  0  0  0  0  0  0  0  0  0  0  0
   10.9154    5.4574   20.5483 C   0  0  0  0  0  0  0  0  0  0  0  0
    7.2709    4.5089   22.7542 C   0  0  0  0  0  0  0  0  0  0  0  0
    5.9698    7.6329   24.6581 C   0  0  0  0  0  0  0  0  0  0  0  0
    4.5542    8.9057   21.7104 O   0  0  0  0  0  0  0  0  0  0  0  0
    6.9895    3.2085   23.0690 C   0  0  0  0  0  0  0  0  0  0  0  0
    7.8391    2.2253   22.7260 N   0  0  0  0  0  0  0  0  0  0  0  0
    8.6968    9.8373   23.6359 C   0  0  0  0  0  0  0  0  0  0  0  0
   12.5135    6.5957   21.8396 C   0  0  0  0  0  0  0  0  0  0  0  0
   10.9406    8.2330   21.1350 C   0  0  0  0  0  0  0  0  0  0  0  0
    9.6648    8.5956   21.7310 C   0  0  0  0  0  0  0  0  0  0  0  0
   10.8829    1.7153   20.9865 C   0  0  0  0  0  0  0  0  0  0  0  0
    5.7768    2.8533   23.7910 C   0  0  0  0  0  0  0  0  0  0  0  0
    9.7977    1.4791   21.6912 N   0  0  0  0  0  0  0  0  0  0  0  0
    6.5976    9.3401   22.6478 N   0  0  0  0  0  0  0  0  0  0  0  0
   11.2031    3.0042   20.6246 C   0  0  0  0  0  0  0  0  0  0  0  0
   12.8688    7.7370   22.7287 C   0  0  0  0  0  0  0  0  0  0  0  0
    7.4487    9.1361   23.6506 C   0  0  0  0  0  0  0  0  0  0  0  0
    8.9772    2.5025   22.0273 C   0  0  0  0  0  0  0  0  0  0  0  0
   10.4859    4.0901   20.9730 C   0  0  0  0  0  0  0  0  0  0  0  0
   11.0962    9.3293   23.5072 C   0  0  0  0  0  0  0  0  0  0  0  0
    5.1273    7.8529   23.6208 N   0  0  0  0  0  0  0  0  0  0  0  0
    9.7552    9.2338   23.0171 N   0  0  0  0  0  0  0  0  0  0  0  0
   11.1797    6.7591   21.3326 N   0  0  0  0  0  0  0  0  0  0  0  0
   11.7728    8.0337   23.7267 C   0  0  0  0  0  0  0  0  0  0  0  0
    7.1194    8.3344   24.6775 C   0  0  0  0  0  0  0  0  0  0  0  0
    8.4311    4.7963   22.0500 C   0  0  0  0  0  0  0  0  0  0  0  0
    8.7393   10.8706   24.1871 O   0  0  0  0  0  0  0  0  0  0  0  0
    9.3093    3.8166   21.6712 C   0  0  0  0  0  0  0  0  0  0  0  0
  1  5  1  0
  1 15  4  0
  1 22  4  0
  2 20  1  0
  2 24  1  0
  3  6  4  0
  3 27  4  0
  4 22  4  0
  4 26  4  0
  6  7  4  0
  6 13  1  0
  7 19  4  0
  8 18  1  0
  8 23  1  0
  8 28  2  0
  9 17  1  0
  9 24  1  0
 10 11  1  0
 10 24  1  0
 11 23  1  0
 12 14  4  0
 12 16  4  0
 14 19  4  0
 15 18  4  0
 16 20  4  0
 17 25  1  0
 18 26  4  0
 19 29  4  0
 20 29  4  0
 21 23  1  0
 21 25  1  0
 27 29  4  0
M  END
$$$$

 Created by Python create_sdf_string function

 29 32  0  0  0  0  0  0  0  0999 V2000
    5.4450    8.7154   22.6662 C   0  0  0  0  0  0  0  0  0  0  0  0
   10.9154    5.4574   20.5483 C   0  0  0  0  0  0  0  0  0  0  0  0
    7.2709    4.5089   22.7542 C   0  0  0  0  0  0  0  0  0  0  0  0
    5.9698    7.6329   24.6581 C   0  0  0  0  0  0  0  0  0  0  0  0
    4.5542    8.9057   21.7104 O   0  0  0  0  0  0  0  0  0  0  0  0
    6.9895    3.2085   23.0690 C   0  0  0  0  0  0  0  0  0  0  0  0
    7.8391    2.2253   22.7260 N   0  0  0  0  0  0  0  0  0  0  0  0
    8.6968    9.8373   23.6359 C   0  0  0  0  0  0  0  0  0  0  0  0
   12.5135    6.5957   21.8396 C   0  0  0  0  0  0  0  0  0  0  0  0
   10.9406    8.2330   21.1350 C   0  0  0  0  0  0  0  0  0  0  0  0
    9.6648    8.5956   21.7310 C   0  0  0  0  0  0  0  0  0  0  0  0
   10.8829    1.7153   20.9865 C   0  0  0  0  0  0  0  0  0  0  0  0
    5.7768    2.8533   23.7910 C   0  0  0  0  0  0  0  0  0  0  0  0
    9.7977    1.4791   21.6912 N   0  0  0  0  0  0  0  0  0  0  0  0
    6.5976    9.3401   22.6478 N   0  0  0  0  0  0  0  0  0  0  0  0
   11.2031    3.0042   20.6246 C   0  0  0  0  0  0  0  0  0  0  0  0
   12.8688    7.7370   22.7287 C   0  0  0  0  0  0  0  0  0  0  0  0
    7.4487    9.1361   23.6506 C   0  0  0  0  0  0  0  0  0  0  0  0
    8.9772    2.5025   22.0273 C   0  0  0  0  0  0  0  0  0  0  0  0
   10.4859    4.0901   20.9730 C   0  0  0  0  0  0  0  0  0  0  0  0
   11.0962    9.3293   23.5072 C   0  0  0  0  0  0  0  0  0  0  0  0
    5.1273    7.8529   23.6208 N   0  0  0  0  0  0  0  0  0  0  0  0
    9.7552    9.2338   23.0171 N   0  0  0  0  0  0  0  0  0  0  0  0
   11.1797    6.7591   21.3326 N   0  0  0  0  0  0  0  0  0  0  0  0
   11.7728    8.0337   23.7267 C   0  0  0  0  0  0  0  0  0  0  0  0
    7.1194    8.3344   24.6775 C   0  0  0  0  0  0  0  0  0  0  0  0
    8.4311    4.7963   22.0500 C   0  0  0  0  0  0  0  0  0  0  0  0
    8.7393   10.8706   24.1871 O   0  0  0  0  0  0  0  0  0  0  0  0
    9.3093    3.8166   21.6712 C   0  0  0  0  0  0  0  0  0  0  0  0
  1  5  1  0
  1 15  4  0
  1 22  4  0
  2 20  1  0
  2 24  1  0
  3  6  4  0
  3 27  4  0
  4 22  4  0
  4 26  4  0
  6  7  4  0
  6 13  1  0
  7 19  4  0
  8 18  1  0
  8 23  1  0
  8 28  2  0
  9 17  1  0
  9 24  1  0
 10 11  1  0
 10 24  1  0
 11 23  1  0
 12 14  4  0
 12 16  4  0
 14 19  4  0
 15 18  4  0
 16 20  4  0
 17 25  1  0
 18 26  4  0
 19 29  4  0
 20 29  4  0
 21 23  1  0
 21 25  1  0
 27 29  4  0
M  END
$$$$

 Created by Python create_sdf_string function

 29 32  0  0  0  0  0  0  0  0999 V2000
    5.4450    8.7154   22.6662 C   0  0  0  0  0  0  0  0  0  0  0  0
   10.9154    5.4574   20.5483 C   0  0  0  0  0  0  0  0  0  0  0  0
    7.2709    4.5089   22.7542 C   0  0  0  0  0  0  0  0  0  0  0  0
    5.9698    7.6329   24.6581 C   0  0  0  0  0  0  0  0  0  0  0  0
    4.5542    8.9057   21.7104 O   0  0  0  0  0  0  0  0  0  0  0  0
    6.9895    3.2085   23.0690 C   0  0  0  0  0  0  0  0  0  0  0  0
    7.8391    2.2253   22.7260 N   0  0  0  0  0  0  0  0  0  0  0  0
    8.6968    9.8373   23.6359 C   0  0  0  0  0  0  0  0  0  0  0  0
   12.5135    6.5957   21.8396 C   0  0  0  0  0  0  0  0  0  0  0  0
   10.9406    8.2330   21.1350 C   0  0  0  0  0  0  0  0  0  0  0  0
    9.6648    8.5956   21.7310 C   0  0  0  0  0  0  0  0  0  0  0  0
   10.8829    1.7153   20.9865 C   0  0  0  0  0  0  0  0  0  0  0  0
    5.7768    2.8533   23.7910 C   0  0  0  0  0  0  0  0  0  0  0  0
    9.7977    1.4791   21.6912 N   0  0  0  0  0  0  0  0  0  0  0  0
    6.5976    9.3401   22.6478 N   0  0  0  0  0  0  0  0  0  0  0  0
   11.2031    3.0042   20.6246 C   0  0  0  0  0  0  0  0  0  0  0  0
   12.8688    7.7370   22.7287 C   0  0  0  0  0  0  0  0  0  0  0  0
    7.4487    9.1361   23.6506 C   0  0  0  0  0  0  0  0  0  0  0  0
    8.9772    2.5025   22.0273 C   0  0  0  0  0  0  0  0  0  0  0  0
   10.4859    4.0901   20.9730 C   0  0  0  0  0  0  0  0  0  0  0  0
   11.0962    9.3293   23.5072 C   0  0  0  0  0  0  0  0  0  0  0  0
    5.1273    7.8529   23.6208 N   0  0  0  0  0  0  0  0  0  0  0  0
    9.7552    9.2338   23.0171 N   0  0  0  0  0  0  0  0  0  0  0  0
   11.1797    6.7591   21.3326 N   0  0  0  0  0  0  0  0  0  0  0  0
   11.7728    8.0337   23.7267 C   0  0  0  0  0  0  0  0  0  0  0  0
    7.1194    8.3344   24.6775 C   0  0  0  0  0  0  0  0  0  0  0  0
    8.4311    4.7963   22.0500 C   0  0  0  0  0  0  0  0  0  0  0  0
    8.7393   10.8706   24.1871 O   0  0  0  0  0  0  0  0  0  0  0  0
    9.3093    3.8166   21.6712 C   0  0  0  0  0  0  0  0  0  0  0  0
  1  5  1  0
  1 15  4  0
  1 22  4  0
  2 20  1  0
  2 24  1  0
  3  6  4  0
  3 27  4  0
  4 22  4  0
  4 26  4  0
  6  7  4  0
  6 13  1  0
  7 19  4  0
  8 18  1  0
  8 23  1  0
  8 28  2  0
  9 17  1  0
  9 24  1  0
 10 11  1  0
 10 24  1  0
 11 23  1  0
 12 14  4  0
 12 16  4  0
 14 19  4  0
 15 18  4  0
 16 20  4  0
 17 25  1  0
 18 26  4  0
 19 29  4  0
 20 29  4  0
 21 23  1  0
 21 25  1  0
 27 29  4  0
M  END
$$$$

 Created by Python create_sdf_string function

 29 32  0  0  0  0  0  0  0  0999 V2000
    5.4450    8.7154   22.6662 C   0  0  0  0  0  0  0  0  0  0  0  0
   10.9154    5.4574   20.5483 C   0  0  0  0  0  0  0  0  0  0  0  0
    7.2709    4.5089   22.7542 C   0  0  0  0  0  0  0  0  0  0  0  0
    5.9698    7.6329   24.6581 C   0  0  0  0  0  0  0  0  0  0  0  0
    4.5542    8.9057   21.7104 O   0  0  0  0  0  0  0  0  0  0  0  0
    6.9895    3.2085   23.0690 C   0  0  0  0  0  0  0  0  0  0  0  0
    7.8391    2.2253   22.7260 N   0  0  0  0  0  0  0  0  0  0  0  0
    8.6968    9.8373   23.6359 C   0  0  0  0  0  0  0  0  0  0  0  0
   12.5135    6.5957   21.8396 C   0  0  0  0  0  0  0  0  0  0  0  0
   10.9406    8.2330   21.1350 C   0  0  0  0  0  0  0  0  0  0  0  0
    9.6648    8.5956   21.7310 C   0  0  0  0  0  0  0  0  0  0  0  0
   10.8829    1.7153   20.9865 C   0  0  0  0  0  0  0  0  0  0  0  0
    5.7768    2.8533   23.7910 C   0  0  0  0  0  0  0  0  0  0  0  0
    9.7977    1.4791   21.6912 N   0  0  0  0  0  0  0  0  0  0  0  0
    6.5976    9.3401   22.6478 N   0  0  0  0  0  0  0  0  0  0  0  0
   11.2031    3.0042   20.6246 C   0  0  0  0  0  0  0  0  0  0  0  0
   12.8688    7.7370   22.7287 C   0  0  0  0  0  0  0  0  0  0  0  0
    7.4487    9.1361   23.6506 C   0  0  0  0  0  0  0  0  0  0  0  0
    8.9772    2.5025   22.0273 C   0  0  0  0  0  0  0  0  0  0  0  0
   10.4859    4.0901   20.9730 C   0  0  0  0  0  0  0  0  0  0  0  0
   11.0962    9.3293   23.5072 C   0  0  0  0  0  0  0  0  0  0  0  0
    5.1273    7.8529   23.6208 N   0  0  0  0  0  0  0  0  0  0  0  0
    9.7552    9.2338   23.0171 N   0  0  0  0  0  0  0  0  0  0  0  0
   11.1797    6.7591   21.3326 N   0  0  0  0  0  0  0  0  0  0  0  0
   11.7728    8.0337   23.7267 C   0  0  0  0  0  0  0  0  0  0  0  0
    7.1194    8.3344   24.6775 C   0  0  0  0  0  0  0  0  0  0  0  0
    8.4311    4.7963   22.0500 C   0  0  0  0  0  0  0  0  0  0  0  0
    8.7393   10.8706   24.1871 O   0  0  0  0  0  0  0  0  0  0  0  0
    9.3093    3.8166   21.6712 C   0  0  0  0  0  0  0  0  0  0  0  0
  1  5  1  0
  1 15  4  0
  1 22  4  0
  2 20  1  0
  2 24  1  0
  3  6  4  0
  3 27  4  0
  4 22  4  0
  4 26  4  0
  6  7  4  0
  6 13  1  0
  7 19  4  0
  8 18  1  0
  8 23  1  0
  8 28  2  0
  9 17  1  0
  9 24  1  0
 10 11  1  0
 10 24  1  0
 11 23  1  0
 12 14  4  0
 12 16  4  0
 14 19  4  0
 15 18  4  0
 16 20  4  0
 17 25  1  0
 18 26  4  0
 19 29  4  0
 20 29  4  0
 21 23  1  0
 21 25  1  0
 27 29  4  0
M  END
$$$$

 Created by Python create_sdf_string function

 29 32  0  0  0  0  0  0  0  0999 V2000
    5.4450    8.7154   22.6662 C   0  0  0  0  0  0  0  0  0  0  0  0
   10.9154    5.4574   20.5483 C   0  0  0  0  0  0  0  0  0  0  0  0
    7.2709    4.5089   22.7542 C   0  0  0  0  0  0  0  0  0  0  0  0
    5.9698    7.6329   24.6581 C   0  0  0  0  0  0  0  0  0  0  0  0
    4.5542    8.9057   21.7104 O   0  0  0  0  0  0  0  0  0  0  0  0
    6.9895    3.2085   23.0690 C   0  0  0  0  0  0  0  0  0  0  0  0
    7.8391    2.2253   22.7260 N   0  0  0  0  0  0  0  0  0  0  0  0
    8.6968    9.8373   23.6359 C   0  0  0  0  0  0  0  0  0  0  0  0
   12.5135    6.5957   21.8396 C   0  0  0  0  0  0  0  0  0  0  0  0
   10.9406    8.2330   21.1350 C   0  0  0  0  0  0  0  0  0  0  0  0
    9.6648    8.5956   21.7310 C   0  0  0  0  0  0  0  0  0  0  0  0
   10.8829    1.7153   20.9865 C   0  0  0  0  0  0  0  0  0  0  0  0
    5.7768    2.8533   23.7910 C   0  0  0  0  0  0  0  0  0  0  0  0
    9.7977    1.4791   21.6912 N   0  0  0  0  0  0  0  0  0  0  0  0
    6.5976    9.3401   22.6478 N   0  0  0  0  0  0  0  0  0  0  0  0
   11.2031    3.0042   20.6246 C   0  0  0  0  0  0  0  0  0  0  0  0
   12.8688    7.7370   22.7287 C   0  0  0  0  0  0  0  0  0  0  0  0
    7.4487    9.1361   23.6506 C   0  0  0  0  0  0  0  0  0  0  0  0
    8.9772    2.5025   22.0273 C   0  0  0  0  0  0  0  0  0  0  0  0
   10.4859    4.0901   20.9730 C   0  0  0  0  0  0  0  0  0  0  0  0
   11.0962    9.3293   23.5072 C   0  0  0  0  0  0  0  0  0  0  0  0
    5.1273    7.8529   23.6208 N   0  0  0  0  0  0  0  0  0  0  0  0
    9.7552    9.2338   23.0171 N   0  0  0  0  0  0  0  0  0  0  0  0
   11.1797    6.7591   21.3326 N   0  0  0  0  0  0  0  0  0  0  0  0
   11.7728    8.0337   23.7267 C   0  0  0  0  0  0  0  0  0  0  0  0
    7.1194    8.3344   24.6775 C   0  0  0  0  0  0  0  0  0  0  0  0
    8.4311    4.7963   22.0500 C   0  0  0  0  0  0  0  0  0  0  0  0
    8.7393   10.8706   24.1871 O   0  0  0  0  0  0  0  0  0  0  0  0
    9.3093    3.8166   21.6712 C   0  0  0  0  0  0  0  0  0  0  0  0
  1  5  1  0
  1 15  4  0
  1 22  4  0
  2 20  1  0
  2 24  1  0
  3  6  4  0
  3 27  4  0
  4 22  4  0
  4 26  4  0
  6  7  4  0
  6 13  1  0
  7 19  4  0
  8 18  1  0
  8 23  1  0
  8 28  2  0
  9 17  1  0
  9 24  1  0
 10 11  1  0
 10 24  1  0
 11 23  1  0
 12 14  4  0
 12 16  4  0
 14 19  4  0
 15 18  4  0
 16 20  4  0
 17 25  1  0
 18 26  4  0
 19 29  4  0
 20 29  4  0
 21 23  1  0
 21 25  1  0
 27 29  4  0
M  END
$$$$

 Created by Python create_sdf_string function

 29 32  0  0  0  0  0  0  0  0999 V2000
    5.4450    8.7154   22.6662 C   0  0  0  0  0  0  0  0  0  0  0  0
   10.9154    5.4574   20.5483 C   0  0  0  0  0  0  0  0  0  0  0  0
    7.2709    4.5089   22.7542 C   0  0  0  0  0  0  0  0  0  0  0  0
    5.9698    7.6329   24.6581 C   0  0  0  0  0  0  0  0  0  0  0  0
    4.5542    8.9057   21.7104 O   0  0  0  0  0  0  0  0  0  0  0  0
    6.9895    3.2085   23.0690 C   0  0  0  0  0  0  0  0  0  0  0  0
    7.8391    2.2253   22.7260 N   0  0  0  0  0  0  0  0  0  0  0  0
    8.6968    9.8373   23.6359 C   0  0  0  0  0  0  0  0  0  0  0  0
   12.5135    6.5957   21.8396 C   0  0  0  0  0  0  0  0  0  0  0  0
   10.9406    8.2330   21.1350 C   0  0  0  0  0  0  0  0  0  0  0  0
    9.6648    8.5956   21.7310 C   0  0  0  0  0  0  0  0  0  0  0  0
   10.8829    1.7153   20.9865 C   0  0  0  0  0  0  0  0  0  0  0  0
    5.7768    2.8533   23.7910 C   0  0  0  0  0  0  0  0  0  0  0  0
    9.7977    1.4791   21.6912 N   0  0  0  0  0  0  0  0  0  0  0  0
    6.5976    9.3401   22.6478 N   0  0  0  0  0  0  0  0  0  0  0  0
   11.2031    3.0042   20.6246 C   0  0  0  0  0  0  0  0  0  0  0  0
   12.8688    7.7370   22.7287 C   0  0  0  0  0  0  0  0  0  0  0  0
    7.4487    9.1361   23.6506 C   0  0  0  0  0  0  0  0  0  0  0  0
    8.9772    2.5025   22.0273 C   0  0  0  0  0  0  0  0  0  0  0  0
   10.4859    4.0901   20.9730 C   0  0  0  0  0  0  0  0  0  0  0  0
   11.0962    9.3293   23.5072 C   0  0  0  0  0  0  0  0  0  0  0  0
    5.1273    7.8529   23.6208 N   0  0  0  0  0  0  0  0  0  0  0  0
    9.7552    9.2338   23.0171 N   0  0  0  0  0  0  0  0  0  0  0  0
   11.1797    6.7591   21.3326 N   0  0  0  0  0  0  0  0  0  0  0  0
   11.7728    8.0337   23.7267 C   0  0  0  0  0  0  0  0  0  0  0  0
    7.1194    8.3344   24.6775 C   0  0  0  0  0  0  0  0  0  0  0  0
    8.4311    4.7963   22.0500 C   0  0  0  0  0  0  0  0  0  0  0  0
    8.7393   10.8706   24.1871 O   0  0  0  0  0  0  0  0  0  0  0  0
    9.3093    3.8166   21.6712 C   0  0  0  0  0  0  0  0  0  0  0  0
  1  5  1  0
  1 15  4  0
  1 22  4  0
  2 20  1  0
  2 24  1  0
  3  6  4  0
  3 27  4  0
  4 22  4  0
  4 26  4  0
  6  7  4  0
  6 13  1  0
  7 19  4  0
  8 18  1  0
  8 23  1  0
  8 28  2  0
  9 17  1  0
  9 24  1  0
 10 11  1  0
 10 24  1  0
 11 23  1  0
 12 14  4  0
 12 16  4  0
 14 19  4  0
 15 18  4  0
 16 20  4  0
 17 25  1  0
 18 26  4  0
 19 29  4  0
 20 29  4  0
 21 23  1  0
 21 25  1  0
 27 29  4  0
M  END
$$$$

 Created by Python create_sdf_string function

 29 32  0  0  0  0  0  0  0  0999 V2000
    5.4450    8.7154   22.6662 C   0  0  0  0  0  0  0  0  0  0  0  0
   10.9154    5.4574   20.5483 C   0  0  0  0  0  0  0  0  0  0  0  0
    7.2709    4.5089   22.7542 C   0  0  0  0  0  0  0  0  0  0  0  0
    5.9698    7.6329   24.6581 C   0  0  0  0  0  0  0  0  0  0  0  0
    4.5542    8.9057   21.7104 O   0  0  0  0  0  0  0  0  0  0  0  0
    6.9895    3.2085   23.0690 C   0  0  0  0  0  0  0  0  0  0  0  0
    7.8391    2.2253   22.7260 N   0  0  0  0  0  0  0  0  0  0  0  0
    8.6968    9.8373   23.6359 C   0  0  0  0  0  0  0  0  0  0  0  0
   12.5135    6.5957   21.8396 C   0  0  0  0  0  0  0  0  0  0  0  0
   10.9406    8.2330   21.1350 C   0  0  0  0  0  0  0  0  0  0  0  0
    9.6648    8.5956   21.7310 C   0  0  0  0  0  0  0  0  0  0  0  0
   10.8829    1.7153   20.9865 C   0  0  0  0  0  0  0  0  0  0  0  0
    5.7768    2.8533   23.7910 C   0  0  0  0  0  0  0  0  0  0  0  0
    9.7977    1.4791   21.6912 N   0  0  0  0  0  0  0  0  0  0  0  0
    6.5976    9.3401   22.6478 N   0  0  0  0  0  0  0  0  0  0  0  0
   11.2031    3.0042   20.6246 C   0  0  0  0  0  0  0  0  0  0  0  0
   12.8688    7.7370   22.7287 C   0  0  0  0  0  0  0  0  0  0  0  0
    7.4487    9.1361   23.6506 C   0  0  0  0  0  0  0  0  0  0  0  0
    8.9772    2.5025   22.0273 C   0  0  0  0  0  0  0  0  0  0  0  0
   10.4859    4.0901   20.9730 C   0  0  0  0  0  0  0  0  0  0  0  0
   11.0962    9.3293   23.5072 C   0  0  0  0  0  0  0  0  0  0  0  0
    5.1273    7.8529   23.6208 N   0  0  0  0  0  0  0  0  0  0  0  0
    9.7552    9.2338   23.0171 N   0  0  0  0  0  0  0  0  0  0  0  0
   11.1797    6.7591   21.3326 N   0  0  0  0  0  0  0  0  0  0  0  0
   11.7728    8.0337   23.7267 C   0  0  0  0  0  0  0  0  0  0  0  0
    7.1194    8.3344   24.6775 C   0  0  0  0  0  0  0  0  0  0  0  0
    8.4311    4.7963   22.0500 C   0  0  0  0  0  0  0  0  0  0  0  0
    8.7393   10.8706   24.1871 O   0  0  0  0  0  0  0  0  0  0  0  0
    9.3093    3.8166   21.6712 C   0  0  0  0  0  0  0  0  0  0  0  0
  1  5  1  0
  1 15  4  0
  1 22  4  0
  2 20  1  0
  2 24  1  0
  3  6  4  0
  3 27  4  0
  4 22  4  0
  4 26  4  0
  6  7  4  0
  6 13  1  0
  7 19  4  0
  8 18  1  0
  8 23  1  0
  8 28  2  0
  9 17  1  0
  9 24  1  0
 10 11  1  0
 10 24  1  0
 11 23  1  0
 12 14  4  0
 12 16  4  0
 14 19  4  0
 15 18  4  0
 16 20  4  0
 17 25  1  0
 18 26  4  0
 19 29  4  0
 20 29  4  0
 21 23  1  0
 21 25  1  0
 27 29  4  0
M  END
$$$$

 Created by Python create_sdf_string function

 29 32  0  0  0  0  0  0  0  0999 V2000
    5.4450    8.7154   22.6662 C   0  0  0  0  0  0  0  0  0  0  0  0
   10.9154    5.4574   20.5483 C   0  0  0  0  0  0  0  0  0  0  0  0
    7.2709    4.5089   22.7542 C   0  0  0  0  0  0  0  0  0  0  0  0
    5.9698    7.6329   24.6581 C   0  0  0  0  0  0  0  0  0  0  0  0
    4.5542    8.9057   21.7104 O   0  0  0  0  0  0  0  0  0  0  0  0
    6.9895    3.2085   23.0690 C   0  0  0  0  0  0  0  0  0  0  0  0
    7.8391    2.2253   22.7260 N   0  0  0  0  0  0  0  0  0  0  0  0
    8.6968    9.8373   23.6359 C   0  0  0  0  0  0  0  0  0  0  0  0
   12.5135    6.5957   21.8396 C   0  0  0  0  0  0  0  0  0  0  0  0
   10.9406    8.2330   21.1350 C   0  0  0  0  0  0  0  0  0  0  0  0
    9.6648    8.5956   21.7310 C   0  0  0  0  0  0  0  0  0  0  0  0
   10.8829    1.7153   20.9865 C   0  0  0  0  0  0  0  0  0  0  0  0
    5.7768    2.8533   23.7910 C   0  0  0  0  0  0  0  0  0  0  0  0
    9.7977    1.4791   21.6912 N   0  0  0  0  0  0  0  0  0  0  0  0
    6.5976    9.3401   22.6478 N   0  0  0  0  0  0  0  0  0  0  0  0
   11.2031    3.0042   20.6246 C   0  0  0  0  0  0  0  0  0  0  0  0
   12.8688    7.7370   22.7287 C   0  0  0  0  0  0  0  0  0  0  0  0
    7.4487    9.1361   23.6506 C   0  0  0  0  0  0  0  0  0  0  0  0
    8.9772    2.5025   22.0273 C   0  0  0  0  0  0  0  0  0  0  0  0
   10.4859    4.0901   20.9730 C   0  0  0  0  0  0  0  0  0  0  0  0
   11.0962    9.3293   23.5072 C   0  0  0  0  0  0  0  0  0  0  0  0
    5.1273    7.8529   23.6208 N   0  0  0  0  0  0  0  0  0  0  0  0
    9.7552    9.2338   23.0171 N   0  0  0  0  0  0  0  0  0  0  0  0
   11.1797    6.7591   21.3326 N   0  0  0  0  0  0  0  0  0  0  0  0
   11.7728    8.0337   23.7267 C   0  0  0  0  0  0  0  0  0  0  0  0
    7.1194    8.3344   24.6775 C   0  0  0  0  0  0  0  0  0  0  0  0
    8.4311    4.7963   22.0500 C   0  0  0  0  0  0  0  0  0  0  0  0
    8.7393   10.8706   24.1871 O   0  0  0  0  0  0  0  0  0  0  0  0
    9.3093    3.8166   21.6712 C   0  0  0  0  0  0  0  0  0  0  0  0
  1  5  1  0
  1 15  4  0
  1 22  4  0
  2 20  1  0
  2 24  1  0
  3  6  4  0
  3 27  4  0
  4 22  4  0
  4 26  4  0
  6  7  4  0
  6 13  1  0
  7 19  4  0
  8 18  1  0
  8 23  1  0
  8 28  2  0
  9 17  1  0
  9 24  1  0
 10 11  1  0
 10 24  1  0
 11 23  1  0
 12 14  4  0
 12 16  4  0
 14 19  4  0
 15 18  4  0
 16 20  4  0
 17 25  1  0
 18 26  4  0
 19 29  4  0
 20 29  4  0
 21 23  1  0
 21 25  1  0
 27 29  4  0
M  END
$$$$

 Created by Python create_sdf_string function

 29 32  0  0  0  0  0  0  0  0999 V2000
    5.4450    8.7154   22.6662 C   0  0  0  0  0  0  0  0  0  0  0  0
   10.9154    5.4574   20.5483 C   0  0  0  0  0  0  0  0  0  0  0  0
    7.2709    4.5089   22.7542 C   0  0  0  0  0  0  0  0  0  0  0  0
    5.9698    7.6329   24.6581 C   0  0  0  0  0  0  0  0  0  0  0  0
    4.5542    8.9057   21.7104 O   0  0  0  0  0  0  0  0  0  0  0  0
    6.9895    3.2085   23.0690 C   0  0  0  0  0  0  0  0  0  0  0  0
    7.8391    2.2253   22.7260 N   0  0  0  0  0  0  0  0  0  0  0  0
    8.6968    9.8373   23.6359 C   0  0  0  0  0  0  0  0  0  0  0  0
   12.5135    6.5957   21.8396 C   0  0  0  0  0  0  0  0  0  0  0  0
   10.9406    8.2330   21.1350 C   0  0  0  0  0  0  0  0  0  0  0  0
    9.6648    8.5956   21.7310 C   0  0  0  0  0  0  0  0  0  0  0  0
   10.8829    1.7153   20.9865 C   0  0  0  0  0  0  0  0  0  0  0  0
    5.7768    2.8533   23.7910 C   0  0  0  0  0  0  0  0  0  0  0  0
    9.7977    1.4791   21.6912 N   0  0  0  0  0  0  0  0  0  0  0  0
    6.5976    9.3401   22.6478 N   0  0  0  0  0  0  0  0  0  0  0  0
   11.2031    3.0042   20.6246 C   0  0  0  0  0  0  0  0  0  0  0  0
   12.8688    7.7370   22.7287 C   0  0  0  0  0  0  0  0  0  0  0  0
    7.4487    9.1361   23.6506 C   0  0  0  0  0  0  0  0  0  0  0  0
    8.9772    2.5025   22.0273 C   0  0  0  0  0  0  0  0  0  0  0  0
   10.4859    4.0901   20.9730 C   0  0  0  0  0  0  0  0  0  0  0  0
   11.0962    9.3293   23.5072 C   0  0  0  0  0  0  0  0  0  0  0  0
    5.1273    7.8529   23.6208 N   0  0  0  0  0  0  0  0  0  0  0  0
    9.7552    9.2338   23.0171 N   0  0  0  0  0  0  0  0  0  0  0  0
   11.1797    6.7591   21.3326 N   0  0  0  0  0  0  0  0  0  0  0  0
   11.7728    8.0337   23.7267 C   0  0  0  0  0  0  0  0  0  0  0  0
    7.1194    8.3344   24.6775 C   0  0  0  0  0  0  0  0  0  0  0  0
    8.4311    4.7963   22.0500 C   0  0  0  0  0  0  0  0  0  0  0  0
    8.7393   10.8706   24.1871 O   0  0  0  0  0  0  0  0  0  0  0  0
    9.3093    3.8166   21.6712 C   0  0  0  0  0  0  0  0  0  0  0  0
  1  5  1  0
  1 15  4  0
  1 22  4  0
  2 20  1  0
  2 24  1  0
  3  6  4  0
  3 27  4  0
  4 22  4  0
  4 26  4  0
  6  7  4  0
  6 13  1  0
  7 19  4  0
  8 18  1  0
  8 23  1  0
  8 28  2  0
  9 17  1  0
  9 24  1  0
 10 11  1  0
 10 24  1  0
 11 23  1  0
 12 14  4  0
 12 16  4  0
 14 19  4  0
 15 18  4  0
 16 20  4  0
 17 25  1  0
 18 26  4  0
 19 29  4  0
 20 29  4  0
 21 23  1  0
 21 25  1  0
 27 29  4  0
M  END
$$$$

 Created by Python create_sdf_string function

 29 32  0  0  0  0  0  0  0  0999 V2000
    5.4450    8.7154   22.6662 C   0  0  0  0  0  0  0  0  0  0  0  0
   10.9154    5.4574   20.5483 C   0  0  0  0  0  0  0  0  0  0  0  0
    7.2709    4.5089   22.7542 C   0  0  0  0  0  0  0  0  0  0  0  0
    5.9698    7.6329   24.6581 C   0  0  0  0  0  0  0  0  0  0  0  0
    4.5542    8.9057   21.7104 O   0  0  0  0  0  0  0  0  0  0  0  0
    6.9895    3.2085   23.0690 C   0  0  0  0  0  0  0  0  0  0  0  0
    7.8391    2.2253   22.7260 N   0  0  0  0  0  0  0  0  0  0  0  0
    8.6968    9.8373   23.6359 C   0  0  0  0  0  0  0  0  0  0  0  0
   12.5135    6.5957   21.8396 C   0  0  0  0  0  0  0  0  0  0  0  0
   10.9406    8.2330   21.1350 C   0  0  0  0  0  0  0  0  0  0  0  0
    9.6648    8.5956   21.7310 C   0  0  0  0  0  0  0  0  0  0  0  0
   10.8829    1.7153   20.9865 C   0  0  0  0  0  0  0  0  0  0  0  0
    5.7768    2.8533   23.7910 C   0  0  0  0  0  0  0  0  0  0  0  0
    9.7977    1.4791   21.6912 N   0  0  0  0  0  0  0  0  0  0  0  0
    6.5976    9.3401   22.6478 N   0  0  0  0  0  0  0  0  0  0  0  0
   11.2031    3.0042   20.6246 C   0  0  0  0  0  0  0  0  0  0  0  0
   12.8688    7.7370   22.7287 C   0  0  0  0  0  0  0  0  0  0  0  0
    7.4487    9.1361   23.6506 C   0  0  0  0  0  0  0  0  0  0  0  0
    8.9772    2.5025   22.0273 C   0  0  0  0  0  0  0  0  0  0  0  0
   10.4859    4.0901   20.9730 C   0  0  0  0  0  0  0  0  0  0  0  0
   11.0962    9.3293   23.5072 C   0  0  0  0  0  0  0  0  0  0  0  0
    5.1273    7.8529   23.6208 N   0  0  0  0  0  0  0  0  0  0  0  0
    9.7552    9.2338   23.0171 N   0  0  0  0  0  0  0  0  0  0  0  0
   11.1797    6.7591   21.3326 N   0  0  0  0  0  0  0  0  0  0  0  0
   11.7728    8.0337   23.7267 C   0  0  0  0  0  0  0  0  0  0  0  0
    7.1194    8.3344   24.6775 C   0  0  0  0  0  0  0  0  0  0  0  0
    8.4311    4.7963   22.0500 C   0  0  0  0  0  0  0  0  0  0  0  0
    8.7393   10.8706   24.1871 O   0  0  0  0  0  0  0  0  0  0  0  0
    9.3093    3.8166   21.6712 C   0  0  0  0  0  0  0  0  0  0  0  0
  1  5  1  0
  1 15  4  0
  1 22  4  0
  2 20  1  0
  2 24  1  0
  3  6  4  0
  3 27  4  0
  4 22  4  0
  4 26  4  0
  6  7  4  0
  6 13  1  0
  7 19  4  0
  8 18  1  0
  8 23  1  0
  8 28  2  0
  9 17  1  0
  9 24  1  0
 10 11  1  0
 10 24  1  0
 11 23  1  0
 12 14  4  0
 12 16  4  0
 14 19  4  0
 15 18  4  0
 16 20  4  0
 17 25  1  0
 18 26  4  0
 19 29  4  0
 20 29  4  0
 21 23  1  0
 21 25  1  0
 27 29  4  0
M  END
$$$$

 Created by Python create_sdf_string function

 29 32  0  0  0  0  0  0  0  0999 V2000
    5.4450    8.7154   22.6662 C   0  0  0  0  0  0  0  0  0  0  0  0
   10.9154    5.4574   20.5483 C   0  0  0  0  0  0  0  0  0  0  0  0
    7.2709    4.5089   22.7542 C   0  0  0  0  0  0  0  0  0  0  0  0
    5.9698    7.6329   24.6581 C   0  0  0  0  0  0  0  0  0  0  0  0
    4.5542    8.9057   21.7104 O   0  0  0  0  0  0  0  0  0  0  0  0
    6.9895    3.2085   23.0690 C   0  0  0  0  0  0  0  0  0  0  0  0
    7.8391    2.2253   22.7260 N   0  0  0  0  0  0  0  0  0  0  0  0
    8.6968    9.8373   23.6359 C   0  0  0  0  0  0  0  0  0  0  0  0
   12.5135    6.5957   21.8396 C   0  0  0  0  0  0  0  0  0  0  0  0
   10.9406    8.2330   21.1350 C   0  0  0  0  0  0  0  0  0  0  0  0
    9.6648    8.5956   21.7310 C   0  0  0  0  0  0  0  0  0  0  0  0
   10.8829    1.7153   20.9865 C   0  0  0  0  0  0  0  0  0  0  0  0
    5.7768    2.8533   23.7910 C   0  0  0  0  0  0  0  0  0  0  0  0
    9.7977    1.4791   21.6912 N   0  0  0  0  0  0  0  0  0  0  0  0
    6.5976    9.3401   22.6478 N   0  0  0  0  0  0  0  0  0  0  0  0
   11.2031    3.0042   20.6246 C   0  0  0  0  0  0  0  0  0  0  0  0
   12.8688    7.7370   22.7287 C   0  0  0  0  0  0  0  0  0  0  0  0
    7.4487    9.1361   23.6506 C   0  0  0  0  0  0  0  0  0  0  0  0
    8.9772    2.5025   22.0273 C   0  0  0  0  0  0  0  0  0  0  0  0
   10.4859    4.0901   20.9730 C   0  0  0  0  0  0  0  0  0  0  0  0
   11.0962    9.3293   23.5072 C   0  0  0  0  0  0  0  0  0  0  0  0
    5.1273    7.8529   23.6208 N   0  0  0  0  0  0  0  0  0  0  0  0
    9.7552    9.2338   23.0171 N   0  0  0  0  0  0  0  0  0  0  0  0
   11.1797    6.7591   21.3326 N   0  0  0  0  0  0  0  0  0  0  0  0
   11.7728    8.0337   23.7267 C   0  0  0  0  0  0  0  0  0  0  0  0
    7.1194    8.3344   24.6775 C   0  0  0  0  0  0  0  0  0  0  0  0
    8.4311    4.7963   22.0500 C   0  0  0  0  0  0  0  0  0  0  0  0
    8.7393   10.8706   24.1871 O   0  0  0  0  0  0  0  0  0  0  0  0
    9.3093    3.8166   21.6712 C   0  0  0  0  0  0  0  0  0  0  0  0
  1  5  1  0
  1 15  4  0
  1 22  4  0
  2 20  1  0
  2 24  1  0
  3  6  4  0
  3 27  4  0
  4 22  4  0
  4 26  4  0
  6  7  4  0
  6 13  1  0
  7 19  4  0
  8 18  1  0
  8 23  1  0
  8 28  2  0
  9 17  1  0
  9 24  1  0
 10 11  1  0
 10 24  1  0
 11 23  1  0
 12 14  4  0
 12 16  4  0
 14 19  4  0
 15 18  4  0
 16 20  4  0
 17 25  1  0
 18 26  4  0
 19 29  4  0
 20 29  4  0
 21 23  1  0
 21 25  1  0
 27 29  4  0
M  END
$$$$

 Created by Python create_sdf_string function

 29 32  0  0  0  0  0  0  0  0999 V2000
    5.4450    8.7154   22.6662 C   0  0  0  0  0  0  0  0  0  0  0  0
   10.9154    5.4574   20.5483 C   0  0  0  0  0  0  0  0  0  0  0  0
    7.2709    4.5089   22.7542 C   0  0  0  0  0  0  0  0  0  0  0  0
    5.9698    7.6329   24.6581 C   0  0  0  0  0  0  0  0  0  0  0  0
    4.5542    8.9057   21.7104 O   0  0  0  0  0  0  0  0  0  0  0  0
    6.9895    3.2085   23.0690 C   0  0  0  0  0  0  0  0  0  0  0  0
    7.8391    2.2253   22.7260 N   0  0  0  0  0  0  0  0  0  0  0  0
    8.6968    9.8373   23.6359 C   0  0  0  0  0  0  0  0  0  0  0  0
   12.5135    6.5957   21.8396 C   0  0  0  0  0  0  0  0  0  0  0  0
   10.9406    8.2330   21.1350 C   0  0  0  0  0  0  0  0  0  0  0  0
    9.6648    8.5956   21.7310 C   0  0  0  0  0  0  0  0  0  0  0  0
   10.8829    1.7153   20.9865 C   0  0  0  0  0  0  0  0  0  0  0  0
    5.7768    2.8533   23.7910 C   0  0  0  0  0  0  0  0  0  0  0  0
    9.7977    1.4791   21.6912 N   0  0  0  0  0  0  0  0  0  0  0  0
    6.5976    9.3401   22.6478 N   0  0  0  0  0  0  0  0  0  0  0  0
   11.2031    3.0042   20.6246 C   0  0  0  0  0  0  0  0  0  0  0  0
   12.8688    7.7370   22.7287 C   0  0  0  0  0  0  0  0  0  0  0  0
    7.4487    9.1361   23.6506 C   0  0  0  0  0  0  0  0  0  0  0  0
    8.9772    2.5025   22.0273 C   0  0  0  0  0  0  0  0  0  0  0  0
   10.4859    4.0901   20.9730 C   0  0  0  0  0  0  0  0  0  0  0  0
   11.0962    9.3293   23.5072 C   0  0  0  0  0  0  0  0  0  0  0  0
    5.1273    7.8529   23.6208 N   0  0  0  0  0  0  0  0  0  0  0  0
    9.7552    9.2338   23.0171 N   0  0  0  0  0  0  0  0  0  0  0  0
   11.1797    6.7591   21.3326 N   0  0  0  0  0  0  0  0  0  0  0  0
   11.7728    8.0337   23.7267 C   0  0  0  0  0  0  0  0  0  0  0  0
    7.1194    8.3344   24.6775 C   0  0  0  0  0  0  0  0  0  0  0  0
    8.4311    4.7963   22.0500 C   0  0  0  0  0  0  0  0  0  0  0  0
    8.7393   10.8706   24.1871 O   0  0  0  0  0  0  0  0  0  0  0  0
    9.3093    3.8166   21.6712 C   0  0  0  0  0  0  0  0  0  0  0  0
  1  5  1  0
  1 15  4  0
  1 22  4  0
  2 20  1  0
  2 24  1  0
  3  6  4  0
  3 27  4  0
  4 22  4  0
  4 26  4  0
  6  7  4  0
  6 13  1  0
  7 19  4  0
  8 18  1  0
  8 23  1  0
  8 28  2  0
  9 17  1  0
  9 24  1  0
 10 11  1  0
 10 24  1  0
 11 23  1  0
 12 14  4  0
 12 16  4  0
 14 19  4  0
 15 18  4  0
 16 20  4  0
 17 25  1  0
 18 26  4  0
 19 29  4  0
 20 29  4  0
 21 23  1  0
 21 25  1  0
 27 29  4  0
M  END
$$$$

 Created by Python create_sdf_string function

 29 32  0  0  0  0  0  0  0  0999 V2000
    5.4450    8.7154   22.6662 C   0  0  0  0  0  0  0  0  0  0  0  0
   10.9154    5.4574   20.5483 C   0  0  0  0  0  0  0  0  0  0  0  0
    7.2709    4.5089   22.7542 C   0  0  0  0  0  0  0  0  0  0  0  0
    5.9698    7.6329   24.6581 C   0  0  0  0  0  0  0  0  0  0  0  0
    4.5542    8.9057   21.7104 O   0  0  0  0  0  0  0  0  0  0  0  0
    6.9895    3.2085   23.0690 C   0  0  0  0  0  0  0  0  0  0  0  0
    7.8391    2.2253   22.7260 N   0  0  0  0  0  0  0  0  0  0  0  0
    8.6968    9.8373   23.6359 C   0  0  0  0  0  0  0  0  0  0  0  0
   12.5135    6.5957   21.8396 C   0  0  0  0  0  0  0  0  0  0  0  0
   10.9406    8.2330   21.1350 C   0  0  0  0  0  0  0  0  0  0  0  0
    9.6648    8.5956   21.7310 C   0  0  0  0  0  0  0  0  0  0  0  0
   10.8829    1.7153   20.9865 C   0  0  0  0  0  0  0  0  0  0  0  0
    5.7768    2.8533   23.7910 C   0  0  0  0  0  0  0  0  0  0  0  0
    9.7977    1.4791   21.6912 N   0  0  0  0  0  0  0  0  0  0  0  0
    6.5976    9.3401   22.6478 N   0  0  0  0  0  0  0  0  0  0  0  0
   11.2031    3.0042   20.6246 C   0  0  0  0  0  0  0  0  0  0  0  0
   12.8688    7.7370   22.7287 C   0  0  0  0  0  0  0  0  0  0  0  0
    7.4487    9.1361   23.6506 C   0  0  0  0  0  0  0  0  0  0  0  0
    8.9772    2.5025   22.0273 C   0  0  0  0  0  0  0  0  0  0  0  0
   10.4859    4.0901   20.9730 C   0  0  0  0  0  0  0  0  0  0  0  0
   11.0962    9.3293   23.5072 C   0  0  0  0  0  0  0  0  0  0  0  0
    5.1273    7.8529   23.6208 N   0  0  0  0  0  0  0  0  0  0  0  0
    9.7552    9.2338   23.0171 N   0  0  0  0  0  0  0  0  0  0  0  0
   11.1797    6.7591   21.3326 N   0  0  0  0  0  0  0  0  0  0  0  0
   11.7728    8.0337   23.7267 C   0  0  0  0  0  0  0  0  0  0  0  0
    7.1194    8.3344   24.6775 C   0  0  0  0  0  0  0  0  0  0  0  0
    8.4311    4.7963   22.0500 C   0  0  0  0  0  0  0  0  0  0  0  0
    8.7393   10.8706   24.1871 O   0  0  0  0  0  0  0  0  0  0  0  0
    9.3093    3.8166   21.6712 C   0  0  0  0  0  0  0  0  0  0  0  0
  1  5  1  0
  1 15  4  0
  1 22  4  0
  2 20  1  0
  2 24  1  0
  3  6  4  0
  3 27  4  0
  4 22  4  0
  4 26  4  0
  6  7  4  0
  6 13  1  0
  7 19  4  0
  8 18  1  0
  8 23  1  0
  8 28  2  0
  9 17  1  0
  9 24  1  0
 10 11  1  0
 10 24  1  0
 11 23  1  0
 12 14  4  0
 12 16  4  0
 14 19  4  0
 15 18  4  0
 16 20  4  0
 17 25  1  0
 18 26  4  0
 19 29  4  0
 20 29  4  0
 21 23  1  0
 21 25  1  0
 27 29  4  0
M  END
$$$$

 Created by Python create_sdf_string function

 29 32  0  0  0  0  0  0  0  0999 V2000
    5.4450    8.7154   22.6662 C   0  0  0  0  0  0  0  0  0  0  0  0
   10.9154    5.4574   20.5483 C   0  0  0  0  0  0  0  0  0  0  0  0
    7.2709    4.5089   22.7542 C   0  0  0  0  0  0  0  0  0  0  0  0
    5.9698    7.6329   24.6581 C   0  0  0  0  0  0  0  0  0  0  0  0
    4.5542    8.9057   21.7104 O   0  0  0  0  0  0  0  0  0  0  0  0
    6.9895    3.2085   23.0690 C   0  0  0  0  0  0  0  0  0  0  0  0
    7.8391    2.2253   22.7260 N   0  0  0  0  0  0  0  0  0  0  0  0
    8.6968    9.8373   23.6359 C   0  0  0  0  0  0  0  0  0  0  0  0
   12.5135    6.5957   21.8396 C   0  0  0  0  0  0  0  0  0  0  0  0
   10.9406    8.2330   21.1350 C   0  0  0  0  0  0  0  0  0  0  0  0
    9.6648    8.5956   21.7310 C   0  0  0  0  0  0  0  0  0  0  0  0
   10.8829    1.7153   20.9865 C   0  0  0  0  0  0  0  0  0  0  0  0
    5.7768    2.8533   23.7910 C   0  0  0  0  0  0  0  0  0  0  0  0
    9.7977    1.4791   21.6912 N   0  0  0  0  0  0  0  0  0  0  0  0
    6.5976    9.3401   22.6478 N   0  0  0  0  0  0  0  0  0  0  0  0
   11.2031    3.0042   20.6246 C   0  0  0  0  0  0  0  0  0  0  0  0
   12.8688    7.7370   22.7287 C   0  0  0  0  0  0  0  0  0  0  0  0
    7.4487    9.1361   23.6506 C   0  0  0  0  0  0  0  0  0  0  0  0
    8.9772    2.5025   22.0273 C   0  0  0  0  0  0  0  0  0  0  0  0
   10.4859    4.0901   20.9730 C   0  0  0  0  0  0  0  0  0  0  0  0
   11.0962    9.3293   23.5072 C   0  0  0  0  0  0  0  0  0  0  0  0
    5.1273    7.8529   23.6208 N   0  0  0  0  0  0  0  0  0  0  0  0
    9.7552    9.2338   23.0171 N   0  0  0  0  0  0  0  0  0  0  0  0
   11.1797    6.7591   21.3326 N   0  0  0  0  0  0  0  0  0  0  0  0
   11.7728    8.0337   23.7267 C   0  0  0  0  0  0  0  0  0  0  0  0
    7.1194    8.3344   24.6775 C   0  0  0  0  0  0  0  0  0  0  0  0
    8.4311    4.7963   22.0500 C   0  0  0  0  0  0  0  0  0  0  0  0
    8.7393   10.8706   24.1871 O   0  0  0  0  0  0  0  0  0  0  0  0
    9.3093    3.8166   21.6712 C   0  0  0  0  0  0  0  0  0  0  0  0
  1  5  1  0
  1 15  4  0
  1 22  4  0
  2 20  1  0
  2 24  1  0
  3  6  4  0
  3 27  4  0
  4 22  4  0
  4 26  4  0
  6  7  4  0
  6 13  1  0
  7 19  4  0
  8 18  1  0
  8 23  1  0
  8 28  2  0
  9 17  1  0
  9 24  1  0
 10 11  1  0
 10 24  1  0
 11 23  1  0
 12 14  4  0
 12 16  4  0
 14 19  4  0
 15 18  4  0
 16 20  4  0
 17 25  1  0
 18 26  4  0
 19 29  4  0
 20 29  4  0
 21 23  1  0
 21 25  1  0
 27 29  4  0
M  END
$$$$

 Created by Python create_sdf_string function

 29 32  0  0  0  0  0  0  0  0999 V2000
    5.4450    8.7154   22.6662 C   0  0  0  0  0  0  0  0  0  0  0  0
   10.9154    5.4574   20.5483 C   0  0  0  0  0  0  0  0  0  0  0  0
    7.2709    4.5089   22.7542 C   0  0  0  0  0  0  0  0  0  0  0  0
    5.9698    7.6329   24.6581 C   0  0  0  0  0  0  0  0  0  0  0  0
    4.5542    8.9057   21.7104 O   0  0  0  0  0  0  0  0  0  0  0  0
    6.9895    3.2085   23.0690 C   0  0  0  0  0  0  0  0  0  0  0  0
    7.8391    2.2253   22.7260 N   0  0  0  0  0  0  0  0  0  0  0  0
    8.6968    9.8373   23.6359 C   0  0  0  0  0  0  0  0  0  0  0  0
   12.5135    6.5957   21.8396 C   0  0  0  0  0  0  0  0  0  0  0  0
   10.9406    8.2330   21.1350 C   0  0  0  0  0  0  0  0  0  0  0  0
    9.6648    8.5956   21.7310 C   0  0  0  0  0  0  0  0  0  0  0  0
   10.8829    1.7153   20.9865 C   0  0  0  0  0  0  0  0  0  0  0  0
    5.7768    2.8533   23.7910 C   0  0  0  0  0  0  0  0  0  0  0  0
    9.7977    1.4791   21.6912 N   0  0  0  0  0  0  0  0  0  0  0  0
    6.5976    9.3401   22.6478 N   0  0  0  0  0  0  0  0  0  0  0  0
   11.2031    3.0042   20.6246 C   0  0  0  0  0  0  0  0  0  0  0  0
   12.8688    7.7370   22.7287 C   0  0  0  0  0  0  0  0  0  0  0  0
    7.4487    9.1361   23.6506 C   0  0  0  0  0  0  0  0  0  0  0  0
    8.9772    2.5025   22.0273 C   0  0  0  0  0  0  0  0  0  0  0  0
   10.4859    4.0901   20.9730 C   0  0  0  0  0  0  0  0  0  0  0  0
   11.0962    9.3293   23.5072 C   0  0  0  0  0  0  0  0  0  0  0  0
    5.1273    7.8529   23.6208 N   0  0  0  0  0  0  0  0  0  0  0  0
    9.7552    9.2338   23.0171 N   0  0  0  0  0  0  0  0  0  0  0  0
   11.1797    6.7591   21.3326 N   0  0  0  0  0  0  0  0  0  0  0  0
   11.7728    8.0337   23.7267 C   0  0  0  0  0  0  0  0  0  0  0  0
    7.1194    8.3344   24.6775 C   0  0  0  0  0  0  0  0  0  0  0  0
    8.4311    4.7963   22.0500 C   0  0  0  0  0  0  0  0  0  0  0  0
    8.7393   10.8706   24.1871 O   0  0  0  0  0  0  0  0  0  0  0  0
    9.3093    3.8166   21.6712 C   0  0  0  0  0  0  0  0  0  0  0  0
  1  5  1  0
  1 15  4  0
  1 22  4  0
  2 20  1  0
  2 24  1  0
  3  6  4  0
  3 27  4  0
  4 22  4  0
  4 26  4  0
  6  7  4  0
  6 13  1  0
  7 19  4  0
  8 18  1  0
  8 23  1  0
  8 28  2  0
  9 17  1  0
  9 24  1  0
 10 11  1  0
 10 24  1  0
 11 23  1  0
 12 14  4  0
 12 16  4  0
 14 19  4  0
 15 18  4  0
 16 20  4  0
 17 25  1  0
 18 26  4  0
 19 29  4  0
 20 29  4  0
 21 23  1  0
 21 25  1  0
 27 29  4  0
M  END
$$$$

 Created by Python create_sdf_string function

 29 32  0  0  0  0  0  0  0  0999 V2000
    5.4450    8.7154   22.6662 C   0  0  0  0  0  0  0  0  0  0  0  0
   10.9154    5.4574   20.5483 C   0  0  0  0  0  0  0  0  0  0  0  0
    7.2709    4.5089   22.7542 C   0  0  0  0  0  0  0  0  0  0  0  0
    5.9698    7.6329   24.6581 C   0  0  0  0  0  0  0  0  0  0  0  0
    4.5542    8.9057   21.7104 O   0  0  0  0  0  0  0  0  0  0  0  0
    6.9895    3.2085   23.0690 C   0  0  0  0  0  0  0  0  0  0  0  0
    7.8391    2.2253   22.7260 N   0  0  0  0  0  0  0  0  0  0  0  0
    8.6968    9.8373   23.6359 C   0  0  0  0  0  0  0  0  0  0  0  0
   12.5135    6.5957   21.8396 C   0  0  0  0  0  0  0  0  0  0  0  0
   10.9406    8.2330   21.1350 C   0  0  0  0  0  0  0  0  0  0  0  0
    9.6648    8.5956   21.7310 C   0  0  0  0  0  0  0  0  0  0  0  0
   10.8829    1.7153   20.9865 C   0  0  0  0  0  0  0  0  0  0  0  0
    5.7768    2.8533   23.7910 C   0  0  0  0  0  0  0  0  0  0  0  0
    9.7977    1.4791   21.6912 N   0  0  0  0  0  0  0  0  0  0  0  0
    6.5976    9.3401   22.6478 N   0  0  0  0  0  0  0  0  0  0  0  0
   11.2031    3.0042   20.6246 C   0  0  0  0  0  0  0  0  0  0  0  0
   12.8688    7.7370   22.7287 C   0  0  0  0  0  0  0  0  0  0  0  0
    7.4487    9.1361   23.6506 C   0  0  0  0  0  0  0  0  0  0  0  0
    8.9772    2.5025   22.0273 C   0  0  0  0  0  0  0  0  0  0  0  0
   10.4859    4.0901   20.9730 C   0  0  0  0  0  0  0  0  0  0  0  0
   11.0962    9.3293   23.5072 C   0  0  0  0  0  0  0  0  0  0  0  0
    5.1273    7.8529   23.6208 N   0  0  0  0  0  0  0  0  0  0  0  0
    9.7552    9.2338   23.0171 N   0  0  0  0  0  0  0  0  0  0  0  0
   11.1797    6.7591   21.3326 N   0  0  0  0  0  0  0  0  0  0  0  0
   11.7728    8.0337   23.7267 C   0  0  0  0  0  0  0  0  0  0  0  0
    7.1194    8.3344   24.6775 C   0  0  0  0  0  0  0  0  0  0  0  0
    8.4311    4.7963   22.0500 C   0  0  0  0  0  0  0  0  0  0  0  0
    8.7393   10.8706   24.1871 O   0  0  0  0  0  0  0  0  0  0  0  0
    9.3093    3.8166   21.6712 C   0  0  0  0  0  0  0  0  0  0  0  0
  1  5  1  0
  1 15  4  0
  1 22  4  0
  2 20  1  0
  2 24  1  0
  3  6  4  0
  3 27  4  0
  4 22  4  0
  4 26  4  0
  6  7  4  0
  6 13  1  0
  7 19  4  0
  8 18  1  0
  8 23  1  0
  8 28  2  0
  9 17  1  0
  9 24  1  0
 10 11  1  0
 10 24  1  0
 11 23  1  0
 12 14  4  0
 12 16  4  0
 14 19  4  0
 15 18  4  0
 16 20  4  0
 17 25  1  0
 18 26  4  0
 19 29  4  0
 20 29  4  0
 21 23  1  0
 21 25  1  0
 27 29  4  0
M  END
$$$$

 Created by Python create_sdf_string function

 29 32  0  0  0  0  0  0  0  0999 V2000
    5.4450    8.7154   22.6662 C   0  0  0  0  0  0  0  0  0  0  0  0
   10.9154    5.4574   20.5483 C   0  0  0  0  0  0  0  0  0  0  0  0
    7.2709    4.5089   22.7542 C   0  0  0  0  0  0  0  0  0  0  0  0
    5.9698    7.6329   24.6581 C   0  0  0  0  0  0  0  0  0  0  0  0
    4.5542    8.9057   21.7104 O   0  0  0  0  0  0  0  0  0  0  0  0
    6.9895    3.2085   23.0690 C   0  0  0  0  0  0  0  0  0  0  0  0
    7.8391    2.2253   22.7260 N   0  0  0  0  0  0  0  0  0  0  0  0
    8.6968    9.8373   23.6359 C   0  0  0  0  0  0  0  0  0  0  0  0
   12.5135    6.5957   21.8396 C   0  0  0  0  0  0  0  0  0  0  0  0
   10.9406    8.2330   21.1350 C   0  0  0  0  0  0  0  0  0  0  0  0
    9.6648    8.5956   21.7310 C   0  0  0  0  0  0  0  0  0  0  0  0
   10.8829    1.7153   20.9865 C   0  0  0  0  0  0  0  0  0  0  0  0
    5.7768    2.8533   23.7910 C   0  0  0  0  0  0  0  0  0  0  0  0
    9.7977    1.4791   21.6912 N   0  0  0  0  0  0  0  0  0  0  0  0
    6.5976    9.3401   22.6478 N   0  0  0  0  0  0  0  0  0  0  0  0
   11.2031    3.0042   20.6246 C   0  0  0  0  0  0  0  0  0  0  0  0
   12.8688    7.7370   22.7287 C   0  0  0  0  0  0  0  0  0  0  0  0
    7.4487    9.1361   23.6506 C   0  0  0  0  0  0  0  0  0  0  0  0
    8.9772    2.5025   22.0273 C   0  0  0  0  0  0  0  0  0  0  0  0
   10.4859    4.0901   20.9730 C   0  0  0  0  0  0  0  0  0  0  0  0
   11.0962    9.3293   23.5072 C   0  0  0  0  0  0  0  0  0  0  0  0
    5.1273    7.8529   23.6208 N   0  0  0  0  0  0  0  0  0  0  0  0
    9.7552    9.2338   23.0171 N   0  0  0  0  0  0  0  0  0  0  0  0
   11.1797    6.7591   21.3326 N   0  0  0  0  0  0  0  0  0  0  0  0
   11.7728    8.0337   23.7267 C   0  0  0  0  0  0  0  0  0  0  0  0
    7.1194    8.3344   24.6775 C   0  0  0  0  0  0  0  0  0  0  0  0
    8.4311    4.7963   22.0500 C   0  0  0  0  0  0  0  0  0  0  0  0
    8.7393   10.8706   24.1871 O   0  0  0  0  0  0  0  0  0  0  0  0
    9.3093    3.8166   21.6712 C   0  0  0  0  0  0  0  0  0  0  0  0
  1  5  1  0
  1 15  4  0
  1 22  4  0
  2 20  1  0
  2 24  1  0
  3  6  4  0
  3 27  4  0
  4 22  4  0
  4 26  4  0
  6  7  4  0
  6 13  1  0
  7 19  4  0
  8 18  1  0
  8 23  1  0
  8 28  2  0
  9 17  1  0
  9 24  1  0
 10 11  1  0
 10 24  1  0
 11 23  1  0
 12 14  4  0
 12 16  4  0
 14 19  4  0
 15 18  4  0
 16 20  4  0
 17 25  1  0
 18 26  4  0
 19 29  4  0
 20 29  4  0
 21 23  1  0
 21 25  1  0
 27 29  4  0
M  END
$$$$

 Created by Python create_sdf_string function

 29 32  0  0  0  0  0  0  0  0999 V2000
    5.4450    8.7154   22.6662 C   0  0  0  0  0  0  0  0  0  0  0  0
   10.9154    5.4574   20.5483 C   0  0  0  0  0  0  0  0  0  0  0  0
    7.2709    4.5089   22.7542 C   0  0  0  0  0  0  0  0  0  0  0  0
    5.9698    7.6329   24.6581 C   0  0  0  0  0  0  0  0  0  0  0  0
    4.5542    8.9057   21.7104 O   0  0  0  0  0  0  0  0  0  0  0  0
    6.9895    3.2085   23.0690 C   0  0  0  0  0  0  0  0  0  0  0  0
    7.8391    2.2253   22.7260 N   0  0  0  0  0  0  0  0  0  0  0  0
    8.6968    9.8373   23.6359 C   0  0  0  0  0  0  0  0  0  0  0  0
   12.5135    6.5957   21.8396 C   0  0  0  0  0  0  0  0  0  0  0  0
   10.9406    8.2330   21.1350 C   0  0  0  0  0  0  0  0  0  0  0  0
    9.6648    8.5956   21.7310 C   0  0  0  0  0  0  0  0  0  0  0  0
   10.8829    1.7153   20.9865 C   0  0  0  0  0  0  0  0  0  0  0  0
    5.7768    2.8533   23.7910 C   0  0  0  0  0  0  0  0  0  0  0  0
    9.7977    1.4791   21.6912 N   0  0  0  0  0  0  0  0  0  0  0  0
    6.5976    9.3401   22.6478 N   0  0  0  0  0  0  0  0  0  0  0  0
   11.2031    3.0042   20.6246 C   0  0  0  0  0  0  0  0  0  0  0  0
   12.8688    7.7370   22.7287 C   0  0  0  0  0  0  0  0  0  0  0  0
    7.4487    9.1361   23.6506 C   0  0  0  0  0  0  0  0  0  0  0  0
    8.9772    2.5025   22.0273 C   0  0  0  0  0  0  0  0  0  0  0  0
   10.4859    4.0901   20.9730 C   0  0  0  0  0  0  0  0  0  0  0  0
   11.0962    9.3293   23.5072 C   0  0  0  0  0  0  0  0  0  0  0  0
    5.1273    7.8529   23.6208 N   0  0  0  0  0  0  0  0  0  0  0  0
    9.7552    9.2338   23.0171 N   0  0  0  0  0  0  0  0  0  0  0  0
   11.1797    6.7591   21.3326 N   0  0  0  0  0  0  0  0  0  0  0  0
   11.7728    8.0337   23.7267 C   0  0  0  0  0  0  0  0  0  0  0  0
    7.1194    8.3344   24.6775 C   0  0  0  0  0  0  0  0  0  0  0  0
    8.4311    4.7963   22.0500 C   0  0  0  0  0  0  0  0  0  0  0  0
    8.7393   10.8706   24.1871 O   0  0  0  0  0  0  0  0  0  0  0  0
    9.3093    3.8166   21.6712 C   0  0  0  0  0  0  0  0  0  0  0  0
  1  5  1  0
  1 15  4  0
  1 22  4  0
  2 20  1  0
  2 24  1  0
  3  6  4  0
  3 27  4  0
  4 22  4  0
  4 26  4  0
  6  7  4  0
  6 13  1  0
  7 19  4  0
  8 18  1  0
  8 23  1  0
  8 28  2  0
  9 17  1  0
  9 24  1  0
 10 11  1  0
 10 24  1  0
 11 23  1  0
 12 14  4  0
 12 16  4  0
 14 19  4  0
 15 18  4  0
 16 20  4  0
 17 25  1  0
 18 26  4  0
 19 29  4  0
 20 29  4  0
 21 23  1  0
 21 25  1  0
 27 29  4  0
M  END
$$$$

 Created by Python create_sdf_string function

 29 32  0  0  0  0  0  0  0  0999 V2000
    5.4450    8.7154   22.6662 C   0  0  0  0  0  0  0  0  0  0  0  0
   10.9154    5.4574   20.5483 C   0  0  0  0  0  0  0  0  0  0  0  0
    7.2709    4.5089   22.7542 C   0  0  0  0  0  0  0  0  0  0  0  0
    5.9698    7.6329   24.6581 C   0  0  0  0  0  0  0  0  0  0  0  0
    4.5542    8.9057   21.7104 O   0  0  0  0  0  0  0  0  0  0  0  0
    6.9895    3.2085   23.0690 C   0  0  0  0  0  0  0  0  0  0  0  0
    7.8391    2.2253   22.7260 N   0  0  0  0  0  0  0  0  0  0  0  0
    8.6968    9.8373   23.6359 C   0  0  0  0  0  0  0  0  0  0  0  0
   12.5135    6.5957   21.8396 C   0  0  0  0  0  0  0  0  0  0  0  0
   10.9406    8.2330   21.1350 C   0  0  0  0  0  0  0  0  0  0  0  0
    9.6648    8.5956   21.7310 C   0  0  0  0  0  0  0  0  0  0  0  0
   10.8829    1.7153   20.9865 C   0  0  0  0  0  0  0  0  0  0  0  0
    5.7768    2.8533   23.7910 C   0  0  0  0  0  0  0  0  0  0  0  0
    9.7977    1.4791   21.6912 N   0  0  0  0  0  0  0  0  0  0  0  0
    6.5976    9.3401   22.6478 N   0  0  0  0  0  0  0  0  0  0  0  0
   11.2031    3.0042   20.6246 C   0  0  0  0  0  0  0  0  0  0  0  0
   12.8688    7.7370   22.7287 C   0  0  0  0  0  0  0  0  0  0  0  0
    7.4487    9.1361   23.6506 C   0  0  0  0  0  0  0  0  0  0  0  0
    8.9772    2.5025   22.0273 C   0  0  0  0  0  0  0  0  0  0  0  0
   10.4859    4.0901   20.9730 C   0  0  0  0  0  0  0  0  0  0  0  0
   11.0962    9.3293   23.5072 C   0  0  0  0  0  0  0  0  0  0  0  0
    5.1273    7.8529   23.6208 N   0  0  0  0  0  0  0  0  0  0  0  0
    9.7552    9.2338   23.0171 N   0  0  0  0  0  0  0  0  0  0  0  0
   11.1797    6.7591   21.3326 N   0  0  0  0  0  0  0  0  0  0  0  0
   11.7728    8.0337   23.7267 C   0  0  0  0  0  0  0  0  0  0  0  0
    7.1194    8.3344   24.6775 C   0  0  0  0  0  0  0  0  0  0  0  0
    8.4311    4.7963   22.0500 C   0  0  0  0  0  0  0  0  0  0  0  0
    8.7393   10.8706   24.1871 O   0  0  0  0  0  0  0  0  0  0  0  0
    9.3093    3.8166   21.6712 C   0  0  0  0  0  0  0  0  0  0  0  0
  1  5  1  0
  1 15  4  0
  1 22  4  0
  2 20  1  0
  2 24  1  0
  3  6  4  0
  3 27  4  0
  4 22  4  0
  4 26  4  0
  6  7  4  0
  6 13  1  0
  7 19  4  0
  8 18  1  0
  8 23  1  0
  8 28  2  0
  9 17  1  0
  9 24  1  0
 10 11  1  0
 10 24  1  0
 11 23  1  0
 12 14  4  0
 12 16  4  0
 14 19  4  0
 15 18  4  0
 16 20  4  0
 17 25  1  0
 18 26  4  0
 19 29  4  0
 20 29  4  0
 21 23  1  0
 21 25  1  0
 27 29  4  0
M  END
$$$$

 Created by Python create_sdf_string function

 29 32  0  0  0  0  0  0  0  0999 V2000
    5.4450    8.7154   22.6662 C   0  0  0  0  0  0  0  0  0  0  0  0
   10.9154    5.4574   20.5483 C   0  0  0  0  0  0  0  0  0  0  0  0
    7.2709    4.5089   22.7542 C   0  0  0  0  0  0  0  0  0  0  0  0
    5.9698    7.6329   24.6581 C   0  0  0  0  0  0  0  0  0  0  0  0
    4.5542    8.9057   21.7104 O   0  0  0  0  0  0  0  0  0  0  0  0
    6.9895    3.2085   23.0690 C   0  0  0  0  0  0  0  0  0  0  0  0
    7.8391    2.2253   22.7260 N   0  0  0  0  0  0  0  0  0  0  0  0
    8.6968    9.8373   23.6359 C   0  0  0  0  0  0  0  0  0  0  0  0
   12.5135    6.5957   21.8396 C   0  0  0  0  0  0  0  0  0  0  0  0
   10.9406    8.2330   21.1350 C   0  0  0  0  0  0  0  0  0  0  0  0
    9.6648    8.5956   21.7310 C   0  0  0  0  0  0  0  0  0  0  0  0
   10.8829    1.7153   20.9865 C   0  0  0  0  0  0  0  0  0  0  0  0
    5.7768    2.8533   23.7910 C   0  0  0  0  0  0  0  0  0  0  0  0
    9.7977    1.4791   21.6912 N   0  0  0  0  0  0  0  0  0  0  0  0
    6.5976    9.3401   22.6478 N   0  0  0  0  0  0  0  0  0  0  0  0
   11.2031    3.0042   20.6246 C   0  0  0  0  0  0  0  0  0  0  0  0
   12.8688    7.7370   22.7287 C   0  0  0  0  0  0  0  0  0  0  0  0
    7.4487    9.1361   23.6506 C   0  0  0  0  0  0  0  0  0  0  0  0
    8.9772    2.5025   22.0273 C   0  0  0  0  0  0  0  0  0  0  0  0
   10.4859    4.0901   20.9730 C   0  0  0  0  0  0  0  0  0  0  0  0
   11.0962    9.3293   23.5072 C   0  0  0  0  0  0  0  0  0  0  0  0
    5.1273    7.8529   23.6208 N   0  0  0  0  0  0  0  0  0  0  0  0
    9.7552    9.2338   23.0171 N   0  0  0  0  0  0  0  0  0  0  0  0
   11.1797    6.7591   21.3326 N   0  0  0  0  0  0  0  0  0  0  0  0
   11.7728    8.0337   23.7267 C   0  0  0  0  0  0  0  0  0  0  0  0
    7.1194    8.3344   24.6775 C   0  0  0  0  0  0  0  0  0  0  0  0
    8.4311    4.7963   22.0500 C   0  0  0  0  0  0  0  0  0  0  0  0
    8.7393   10.8706   24.1871 O   0  0  0  0  0  0  0  0  0  0  0  0
    9.3093    3.8166   21.6712 C   0  0  0  0  0  0  0  0  0  0  0  0
  1  5  1  0
  1 15  4  0
  1 22  4  0
  2 20  1  0
  2 24  1  0
  3  6  4  0
  3 27  4  0
  4 22  4  0
  4 26  4  0
  6  7  4  0
  6 13  1  0
  7 19  4  0
  8 18  1  0
  8 23  1  0
  8 28  2  0
  9 17  1  0
  9 24  1  0
 10 11  1  0
 10 24  1  0
 11 23  1  0
 12 14  4  0
 12 16  4  0
 14 19  4  0
 15 18  4  0
 16 20  4  0
 17 25  1  0
 18 26  4  0
 19 29  4  0
 20 29  4  0
 21 23  1  0
 21 25  1  0
 27 29  4  0
M  END
$$$$

 Created by Python create_sdf_string function

 29 32  0  0  0  0  0  0  0  0999 V2000
    5.4450    8.7154   22.6662 C   0  0  0  0  0  0  0  0  0  0  0  0
   10.9154    5.4574   20.5483 C   0  0  0  0  0  0  0  0  0  0  0  0
    7.2709    4.5089   22.7542 C   0  0  0  0  0  0  0  0  0  0  0  0
    5.9698    7.6329   24.6581 C   0  0  0  0  0  0  0  0  0  0  0  0
    4.5542    8.9057   21.7104 O   0  0  0  0  0  0  0  0  0  0  0  0
    6.9895    3.2085   23.0690 C   0  0  0  0  0  0  0  0  0  0  0  0
    7.8391    2.2253   22.7260 N   0  0  0  0  0  0  0  0  0  0  0  0
    8.6968    9.8373   23.6359 C   0  0  0  0  0  0  0  0  0  0  0  0
   12.5135    6.5957   21.8396 C   0  0  0  0  0  0  0  0  0  0  0  0
   10.9406    8.2330   21.1350 C   0  0  0  0  0  0  0  0  0  0  0  0
    9.6648    8.5956   21.7310 C   0  0  0  0  0  0  0  0  0  0  0  0
   10.8829    1.7153   20.9865 C   0  0  0  0  0  0  0  0  0  0  0  0
    5.7768    2.8533   23.7910 C   0  0  0  0  0  0  0  0  0  0  0  0
    9.7977    1.4791   21.6912 N   0  0  0  0  0  0  0  0  0  0  0  0
    6.5976    9.3401   22.6478 N   0  0  0  0  0  0  0  0  0  0  0  0
   11.2031    3.0042   20.6246 C   0  0  0  0  0  0  0  0  0  0  0  0
   12.8688    7.7370   22.7287 C   0  0  0  0  0  0  0  0  0  0  0  0
    7.4487    9.1361   23.6506 C   0  0  0  0  0  0  0  0  0  0  0  0
    8.9772    2.5025   22.0273 C   0  0  0  0  0  0  0  0  0  0  0  0
   10.4859    4.0901   20.9730 C   0  0  0  0  0  0  0  0  0  0  0  0
   11.0962    9.3293   23.5072 C   0  0  0  0  0  0  0  0  0  0  0  0
    5.1273    7.8529   23.6208 N   0  0  0  0  0  0  0  0  0  0  0  0
    9.7552    9.2338   23.0171 N   0  0  0  0  0  0  0  0  0  0  0  0
   11.1797    6.7591   21.3326 N   0  0  0  0  0  0  0  0  0  0  0  0
   11.7728    8.0337   23.7267 C   0  0  0  0  0  0  0  0  0  0  0  0
    7.1194    8.3344   24.6775 C   0  0  0  0  0  0  0  0  0  0  0  0
    8.4311    4.7963   22.0500 C   0  0  0  0  0  0  0  0  0  0  0  0
    8.7393   10.8706   24.1871 O   0  0  0  0  0  0  0  0  0  0  0  0
    9.3093    3.8166   21.6712 C   0  0  0  0  0  0  0  0  0  0  0  0
  1  5  1  0
  1 15  4  0
  1 22  4  0
  2 20  1  0
  2 24  1  0
  3  6  4  0
  3 27  4  0
  4 22  4  0
  4 26  4  0
  6  7  4  0
  6 13  1  0
  7 19  4  0
  8 18  1  0
  8 23  1  0
  8 28  2  0
  9 17  1  0
  9 24  1  0
 10 11  1  0
 10 24  1  0
 11 23  1  0
 12 14  4  0
 12 16  4  0
 14 19  4  0
 15 18  4  0
 16 20  4  0
 17 25  1  0
 18 26  4  0
 19 29  4  0
 20 29  4  0
 21 23  1  0
 21 25  1  0
 27 29  4  0
M  END
$$$$

 Created by Python create_sdf_string function

 29 32  0  0  0  0  0  0  0  0999 V2000
    5.4450    8.7154   22.6662 C   0  0  0  0  0  0  0  0  0  0  0  0
   10.9154    5.4574   20.5483 C   0  0  0  0  0  0  0  0  0  0  0  0
    7.2709    4.5089   22.7542 C   0  0  0  0  0  0  0  0  0  0  0  0
    5.9698    7.6329   24.6581 C   0  0  0  0  0  0  0  0  0  0  0  0
    4.5542    8.9057   21.7104 O   0  0  0  0  0  0  0  0  0  0  0  0
    6.9895    3.2085   23.0690 C   0  0  0  0  0  0  0  0  0  0  0  0
    7.8391    2.2253   22.7260 N   0  0  0  0  0  0  0  0  0  0  0  0
    8.6968    9.8373   23.6359 C   0  0  0  0  0  0  0  0  0  0  0  0
   12.5135    6.5957   21.8396 C   0  0  0  0  0  0  0  0  0  0  0  0
   10.9406    8.2330   21.1350 C   0  0  0  0  0  0  0  0  0  0  0  0
    9.6648    8.5956   21.7310 C   0  0  0  0  0  0  0  0  0  0  0  0
   10.8829    1.7153   20.9865 C   0  0  0  0  0  0  0  0  0  0  0  0
    5.7768    2.8533   23.7910 C   0  0  0  0  0  0  0  0  0  0  0  0
    9.7977    1.4791   21.6912 N   0  0  0  0  0  0  0  0  0  0  0  0
    6.5976    9.3401   22.6478 N   0  0  0  0  0  0  0  0  0  0  0  0
   11.2031    3.0042   20.6246 C   0  0  0  0  0  0  0  0  0  0  0  0
   12.8688    7.7370   22.7287 C   0  0  0  0  0  0  0  0  0  0  0  0
    7.4487    9.1361   23.6506 C   0  0  0  0  0  0  0  0  0  0  0  0
    8.9772    2.5025   22.0273 C   0  0  0  0  0  0  0  0  0  0  0  0
   10.4859    4.0901   20.9730 C   0  0  0  0  0  0  0  0  0  0  0  0
   11.0962    9.3293   23.5072 C   0  0  0  0  0  0  0  0  0  0  0  0
    5.1273    7.8529   23.6208 N   0  0  0  0  0  0  0  0  0  0  0  0
    9.7552    9.2338   23.0171 N   0  0  0  0  0  0  0  0  0  0  0  0
   11.1797    6.7591   21.3326 N   0  0  0  0  0  0  0  0  0  0  0  0
   11.7728    8.0337   23.7267 C   0  0  0  0  0  0  0  0  0  0  0  0
    7.1194    8.3344   24.6775 C   0  0  0  0  0  0  0  0  0  0  0  0
    8.4311    4.7963   22.0500 C   0  0  0  0  0  0  0  0  0  0  0  0
    8.7393   10.8706   24.1871 O   0  0  0  0  0  0  0  0  0  0  0  0
    9.3093    3.8166   21.6712 C   0  0  0  0  0  0  0  0  0  0  0  0
  1  5  1  0
  1 15  4  0
  1 22  4  0
  2 20  1  0
  2 24  1  0
  3  6  4  0
  3 27  4  0
  4 22  4  0
  4 26  4  0
  6  7  4  0
  6 13  1  0
  7 19  4  0
  8 18  1  0
  8 23  1  0
  8 28  2  0
  9 17  1  0
  9 24  1  0
 10 11  1  0
 10 24  1  0
 11 23  1  0
 12 14  4  0
 12 16  4  0
 14 19  4  0
 15 18  4  0
 16 20  4  0
 17 25  1  0
 18 26  4  0
 19 29  4  0
 20 29  4  0
 21 23  1  0
 21 25  1  0
 27 29  4  0
M  END
$$$$

 Created by Python create_sdf_string function

 29 32  0  0  0  0  0  0  0  0999 V2000
    5.4450    8.7154   22.6662 C   0  0  0  0  0  0  0  0  0  0  0  0
   10.9154    5.4574   20.5483 C   0  0  0  0  0  0  0  0  0  0  0  0
    7.2709    4.5089   22.7542 C   0  0  0  0  0  0  0  0  0  0  0  0
    5.9698    7.6329   24.6581 C   0  0  0  0  0  0  0  0  0  0  0  0
    4.5542    8.9057   21.7104 O   0  0  0  0  0  0  0  0  0  0  0  0
    6.9895    3.2085   23.0690 C   0  0  0  0  0  0  0  0  0  0  0  0
    7.8391    2.2253   22.7260 N   0  0  0  0  0  0  0  0  0  0  0  0
    8.6968    9.8373   23.6359 C   0  0  0  0  0  0  0  0  0  0  0  0
   12.5135    6.5957   21.8396 C   0  0  0  0  0  0  0  0  0  0  0  0
   10.9406    8.2330   21.1350 C   0  0  0  0  0  0  0  0  0  0  0  0
    9.6648    8.5956   21.7310 C   0  0  0  0  0  0  0  0  0  0  0  0
   10.8829    1.7153   20.9865 C   0  0  0  0  0  0  0  0  0  0  0  0
    5.7768    2.8533   23.7910 C   0  0  0  0  0  0  0  0  0  0  0  0
    9.7977    1.4791   21.6912 N   0  0  0  0  0  0  0  0  0  0  0  0
    6.5976    9.3401   22.6478 N   0  0  0  0  0  0  0  0  0  0  0  0
   11.2031    3.0042   20.6246 C   0  0  0  0  0  0  0  0  0  0  0  0
   12.8688    7.7370   22.7287 C   0  0  0  0  0  0  0  0  0  0  0  0
    7.4487    9.1361   23.6506 C   0  0  0  0  0  0  0  0  0  0  0  0
    8.9772    2.5025   22.0273 C   0  0  0  0  0  0  0  0  0  0  0  0
   10.4859    4.0901   20.9730 C   0  0  0  0  0  0  0  0  0  0  0  0
   11.0962    9.3293   23.5072 C   0  0  0  0  0  0  0  0  0  0  0  0
    5.1273    7.8529   23.6208 N   0  0  0  0  0  0  0  0  0  0  0  0
    9.7552    9.2338   23.0171 N   0  0  0  0  0  0  0  0  0  0  0  0
   11.1797    6.7591   21.3326 N   0  0  0  0  0  0  0  0  0  0  0  0
   11.7728    8.0337   23.7267 C   0  0  0  0  0  0  0  0  0  0  0  0
    7.1194    8.3344   24.6775 C   0  0  0  0  0  0  0  0  0  0  0  0
    8.4311    4.7963   22.0500 C   0  0  0  0  0  0  0  0  0  0  0  0
    8.7393   10.8706   24.1871 O   0  0  0  0  0  0  0  0  0  0  0  0
    9.3093    3.8166   21.6712 C   0  0  0  0  0  0  0  0  0  0  0  0
  1  5  1  0
  1 15  4  0
  1 22  4  0
  2 20  1  0
  2 24  1  0
  3  6  4  0
  3 27  4  0
  4 22  4  0
  4 26  4  0
  6  7  4  0
  6 13  1  0
  7 19  4  0
  8 18  1  0
  8 23  1  0
  8 28  2  0
  9 17  1  0
  9 24  1  0
 10 11  1  0
 10 24  1  0
 11 23  1  0
 12 14  4  0
 12 16  4  0
 14 19  4  0
 15 18  4  0
 16 20  4  0
 17 25  1  0
 18 26  4  0
 19 29  4  0
 20 29  4  0
 21 23  1  0
 21 25  1  0
 27 29  4  0
M  END
$$$$

 Created by Python create_sdf_string function

 29 32  0  0  0  0  0  0  0  0999 V2000
    5.4450    8.7154   22.6662 C   0  0  0  0  0  0  0  0  0  0  0  0
   10.9154    5.4574   20.5483 C   0  0  0  0  0  0  0  0  0  0  0  0
    7.2709    4.5089   22.7542 C   0  0  0  0  0  0  0  0  0  0  0  0
    5.9698    7.6329   24.6581 C   0  0  0  0  0  0  0  0  0  0  0  0
    4.5542    8.9057   21.7104 O   0  0  0  0  0  0  0  0  0  0  0  0
    6.9895    3.2085   23.0690 C   0  0  0  0  0  0  0  0  0  0  0  0
    7.8391    2.2253   22.7260 N   0  0  0  0  0  0  0  0  0  0  0  0
    8.6968    9.8373   23.6359 C   0  0  0  0  0  0  0  0  0  0  0  0
   12.5135    6.5957   21.8396 C   0  0  0  0  0  0  0  0  0  0  0  0
   10.9406    8.2330   21.1350 C   0  0  0  0  0  0  0  0  0  0  0  0
    9.6648    8.5956   21.7310 C   0  0  0  0  0  0  0  0  0  0  0  0
   10.8829    1.7153   20.9865 C   0  0  0  0  0  0  0  0  0  0  0  0
    5.7768    2.8533   23.7910 C   0  0  0  0  0  0  0  0  0  0  0  0
    9.7977    1.4791   21.6912 N   0  0  0  0  0  0  0  0  0  0  0  0
    6.5976    9.3401   22.6478 N   0  0  0  0  0  0  0  0  0  0  0  0
   11.2031    3.0042   20.6246 C   0  0  0  0  0  0  0  0  0  0  0  0
   12.8688    7.7370   22.7287 C   0  0  0  0  0  0  0  0  0  0  0  0
    7.4487    9.1361   23.6506 C   0  0  0  0  0  0  0  0  0  0  0  0
    8.9772    2.5025   22.0273 C   0  0  0  0  0  0  0  0  0  0  0  0
   10.4859    4.0901   20.9730 C   0  0  0  0  0  0  0  0  0  0  0  0
   11.0962    9.3293   23.5072 C   0  0  0  0  0  0  0  0  0  0  0  0
    5.1273    7.8529   23.6208 N   0  0  0  0  0  0  0  0  0  0  0  0
    9.7552    9.2338   23.0171 N   0  0  0  0  0  0  0  0  0  0  0  0
   11.1797    6.7591   21.3326 N   0  0  0  0  0  0  0  0  0  0  0  0
   11.7728    8.0337   23.7267 C   0  0  0  0  0  0  0  0  0  0  0  0
    7.1194    8.3344   24.6775 C   0  0  0  0  0  0  0  0  0  0  0  0
    8.4311    4.7963   22.0500 C   0  0  0  0  0  0  0  0  0  0  0  0
    8.7393   10.8706   24.1871 O   0  0  0  0  0  0  0  0  0  0  0  0
    9.3093    3.8166   21.6712 C   0  0  0  0  0  0  0  0  0  0  0  0
  1  5  1  0
  1 15  4  0
  1 22  4  0
  2 20  1  0
  2 24  1  0
  3  6  4  0
  3 27  4  0
  4 22  4  0
  4 26  4  0
  6  7  4  0
  6 13  1  0
  7 19  4  0
  8 18  1  0
  8 23  1  0
  8 28  2  0
  9 17  1  0
  9 24  1  0
 10 11  1  0
 10 24  1  0
 11 23  1  0
 12 14  4  0
 12 16  4  0
 14 19  4  0
 15 18  4  0
 16 20  4  0
 17 25  1  0
 18 26  4  0
 19 29  4  0
 20 29  4  0
 21 23  1  0
 21 25  1  0
 27 29  4  0
M  END
$$$$

 Created by Python create_sdf_string function

 29 32  0  0  0  0  0  0  0  0999 V2000
    5.4450    8.7154   22.6662 C   0  0  0  0  0  0  0  0  0  0  0  0
   10.9154    5.4574   20.5483 C   0  0  0  0  0  0  0  0  0  0  0  0
    7.2709    4.5089   22.7542 C   0  0  0  0  0  0  0  0  0  0  0  0
    5.9698    7.6329   24.6581 C   0  0  0  0  0  0  0  0  0  0  0  0
    4.5542    8.9057   21.7104 O   0  0  0  0  0  0  0  0  0  0  0  0
    6.9895    3.2085   23.0690 C   0  0  0  0  0  0  0  0  0  0  0  0
    7.8391    2.2253   22.7260 N   0  0  0  0  0  0  0  0  0  0  0  0
    8.6968    9.8373   23.6359 C   0  0  0  0  0  0  0  0  0  0  0  0
   12.5135    6.5957   21.8396 C   0  0  0  0  0  0  0  0  0  0  0  0
   10.9406    8.2330   21.1350 C   0  0  0  0  0  0  0  0  0  0  0  0
    9.6648    8.5956   21.7310 C   0  0  0  0  0  0  0  0  0  0  0  0
   10.8829    1.7153   20.9865 C   0  0  0  0  0  0  0  0  0  0  0  0
    5.7768    2.8533   23.7910 C   0  0  0  0  0  0  0  0  0  0  0  0
    9.7977    1.4791   21.6912 N   0  0  0  0  0  0  0  0  0  0  0  0
    6.5976    9.3401   22.6478 N   0  0  0  0  0  0  0  0  0  0  0  0
   11.2031    3.0042   20.6246 C   0  0  0  0  0  0  0  0  0  0  0  0
   12.8688    7.7370   22.7287 C   0  0  0  0  0  0  0  0  0  0  0  0
    7.4487    9.1361   23.6506 C   0  0  0  0  0  0  0  0  0  0  0  0
    8.9772    2.5025   22.0273 C   0  0  0  0  0  0  0  0  0  0  0  0
   10.4859    4.0901   20.9730 C   0  0  0  0  0  0  0  0  0  0  0  0
   11.0962    9.3293   23.5072 C   0  0  0  0  0  0  0  0  0  0  0  0
    5.1273    7.8529   23.6208 N   0  0  0  0  0  0  0  0  0  0  0  0
    9.7552    9.2338   23.0171 N   0  0  0  0  0  0  0  0  0  0  0  0
   11.1797    6.7591   21.3326 N   0  0  0  0  0  0  0  0  0  0  0  0
   11.7728    8.0337   23.7267 C   0  0  0  0  0  0  0  0  0  0  0  0
    7.1194    8.3344   24.6775 C   0  0  0  0  0  0  0  0  0  0  0  0
    8.4311    4.7963   22.0500 C   0  0  0  0  0  0  0  0  0  0  0  0
    8.7393   10.8706   24.1871 O   0  0  0  0  0  0  0  0  0  0  0  0
    9.3093    3.8166   21.6712 C   0  0  0  0  0  0  0  0  0  0  0  0
  1  5  1  0
  1 15  4  0
  1 22  4  0
  2 20  1  0
  2 24  1  0
  3  6  4  0
  3 27  4  0
  4 22  4  0
  4 26  4  0
  6  7  4  0
  6 13  1  0
  7 19  4  0
  8 18  1  0
  8 23  1  0
  8 28  2  0
  9 17  1  0
  9 24  1  0
 10 11  1  0
 10 24  1  0
 11 23  1  0
 12 14  4  0
 12 16  4  0
 14 19  4  0
 15 18  4  0
 16 20  4  0
 17 25  1  0
 18 26  4  0
 19 29  4  0
 20 29  4  0
 21 23  1  0
 21 25  1  0
 27 29  4  0
M  END
$$$$

 Created by Python create_sdf_string function

 29 32  0  0  0  0  0  0  0  0999 V2000
    5.4450    8.7154   22.6662 C   0  0  0  0  0  0  0  0  0  0  0  0
   10.9154    5.4574   20.5483 C   0  0  0  0  0  0  0  0  0  0  0  0
    7.2709    4.5089   22.7542 C   0  0  0  0  0  0  0  0  0  0  0  0
    5.9698    7.6329   24.6581 C   0  0  0  0  0  0  0  0  0  0  0  0
    4.5542    8.9057   21.7104 O   0  0  0  0  0  0  0  0  0  0  0  0
    6.9895    3.2085   23.0690 C   0  0  0  0  0  0  0  0  0  0  0  0
    7.8391    2.2253   22.7260 N   0  0  0  0  0  0  0  0  0  0  0  0
    8.6968    9.8373   23.6359 C   0  0  0  0  0  0  0  0  0  0  0  0
   12.5135    6.5957   21.8396 C   0  0  0  0  0  0  0  0  0  0  0  0
   10.9406    8.2330   21.1350 C   0  0  0  0  0  0  0  0  0  0  0  0
    9.6648    8.5956   21.7310 C   0  0  0  0  0  0  0  0  0  0  0  0
   10.8829    1.7153   20.9865 C   0  0  0  0  0  0  0  0  0  0  0  0
    5.7768    2.8533   23.7910 C   0  0  0  0  0  0  0  0  0  0  0  0
    9.7977    1.4791   21.6912 N   0  0  0  0  0  0  0  0  0  0  0  0
    6.5976    9.3401   22.6478 N   0  0  0  0  0  0  0  0  0  0  0  0
   11.2031    3.0042   20.6246 C   0  0  0  0  0  0  0  0  0  0  0  0
   12.8688    7.7370   22.7287 C   0  0  0  0  0  0  0  0  0  0  0  0
    7.4487    9.1361   23.6506 C   0  0  0  0  0  0  0  0  0  0  0  0
    8.9772    2.5025   22.0273 C   0  0  0  0  0  0  0  0  0  0  0  0
   10.4859    4.0901   20.9730 C   0  0  0  0  0  0  0  0  0  0  0  0
   11.0962    9.3293   23.5072 C   0  0  0  0  0  0  0  0  0  0  0  0
    5.1273    7.8529   23.6208 N   0  0  0  0  0  0  0  0  0  0  0  0
    9.7552    9.2338   23.0171 N   0  0  0  0  0  0  0  0  0  0  0  0
   11.1797    6.7591   21.3326 N   0  0  0  0  0  0  0  0  0  0  0  0
   11.7728    8.0337   23.7267 C   0  0  0  0  0  0  0  0  0  0  0  0
    7.1194    8.3344   24.6775 C   0  0  0  0  0  0  0  0  0  0  0  0
    8.4311    4.7963   22.0500 C   0  0  0  0  0  0  0  0  0  0  0  0
    8.7393   10.8706   24.1871 O   0  0  0  0  0  0  0  0  0  0  0  0
    9.3093    3.8166   21.6712 C   0  0  0  0  0  0  0  0  0  0  0  0
  1  5  1  0
  1 15  4  0
  1 22  4  0
  2 20  1  0
  2 24  1  0
  3  6  4  0
  3 27  4  0
  4 22  4  0
  4 26  4  0
  6  7  4  0
  6 13  1  0
  7 19  4  0
  8 18  1  0
  8 23  1  0
  8 28  2  0
  9 17  1  0
  9 24  1  0
 10 11  1  0
 10 24  1  0
 11 23  1  0
 12 14  4  0
 12 16  4  0
 14 19  4  0
 15 18  4  0
 16 20  4  0
 17 25  1  0
 18 26  4  0
 19 29  4  0
 20 29  4  0
 21 23  1  0
 21 25  1  0
 27 29  4  0
M  END
$$$$

 Created by Python create_sdf_string function

 29 32  0  0  0  0  0  0  0  0999 V2000
    5.4450    8.7154   22.6662 C   0  0  0  0  0  0  0  0  0  0  0  0
   10.9154    5.4574   20.5483 C   0  0  0  0  0  0  0  0  0  0  0  0
    7.2709    4.5089   22.7542 C   0  0  0  0  0  0  0  0  0  0  0  0
    5.9698    7.6329   24.6581 C   0  0  0  0  0  0  0  0  0  0  0  0
    4.5542    8.9057   21.7104 O   0  0  0  0  0  0  0  0  0  0  0  0
    6.9895    3.2085   23.0690 C   0  0  0  0  0  0  0  0  0  0  0  0
    7.8391    2.2253   22.7260 N   0  0  0  0  0  0  0  0  0  0  0  0
    8.6968    9.8373   23.6359 C   0  0  0  0  0  0  0  0  0  0  0  0
   12.5135    6.5957   21.8396 C   0  0  0  0  0  0  0  0  0  0  0  0
   10.9406    8.2330   21.1350 C   0  0  0  0  0  0  0  0  0  0  0  0
    9.6648    8.5956   21.7310 C   0  0  0  0  0  0  0  0  0  0  0  0
   10.8829    1.7153   20.9865 C   0  0  0  0  0  0  0  0  0  0  0  0
    5.7768    2.8533   23.7910 C   0  0  0  0  0  0  0  0  0  0  0  0
    9.7977    1.4791   21.6912 N   0  0  0  0  0  0  0  0  0  0  0  0
    6.5976    9.3401   22.6478 N   0  0  0  0  0  0  0  0  0  0  0  0
   11.2031    3.0042   20.6246 C   0  0  0  0  0  0  0  0  0  0  0  0
   12.8688    7.7370   22.7287 C   0  0  0  0  0  0  0  0  0  0  0  0
    7.4487    9.1361   23.6506 C   0  0  0  0  0  0  0  0  0  0  0  0
    8.9772    2.5025   22.0273 C   0  0  0  0  0  0  0  0  0  0  0  0
   10.4859    4.0901   20.9730 C   0  0  0  0  0  0  0  0  0  0  0  0
   11.0962    9.3293   23.5072 C   0  0  0  0  0  0  0  0  0  0  0  0
    5.1273    7.8529   23.6208 N   0  0  0  0  0  0  0  0  0  0  0  0
    9.7552    9.2338   23.0171 N   0  0  0  0  0  0  0  0  0  0  0  0
   11.1797    6.7591   21.3326 N   0  0  0  0  0  0  0  0  0  0  0  0
   11.7728    8.0337   23.7267 C   0  0  0  0  0  0  0  0  0  0  0  0
    7.1194    8.3344   24.6775 C   0  0  0  0  0  0  0  0  0  0  0  0
    8.4311    4.7963   22.0500 C   0  0  0  0  0  0  0  0  0  0  0  0
    8.7393   10.8706   24.1871 O   0  0  0  0  0  0  0  0  0  0  0  0
    9.3093    3.8166   21.6712 C   0  0  0  0  0  0  0  0  0  0  0  0
  1  5  1  0
  1 15  4  0
  1 22  4  0
  2 20  1  0
  2 24  1  0
  3  6  4  0
  3 27  4  0
  4 22  4  0
  4 26  4  0
  6  7  4  0
  6 13  1  0
  7 19  4  0
  8 18  1  0
  8 23  1  0
  8 28  2  0
  9 17  1  0
  9 24  1  0
 10 11  1  0
 10 24  1  0
 11 23  1  0
 12 14  4  0
 12 16  4  0
 14 19  4  0
 15 18  4  0
 16 20  4  0
 17 25  1  0
 18 26  4  0
 19 29  4  0
 20 29  4  0
 21 23  1  0
 21 25  1  0
 27 29  4  0
M  END
$$$$

 Created by Python create_sdf_string function

 29 32  0  0  0  0  0  0  0  0999 V2000
    5.4450    8.7154   22.6662 C   0  0  0  0  0  0  0  0  0  0  0  0
   10.9154    5.4574   20.5483 C   0  0  0  0  0  0  0  0  0  0  0  0
    7.2709    4.5089   22.7542 C   0  0  0  0  0  0  0  0  0  0  0  0
    5.9698    7.6329   24.6581 C   0  0  0  0  0  0  0  0  0  0  0  0
    4.5542    8.9057   21.7104 O   0  0  0  0  0  0  0  0  0  0  0  0
    6.9895    3.2085   23.0690 C   0  0  0  0  0  0  0  0  0  0  0  0
    7.8391    2.2253   22.7260 N   0  0  0  0  0  0  0  0  0  0  0  0
    8.6968    9.8373   23.6359 C   0  0  0  0  0  0  0  0  0  0  0  0
   12.5135    6.5957   21.8396 C   0  0  0  0  0  0  0  0  0  0  0  0
   10.9406    8.2330   21.1350 C   0  0  0  0  0  0  0  0  0  0  0  0
    9.6648    8.5956   21.7310 C   0  0  0  0  0  0  0  0  0  0  0  0
   10.8829    1.7153   20.9865 C   0  0  0  0  0  0  0  0  0  0  0  0
    5.7768    2.8533   23.7910 C   0  0  0  0  0  0  0  0  0  0  0  0
    9.7977    1.4791   21.6912 N   0  0  0  0  0  0  0  0  0  0  0  0
    6.5976    9.3401   22.6478 N   0  0  0  0  0  0  0  0  0  0  0  0
   11.2031    3.0042   20.6246 C   0  0  0  0  0  0  0  0  0  0  0  0
   12.8688    7.7370   22.7287 C   0  0  0  0  0  0  0  0  0  0  0  0
    7.4487    9.1361   23.6506 C   0  0  0  0  0  0  0  0  0  0  0  0
    8.9772    2.5025   22.0273 C   0  0  0  0  0  0  0  0  0  0  0  0
   10.4859    4.0901   20.9730 C   0  0  0  0  0  0  0  0  0  0  0  0
   11.0962    9.3293   23.5072 C   0  0  0  0  0  0  0  0  0  0  0  0
    5.1273    7.8529   23.6208 N   0  0  0  0  0  0  0  0  0  0  0  0
    9.7552    9.2338   23.0171 N   0  0  0  0  0  0  0  0  0  0  0  0
   11.1797    6.7591   21.3326 N   0  0  0  0  0  0  0  0  0  0  0  0
   11.7728    8.0337   23.7267 C   0  0  0  0  0  0  0  0  0  0  0  0
    7.1194    8.3344   24.6775 C   0  0  0  0  0  0  0  0  0  0  0  0
    8.4311    4.7963   22.0500 C   0  0  0  0  0  0  0  0  0  0  0  0
    8.7393   10.8706   24.1871 O   0  0  0  0  0  0  0  0  0  0  0  0
    9.3093    3.8166   21.6712 C   0  0  0  0  0  0  0  0  0  0  0  0
  1  5  1  0
  1 15  4  0
  1 22  4  0
  2 20  1  0
  2 24  1  0
  3  6  4  0
  3 27  4  0
  4 22  4  0
  4 26  4  0
  6  7  4  0
  6 13  1  0
  7 19  4  0
  8 18  1  0
  8 23  1  0
  8 28  2  0
  9 17  1  0
  9 24  1  0
 10 11  1  0
 10 24  1  0
 11 23  1  0
 12 14  4  0
 12 16  4  0
 14 19  4  0
 15 18  4  0
 16 20  4  0
 17 25  1  0
 18 26  4  0
 19 29  4  0
 20 29  4  0
 21 23  1  0
 21 25  1  0
 27 29  4  0
M  END
$$$$

 Created by Python create_sdf_string function

 29 32  0  0  0  0  0  0  0  0999 V2000
    5.4450    8.7154   22.6662 C   0  0  0  0  0  0  0  0  0  0  0  0
   10.9154    5.4574   20.5483 C   0  0  0  0  0  0  0  0  0  0  0  0
    7.2709    4.5089   22.7542 C   0  0  0  0  0  0  0  0  0  0  0  0
    5.9698    7.6329   24.6581 C   0  0  0  0  0  0  0  0  0  0  0  0
    4.5542    8.9057   21.7104 O   0  0  0  0  0  0  0  0  0  0  0  0
    6.9895    3.2085   23.0690 C   0  0  0  0  0  0  0  0  0  0  0  0
    7.8391    2.2253   22.7260 N   0  0  0  0  0  0  0  0  0  0  0  0
    8.6968    9.8373   23.6359 C   0  0  0  0  0  0  0  0  0  0  0  0
   12.5135    6.5957   21.8396 C   0  0  0  0  0  0  0  0  0  0  0  0
   10.9406    8.2330   21.1350 C   0  0  0  0  0  0  0  0  0  0  0  0
    9.6648    8.5956   21.7310 C   0  0  0  0  0  0  0  0  0  0  0  0
   10.8829    1.7153   20.9865 C   0  0  0  0  0  0  0  0  0  0  0  0
    5.7768    2.8533   23.7910 C   0  0  0  0  0  0  0  0  0  0  0  0
    9.7977    1.4791   21.6912 N   0  0  0  0  0  0  0  0  0  0  0  0
    6.5976    9.3401   22.6478 N   0  0  0  0  0  0  0  0  0  0  0  0
   11.2031    3.0042   20.6246 C   0  0  0  0  0  0  0  0  0  0  0  0
   12.8688    7.7370   22.7287 C   0  0  0  0  0  0  0  0  0  0  0  0
    7.4487    9.1361   23.6506 C   0  0  0  0  0  0  0  0  0  0  0  0
    8.9772    2.5025   22.0273 C   0  0  0  0  0  0  0  0  0  0  0  0
   10.4859    4.0901   20.9730 C   0  0  0  0  0  0  0  0  0  0  0  0
   11.0962    9.3293   23.5072 C   0  0  0  0  0  0  0  0  0  0  0  0
    5.1273    7.8529   23.6208 N   0  0  0  0  0  0  0  0  0  0  0  0
    9.7552    9.2338   23.0171 N   0  0  0  0  0  0  0  0  0  0  0  0
   11.1797    6.7591   21.3326 N   0  0  0  0  0  0  0  0  0  0  0  0
   11.7728    8.0337   23.7267 C   0  0  0  0  0  0  0  0  0  0  0  0
    7.1194    8.3344   24.6775 C   0  0  0  0  0  0  0  0  0  0  0  0
    8.4311    4.7963   22.0500 C   0  0  0  0  0  0  0  0  0  0  0  0
    8.7393   10.8706   24.1871 O   0  0  0  0  0  0  0  0  0  0  0  0
    9.3093    3.8166   21.6712 C   0  0  0  0  0  0  0  0  0  0  0  0
  1  5  1  0
  1 15  4  0
  1 22  4  0
  2 20  1  0
  2 24  1  0
  3  6  4  0
  3 27  4  0
  4 22  4  0
  4 26  4  0
  6  7  4  0
  6 13  1  0
  7 19  4  0
  8 18  1  0
  8 23  1  0
  8 28  2  0
  9 17  1  0
  9 24  1  0
 10 11  1  0
 10 24  1  0
 11 23  1  0
 12 14  4  0
 12 16  4  0
 14 19  4  0
 15 18  4  0
 16 20  4  0
 17 25  1  0
 18 26  4  0
 19 29  4  0
 20 29  4  0
 21 23  1  0
 21 25  1  0
 27 29  4  0
M  END
$$$$

 Created by Python create_sdf_string function

 29 32  0  0  0  0  0  0  0  0999 V2000
    5.4450    8.7154   22.6662 C   0  0  0  0  0  0  0  0  0  0  0  0
   10.9154    5.4574   20.5483 C   0  0  0  0  0  0  0  0  0  0  0  0
    7.2709    4.5089   22.7542 C   0  0  0  0  0  0  0  0  0  0  0  0
    5.9698    7.6329   24.6581 C   0  0  0  0  0  0  0  0  0  0  0  0
    4.5542    8.9057   21.7104 O   0  0  0  0  0  0  0  0  0  0  0  0
    6.9895    3.2085   23.0690 C   0  0  0  0  0  0  0  0  0  0  0  0
    7.8391    2.2253   22.7260 N   0  0  0  0  0  0  0  0  0  0  0  0
    8.6968    9.8373   23.6359 C   0  0  0  0  0  0  0  0  0  0  0  0
   12.5135    6.5957   21.8396 C   0  0  0  0  0  0  0  0  0  0  0  0
   10.9406    8.2330   21.1350 C   0  0  0  0  0  0  0  0  0  0  0  0
    9.6648    8.5956   21.7310 C   0  0  0  0  0  0  0  0  0  0  0  0
   10.8829    1.7153   20.9865 C   0  0  0  0  0  0  0  0  0  0  0  0
    5.7768    2.8533   23.7910 C   0  0  0  0  0  0  0  0  0  0  0  0
    9.7977    1.4791   21.6912 N   0  0  0  0  0  0  0  0  0  0  0  0
    6.5976    9.3401   22.6478 N   0  0  0  0  0  0  0  0  0  0  0  0
   11.2031    3.0042   20.6246 C   0  0  0  0  0  0  0  0  0  0  0  0
   12.8688    7.7370   22.7287 C   0  0  0  0  0  0  0  0  0  0  0  0
    7.4487    9.1361   23.6506 C   0  0  0  0  0  0  0  0  0  0  0  0
    8.9772    2.5025   22.0273 C   0  0  0  0  0  0  0  0  0  0  0  0
   10.4859    4.0901   20.9730 C   0  0  0  0  0  0  0  0  0  0  0  0
   11.0962    9.3293   23.5072 C   0  0  0  0  0  0  0  0  0  0  0  0
    5.1273    7.8529   23.6208 N   0  0  0  0  0  0  0  0  0  0  0  0
    9.7552    9.2338   23.0171 N   0  0  0  0  0  0  0  0  0  0  0  0
   11.1797    6.7591   21.3326 N   0  0  0  0  0  0  0  0  0  0  0  0
   11.7728    8.0337   23.7267 C   0  0  0  0  0  0  0  0  0  0  0  0
    7.1194    8.3344   24.6775 C   0  0  0  0  0  0  0  0  0  0  0  0
    8.4311    4.7963   22.0500 C   0  0  0  0  0  0  0  0  0  0  0  0
    8.7393   10.8706   24.1871 O   0  0  0  0  0  0  0  0  0  0  0  0
    9.3093    3.8166   21.6712 C   0  0  0  0  0  0  0  0  0  0  0  0
  1  5  1  0
  1 15  4  0
  1 22  4  0
  2 20  1  0
  2 24  1  0
  3  6  4  0
  3 27  4  0
  4 22  4  0
  4 26  4  0
  6  7  4  0
  6 13  1  0
  7 19  4  0
  8 18  1  0
  8 23  1  0
  8 28  2  0
  9 17  1  0
  9 24  1  0
 10 11  1  0
 10 24  1  0
 11 23  1  0
 12 14  4  0
 12 16  4  0
 14 19  4  0
 15 18  4  0
 16 20  4  0
 17 25  1  0
 18 26  4  0
 19 29  4  0
 20 29  4  0
 21 23  1  0
 21 25  1  0
 27 29  4  0
M  END
$$$$

 Created by Python create_sdf_string function

 29 32  0  0  0  0  0  0  0  0999 V2000
    5.4450    8.7154   22.6662 C   0  0  0  0  0  0  0  0  0  0  0  0
   10.9154    5.4574   20.5483 C   0  0  0  0  0  0  0  0  0  0  0  0
    7.2709    4.5089   22.7542 C   0  0  0  0  0  0  0  0  0  0  0  0
    5.9698    7.6329   24.6581 C   0  0  0  0  0  0  0  0  0  0  0  0
    4.5542    8.9057   21.7104 O   0  0  0  0  0  0  0  0  0  0  0  0
    6.9895    3.2085   23.0690 C   0  0  0  0  0  0  0  0  0  0  0  0
    7.8391    2.2253   22.7260 N   0  0  0  0  0  0  0  0  0  0  0  0
    8.6968    9.8373   23.6359 C   0  0  0  0  0  0  0  0  0  0  0  0
   12.5135    6.5957   21.8396 C   0  0  0  0  0  0  0  0  0  0  0  0
   10.9406    8.2330   21.1350 C   0  0  0  0  0  0  0  0  0  0  0  0
    9.6648    8.5956   21.7310 C   0  0  0  0  0  0  0  0  0  0  0  0
   10.8829    1.7153   20.9865 C   0  0  0  0  0  0  0  0  0  0  0  0
    5.7768    2.8533   23.7910 C   0  0  0  0  0  0  0  0  0  0  0  0
    9.7977    1.4791   21.6912 N   0  0  0  0  0  0  0  0  0  0  0  0
    6.5976    9.3401   22.6478 N   0  0  0  0  0  0  0  0  0  0  0  0
   11.2031    3.0042   20.6246 C   0  0  0  0  0  0  0  0  0  0  0  0
   12.8688    7.7370   22.7287 C   0  0  0  0  0  0  0  0  0  0  0  0
    7.4487    9.1361   23.6506 C   0  0  0  0  0  0  0  0  0  0  0  0
    8.9772    2.5025   22.0273 C   0  0  0  0  0  0  0  0  0  0  0  0
   10.4859    4.0901   20.9730 C   0  0  0  0  0  0  0  0  0  0  0  0
   11.0962    9.3293   23.5072 C   0  0  0  0  0  0  0  0  0  0  0  0
    5.1273    7.8529   23.6208 N   0  0  0  0  0  0  0  0  0  0  0  0
    9.7552    9.2338   23.0171 N   0  0  0  0  0  0  0  0  0  0  0  0
   11.1797    6.7591   21.3326 N   0  0  0  0  0  0  0  0  0  0  0  0
   11.7728    8.0337   23.7267 C   0  0  0  0  0  0  0  0  0  0  0  0
    7.1194    8.3344   24.6775 C   0  0  0  0  0  0  0  0  0  0  0  0
    8.4311    4.7963   22.0500 C   0  0  0  0  0  0  0  0  0  0  0  0
    8.7393   10.8706   24.1871 O   0  0  0  0  0  0  0  0  0  0  0  0
    9.3093    3.8166   21.6712 C   0  0  0  0  0  0  0  0  0  0  0  0
  1  5  1  0
  1 15  4  0
  1 22  4  0
  2 20  1  0
  2 24  1  0
  3  6  4  0
  3 27  4  0
  4 22  4  0
  4 26  4  0
  6  7  4  0
  6 13  1  0
  7 19  4  0
  8 18  1  0
  8 23  1  0
  8 28  2  0
  9 17  1  0
  9 24  1  0
 10 11  1  0
 10 24  1  0
 11 23  1  0
 12 14  4  0
 12 16  4  0
 14 19  4  0
 15 18  4  0
 16 20  4  0
 17 25  1  0
 18 26  4  0
 19 29  4  0
 20 29  4  0
 21 23  1  0
 21 25  1  0
 27 29  4  0
M  END
$$$$

 Created by Python create_sdf_string function

 29 32  0  0  0  0  0  0  0  0999 V2000
    5.4450    8.7154   22.6662 C   0  0  0  0  0  0  0  0  0  0  0  0
   10.9154    5.4574   20.5483 C   0  0  0  0  0  0  0  0  0  0  0  0
    7.2709    4.5089   22.7542 C   0  0  0  0  0  0  0  0  0  0  0  0
    5.9698    7.6329   24.6581 C   0  0  0  0  0  0  0  0  0  0  0  0
    4.5542    8.9057   21.7104 O   0  0  0  0  0  0  0  0  0  0  0  0
    6.9895    3.2085   23.0690 C   0  0  0  0  0  0  0  0  0  0  0  0
    7.8391    2.2253   22.7260 N   0  0  0  0  0  0  0  0  0  0  0  0
    8.6968    9.8373   23.6359 C   0  0  0  0  0  0  0  0  0  0  0  0
   12.5135    6.5957   21.8396 C   0  0  0  0  0  0  0  0  0  0  0  0
   10.9406    8.2330   21.1350 C   0  0  0  0  0  0  0  0  0  0  0  0
    9.6648    8.5956   21.7310 C   0  0  0  0  0  0  0  0  0  0  0  0
   10.8829    1.7153   20.9865 C   0  0  0  0  0  0  0  0  0  0  0  0
    5.7768    2.8533   23.7910 C   0  0  0  0  0  0  0  0  0  0  0  0
    9.7977    1.4791   21.6912 N   0  0  0  0  0  0  0  0  0  0  0  0
    6.5976    9.3401   22.6478 N   0  0  0  0  0  0  0  0  0  0  0  0
   11.2031    3.0042   20.6246 C   0  0  0  0  0  0  0  0  0  0  0  0
   12.8688    7.7370   22.7287 C   0  0  0  0  0  0  0  0  0  0  0  0
    7.4487    9.1361   23.6506 C   0  0  0  0  0  0  0  0  0  0  0  0
    8.9772    2.5025   22.0273 C   0  0  0  0  0  0  0  0  0  0  0  0
   10.4859    4.0901   20.9730 C   0  0  0  0  0  0  0  0  0  0  0  0
   11.0962    9.3293   23.5072 C   0  0  0  0  0  0  0  0  0  0  0  0
    5.1273    7.8529   23.6208 N   0  0  0  0  0  0  0  0  0  0  0  0
    9.7552    9.2338   23.0171 N   0  0  0  0  0  0  0  0  0  0  0  0
   11.1797    6.7591   21.3326 N   0  0  0  0  0  0  0  0  0  0  0  0
   11.7728    8.0337   23.7267 C   0  0  0  0  0  0  0  0  0  0  0  0
    7.1194    8.3344   24.6775 C   0  0  0  0  0  0  0  0  0  0  0  0
    8.4311    4.7963   22.0500 C   0  0  0  0  0  0  0  0  0  0  0  0
    8.7393   10.8706   24.1871 O   0  0  0  0  0  0  0  0  0  0  0  0
    9.3093    3.8166   21.6712 C   0  0  0  0  0  0  0  0  0  0  0  0
  1  5  1  0
  1 15  4  0
  1 22  4  0
  2 20  1  0
  2 24  1  0
  3  6  4  0
  3 27  4  0
  4 22  4  0
  4 26  4  0
  6  7  4  0
  6 13  1  0
  7 19  4  0
  8 18  1  0
  8 23  1  0
  8 28  2  0
  9 17  1  0
  9 24  1  0
 10 11  1  0
 10 24  1  0
 11 23  1  0
 12 14  4  0
 12 16  4  0
 14 19  4  0
 15 18  4  0
 16 20  4  0
 17 25  1  0
 18 26  4  0
 19 29  4  0
 20 29  4  0
 21 23  1  0
 21 25  1  0
 27 29  4  0
M  END
$$$$

 Created by Python create_sdf_string function

 29 32  0  0  0  0  0  0  0  0999 V2000
    5.4450    8.7154   22.6662 C   0  0  0  0  0  0  0  0  0  0  0  0
   10.9154    5.4574   20.5483 C   0  0  0  0  0  0  0  0  0  0  0  0
    7.2709    4.5089   22.7542 C   0  0  0  0  0  0  0  0  0  0  0  0
    5.9698    7.6329   24.6581 C   0  0  0  0  0  0  0  0  0  0  0  0
    4.5542    8.9057   21.7104 O   0  0  0  0  0  0  0  0  0  0  0  0
    6.9895    3.2085   23.0690 C   0  0  0  0  0  0  0  0  0  0  0  0
    7.8391    2.2253   22.7260 N   0  0  0  0  0  0  0  0  0  0  0  0
    8.6968    9.8373   23.6359 C   0  0  0  0  0  0  0  0  0  0  0  0
   12.5135    6.5957   21.8396 C   0  0  0  0  0  0  0  0  0  0  0  0
   10.9406    8.2330   21.1350 C   0  0  0  0  0  0  0  0  0  0  0  0
    9.6648    8.5956   21.7310 C   0  0  0  0  0  0  0  0  0  0  0  0
   10.8829    1.7153   20.9865 C   0  0  0  0  0  0  0  0  0  0  0  0
    5.7768    2.8533   23.7910 C   0  0  0  0  0  0  0  0  0  0  0  0
    9.7977    1.4791   21.6912 N   0  0  0  0  0  0  0  0  0  0  0  0
    6.5976    9.3401   22.6478 N   0  0  0  0  0  0  0  0  0  0  0  0
   11.2031    3.0042   20.6246 C   0  0  0  0  0  0  0  0  0  0  0  0
   12.8688    7.7370   22.7287 C   0  0  0  0  0  0  0  0  0  0  0  0
    7.4487    9.1361   23.6506 C   0  0  0  0  0  0  0  0  0  0  0  0
    8.9772    2.5025   22.0273 C   0  0  0  0  0  0  0  0  0  0  0  0
   10.4859    4.0901   20.9730 C   0  0  0  0  0  0  0  0  0  0  0  0
   11.0962    9.3293   23.5072 C   0  0  0  0  0  0  0  0  0  0  0  0
    5.1273    7.8529   23.6208 N   0  0  0  0  0  0  0  0  0  0  0  0
    9.7552    9.2338   23.0171 N   0  0  0  0  0  0  0  0  0  0  0  0
   11.1797    6.7591   21.3326 N   0  0  0  0  0  0  0  0  0  0  0  0
   11.7728    8.0337   23.7267 C   0  0  0  0  0  0  0  0  0  0  0  0
    7.1194    8.3344   24.6775 C   0  0  0  0  0  0  0  0  0  0  0  0
    8.4311    4.7963   22.0500 C   0  0  0  0  0  0  0  0  0  0  0  0
    8.7393   10.8706   24.1871 O   0  0  0  0  0  0  0  0  0  0  0  0
    9.3093    3.8166   21.6712 C   0  0  0  0  0  0  0  0  0  0  0  0
  1  5  1  0
  1 15  4  0
  1 22  4  0
  2 20  1  0
  2 24  1  0
  3  6  4  0
  3 27  4  0
  4 22  4  0
  4 26  4  0
  6  7  4  0
  6 13  1  0
  7 19  4  0
  8 18  1  0
  8 23  1  0
  8 28  2  0
  9 17  1  0
  9 24  1  0
 10 11  1  0
 10 24  1  0
 11 23  1  0
 12 14  4  0
 12 16  4  0
 14 19  4  0
 15 18  4  0
 16 20  4  0
 17 25  1  0
 18 26  4  0
 19 29  4  0
 20 29  4  0
 21 23  1  0
 21 25  1  0
 27 29  4  0
M  END
$$$$

 Created by Python create_sdf_string function

 29 32  0  0  0  0  0  0  0  0999 V2000
    5.4450    8.7154   22.6662 C   0  0  0  0  0  0  0  0  0  0  0  0
   10.9154    5.4574   20.5483 C   0  0  0  0  0  0  0  0  0  0  0  0
    7.2709    4.5089   22.7542 C   0  0  0  0  0  0  0  0  0  0  0  0
    5.9698    7.6329   24.6581 C   0  0  0  0  0  0  0  0  0  0  0  0
    4.5542    8.9057   21.7104 O   0  0  0  0  0  0  0  0  0  0  0  0
    6.9895    3.2085   23.0690 C   0  0  0  0  0  0  0  0  0  0  0  0
    7.8391    2.2253   22.7260 N   0  0  0  0  0  0  0  0  0  0  0  0
    8.6968    9.8373   23.6359 C   0  0  0  0  0  0  0  0  0  0  0  0
   12.5135    6.5957   21.8396 C   0  0  0  0  0  0  0  0  0  0  0  0
   10.9406    8.2330   21.1350 C   0  0  0  0  0  0  0  0  0  0  0  0
    9.6648    8.5956   21.7310 C   0  0  0  0  0  0  0  0  0  0  0  0
   10.8829    1.7153   20.9865 C   0  0  0  0  0  0  0  0  0  0  0  0
    5.7768    2.8533   23.7910 C   0  0  0  0  0  0  0  0  0  0  0  0
    9.7977    1.4791   21.6912 N   0  0  0  0  0  0  0  0  0  0  0  0
    6.5976    9.3401   22.6478 N   0  0  0  0  0  0  0  0  0  0  0  0
   11.2031    3.0042   20.6246 C   0  0  0  0  0  0  0  0  0  0  0  0
   12.8688    7.7370   22.7287 C   0  0  0  0  0  0  0  0  0  0  0  0
    7.4487    9.1361   23.6506 C   0  0  0  0  0  0  0  0  0  0  0  0
    8.9772    2.5025   22.0273 C   0  0  0  0  0  0  0  0  0  0  0  0
   10.4859    4.0901   20.9730 C   0  0  0  0  0  0  0  0  0  0  0  0
   11.0962    9.3293   23.5072 C   0  0  0  0  0  0  0  0  0  0  0  0
    5.1273    7.8529   23.6208 N   0  0  0  0  0  0  0  0  0  0  0  0
    9.7552    9.2338   23.0171 N   0  0  0  0  0  0  0  0  0  0  0  0
   11.1797    6.7591   21.3326 N   0  0  0  0  0  0  0  0  0  0  0  0
   11.7728    8.0337   23.7267 C   0  0  0  0  0  0  0  0  0  0  0  0
    7.1194    8.3344   24.6775 C   0  0  0  0  0  0  0  0  0  0  0  0
    8.4311    4.7963   22.0500 C   0  0  0  0  0  0  0  0  0  0  0  0
    8.7393   10.8706   24.1871 O   0  0  0  0  0  0  0  0  0  0  0  0
    9.3093    3.8166   21.6712 C   0  0  0  0  0  0  0  0  0  0  0  0
  1  5  1  0
  1 15  4  0
  1 22  4  0
  2 20  1  0
  2 24  1  0
  3  6  4  0
  3 27  4  0
  4 22  4  0
  4 26  4  0
  6  7  4  0
  6 13  1  0
  7 19  4  0
  8 18  1  0
  8 23  1  0
  8 28  2  0
  9 17  1  0
  9 24  1  0
 10 11  1  0
 10 24  1  0
 11 23  1  0
 12 14  4  0
 12 16  4  0
 14 19  4  0
 15 18  4  0
 16 20  4  0
 17 25  1  0
 18 26  4  0
 19 29  4  0
 20 29  4  0
 21 23  1  0
 21 25  1  0
 27 29  4  0
M  END
$$$$

 Created by Python create_sdf_string function

 29 32  0  0  0  0  0  0  0  0999 V2000
    5.4450    8.7154   22.6662 C   0  0  0  0  0  0  0  0  0  0  0  0
   10.9154    5.4574   20.5483 C   0  0  0  0  0  0  0  0  0  0  0  0
    7.2709    4.5089   22.7542 C   0  0  0  0  0  0  0  0  0  0  0  0
    5.9698    7.6329   24.6581 C   0  0  0  0  0  0  0  0  0  0  0  0
    4.5542    8.9057   21.7104 O   0  0  0  0  0  0  0  0  0  0  0  0
    6.9895    3.2085   23.0690 C   0  0  0  0  0  0  0  0  0  0  0  0
    7.8391    2.2253   22.7260 N   0  0  0  0  0  0  0  0  0  0  0  0
    8.6968    9.8373   23.6359 C   0  0  0  0  0  0  0  0  0  0  0  0
   12.5135    6.5957   21.8396 C   0  0  0  0  0  0  0  0  0  0  0  0
   10.9406    8.2330   21.1350 C   0  0  0  0  0  0  0  0  0  0  0  0
    9.6648    8.5956   21.7310 C   0  0  0  0  0  0  0  0  0  0  0  0
   10.8829    1.7153   20.9865 C   0  0  0  0  0  0  0  0  0  0  0  0
    5.7768    2.8533   23.7910 C   0  0  0  0  0  0  0  0  0  0  0  0
    9.7977    1.4791   21.6912 N   0  0  0  0  0  0  0  0  0  0  0  0
    6.5976    9.3401   22.6478 N   0  0  0  0  0  0  0  0  0  0  0  0
   11.2031    3.0042   20.6246 C   0  0  0  0  0  0  0  0  0  0  0  0
   12.8688    7.7370   22.7287 C   0  0  0  0  0  0  0  0  0  0  0  0
    7.4487    9.1361   23.6506 C   0  0  0  0  0  0  0  0  0  0  0  0
    8.9772    2.5025   22.0273 C   0  0  0  0  0  0  0  0  0  0  0  0
   10.4859    4.0901   20.9730 C   0  0  0  0  0  0  0  0  0  0  0  0
   11.0962    9.3293   23.5072 C   0  0  0  0  0  0  0  0  0  0  0  0
    5.1273    7.8529   23.6208 N   0  0  0  0  0  0  0  0  0  0  0  0
    9.7552    9.2338   23.0171 N   0  0  0  0  0  0  0  0  0  0  0  0
   11.1797    6.7591   21.3326 N   0  0  0  0  0  0  0  0  0  0  0  0
   11.7728    8.0337   23.7267 C   0  0  0  0  0  0  0  0  0  0  0  0
    7.1194    8.3344   24.6775 C   0  0  0  0  0  0  0  0  0  0  0  0
    8.4311    4.7963   22.0500 C   0  0  0  0  0  0  0  0  0  0  0  0
    8.7393   10.8706   24.1871 O   0  0  0  0  0  0  0  0  0  0  0  0
    9.3093    3.8166   21.6712 C   0  0  0  0  0  0  0  0  0  0  0  0
  1  5  1  0
  1 15  4  0
  1 22  4  0
  2 20  1  0
  2 24  1  0
  3  6  4  0
  3 27  4  0
  4 22  4  0
  4 26  4  0
  6  7  4  0
  6 13  1  0
  7 19  4  0
  8 18  1  0
  8 23  1  0
  8 28  2  0
  9 17  1  0
  9 24  1  0
 10 11  1  0
 10 24  1  0
 11 23  1  0
 12 14  4  0
 12 16  4  0
 14 19  4  0
 15 18  4  0
 16 20  4  0
 17 25  1  0
 18 26  4  0
 19 29  4  0
 20 29  4  0
 21 23  1  0
 21 25  1  0
 27 29  4  0
M  END
$$$$

 Created by Python create_sdf_string function

 29 32  0  0  0  0  0  0  0  0999 V2000
    5.4450    8.7154   22.6662 C   0  0  0  0  0  0  0  0  0  0  0  0
   10.9154    5.4574   20.5483 C   0  0  0  0  0  0  0  0  0  0  0  0
    7.2709    4.5089   22.7542 C   0  0  0  0  0  0  0  0  0  0  0  0
    5.9698    7.6329   24.6581 C   0  0  0  0  0  0  0  0  0  0  0  0
    4.5542    8.9057   21.7104 O   0  0  0  0  0  0  0  0  0  0  0  0
    6.9895    3.2085   23.0690 C   0  0  0  0  0  0  0  0  0  0  0  0
    7.8391    2.2253   22.7260 N   0  0  0  0  0  0  0  0  0  0  0  0
    8.6968    9.8373   23.6359 C   0  0  0  0  0  0  0  0  0  0  0  0
   12.5135    6.5957   21.8396 C   0  0  0  0  0  0  0  0  0  0  0  0
   10.9406    8.2330   21.1350 C   0  0  0  0  0  0  0  0  0  0  0  0
    9.6648    8.5956   21.7310 C   0  0  0  0  0  0  0  0  0  0  0  0
   10.8829    1.7153   20.9865 C   0  0  0  0  0  0  0  0  0  0  0  0
    5.7768    2.8533   23.7910 C   0  0  0  0  0  0  0  0  0  0  0  0
    9.7977    1.4791   21.6912 N   0  0  0  0  0  0  0  0  0  0  0  0
    6.5976    9.3401   22.6478 N   0  0  0  0  0  0  0  0  0  0  0  0
   11.2031    3.0042   20.6246 C   0  0  0  0  0  0  0  0  0  0  0  0
   12.8688    7.7370   22.7287 C   0  0  0  0  0  0  0  0  0  0  0  0
    7.4487    9.1361   23.6506 C   0  0  0  0  0  0  0  0  0  0  0  0
    8.9772    2.5025   22.0273 C   0  0  0  0  0  0  0  0  0  0  0  0
   10.4859    4.0901   20.9730 C   0  0  0  0  0  0  0  0  0  0  0  0
   11.0962    9.3293   23.5072 C   0  0  0  0  0  0  0  0  0  0  0  0
    5.1273    7.8529   23.6208 N   0  0  0  0  0  0  0  0  0  0  0  0
    9.7552    9.2338   23.0171 N   0  0  0  0  0  0  0  0  0  0  0  0
   11.1797    6.7591   21.3326 N   0  0  0  0  0  0  0  0  0  0  0  0
   11.7728    8.0337   23.7267 C   0  0  0  0  0  0  0  0  0  0  0  0
    7.1194    8.3344   24.6775 C   0  0  0  0  0  0  0  0  0  0  0  0
    8.4311    4.7963   22.0500 C   0  0  0  0  0  0  0  0  0  0  0  0
    8.7393   10.8706   24.1871 O   0  0  0  0  0  0  0  0  0  0  0  0
    9.3093    3.8166   21.6712 C   0  0  0  0  0  0  0  0  0  0  0  0
  1  5  1  0
  1 15  4  0
  1 22  4  0
  2 20  1  0
  2 24  1  0
  3  6  4  0
  3 27  4  0
  4 22  4  0
  4 26  4  0
  6  7  4  0
  6 13  1  0
  7 19  4  0
  8 18  1  0
  8 23  1  0
  8 28  2  0
  9 17  1  0
  9 24  1  0
 10 11  1  0
 10 24  1  0
 11 23  1  0
 12 14  4  0
 12 16  4  0
 14 19  4  0
 15 18  4  0
 16 20  4  0
 17 25  1  0
 18 26  4  0
 19 29  4  0
 20 29  4  0
 21 23  1  0
 21 25  1  0
 27 29  4  0
M  END
$$$$

 Created by Python create_sdf_string function

 29 32  0  0  0  0  0  0  0  0999 V2000
    5.4450    8.7154   22.6662 C   0  0  0  0  0  0  0  0  0  0  0  0
   10.9154    5.4574   20.5483 C   0  0  0  0  0  0  0  0  0  0  0  0
    7.2709    4.5089   22.7542 C   0  0  0  0  0  0  0  0  0  0  0  0
    5.9698    7.6329   24.6581 C   0  0  0  0  0  0  0  0  0  0  0  0
    4.5542    8.9057   21.7104 O   0  0  0  0  0  0  0  0  0  0  0  0
    6.9895    3.2085   23.0690 C   0  0  0  0  0  0  0  0  0  0  0  0
    7.8391    2.2253   22.7260 N   0  0  0  0  0  0  0  0  0  0  0  0
    8.6968    9.8373   23.6359 C   0  0  0  0  0  0  0  0  0  0  0  0
   12.5135    6.5957   21.8396 C   0  0  0  0  0  0  0  0  0  0  0  0
   10.9406    8.2330   21.1350 C   0  0  0  0  0  0  0  0  0  0  0  0
    9.6648    8.5956   21.7310 C   0  0  0  0  0  0  0  0  0  0  0  0
   10.8829    1.7153   20.9865 C   0  0  0  0  0  0  0  0  0  0  0  0
    5.7768    2.8533   23.7910 C   0  0  0  0  0  0  0  0  0  0  0  0
    9.7977    1.4791   21.6912 N   0  0  0  0  0  0  0  0  0  0  0  0
    6.5976    9.3401   22.6478 N   0  0  0  0  0  0  0  0  0  0  0  0
   11.2031    3.0042   20.6246 C   0  0  0  0  0  0  0  0  0  0  0  0
   12.8688    7.7370   22.7287 C   0  0  0  0  0  0  0  0  0  0  0  0
    7.4487    9.1361   23.6506 C   0  0  0  0  0  0  0  0  0  0  0  0
    8.9772    2.5025   22.0273 C   0  0  0  0  0  0  0  0  0  0  0  0
   10.4859    4.0901   20.9730 C   0  0  0  0  0  0  0  0  0  0  0  0
   11.0962    9.3293   23.5072 C   0  0  0  0  0  0  0  0  0  0  0  0
    5.1273    7.8529   23.6208 N   0  0  0  0  0  0  0  0  0  0  0  0
    9.7552    9.2338   23.0171 N   0  0  0  0  0  0  0  0  0  0  0  0
   11.1797    6.7591   21.3326 N   0  0  0  0  0  0  0  0  0  0  0  0
   11.7728    8.0337   23.7267 C   0  0  0  0  0  0  0  0  0  0  0  0
    7.1194    8.3344   24.6775 C   0  0  0  0  0  0  0  0  0  0  0  0
    8.4311    4.7963   22.0500 C   0  0  0  0  0  0  0  0  0  0  0  0
    8.7393   10.8706   24.1871 O   0  0  0  0  0  0  0  0  0  0  0  0
    9.3093    3.8166   21.6712 C   0  0  0  0  0  0  0  0  0  0  0  0
  1  5  1  0
  1 15  4  0
  1 22  4  0
  2 20  1  0
  2 24  1  0
  3  6  4  0
  3 27  4  0
  4 22  4  0
  4 26  4  0
  6  7  4  0
  6 13  1  0
  7 19  4  0
  8 18  1  0
  8 23  1  0
  8 28  2  0
  9 17  1  0
  9 24  1  0
 10 11  1  0
 10 24  1  0
 11 23  1  0
 12 14  4  0
 12 16  4  0
 14 19  4  0
 15 18  4  0
 16 20  4  0
 17 25  1  0
 18 26  4  0
 19 29  4  0
 20 29  4  0
 21 23  1  0
 21 25  1  0
 27 29  4  0
M  END
$$$$

 Created by Python create_sdf_string function

 29 32  0  0  0  0  0  0  0  0999 V2000
    5.4450    8.7154   22.6662 C   0  0  0  0  0  0  0  0  0  0  0  0
   10.9154    5.4574   20.5483 C   0  0  0  0  0  0  0  0  0  0  0  0
    7.2709    4.5089   22.7542 C   0  0  0  0  0  0  0  0  0  0  0  0
    5.9698    7.6329   24.6581 C   0  0  0  0  0  0  0  0  0  0  0  0
    4.5542    8.9057   21.7104 O   0  0  0  0  0  0  0  0  0  0  0  0
    6.9895    3.2085   23.0690 C   0  0  0  0  0  0  0  0  0  0  0  0
    7.8391    2.2253   22.7260 N   0  0  0  0  0  0  0  0  0  0  0  0
    8.6968    9.8373   23.6359 C   0  0  0  0  0  0  0  0  0  0  0  0
   12.5135    6.5957   21.8396 C   0  0  0  0  0  0  0  0  0  0  0  0
   10.9406    8.2330   21.1350 C   0  0  0  0  0  0  0  0  0  0  0  0
    9.6648    8.5956   21.7310 C   0  0  0  0  0  0  0  0  0  0  0  0
   10.8829    1.7153   20.9865 C   0  0  0  0  0  0  0  0  0  0  0  0
    5.7768    2.8533   23.7910 C   0  0  0  0  0  0  0  0  0  0  0  0
    9.7977    1.4791   21.6912 N   0  0  0  0  0  0  0  0  0  0  0  0
    6.5976    9.3401   22.6478 N   0  0  0  0  0  0  0  0  0  0  0  0
   11.2031    3.0042   20.6246 C   0  0  0  0  0  0  0  0  0  0  0  0
   12.8688    7.7370   22.7287 C   0  0  0  0  0  0  0  0  0  0  0  0
    7.4487    9.1361   23.6506 C   0  0  0  0  0  0  0  0  0  0  0  0
    8.9772    2.5025   22.0273 C   0  0  0  0  0  0  0  0  0  0  0  0
   10.4859    4.0901   20.9730 C   0  0  0  0  0  0  0  0  0  0  0  0
   11.0962    9.3293   23.5072 C   0  0  0  0  0  0  0  0  0  0  0  0
    5.1273    7.8529   23.6208 N   0  0  0  0  0  0  0  0  0  0  0  0
    9.7552    9.2338   23.0171 N   0  0  0  0  0  0  0  0  0  0  0  0
   11.1797    6.7591   21.3326 N   0  0  0  0  0  0  0  0  0  0  0  0
   11.7728    8.0337   23.7267 C   0  0  0  0  0  0  0  0  0  0  0  0
    7.1194    8.3344   24.6775 C   0  0  0  0  0  0  0  0  0  0  0  0
    8.4311    4.7963   22.0500 C   0  0  0  0  0  0  0  0  0  0  0  0
    8.7393   10.8706   24.1871 O   0  0  0  0  0  0  0  0  0  0  0  0
    9.3093    3.8166   21.6712 C   0  0  0  0  0  0  0  0  0  0  0  0
  1  5  1  0
  1 15  4  0
  1 22  4  0
  2 20  1  0
  2 24  1  0
  3  6  4  0
  3 27  4  0
  4 22  4  0
  4 26  4  0
  6  7  4  0
  6 13  1  0
  7 19  4  0
  8 18  1  0
  8 23  1  0
  8 28  2  0
  9 17  1  0
  9 24  1  0
 10 11  1  0
 10 24  1  0
 11 23  1  0
 12 14  4  0
 12 16  4  0
 14 19  4  0
 15 18  4  0
 16 20  4  0
 17 25  1  0
 18 26  4  0
 19 29  4  0
 20 29  4  0
 21 23  1  0
 21 25  1  0
 27 29  4  0
M  END
$$$$

 Created by Python create_sdf_string function

 29 32  0  0  0  0  0  0  0  0999 V2000
    5.4450    8.7154   22.6662 C   0  0  0  0  0  0  0  0  0  0  0  0
   10.9154    5.4574   20.5483 C   0  0  0  0  0  0  0  0  0  0  0  0
    7.2709    4.5089   22.7542 C   0  0  0  0  0  0  0  0  0  0  0  0
    5.9698    7.6329   24.6581 C   0  0  0  0  0  0  0  0  0  0  0  0
    4.5542    8.9057   21.7104 O   0  0  0  0  0  0  0  0  0  0  0  0
    6.9895    3.2085   23.0690 C   0  0  0  0  0  0  0  0  0  0  0  0
    7.8391    2.2253   22.7260 N   0  0  0  0  0  0  0  0  0  0  0  0
    8.6968    9.8373   23.6359 C   0  0  0  0  0  0  0  0  0  0  0  0
   12.5135    6.5957   21.8396 C   0  0  0  0  0  0  0  0  0  0  0  0
   10.9406    8.2330   21.1350 C   0  0  0  0  0  0  0  0  0  0  0  0
    9.6648    8.5956   21.7310 C   0  0  0  0  0  0  0  0  0  0  0  0
   10.8829    1.7153   20.9865 C   0  0  0  0  0  0  0  0  0  0  0  0
    5.7768    2.8533   23.7910 C   0  0  0  0  0  0  0  0  0  0  0  0
    9.7977    1.4791   21.6912 N   0  0  0  0  0  0  0  0  0  0  0  0
    6.5976    9.3401   22.6478 N   0  0  0  0  0  0  0  0  0  0  0  0
   11.2031    3.0042   20.6246 C   0  0  0  0  0  0  0  0  0  0  0  0
   12.8688    7.7370   22.7287 C   0  0  0  0  0  0  0  0  0  0  0  0
    7.4487    9.1361   23.6506 C   0  0  0  0  0  0  0  0  0  0  0  0
    8.9772    2.5025   22.0273 C   0  0  0  0  0  0  0  0  0  0  0  0
   10.4859    4.0901   20.9730 C   0  0  0  0  0  0  0  0  0  0  0  0
   11.0962    9.3293   23.5072 C   0  0  0  0  0  0  0  0  0  0  0  0
    5.1273    7.8529   23.6208 N   0  0  0  0  0  0  0  0  0  0  0  0
    9.7552    9.2338   23.0171 N   0  0  0  0  0  0  0  0  0  0  0  0
   11.1797    6.7591   21.3326 N   0  0  0  0  0  0  0  0  0  0  0  0
   11.7728    8.0337   23.7267 C   0  0  0  0  0  0  0  0  0  0  0  0
    7.1194    8.3344   24.6775 C   0  0  0  0  0  0  0  0  0  0  0  0
    8.4311    4.7963   22.0500 C   0  0  0  0  0  0  0  0  0  0  0  0
    8.7393   10.8706   24.1871 O   0  0  0  0  0  0  0  0  0  0  0  0
    9.3093    3.8166   21.6712 C   0  0  0  0  0  0  0  0  0  0  0  0
  1  5  1  0
  1 15  4  0
  1 22  4  0
  2 20  1  0
  2 24  1  0
  3  6  4  0
  3 27  4  0
  4 22  4  0
  4 26  4  0
  6  7  4  0
  6 13  1  0
  7 19  4  0
  8 18  1  0
  8 23  1  0
  8 28  2  0
  9 17  1  0
  9 24  1  0
 10 11  1  0
 10 24  1  0
 11 23  1  0
 12 14  4  0
 12 16  4  0
 14 19  4  0
 15 18  4  0
 16 20  4  0
 17 25  1  0
 18 26  4  0
 19 29  4  0
 20 29  4  0
 21 23  1  0
 21 25  1  0
 27 29  4  0
M  END
$$$$

 Created by Python create_sdf_string function

 29 32  0  0  0  0  0  0  0  0999 V2000
    5.4450    8.7154   22.6662 C   0  0  0  0  0  0  0  0  0  0  0  0
   10.9154    5.4574   20.5483 C   0  0  0  0  0  0  0  0  0  0  0  0
    7.2709    4.5089   22.7542 C   0  0  0  0  0  0  0  0  0  0  0  0
    5.9698    7.6329   24.6581 C   0  0  0  0  0  0  0  0  0  0  0  0
    4.5542    8.9057   21.7104 O   0  0  0  0  0  0  0  0  0  0  0  0
    6.9895    3.2085   23.0690 C   0  0  0  0  0  0  0  0  0  0  0  0
    7.8391    2.2253   22.7260 N   0  0  0  0  0  0  0  0  0  0  0  0
    8.6968    9.8373   23.6359 C   0  0  0  0  0  0  0  0  0  0  0  0
   12.5135    6.5957   21.8396 C   0  0  0  0  0  0  0  0  0  0  0  0
   10.9406    8.2330   21.1350 C   0  0  0  0  0  0  0  0  0  0  0  0
    9.6648    8.5956   21.7310 C   0  0  0  0  0  0  0  0  0  0  0  0
   10.8829    1.7153   20.9865 C   0  0  0  0  0  0  0  0  0  0  0  0
    5.7768    2.8533   23.7910 C   0  0  0  0  0  0  0  0  0  0  0  0
    9.7977    1.4791   21.6912 N   0  0  0  0  0  0  0  0  0  0  0  0
    6.5976    9.3401   22.6478 N   0  0  0  0  0  0  0  0  0  0  0  0
   11.2031    3.0042   20.6246 C   0  0  0  0  0  0  0  0  0  0  0  0
   12.8688    7.7370   22.7287 C   0  0  0  0  0  0  0  0  0  0  0  0
    7.4487    9.1361   23.6506 C   0  0  0  0  0  0  0  0  0  0  0  0
    8.9772    2.5025   22.0273 C   0  0  0  0  0  0  0  0  0  0  0  0
   10.4859    4.0901   20.9730 C   0  0  0  0  0  0  0  0  0  0  0  0
   11.0962    9.3293   23.5072 C   0  0  0  0  0  0  0  0  0  0  0  0
    5.1273    7.8529   23.6208 N   0  0  0  0  0  0  0  0  0  0  0  0
    9.7552    9.2338   23.0171 N   0  0  0  0  0  0  0  0  0  0  0  0
   11.1797    6.7591   21.3326 N   0  0  0  0  0  0  0  0  0  0  0  0
   11.7728    8.0337   23.7267 C   0  0  0  0  0  0  0  0  0  0  0  0
    7.1194    8.3344   24.6775 C   0  0  0  0  0  0  0  0  0  0  0  0
    8.4311    4.7963   22.0500 C   0  0  0  0  0  0  0  0  0  0  0  0
    8.7393   10.8706   24.1871 O   0  0  0  0  0  0  0  0  0  0  0  0
    9.3093    3.8166   21.6712 C   0  0  0  0  0  0  0  0  0  0  0  0
  1  5  1  0
  1 15  4  0
  1 22  4  0
  2 20  1  0
  2 24  1  0
  3  6  4  0
  3 27  4  0
  4 22  4  0
  4 26  4  0
  6  7  4  0
  6 13  1  0
  7 19  4  0
  8 18  1  0
  8 23  1  0
  8 28  2  0
  9 17  1  0
  9 24  1  0
 10 11  1  0
 10 24  1  0
 11 23  1  0
 12 14  4  0
 12 16  4  0
 14 19  4  0
 15 18  4  0
 16 20  4  0
 17 25  1  0
 18 26  4  0
 19 29  4  0
 20 29  4  0
 21 23  1  0
 21 25  1  0
 27 29  4  0
M  END
$$$$

 Created by Python create_sdf_string function

 29 32  0  0  0  0  0  0  0  0999 V2000
    5.4450    8.7154   22.6662 C   0  0  0  0  0  0  0  0  0  0  0  0
   10.9154    5.4574   20.5483 C   0  0  0  0  0  0  0  0  0  0  0  0
    7.2709    4.5089   22.7542 C   0  0  0  0  0  0  0  0  0  0  0  0
    5.9698    7.6329   24.6581 C   0  0  0  0  0  0  0  0  0  0  0  0
    4.5542    8.9057   21.7104 O   0  0  0  0  0  0  0  0  0  0  0  0
    6.9895    3.2085   23.0690 C   0  0  0  0  0  0  0  0  0  0  0  0
    7.8391    2.2253   22.7260 N   0  0  0  0  0  0  0  0  0  0  0  0
    8.6968    9.8373   23.6359 C   0  0  0  0  0  0  0  0  0  0  0  0
   12.5135    6.5957   21.8396 C   0  0  0  0  0  0  0  0  0  0  0  0
   10.9406    8.2330   21.1350 C   0  0  0  0  0  0  0  0  0  0  0  0
    9.6648    8.5956   21.7310 C   0  0  0  0  0  0  0  0  0  0  0  0
   10.8829    1.7153   20.9865 C   0  0  0  0  0  0  0  0  0  0  0  0
    5.7768    2.8533   23.7910 C   0  0  0  0  0  0  0  0  0  0  0  0
    9.7977    1.4791   21.6912 N   0  0  0  0  0  0  0  0  0  0  0  0
    6.5976    9.3401   22.6478 N   0  0  0  0  0  0  0  0  0  0  0  0
   11.2031    3.0042   20.6246 C   0  0  0  0  0  0  0  0  0  0  0  0
   12.8688    7.7370   22.7287 C   0  0  0  0  0  0  0  0  0  0  0  0
    7.4487    9.1361   23.6506 C   0  0  0  0  0  0  0  0  0  0  0  0
    8.9772    2.5025   22.0273 C   0  0  0  0  0  0  0  0  0  0  0  0
   10.4859    4.0901   20.9730 C   0  0  0  0  0  0  0  0  0  0  0  0
   11.0962    9.3293   23.5072 C   0  0  0  0  0  0  0  0  0  0  0  0
    5.1273    7.8529   23.6208 N   0  0  0  0  0  0  0  0  0  0  0  0
    9.7552    9.2338   23.0171 N   0  0  0  0  0  0  0  0  0  0  0  0
   11.1797    6.7591   21.3326 N   0  0  0  0  0  0  0  0  0  0  0  0
   11.7728    8.0337   23.7267 C   0  0  0  0  0  0  0  0  0  0  0  0
    7.1194    8.3344   24.6775 C   0  0  0  0  0  0  0  0  0  0  0  0
    8.4311    4.7963   22.0500 C   0  0  0  0  0  0  0  0  0  0  0  0
    8.7393   10.8706   24.1871 O   0  0  0  0  0  0  0  0  0  0  0  0
    9.3093    3.8166   21.6712 C   0  0  0  0  0  0  0  0  0  0  0  0
  1  5  1  0
  1 15  4  0
  1 22  4  0
  2 20  1  0
  2 24  1  0
  3  6  4  0
  3 27  4  0
  4 22  4  0
  4 26  4  0
  6  7  4  0
  6 13  1  0
  7 19  4  0
  8 18  1  0
  8 23  1  0
  8 28  2  0
  9 17  1  0
  9 24  1  0
 10 11  1  0
 10 24  1  0
 11 23  1  0
 12 14  4  0
 12 16  4  0
 14 19  4  0
 15 18  4  0
 16 20  4  0
 17 25  1  0
 18 26  4  0
 19 29  4  0
 20 29  4  0
 21 23  1  0
 21 25  1  0
 27 29  4  0
M  END
$$$$

 Created by Python create_sdf_string function

 29 32  0  0  0  0  0  0  0  0999 V2000
    5.4450    8.7154   22.6662 C   0  0  0  0  0  0  0  0  0  0  0  0
   10.9154    5.4574   20.5483 C   0  0  0  0  0  0  0  0  0  0  0  0
    7.2709    4.5089   22.7542 C   0  0  0  0  0  0  0  0  0  0  0  0
    5.9698    7.6329   24.6581 C   0  0  0  0  0  0  0  0  0  0  0  0
    4.5542    8.9057   21.7104 O   0  0  0  0  0  0  0  0  0  0  0  0
    6.9895    3.2085   23.0690 C   0  0  0  0  0  0  0  0  0  0  0  0
    7.8391    2.2253   22.7260 N   0  0  0  0  0  0  0  0  0  0  0  0
    8.6968    9.8373   23.6359 C   0  0  0  0  0  0  0  0  0  0  0  0
   12.5135    6.5957   21.8396 C   0  0  0  0  0  0  0  0  0  0  0  0
   10.9406    8.2330   21.1350 C   0  0  0  0  0  0  0  0  0  0  0  0
    9.6648    8.5956   21.7310 C   0  0  0  0  0  0  0  0  0  0  0  0
   10.8829    1.7153   20.9865 C   0  0  0  0  0  0  0  0  0  0  0  0
    5.7768    2.8533   23.7910 C   0  0  0  0  0  0  0  0  0  0  0  0
    9.7977    1.4791   21.6912 N   0  0  0  0  0  0  0  0  0  0  0  0
    6.5976    9.3401   22.6478 N   0  0  0  0  0  0  0  0  0  0  0  0
   11.2031    3.0042   20.6246 C   0  0  0  0  0  0  0  0  0  0  0  0
   12.8688    7.7370   22.7287 C   0  0  0  0  0  0  0  0  0  0  0  0
    7.4487    9.1361   23.6506 C   0  0  0  0  0  0  0  0  0  0  0  0
    8.9772    2.5025   22.0273 C   0  0  0  0  0  0  0  0  0  0  0  0
   10.4859    4.0901   20.9730 C   0  0  0  0  0  0  0  0  0  0  0  0
   11.0962    9.3293   23.5072 C   0  0  0  0  0  0  0  0  0  0  0  0
    5.1273    7.8529   23.6208 N   0  0  0  0  0  0  0  0  0  0  0  0
    9.7552    9.2338   23.0171 N   0  0  0  0  0  0  0  0  0  0  0  0
   11.1797    6.7591   21.3326 N   0  0  0  0  0  0  0  0  0  0  0  0
   11.7728    8.0337   23.7267 C   0  0  0  0  0  0  0  0  0  0  0  0
    7.1194    8.3344   24.6775 C   0  0  0  0  0  0  0  0  0  0  0  0
    8.4311    4.7963   22.0500 C   0  0  0  0  0  0  0  0  0  0  0  0
    8.7393   10.8706   24.1871 O   0  0  0  0  0  0  0  0  0  0  0  0
    9.3093    3.8166   21.6712 C   0  0  0  0  0  0  0  0  0  0  0  0
  1  5  1  0
  1 15  4  0
  1 22  4  0
  2 20  1  0
  2 24  1  0
  3  6  4  0
  3 27  4  0
  4 22  4  0
  4 26  4  0
  6  7  4  0
  6 13  1  0
  7 19  4  0
  8 18  1  0
  8 23  1  0
  8 28  2  0
  9 17  1  0
  9 24  1  0
 10 11  1  0
 10 24  1  0
 11 23  1  0
 12 14  4  0
 12 16  4  0
 14 19  4  0
 15 18  4  0
 16 20  4  0
 17 25  1  0
 18 26  4  0
 19 29  4  0
 20 29  4  0
 21 23  1  0
 21 25  1  0
 27 29  4  0
M  END
$$$$

 Created by Python create_sdf_string function

 29 32  0  0  0  0  0  0  0  0999 V2000
    5.4450    8.7154   22.6662 C   0  0  0  0  0  0  0  0  0  0  0  0
   10.9154    5.4574   20.5483 C   0  0  0  0  0  0  0  0  0  0  0  0
    7.2709    4.5089   22.7542 C   0  0  0  0  0  0  0  0  0  0  0  0
    5.9698    7.6329   24.6581 C   0  0  0  0  0  0  0  0  0  0  0  0
    4.5542    8.9057   21.7104 O   0  0  0  0  0  0  0  0  0  0  0  0
    6.9895    3.2085   23.0690 C   0  0  0  0  0  0  0  0  0  0  0  0
    7.8391    2.2253   22.7260 N   0  0  0  0  0  0  0  0  0  0  0  0
    8.6968    9.8373   23.6359 C   0  0  0  0  0  0  0  0  0  0  0  0
   12.5135    6.5957   21.8396 C   0  0  0  0  0  0  0  0  0  0  0  0
   10.9406    8.2330   21.1350 C   0  0  0  0  0  0  0  0  0  0  0  0
    9.6648    8.5956   21.7310 C   0  0  0  0  0  0  0  0  0  0  0  0
   10.8829    1.7153   20.9865 C   0  0  0  0  0  0  0  0  0  0  0  0
    5.7768    2.8533   23.7910 C   0  0  0  0  0  0  0  0  0  0  0  0
    9.7977    1.4791   21.6912 N   0  0  0  0  0  0  0  0  0  0  0  0
    6.5976    9.3401   22.6478 N   0  0  0  0  0  0  0  0  0  0  0  0
   11.2031    3.0042   20.6246 C   0  0  0  0  0  0  0  0  0  0  0  0
   12.8688    7.7370   22.7287 C   0  0  0  0  0  0  0  0  0  0  0  0
    7.4487    9.1361   23.6506 C   0  0  0  0  0  0  0  0  0  0  0  0
    8.9772    2.5025   22.0273 C   0  0  0  0  0  0  0  0  0  0  0  0
   10.4859    4.0901   20.9730 C   0  0  0  0  0  0  0  0  0  0  0  0
   11.0962    9.3293   23.5072 C   0  0  0  0  0  0  0  0  0  0  0  0
    5.1273    7.8529   23.6208 N   0  0  0  0  0  0  0  0  0  0  0  0
    9.7552    9.2338   23.0171 N   0  0  0  0  0  0  0  0  0  0  0  0
   11.1797    6.7591   21.3326 N   0  0  0  0  0  0  0  0  0  0  0  0
   11.7728    8.0337   23.7267 C   0  0  0  0  0  0  0  0  0  0  0  0
    7.1194    8.3344   24.6775 C   0  0  0  0  0  0  0  0  0  0  0  0
    8.4311    4.7963   22.0500 C   0  0  0  0  0  0  0  0  0  0  0  0
    8.7393   10.8706   24.1871 O   0  0  0  0  0  0  0  0  0  0  0  0
    9.3093    3.8166   21.6712 C   0  0  0  0  0  0  0  0  0  0  0  0
  1  5  1  0
  1 15  4  0
  1 22  4  0
  2 20  1  0
  2 24  1  0
  3  6  4  0
  3 27  4  0
  4 22  4  0
  4 26  4  0
  6  7  4  0
  6 13  1  0
  7 19  4  0
  8 18  1  0
  8 23  1  0
  8 28  2  0
  9 17  1  0
  9 24  1  0
 10 11  1  0
 10 24  1  0
 11 23  1  0
 12 14  4  0
 12 16  4  0
 14 19  4  0
 15 18  4  0
 16 20  4  0
 17 25  1  0
 18 26  4  0
 19 29  4  0
 20 29  4  0
 21 23  1  0
 21 25  1  0
 27 29  4  0
M  END
$$$$

 Created by Python create_sdf_string function

 29 32  0  0  0  0  0  0  0  0999 V2000
    5.4450    8.7154   22.6662 C   0  0  0  0  0  0  0  0  0  0  0  0
   10.9154    5.4574   20.5483 C   0  0  0  0  0  0  0  0  0  0  0  0
    7.2709    4.5089   22.7542 C   0  0  0  0  0  0  0  0  0  0  0  0
    5.9698    7.6329   24.6581 C   0  0  0  0  0  0  0  0  0  0  0  0
    4.5542    8.9057   21.7104 O   0  0  0  0  0  0  0  0  0  0  0  0
    6.9895    3.2085   23.0690 C   0  0  0  0  0  0  0  0  0  0  0  0
    7.8391    2.2253   22.7260 N   0  0  0  0  0  0  0  0  0  0  0  0
    8.6968    9.8373   23.6359 C   0  0  0  0  0  0  0  0  0  0  0  0
   12.5135    6.5957   21.8396 C   0  0  0  0  0  0  0  0  0  0  0  0
   10.9406    8.2330   21.1350 C   0  0  0  0  0  0  0  0  0  0  0  0
    9.6648    8.5956   21.7310 C   0  0  0  0  0  0  0  0  0  0  0  0
   10.8829    1.7153   20.9865 C   0  0  0  0  0  0  0  0  0  0  0  0
    5.7768    2.8533   23.7910 C   0  0  0  0  0  0  0  0  0  0  0  0
    9.7977    1.4791   21.6912 N   0  0  0  0  0  0  0  0  0  0  0  0
    6.5976    9.3401   22.6478 N   0  0  0  0  0  0  0  0  0  0  0  0
   11.2031    3.0042   20.6246 C   0  0  0  0  0  0  0  0  0  0  0  0
   12.8688    7.7370   22.7287 C   0  0  0  0  0  0  0  0  0  0  0  0
    7.4487    9.1361   23.6506 C   0  0  0  0  0  0  0  0  0  0  0  0
    8.9772    2.5025   22.0273 C   0  0  0  0  0  0  0  0  0  0  0  0
   10.4859    4.0901   20.9730 C   0  0  0  0  0  0  0  0  0  0  0  0
   11.0962    9.3293   23.5072 C   0  0  0  0  0  0  0  0  0  0  0  0
    5.1273    7.8529   23.6208 N   0  0  0  0  0  0  0  0  0  0  0  0
    9.7552    9.2338   23.0171 N   0  0  0  0  0  0  0  0  0  0  0  0
   11.1797    6.7591   21.3326 N   0  0  0  0  0  0  0  0  0  0  0  0
   11.7728    8.0337   23.7267 C   0  0  0  0  0  0  0  0  0  0  0  0
    7.1194    8.3344   24.6775 C   0  0  0  0  0  0  0  0  0  0  0  0
    8.4311    4.7963   22.0500 C   0  0  0  0  0  0  0  0  0  0  0  0
    8.7393   10.8706   24.1871 O   0  0  0  0  0  0  0  0  0  0  0  0
    9.3093    3.8166   21.6712 C   0  0  0  0  0  0  0  0  0  0  0  0
  1  5  1  0
  1 15  4  0
  1 22  4  0
  2 20  1  0
  2 24  1  0
  3  6  4  0
  3 27  4  0
  4 22  4  0
  4 26  4  0
  6  7  4  0
  6 13  1  0
  7 19  4  0
  8 18  1  0
  8 23  1  0
  8 28  2  0
  9 17  1  0
  9 24  1  0
 10 11  1  0
 10 24  1  0
 11 23  1  0
 12 14  4  0
 12 16  4  0
 14 19  4  0
 15 18  4  0
 16 20  4  0
 17 25  1  0
 18 26  4  0
 19 29  4  0
 20 29  4  0
 21 23  1  0
 21 25  1  0
 27 29  4  0
M  END
$$$$

 Created by Python create_sdf_string function

 29 32  0  0  0  0  0  0  0  0999 V2000
    5.4450    8.7154   22.6662 C   0  0  0  0  0  0  0  0  0  0  0  0
   10.9154    5.4574   20.5483 C   0  0  0  0  0  0  0  0  0  0  0  0
    7.2709    4.5089   22.7542 C   0  0  0  0  0  0  0  0  0  0  0  0
    5.9698    7.6329   24.6581 C   0  0  0  0  0  0  0  0  0  0  0  0
    4.5542    8.9057   21.7104 O   0  0  0  0  0  0  0  0  0  0  0  0
    6.9895    3.2085   23.0690 C   0  0  0  0  0  0  0  0  0  0  0  0
    7.8391    2.2253   22.7260 N   0  0  0  0  0  0  0  0  0  0  0  0
    8.6968    9.8373   23.6359 C   0  0  0  0  0  0  0  0  0  0  0  0
   12.5135    6.5957   21.8396 C   0  0  0  0  0  0  0  0  0  0  0  0
   10.9406    8.2330   21.1350 C   0  0  0  0  0  0  0  0  0  0  0  0
    9.6648    8.5956   21.7310 C   0  0  0  0  0  0  0  0  0  0  0  0
   10.8829    1.7153   20.9865 C   0  0  0  0  0  0  0  0  0  0  0  0
    5.7768    2.8533   23.7910 C   0  0  0  0  0  0  0  0  0  0  0  0
    9.7977    1.4791   21.6912 N   0  0  0  0  0  0  0  0  0  0  0  0
    6.5976    9.3401   22.6478 N   0  0  0  0  0  0  0  0  0  0  0  0
   11.2031    3.0042   20.6246 C   0  0  0  0  0  0  0  0  0  0  0  0
   12.8688    7.7370   22.7287 C   0  0  0  0  0  0  0  0  0  0  0  0
    7.4487    9.1361   23.6506 C   0  0  0  0  0  0  0  0  0  0  0  0
    8.9772    2.5025   22.0273 C   0  0  0  0  0  0  0  0  0  0  0  0
   10.4859    4.0901   20.9730 C   0  0  0  0  0  0  0  0  0  0  0  0
   11.0962    9.3293   23.5072 C   0  0  0  0  0  0  0  0  0  0  0  0
    5.1273    7.8529   23.6208 N   0  0  0  0  0  0  0  0  0  0  0  0
    9.7552    9.2338   23.0171 N   0  0  0  0  0  0  0  0  0  0  0  0
   11.1797    6.7591   21.3326 N   0  0  0  0  0  0  0  0  0  0  0  0
   11.7728    8.0337   23.7267 C   0  0  0  0  0  0  0  0  0  0  0  0
    7.1194    8.3344   24.6775 C   0  0  0  0  0  0  0  0  0  0  0  0
    8.4311    4.7963   22.0500 C   0  0  0  0  0  0  0  0  0  0  0  0
    8.7393   10.8706   24.1871 O   0  0  0  0  0  0  0  0  0  0  0  0
    9.3093    3.8166   21.6712 C   0  0  0  0  0  0  0  0  0  0  0  0
  1  5  1  0
  1 15  4  0
  1 22  4  0
  2 20  1  0
  2 24  1  0
  3  6  4  0
  3 27  4  0
  4 22  4  0
  4 26  4  0
  6  7  4  0
  6 13  1  0
  7 19  4  0
  8 18  1  0
  8 23  1  0
  8 28  2  0
  9 17  1  0
  9 24  1  0
 10 11  1  0
 10 24  1  0
 11 23  1  0
 12 14  4  0
 12 16  4  0
 14 19  4  0
 15 18  4  0
 16 20  4  0
 17 25  1  0
 18 26  4  0
 19 29  4  0
 20 29  4  0
 21 23  1  0
 21 25  1  0
 27 29  4  0
M  END
$$$$

 Created by Python create_sdf_string function

 29 32  0  0  0  0  0  0  0  0999 V2000
    5.4450    8.7154   22.6662 C   0  0  0  0  0  0  0  0  0  0  0  0
   10.9154    5.4574   20.5483 C   0  0  0  0  0  0  0  0  0  0  0  0
    7.2709    4.5089   22.7542 C   0  0  0  0  0  0  0  0  0  0  0  0
    5.9698    7.6329   24.6581 C   0  0  0  0  0  0  0  0  0  0  0  0
    4.5542    8.9057   21.7104 O   0  0  0  0  0  0  0  0  0  0  0  0
    6.9895    3.2085   23.0690 C   0  0  0  0  0  0  0  0  0  0  0  0
    7.8391    2.2253   22.7260 N   0  0  0  0  0  0  0  0  0  0  0  0
    8.6968    9.8373   23.6359 C   0  0  0  0  0  0  0  0  0  0  0  0
   12.5135    6.5957   21.8396 C   0  0  0  0  0  0  0  0  0  0  0  0
   10.9406    8.2330   21.1350 C   0  0  0  0  0  0  0  0  0  0  0  0
    9.6648    8.5956   21.7310 C   0  0  0  0  0  0  0  0  0  0  0  0
   10.8829    1.7153   20.9865 C   0  0  0  0  0  0  0  0  0  0  0  0
    5.7768    2.8533   23.7910 C   0  0  0  0  0  0  0  0  0  0  0  0
    9.7977    1.4791   21.6912 N   0  0  0  0  0  0  0  0  0  0  0  0
    6.5976    9.3401   22.6478 N   0  0  0  0  0  0  0  0  0  0  0  0
   11.2031    3.0042   20.6246 C   0  0  0  0  0  0  0  0  0  0  0  0
   12.8688    7.7370   22.7287 C   0  0  0  0  0  0  0  0  0  0  0  0
    7.4487    9.1361   23.6506 C   0  0  0  0  0  0  0  0  0  0  0  0
    8.9772    2.5025   22.0273 C   0  0  0  0  0  0  0  0  0  0  0  0
   10.4859    4.0901   20.9730 C   0  0  0  0  0  0  0  0  0  0  0  0
   11.0962    9.3293   23.5072 C   0  0  0  0  0  0  0  0  0  0  0  0
    5.1273    7.8529   23.6208 N   0  0  0  0  0  0  0  0  0  0  0  0
    9.7552    9.2338   23.0171 N   0  0  0  0  0  0  0  0  0  0  0  0
   11.1797    6.7591   21.3326 N   0  0  0  0  0  0  0  0  0  0  0  0
   11.7728    8.0337   23.7267 C   0  0  0  0  0  0  0  0  0  0  0  0
    7.1194    8.3344   24.6775 C   0  0  0  0  0  0  0  0  0  0  0  0
    8.4311    4.7963   22.0500 C   0  0  0  0  0  0  0  0  0  0  0  0
    8.7393   10.8706   24.1871 O   0  0  0  0  0  0  0  0  0  0  0  0
    9.3093    3.8166   21.6712 C   0  0  0  0  0  0  0  0  0  0  0  0
  1  5  1  0
  1 15  4  0
  1 22  4  0
  2 20  1  0
  2 24  1  0
  3  6  4  0
  3 27  4  0
  4 22  4  0
  4 26  4  0
  6  7  4  0
  6 13  1  0
  7 19  4  0
  8 18  1  0
  8 23  1  0
  8 28  2  0
  9 17  1  0
  9 24  1  0
 10 11  1  0
 10 24  1  0
 11 23  1  0
 12 14  4  0
 12 16  4  0
 14 19  4  0
 15 18  4  0
 16 20  4  0
 17 25  1  0
 18 26  4  0
 19 29  4  0
 20 29  4  0
 21 23  1  0
 21 25  1  0
 27 29  4  0
M  END
$$$$

 Created by Python create_sdf_string function

 29 32  0  0  0  0  0  0  0  0999 V2000
    5.4450    8.7154   22.6662 C   0  0  0  0  0  0  0  0  0  0  0  0
   10.9154    5.4574   20.5483 C   0  0  0  0  0  0  0  0  0  0  0  0
    7.2709    4.5089   22.7542 C   0  0  0  0  0  0  0  0  0  0  0  0
    5.9698    7.6329   24.6581 C   0  0  0  0  0  0  0  0  0  0  0  0
    4.5542    8.9057   21.7104 O   0  0  0  0  0  0  0  0  0  0  0  0
    6.9895    3.2085   23.0690 C   0  0  0  0  0  0  0  0  0  0  0  0
    7.8391    2.2253   22.7260 N   0  0  0  0  0  0  0  0  0  0  0  0
    8.6968    9.8373   23.6359 C   0  0  0  0  0  0  0  0  0  0  0  0
   12.5135    6.5957   21.8396 C   0  0  0  0  0  0  0  0  0  0  0  0
   10.9406    8.2330   21.1350 C   0  0  0  0  0  0  0  0  0  0  0  0
    9.6648    8.5956   21.7310 C   0  0  0  0  0  0  0  0  0  0  0  0
   10.8829    1.7153   20.9865 C   0  0  0  0  0  0  0  0  0  0  0  0
    5.7768    2.8533   23.7910 C   0  0  0  0  0  0  0  0  0  0  0  0
    9.7977    1.4791   21.6912 N   0  0  0  0  0  0  0  0  0  0  0  0
    6.5976    9.3401   22.6478 N   0  0  0  0  0  0  0  0  0  0  0  0
   11.2031    3.0042   20.6246 C   0  0  0  0  0  0  0  0  0  0  0  0
   12.8688    7.7370   22.7287 C   0  0  0  0  0  0  0  0  0  0  0  0
    7.4487    9.1361   23.6506 C   0  0  0  0  0  0  0  0  0  0  0  0
    8.9772    2.5025   22.0273 C   0  0  0  0  0  0  0  0  0  0  0  0
   10.4859    4.0901   20.9730 C   0  0  0  0  0  0  0  0  0  0  0  0
   11.0962    9.3293   23.5072 C   0  0  0  0  0  0  0  0  0  0  0  0
    5.1273    7.8529   23.6208 N   0  0  0  0  0  0  0  0  0  0  0  0
    9.7552    9.2338   23.0171 N   0  0  0  0  0  0  0  0  0  0  0  0
   11.1797    6.7591   21.3326 N   0  0  0  0  0  0  0  0  0  0  0  0
   11.7728    8.0337   23.7267 C   0  0  0  0  0  0  0  0  0  0  0  0
    7.1194    8.3344   24.6775 C   0  0  0  0  0  0  0  0  0  0  0  0
    8.4311    4.7963   22.0500 C   0  0  0  0  0  0  0  0  0  0  0  0
    8.7393   10.8706   24.1871 O   0  0  0  0  0  0  0  0  0  0  0  0
    9.3093    3.8166   21.6712 C   0  0  0  0  0  0  0  0  0  0  0  0
  1  5  1  0
  1 15  4  0
  1 22  4  0
  2 20  1  0
  2 24  1  0
  3  6  4  0
  3 27  4  0
  4 22  4  0
  4 26  4  0
  6  7  4  0
  6 13  1  0
  7 19  4  0
  8 18  1  0
  8 23  1  0
  8 28  2  0
  9 17  1  0
  9 24  1  0
 10 11  1  0
 10 24  1  0
 11 23  1  0
 12 14  4  0
 12 16  4  0
 14 19  4  0
 15 18  4  0
 16 20  4  0
 17 25  1  0
 18 26  4  0
 19 29  4  0
 20 29  4  0
 21 23  1  0
 21 25  1  0
 27 29  4  0
M  END
$$$$

 Created by Python create_sdf_string function

 29 32  0  0  0  0  0  0  0  0999 V2000
    5.4450    8.7154   22.6662 C   0  0  0  0  0  0  0  0  0  0  0  0
   10.9154    5.4574   20.5483 C   0  0  0  0  0  0  0  0  0  0  0  0
    7.2709    4.5089   22.7542 C   0  0  0  0  0  0  0  0  0  0  0  0
    5.9698    7.6329   24.6581 C   0  0  0  0  0  0  0  0  0  0  0  0
    4.5542    8.9057   21.7104 O   0  0  0  0  0  0  0  0  0  0  0  0
    6.9895    3.2085   23.0690 C   0  0  0  0  0  0  0  0  0  0  0  0
    7.8391    2.2253   22.7260 N   0  0  0  0  0  0  0  0  0  0  0  0
    8.6968    9.8373   23.6359 C   0  0  0  0  0  0  0  0  0  0  0  0
   12.5135    6.5957   21.8396 C   0  0  0  0  0  0  0  0  0  0  0  0
   10.9406    8.2330   21.1350 C   0  0  0  0  0  0  0  0  0  0  0  0
    9.6648    8.5956   21.7310 C   0  0  0  0  0  0  0  0  0  0  0  0
   10.8829    1.7153   20.9865 C   0  0  0  0  0  0  0  0  0  0  0  0
    5.7768    2.8533   23.7910 C   0  0  0  0  0  0  0  0  0  0  0  0
    9.7977    1.4791   21.6912 N   0  0  0  0  0  0  0  0  0  0  0  0
    6.5976    9.3401   22.6478 N   0  0  0  0  0  0  0  0  0  0  0  0
   11.2031    3.0042   20.6246 C   0  0  0  0  0  0  0  0  0  0  0  0
   12.8688    7.7370   22.7287 C   0  0  0  0  0  0  0  0  0  0  0  0
    7.4487    9.1361   23.6506 C   0  0  0  0  0  0  0  0  0  0  0  0
    8.9772    2.5025   22.0273 C   0  0  0  0  0  0  0  0  0  0  0  0
   10.4859    4.0901   20.9730 C   0  0  0  0  0  0  0  0  0  0  0  0
   11.0962    9.3293   23.5072 C   0  0  0  0  0  0  0  0  0  0  0  0
    5.1273    7.8529   23.6208 N   0  0  0  0  0  0  0  0  0  0  0  0
    9.7552    9.2338   23.0171 N   0  0  0  0  0  0  0  0  0  0  0  0
   11.1797    6.7591   21.3326 N   0  0  0  0  0  0  0  0  0  0  0  0
   11.7728    8.0337   23.7267 C   0  0  0  0  0  0  0  0  0  0  0  0
    7.1194    8.3344   24.6775 C   0  0  0  0  0  0  0  0  0  0  0  0
    8.4311    4.7963   22.0500 C   0  0  0  0  0  0  0  0  0  0  0  0
    8.7393   10.8706   24.1871 O   0  0  0  0  0  0  0  0  0  0  0  0
    9.3093    3.8166   21.6712 C   0  0  0  0  0  0  0  0  0  0  0  0
  1  5  1  0
  1 15  4  0
  1 22  4  0
  2 20  1  0
  2 24  1  0
  3  6  4  0
  3 27  4  0
  4 22  4  0
  4 26  4  0
  6  7  4  0
  6 13  1  0
  7 19  4  0
  8 18  1  0
  8 23  1  0
  8 28  2  0
  9 17  1  0
  9 24  1  0
 10 11  1  0
 10 24  1  0
 11 23  1  0
 12 14  4  0
 12 16  4  0
 14 19  4  0
 15 18  4  0
 16 20  4  0
 17 25  1  0
 18 26  4  0
 19 29  4  0
 20 29  4  0
 21 23  1  0
 21 25  1  0
 27 29  4  0
M  END
$$$$

 Created by Python create_sdf_string function

 29 32  0  0  0  0  0  0  0  0999 V2000
    5.4450    8.7154   22.6662 C   0  0  0  0  0  0  0  0  0  0  0  0
   10.9154    5.4574   20.5483 C   0  0  0  0  0  0  0  0  0  0  0  0
    7.2709    4.5089   22.7542 C   0  0  0  0  0  0  0  0  0  0  0  0
    5.9698    7.6329   24.6581 C   0  0  0  0  0  0  0  0  0  0  0  0
    4.5542    8.9057   21.7104 O   0  0  0  0  0  0  0  0  0  0  0  0
    6.9895    3.2085   23.0690 C   0  0  0  0  0  0  0  0  0  0  0  0
    7.8391    2.2253   22.7260 N   0  0  0  0  0  0  0  0  0  0  0  0
    8.6968    9.8373   23.6359 C   0  0  0  0  0  0  0  0  0  0  0  0
   12.5135    6.5957   21.8396 C   0  0  0  0  0  0  0  0  0  0  0  0
   10.9406    8.2330   21.1350 C   0  0  0  0  0  0  0  0  0  0  0  0
    9.6648    8.5956   21.7310 C   0  0  0  0  0  0  0  0  0  0  0  0
   10.8829    1.7153   20.9865 C   0  0  0  0  0  0  0  0  0  0  0  0
    5.7768    2.8533   23.7910 C   0  0  0  0  0  0  0  0  0  0  0  0
    9.7977    1.4791   21.6912 N   0  0  0  0  0  0  0  0  0  0  0  0
    6.5976    9.3401   22.6478 N   0  0  0  0  0  0  0  0  0  0  0  0
   11.2031    3.0042   20.6246 C   0  0  0  0  0  0  0  0  0  0  0  0
   12.8688    7.7370   22.7287 C   0  0  0  0  0  0  0  0  0  0  0  0
    7.4487    9.1361   23.6506 C   0  0  0  0  0  0  0  0  0  0  0  0
    8.9772    2.5025   22.0273 C   0  0  0  0  0  0  0  0  0  0  0  0
   10.4859    4.0901   20.9730 C   0  0  0  0  0  0  0  0  0  0  0  0
   11.0962    9.3293   23.5072 C   0  0  0  0  0  0  0  0  0  0  0  0
    5.1273    7.8529   23.6208 N   0  0  0  0  0  0  0  0  0  0  0  0
    9.7552    9.2338   23.0171 N   0  0  0  0  0  0  0  0  0  0  0  0
   11.1797    6.7591   21.3326 N   0  0  0  0  0  0  0  0  0  0  0  0
   11.7728    8.0337   23.7267 C   0  0  0  0  0  0  0  0  0  0  0  0
    7.1194    8.3344   24.6775 C   0  0  0  0  0  0  0  0  0  0  0  0
    8.4311    4.7963   22.0500 C   0  0  0  0  0  0  0  0  0  0  0  0
    8.7393   10.8706   24.1871 O   0  0  0  0  0  0  0  0  0  0  0  0
    9.3093    3.8166   21.6712 C   0  0  0  0  0  0  0  0  0  0  0  0
  1  5  1  0
  1 15  4  0
  1 22  4  0
  2 20  1  0
  2 24  1  0
  3  6  4  0
  3 27  4  0
  4 22  4  0
  4 26  4  0
  6  7  4  0
  6 13  1  0
  7 19  4  0
  8 18  1  0
  8 23  1  0
  8 28  2  0
  9 17  1  0
  9 24  1  0
 10 11  1  0
 10 24  1  0
 11 23  1  0
 12 14  4  0
 12 16  4  0
 14 19  4  0
 15 18  4  0
 16 20  4  0
 17 25  1  0
 18 26  4  0
 19 29  4  0
 20 29  4  0
 21 23  1  0
 21 25  1  0
 27 29  4  0
M  END
$$$$

 Created by Python create_sdf_string function

 29 32  0  0  0  0  0  0  0  0999 V2000
    5.4450    8.7154   22.6662 C   0  0  0  0  0  0  0  0  0  0  0  0
   10.9154    5.4574   20.5483 C   0  0  0  0  0  0  0  0  0  0  0  0
    7.2709    4.5089   22.7542 C   0  0  0  0  0  0  0  0  0  0  0  0
    5.9698    7.6329   24.6581 C   0  0  0  0  0  0  0  0  0  0  0  0
    4.5542    8.9057   21.7104 O   0  0  0  0  0  0  0  0  0  0  0  0
    6.9895    3.2085   23.0690 C   0  0  0  0  0  0  0  0  0  0  0  0
    7.8391    2.2253   22.7260 N   0  0  0  0  0  0  0  0  0  0  0  0
    8.6968    9.8373   23.6359 C   0  0  0  0  0  0  0  0  0  0  0  0
   12.5135    6.5957   21.8396 C   0  0  0  0  0  0  0  0  0  0  0  0
   10.9406    8.2330   21.1350 C   0  0  0  0  0  0  0  0  0  0  0  0
    9.6648    8.5956   21.7310 C   0  0  0  0  0  0  0  0  0  0  0  0
   10.8829    1.7153   20.9865 C   0  0  0  0  0  0  0  0  0  0  0  0
    5.7768    2.8533   23.7910 C   0  0  0  0  0  0  0  0  0  0  0  0
    9.7977    1.4791   21.6912 N   0  0  0  0  0  0  0  0  0  0  0  0
    6.5976    9.3401   22.6478 N   0  0  0  0  0  0  0  0  0  0  0  0
   11.2031    3.0042   20.6246 C   0  0  0  0  0  0  0  0  0  0  0  0
   12.8688    7.7370   22.7287 C   0  0  0  0  0  0  0  0  0  0  0  0
    7.4487    9.1361   23.6506 C   0  0  0  0  0  0  0  0  0  0  0  0
    8.9772    2.5025   22.0273 C   0  0  0  0  0  0  0  0  0  0  0  0
   10.4859    4.0901   20.9730 C   0  0  0  0  0  0  0  0  0  0  0  0
   11.0962    9.3293   23.5072 C   0  0  0  0  0  0  0  0  0  0  0  0
    5.1273    7.8529   23.6208 N   0  0  0  0  0  0  0  0  0  0  0  0
    9.7552    9.2338   23.0171 N   0  0  0  0  0  0  0  0  0  0  0  0
   11.1797    6.7591   21.3326 N   0  0  0  0  0  0  0  0  0  0  0  0
   11.7728    8.0337   23.7267 C   0  0  0  0  0  0  0  0  0  0  0  0
    7.1194    8.3344   24.6775 C   0  0  0  0  0  0  0  0  0  0  0  0
    8.4311    4.7963   22.0500 C   0  0  0  0  0  0  0  0  0  0  0  0
    8.7393   10.8706   24.1871 O   0  0  0  0  0  0  0  0  0  0  0  0
    9.3093    3.8166   21.6712 C   0  0  0  0  0  0  0  0  0  0  0  0
  1  5  1  0
  1 15  4  0
  1 22  4  0
  2 20  1  0
  2 24  1  0
  3  6  4  0
  3 27  4  0
  4 22  4  0
  4 26  4  0
  6  7  4  0
  6 13  1  0
  7 19  4  0
  8 18  1  0
  8 23  1  0
  8 28  2  0
  9 17  1  0
  9 24  1  0
 10 11  1  0
 10 24  1  0
 11 23  1  0
 12 14  4  0
 12 16  4  0
 14 19  4  0
 15 18  4  0
 16 20  4  0
 17 25  1  0
 18 26  4  0
 19 29  4  0
 20 29  4  0
 21 23  1  0
 21 25  1  0
 27 29  4  0
M  END
$$$$

 Created by Python create_sdf_string function

 29 32  0  0  0  0  0  0  0  0999 V2000
    5.4450    8.7154   22.6662 C   0  0  0  0  0  0  0  0  0  0  0  0
   10.9154    5.4574   20.5483 C   0  0  0  0  0  0  0  0  0  0  0  0
    7.2709    4.5089   22.7542 C   0  0  0  0  0  0  0  0  0  0  0  0
    5.9698    7.6329   24.6581 C   0  0  0  0  0  0  0  0  0  0  0  0
    4.5542    8.9057   21.7104 O   0  0  0  0  0  0  0  0  0  0  0  0
    6.9895    3.2085   23.0690 C   0  0  0  0  0  0  0  0  0  0  0  0
    7.8391    2.2253   22.7260 N   0  0  0  0  0  0  0  0  0  0  0  0
    8.6968    9.8373   23.6359 C   0  0  0  0  0  0  0  0  0  0  0  0
   12.5135    6.5957   21.8396 C   0  0  0  0  0  0  0  0  0  0  0  0
   10.9406    8.2330   21.1350 C   0  0  0  0  0  0  0  0  0  0  0  0
    9.6648    8.5956   21.7310 C   0  0  0  0  0  0  0  0  0  0  0  0
   10.8829    1.7153   20.9865 C   0  0  0  0  0  0  0  0  0  0  0  0
    5.7768    2.8533   23.7910 C   0  0  0  0  0  0  0  0  0  0  0  0
    9.7977    1.4791   21.6912 N   0  0  0  0  0  0  0  0  0  0  0  0
    6.5976    9.3401   22.6478 N   0  0  0  0  0  0  0  0  0  0  0  0
   11.2031    3.0042   20.6246 C   0  0  0  0  0  0  0  0  0  0  0  0
   12.8688    7.7370   22.7287 C   0  0  0  0  0  0  0  0  0  0  0  0
    7.4487    9.1361   23.6506 C   0  0  0  0  0  0  0  0  0  0  0  0
    8.9772    2.5025   22.0273 C   0  0  0  0  0  0  0  0  0  0  0  0
   10.4859    4.0901   20.9730 C   0  0  0  0  0  0  0  0  0  0  0  0
   11.0962    9.3293   23.5072 C   0  0  0  0  0  0  0  0  0  0  0  0
    5.1273    7.8529   23.6208 N   0  0  0  0  0  0  0  0  0  0  0  0
    9.7552    9.2338   23.0171 N   0  0  0  0  0  0  0  0  0  0  0  0
   11.1797    6.7591   21.3326 N   0  0  0  0  0  0  0  0  0  0  0  0
   11.7728    8.0337   23.7267 C   0  0  0  0  0  0  0  0  0  0  0  0
    7.1194    8.3344   24.6775 C   0  0  0  0  0  0  0  0  0  0  0  0
    8.4311    4.7963   22.0500 C   0  0  0  0  0  0  0  0  0  0  0  0
    8.7393   10.8706   24.1871 O   0  0  0  0  0  0  0  0  0  0  0  0
    9.3093    3.8166   21.6712 C   0  0  0  0  0  0  0  0  0  0  0  0
  1  5  1  0
  1 15  4  0
  1 22  4  0
  2 20  1  0
  2 24  1  0
  3  6  4  0
  3 27  4  0
  4 22  4  0
  4 26  4  0
  6  7  4  0
  6 13  1  0
  7 19  4  0
  8 18  1  0
  8 23  1  0
  8 28  2  0
  9 17  1  0
  9 24  1  0
 10 11  1  0
 10 24  1  0
 11 23  1  0
 12 14  4  0
 12 16  4  0
 14 19  4  0
 15 18  4  0
 16 20  4  0
 17 25  1  0
 18 26  4  0
 19 29  4  0
 20 29  4  0
 21 23  1  0
 21 25  1  0
 27 29  4  0
M  END
$$$$

 Created by Python create_sdf_string function

 29 32  0  0  0  0  0  0  0  0999 V2000
    5.4450    8.7154   22.6662 C   0  0  0  0  0  0  0  0  0  0  0  0
   10.9154    5.4574   20.5483 C   0  0  0  0  0  0  0  0  0  0  0  0
    7.2709    4.5089   22.7542 C   0  0  0  0  0  0  0  0  0  0  0  0
    5.9698    7.6329   24.6581 C   0  0  0  0  0  0  0  0  0  0  0  0
    4.5542    8.9057   21.7104 O   0  0  0  0  0  0  0  0  0  0  0  0
    6.9895    3.2085   23.0690 C   0  0  0  0  0  0  0  0  0  0  0  0
    7.8391    2.2253   22.7260 N   0  0  0  0  0  0  0  0  0  0  0  0
    8.6968    9.8373   23.6359 C   0  0  0  0  0  0  0  0  0  0  0  0
   12.5135    6.5957   21.8396 C   0  0  0  0  0  0  0  0  0  0  0  0
   10.9406    8.2330   21.1350 C   0  0  0  0  0  0  0  0  0  0  0  0
    9.6648    8.5956   21.7310 C   0  0  0  0  0  0  0  0  0  0  0  0
   10.8829    1.7153   20.9865 C   0  0  0  0  0  0  0  0  0  0  0  0
    5.7768    2.8533   23.7910 C   0  0  0  0  0  0  0  0  0  0  0  0
    9.7977    1.4791   21.6912 N   0  0  0  0  0  0  0  0  0  0  0  0
    6.5976    9.3401   22.6478 N   0  0  0  0  0  0  0  0  0  0  0  0
   11.2031    3.0042   20.6246 C   0  0  0  0  0  0  0  0  0  0  0  0
   12.8688    7.7370   22.7287 C   0  0  0  0  0  0  0  0  0  0  0  0
    7.4487    9.1361   23.6506 C   0  0  0  0  0  0  0  0  0  0  0  0
    8.9772    2.5025   22.0273 C   0  0  0  0  0  0  0  0  0  0  0  0
   10.4859    4.0901   20.9730 C   0  0  0  0  0  0  0  0  0  0  0  0
   11.0962    9.3293   23.5072 C   0  0  0  0  0  0  0  0  0  0  0  0
    5.1273    7.8529   23.6208 N   0  0  0  0  0  0  0  0  0  0  0  0
    9.7552    9.2338   23.0171 N   0  0  0  0  0  0  0  0  0  0  0  0
   11.1797    6.7591   21.3326 N   0  0  0  0  0  0  0  0  0  0  0  0
   11.7728    8.0337   23.7267 C   0  0  0  0  0  0  0  0  0  0  0  0
    7.1194    8.3344   24.6775 C   0  0  0  0  0  0  0  0  0  0  0  0
    8.4311    4.7963   22.0500 C   0  0  0  0  0  0  0  0  0  0  0  0
    8.7393   10.8706   24.1871 O   0  0  0  0  0  0  0  0  0  0  0  0
    9.3093    3.8166   21.6712 C   0  0  0  0  0  0  0  0  0  0  0  0
  1  5  1  0
  1 15  4  0
  1 22  4  0
  2 20  1  0
  2 24  1  0
  3  6  4  0
  3 27  4  0
  4 22  4  0
  4 26  4  0
  6  7  4  0
  6 13  1  0
  7 19  4  0
  8 18  1  0
  8 23  1  0
  8 28  2  0
  9 17  1  0
  9 24  1  0
 10 11  1  0
 10 24  1  0
 11 23  1  0
 12 14  4  0
 12 16  4  0
 14 19  4  0
 15 18  4  0
 16 20  4  0
 17 25  1  0
 18 26  4  0
 19 29  4  0
 20 29  4  0
 21 23  1  0
 21 25  1  0
 27 29  4  0
M  END
$$$$

 Created by Python create_sdf_string function

 29 32  0  0  0  0  0  0  0  0999 V2000
    5.4450    8.7154   22.6662 C   0  0  0  0  0  0  0  0  0  0  0  0
   10.9154    5.4574   20.5483 C   0  0  0  0  0  0  0  0  0  0  0  0
    7.2709    4.5089   22.7542 C   0  0  0  0  0  0  0  0  0  0  0  0
    5.9698    7.6329   24.6581 C   0  0  0  0  0  0  0  0  0  0  0  0
    4.5542    8.9057   21.7104 O   0  0  0  0  0  0  0  0  0  0  0  0
    6.9895    3.2085   23.0690 C   0  0  0  0  0  0  0  0  0  0  0  0
    7.8391    2.2253   22.7260 N   0  0  0  0  0  0  0  0  0  0  0  0
    8.6968    9.8373   23.6359 C   0  0  0  0  0  0  0  0  0  0  0  0
   12.5135    6.5957   21.8396 C   0  0  0  0  0  0  0  0  0  0  0  0
   10.9406    8.2330   21.1350 C   0  0  0  0  0  0  0  0  0  0  0  0
    9.6648    8.5956   21.7310 C   0  0  0  0  0  0  0  0  0  0  0  0
   10.8829    1.7153   20.9865 C   0  0  0  0  0  0  0  0  0  0  0  0
    5.7768    2.8533   23.7910 C   0  0  0  0  0  0  0  0  0  0  0  0
    9.7977    1.4791   21.6912 N   0  0  0  0  0  0  0  0  0  0  0  0
    6.5976    9.3401   22.6478 N   0  0  0  0  0  0  0  0  0  0  0  0
   11.2031    3.0042   20.6246 C   0  0  0  0  0  0  0  0  0  0  0  0
   12.8688    7.7370   22.7287 C   0  0  0  0  0  0  0  0  0  0  0  0
    7.4487    9.1361   23.6506 C   0  0  0  0  0  0  0  0  0  0  0  0
    8.9772    2.5025   22.0273 C   0  0  0  0  0  0  0  0  0  0  0  0
   10.4859    4.0901   20.9730 C   0  0  0  0  0  0  0  0  0  0  0  0
   11.0962    9.3293   23.5072 C   0  0  0  0  0  0  0  0  0  0  0  0
    5.1273    7.8529   23.6208 N   0  0  0  0  0  0  0  0  0  0  0  0
    9.7552    9.2338   23.0171 N   0  0  0  0  0  0  0  0  0  0  0  0
   11.1797    6.7591   21.3326 N   0  0  0  0  0  0  0  0  0  0  0  0
   11.7728    8.0337   23.7267 C   0  0  0  0  0  0  0  0  0  0  0  0
    7.1194    8.3344   24.6775 C   0  0  0  0  0  0  0  0  0  0  0  0
    8.4311    4.7963   22.0500 C   0  0  0  0  0  0  0  0  0  0  0  0
    8.7393   10.8706   24.1871 O   0  0  0  0  0  0  0  0  0  0  0  0
    9.3093    3.8166   21.6712 C   0  0  0  0  0  0  0  0  0  0  0  0
  1  5  1  0
  1 15  4  0
  1 22  4  0
  2 20  1  0
  2 24  1  0
  3  6  4  0
  3 27  4  0
  4 22  4  0
  4 26  4  0
  6  7  4  0
  6 13  1  0
  7 19  4  0
  8 18  1  0
  8 23  1  0
  8 28  2  0
  9 17  1  0
  9 24  1  0
 10 11  1  0
 10 24  1  0
 11 23  1  0
 12 14  4  0
 12 16  4  0
 14 19  4  0
 15 18  4  0
 16 20  4  0
 17 25  1  0
 18 26  4  0
 19 29  4  0
 20 29  4  0
 21 23  1  0
 21 25  1  0
 27 29  4  0
M  END
$$$$

 Created by Python create_sdf_string function

 29 32  0  0  0  0  0  0  0  0999 V2000
    5.4450    8.7154   22.6662 C   0  0  0  0  0  0  0  0  0  0  0  0
   10.9154    5.4574   20.5483 C   0  0  0  0  0  0  0  0  0  0  0  0
    7.2709    4.5089   22.7542 C   0  0  0  0  0  0  0  0  0  0  0  0
    5.9698    7.6329   24.6581 C   0  0  0  0  0  0  0  0  0  0  0  0
    4.5542    8.9057   21.7104 O   0  0  0  0  0  0  0  0  0  0  0  0
    6.9895    3.2085   23.0690 C   0  0  0  0  0  0  0  0  0  0  0  0
    7.8391    2.2253   22.7260 N   0  0  0  0  0  0  0  0  0  0  0  0
    8.6968    9.8373   23.6359 C   0  0  0  0  0  0  0  0  0  0  0  0
   12.5135    6.5957   21.8396 C   0  0  0  0  0  0  0  0  0  0  0  0
   10.9406    8.2330   21.1350 C   0  0  0  0  0  0  0  0  0  0  0  0
    9.6648    8.5956   21.7310 C   0  0  0  0  0  0  0  0  0  0  0  0
   10.8829    1.7153   20.9865 C   0  0  0  0  0  0  0  0  0  0  0  0
    5.7768    2.8533   23.7910 C   0  0  0  0  0  0  0  0  0  0  0  0
    9.7977    1.4791   21.6912 N   0  0  0  0  0  0  0  0  0  0  0  0
    6.5976    9.3401   22.6478 N   0  0  0  0  0  0  0  0  0  0  0  0
   11.2031    3.0042   20.6246 C   0  0  0  0  0  0  0  0  0  0  0  0
   12.8688    7.7370   22.7287 C   0  0  0  0  0  0  0  0  0  0  0  0
    7.4487    9.1361   23.6506 C   0  0  0  0  0  0  0  0  0  0  0  0
    8.9772    2.5025   22.0273 C   0  0  0  0  0  0  0  0  0  0  0  0
   10.4859    4.0901   20.9730 C   0  0  0  0  0  0  0  0  0  0  0  0
   11.0962    9.3293   23.5072 C   0  0  0  0  0  0  0  0  0  0  0  0
    5.1273    7.8529   23.6208 N   0  0  0  0  0  0  0  0  0  0  0  0
    9.7552    9.2338   23.0171 N   0  0  0  0  0  0  0  0  0  0  0  0
   11.1797    6.7591   21.3326 N   0  0  0  0  0  0  0  0  0  0  0  0
   11.7728    8.0337   23.7267 C   0  0  0  0  0  0  0  0  0  0  0  0
    7.1194    8.3344   24.6775 C   0  0  0  0  0  0  0  0  0  0  0  0
    8.4311    4.7963   22.0500 C   0  0  0  0  0  0  0  0  0  0  0  0
    8.7393   10.8706   24.1871 O   0  0  0  0  0  0  0  0  0  0  0  0
    9.3093    3.8166   21.6712 C   0  0  0  0  0  0  0  0  0  0  0  0
  1  5  1  0
  1 15  4  0
  1 22  4  0
  2 20  1  0
  2 24  1  0
  3  6  4  0
  3 27  4  0
  4 22  4  0
  4 26  4  0
  6  7  4  0
  6 13  1  0
  7 19  4  0
  8 18  1  0
  8 23  1  0
  8 28  2  0
  9 17  1  0
  9 24  1  0
 10 11  1  0
 10 24  1  0
 11 23  1  0
 12 14  4  0
 12 16  4  0
 14 19  4  0
 15 18  4  0
 16 20  4  0
 17 25  1  0
 18 26  4  0
 19 29  4  0
 20 29  4  0
 21 23  1  0
 21 25  1  0
 27 29  4  0
M  END
$$$$

 Created by Python create_sdf_string function

 29 32  0  0  0  0  0  0  0  0999 V2000
    5.4450    8.7154   22.6662 C   0  0  0  0  0  0  0  0  0  0  0  0
   10.9154    5.4574   20.5483 C   0  0  0  0  0  0  0  0  0  0  0  0
    7.2709    4.5089   22.7542 C   0  0  0  0  0  0  0  0  0  0  0  0
    5.9698    7.6329   24.6581 C   0  0  0  0  0  0  0  0  0  0  0  0
    4.5542    8.9057   21.7104 O   0  0  0  0  0  0  0  0  0  0  0  0
    6.9895    3.2085   23.0690 C   0  0  0  0  0  0  0  0  0  0  0  0
    7.8391    2.2253   22.7260 N   0  0  0  0  0  0  0  0  0  0  0  0
    8.6968    9.8373   23.6359 C   0  0  0  0  0  0  0  0  0  0  0  0
   12.5135    6.5957   21.8396 C   0  0  0  0  0  0  0  0  0  0  0  0
   10.9406    8.2330   21.1350 C   0  0  0  0  0  0  0  0  0  0  0  0
    9.6648    8.5956   21.7310 C   0  0  0  0  0  0  0  0  0  0  0  0
   10.8829    1.7153   20.9865 C   0  0  0  0  0  0  0  0  0  0  0  0
    5.7768    2.8533   23.7910 C   0  0  0  0  0  0  0  0  0  0  0  0
    9.7977    1.4791   21.6912 N   0  0  0  0  0  0  0  0  0  0  0  0
    6.5976    9.3401   22.6478 N   0  0  0  0  0  0  0  0  0  0  0  0
   11.2031    3.0042   20.6246 C   0  0  0  0  0  0  0  0  0  0  0  0
   12.8688    7.7370   22.7287 C   0  0  0  0  0  0  0  0  0  0  0  0
    7.4487    9.1361   23.6506 C   0  0  0  0  0  0  0  0  0  0  0  0
    8.9772    2.5025   22.0273 C   0  0  0  0  0  0  0  0  0  0  0  0
   10.4859    4.0901   20.9730 C   0  0  0  0  0  0  0  0  0  0  0  0
   11.0962    9.3293   23.5072 C   0  0  0  0  0  0  0  0  0  0  0  0
    5.1273    7.8529   23.6208 N   0  0  0  0  0  0  0  0  0  0  0  0
    9.7552    9.2338   23.0171 N   0  0  0  0  0  0  0  0  0  0  0  0
   11.1797    6.7591   21.3326 N   0  0  0  0  0  0  0  0  0  0  0  0
   11.7728    8.0337   23.7267 C   0  0  0  0  0  0  0  0  0  0  0  0
    7.1194    8.3344   24.6775 C   0  0  0  0  0  0  0  0  0  0  0  0
    8.4311    4.7963   22.0500 C   0  0  0  0  0  0  0  0  0  0  0  0
    8.7393   10.8706   24.1871 O   0  0  0  0  0  0  0  0  0  0  0  0
    9.3093    3.8166   21.6712 C   0  0  0  0  0  0  0  0  0  0  0  0
  1  5  1  0
  1 15  4  0
  1 22  4  0
  2 20  1  0
  2 24  1  0
  3  6  4  0
  3 27  4  0
  4 22  4  0
  4 26  4  0
  6  7  4  0
  6 13  1  0
  7 19  4  0
  8 18  1  0
  8 23  1  0
  8 28  2  0
  9 17  1  0
  9 24  1  0
 10 11  1  0
 10 24  1  0
 11 23  1  0
 12 14  4  0
 12 16  4  0
 14 19  4  0
 15 18  4  0
 16 20  4  0
 17 25  1  0
 18 26  4  0
 19 29  4  0
 20 29  4  0
 21 23  1  0
 21 25  1  0
 27 29  4  0
M  END
$$$$

 Created by Python create_sdf_string function

 29 32  0  0  0  0  0  0  0  0999 V2000
    5.4450    8.7154   22.6662 C   0  0  0  0  0  0  0  0  0  0  0  0
   10.9154    5.4574   20.5483 C   0  0  0  0  0  0  0  0  0  0  0  0
    7.2709    4.5089   22.7542 C   0  0  0  0  0  0  0  0  0  0  0  0
    5.9698    7.6329   24.6581 C   0  0  0  0  0  0  0  0  0  0  0  0
    4.5542    8.9057   21.7104 O   0  0  0  0  0  0  0  0  0  0  0  0
    6.9895    3.2085   23.0690 C   0  0  0  0  0  0  0  0  0  0  0  0
    7.8391    2.2253   22.7260 N   0  0  0  0  0  0  0  0  0  0  0  0
    8.6968    9.8373   23.6359 C   0  0  0  0  0  0  0  0  0  0  0  0
   12.5135    6.5957   21.8396 C   0  0  0  0  0  0  0  0  0  0  0  0
   10.9406    8.2330   21.1350 C   0  0  0  0  0  0  0  0  0  0  0  0
    9.6648    8.5956   21.7310 C   0  0  0  0  0  0  0  0  0  0  0  0
   10.8829    1.7153   20.9865 C   0  0  0  0  0  0  0  0  0  0  0  0
    5.7768    2.8533   23.7910 C   0  0  0  0  0  0  0  0  0  0  0  0
    9.7977    1.4791   21.6912 N   0  0  0  0  0  0  0  0  0  0  0  0
    6.5976    9.3401   22.6478 N   0  0  0  0  0  0  0  0  0  0  0  0
   11.2031    3.0042   20.6246 C   0  0  0  0  0  0  0  0  0  0  0  0
   12.8688    7.7370   22.7287 C   0  0  0  0  0  0  0  0  0  0  0  0
    7.4487    9.1361   23.6506 C   0  0  0  0  0  0  0  0  0  0  0  0
    8.9772    2.5025   22.0273 C   0  0  0  0  0  0  0  0  0  0  0  0
   10.4859    4.0901   20.9730 C   0  0  0  0  0  0  0  0  0  0  0  0
   11.0962    9.3293   23.5072 C   0  0  0  0  0  0  0  0  0  0  0  0
    5.1273    7.8529   23.6208 N   0  0  0  0  0  0  0  0  0  0  0  0
    9.7552    9.2338   23.0171 N   0  0  0  0  0  0  0  0  0  0  0  0
   11.1797    6.7591   21.3326 N   0  0  0  0  0  0  0  0  0  0  0  0
   11.7728    8.0337   23.7267 C   0  0  0  0  0  0  0  0  0  0  0  0
    7.1194    8.3344   24.6775 C   0  0  0  0  0  0  0  0  0  0  0  0
    8.4311    4.7963   22.0500 C   0  0  0  0  0  0  0  0  0  0  0  0
    8.7393   10.8706   24.1871 O   0  0  0  0  0  0  0  0  0  0  0  0
    9.3093    3.8166   21.6712 C   0  0  0  0  0  0  0  0  0  0  0  0
  1  5  1  0
  1 15  4  0
  1 22  4  0
  2 20  1  0
  2 24  1  0
  3  6  4  0
  3 27  4  0
  4 22  4  0
  4 26  4  0
  6  7  4  0
  6 13  1  0
  7 19  4  0
  8 18  1  0
  8 23  1  0
  8 28  2  0
  9 17  1  0
  9 24  1  0
 10 11  1  0
 10 24  1  0
 11 23  1  0
 12 14  4  0
 12 16  4  0
 14 19  4  0
 15 18  4  0
 16 20  4  0
 17 25  1  0
 18 26  4  0
 19 29  4  0
 20 29  4  0
 21 23  1  0
 21 25  1  0
 27 29  4  0
M  END
$$$$

 Created by Python create_sdf_string function

 29 32  0  0  0  0  0  0  0  0999 V2000
    5.4450    8.7154   22.6662 C   0  0  0  0  0  0  0  0  0  0  0  0
   10.9154    5.4574   20.5483 C   0  0  0  0  0  0  0  0  0  0  0  0
    7.2709    4.5089   22.7542 C   0  0  0  0  0  0  0  0  0  0  0  0
    5.9698    7.6329   24.6581 C   0  0  0  0  0  0  0  0  0  0  0  0
    4.5542    8.9057   21.7104 O   0  0  0  0  0  0  0  0  0  0  0  0
    6.9895    3.2085   23.0690 C   0  0  0  0  0  0  0  0  0  0  0  0
    7.8391    2.2253   22.7260 N   0  0  0  0  0  0  0  0  0  0  0  0
    8.6968    9.8373   23.6359 C   0  0  0  0  0  0  0  0  0  0  0  0
   12.5135    6.5957   21.8396 C   0  0  0  0  0  0  0  0  0  0  0  0
   10.9406    8.2330   21.1350 C   0  0  0  0  0  0  0  0  0  0  0  0
    9.6648    8.5956   21.7310 C   0  0  0  0  0  0  0  0  0  0  0  0
   10.8829    1.7153   20.9865 C   0  0  0  0  0  0  0  0  0  0  0  0
    5.7768    2.8533   23.7910 C   0  0  0  0  0  0  0  0  0  0  0  0
    9.7977    1.4791   21.6912 N   0  0  0  0  0  0  0  0  0  0  0  0
    6.5976    9.3401   22.6478 N   0  0  0  0  0  0  0  0  0  0  0  0
   11.2031    3.0042   20.6246 C   0  0  0  0  0  0  0  0  0  0  0  0
   12.8688    7.7370   22.7287 C   0  0  0  0  0  0  0  0  0  0  0  0
    7.4487    9.1361   23.6506 C   0  0  0  0  0  0  0  0  0  0  0  0
    8.9772    2.5025   22.0273 C   0  0  0  0  0  0  0  0  0  0  0  0
   10.4859    4.0901   20.9730 C   0  0  0  0  0  0  0  0  0  0  0  0
   11.0962    9.3293   23.5072 C   0  0  0  0  0  0  0  0  0  0  0  0
    5.1273    7.8529   23.6208 N   0  0  0  0  0  0  0  0  0  0  0  0
    9.7552    9.2338   23.0171 N   0  0  0  0  0  0  0  0  0  0  0  0
   11.1797    6.7591   21.3326 N   0  0  0  0  0  0  0  0  0  0  0  0
   11.7728    8.0337   23.7267 C   0  0  0  0  0  0  0  0  0  0  0  0
    7.1194    8.3344   24.6775 C   0  0  0  0  0  0  0  0  0  0  0  0
    8.4311    4.7963   22.0500 C   0  0  0  0  0  0  0  0  0  0  0  0
    8.7393   10.8706   24.1871 O   0  0  0  0  0  0  0  0  0  0  0  0
    9.3093    3.8166   21.6712 C   0  0  0  0  0  0  0  0  0  0  0  0
  1  5  1  0
  1 15  4  0
  1 22  4  0
  2 20  1  0
  2 24  1  0
  3  6  4  0
  3 27  4  0
  4 22  4  0
  4 26  4  0
  6  7  4  0
  6 13  1  0
  7 19  4  0
  8 18  1  0
  8 23  1  0
  8 28  2  0
  9 17  1  0
  9 24  1  0
 10 11  1  0
 10 24  1  0
 11 23  1  0
 12 14  4  0
 12 16  4  0
 14 19  4  0
 15 18  4  0
 16 20  4  0
 17 25  1  0
 18 26  4  0
 19 29  4  0
 20 29  4  0
 21 23  1  0
 21 25  1  0
 27 29  4  0
M  END
$$$$

 Created by Python create_sdf_string function

 29 32  0  0  0  0  0  0  0  0999 V2000
    5.4450    8.7154   22.6662 C   0  0  0  0  0  0  0  0  0  0  0  0
   10.9154    5.4574   20.5483 C   0  0  0  0  0  0  0  0  0  0  0  0
    7.2709    4.5089   22.7542 C   0  0  0  0  0  0  0  0  0  0  0  0
    5.9698    7.6329   24.6581 C   0  0  0  0  0  0  0  0  0  0  0  0
    4.5542    8.9057   21.7104 O   0  0  0  0  0  0  0  0  0  0  0  0
    6.9895    3.2085   23.0690 C   0  0  0  0  0  0  0  0  0  0  0  0
    7.8391    2.2253   22.7260 N   0  0  0  0  0  0  0  0  0  0  0  0
    8.6968    9.8373   23.6359 C   0  0  0  0  0  0  0  0  0  0  0  0
   12.5135    6.5957   21.8396 C   0  0  0  0  0  0  0  0  0  0  0  0
   10.9406    8.2330   21.1350 C   0  0  0  0  0  0  0  0  0  0  0  0
    9.6648    8.5956   21.7310 C   0  0  0  0  0  0  0  0  0  0  0  0
   10.8829    1.7153   20.9865 C   0  0  0  0  0  0  0  0  0  0  0  0
    5.7768    2.8533   23.7910 C   0  0  0  0  0  0  0  0  0  0  0  0
    9.7977    1.4791   21.6912 N   0  0  0  0  0  0  0  0  0  0  0  0
    6.5976    9.3401   22.6478 N   0  0  0  0  0  0  0  0  0  0  0  0
   11.2031    3.0042   20.6246 C   0  0  0  0  0  0  0  0  0  0  0  0
   12.8688    7.7370   22.7287 C   0  0  0  0  0  0  0  0  0  0  0  0
    7.4487    9.1361   23.6506 C   0  0  0  0  0  0  0  0  0  0  0  0
    8.9772    2.5025   22.0273 C   0  0  0  0  0  0  0  0  0  0  0  0
   10.4859    4.0901   20.9730 C   0  0  0  0  0  0  0  0  0  0  0  0
   11.0962    9.3293   23.5072 C   0  0  0  0  0  0  0  0  0  0  0  0
    5.1273    7.8529   23.6208 N   0  0  0  0  0  0  0  0  0  0  0  0
    9.7552    9.2338   23.0171 N   0  0  0  0  0  0  0  0  0  0  0  0
   11.1797    6.7591   21.3326 N   0  0  0  0  0  0  0  0  0  0  0  0
   11.7728    8.0337   23.7267 C   0  0  0  0  0  0  0  0  0  0  0  0
    7.1194    8.3344   24.6775 C   0  0  0  0  0  0  0  0  0  0  0  0
    8.4311    4.7963   22.0500 C   0  0  0  0  0  0  0  0  0  0  0  0
    8.7393   10.8706   24.1871 O   0  0  0  0  0  0  0  0  0  0  0  0
    9.3093    3.8166   21.6712 C   0  0  0  0  0  0  0  0  0  0  0  0
  1  5  1  0
  1 15  4  0
  1 22  4  0
  2 20  1  0
  2 24  1  0
  3  6  4  0
  3 27  4  0
  4 22  4  0
  4 26  4  0
  6  7  4  0
  6 13  1  0
  7 19  4  0
  8 18  1  0
  8 23  1  0
  8 28  2  0
  9 17  1  0
  9 24  1  0
 10 11  1  0
 10 24  1  0
 11 23  1  0
 12 14  4  0
 12 16  4  0
 14 19  4  0
 15 18  4  0
 16 20  4  0
 17 25  1  0
 18 26  4  0
 19 29  4  0
 20 29  4  0
 21 23  1  0
 21 25  1  0
 27 29  4  0
M  END
$$$$

 Created by Python create_sdf_string function

 29 32  0  0  0  0  0  0  0  0999 V2000
    5.4450    8.7154   22.6662 C   0  0  0  0  0  0  0  0  0  0  0  0
   10.9154    5.4574   20.5483 C   0  0  0  0  0  0  0  0  0  0  0  0
    7.2709    4.5089   22.7542 C   0  0  0  0  0  0  0  0  0  0  0  0
    5.9698    7.6329   24.6581 C   0  0  0  0  0  0  0  0  0  0  0  0
    4.5542    8.9057   21.7104 O   0  0  0  0  0  0  0  0  0  0  0  0
    6.9895    3.2085   23.0690 C   0  0  0  0  0  0  0  0  0  0  0  0
    7.8391    2.2253   22.7260 N   0  0  0  0  0  0  0  0  0  0  0  0
    8.6968    9.8373   23.6359 C   0  0  0  0  0  0  0  0  0  0  0  0
   12.5135    6.5957   21.8396 C   0  0  0  0  0  0  0  0  0  0  0  0
   10.9406    8.2330   21.1350 C   0  0  0  0  0  0  0  0  0  0  0  0
    9.6648    8.5956   21.7310 C   0  0  0  0  0  0  0  0  0  0  0  0
   10.8829    1.7153   20.9865 C   0  0  0  0  0  0  0  0  0  0  0  0
    5.7768    2.8533   23.7910 C   0  0  0  0  0  0  0  0  0  0  0  0
    9.7977    1.4791   21.6912 N   0  0  0  0  0  0  0  0  0  0  0  0
    6.5976    9.3401   22.6478 N   0  0  0  0  0  0  0  0  0  0  0  0
   11.2031    3.0042   20.6246 C   0  0  0  0  0  0  0  0  0  0  0  0
   12.8688    7.7370   22.7287 C   0  0  0  0  0  0  0  0  0  0  0  0
    7.4487    9.1361   23.6506 C   0  0  0  0  0  0  0  0  0  0  0  0
    8.9772    2.5025   22.0273 C   0  0  0  0  0  0  0  0  0  0  0  0
   10.4859    4.0901   20.9730 C   0  0  0  0  0  0  0  0  0  0  0  0
   11.0962    9.3293   23.5072 C   0  0  0  0  0  0  0  0  0  0  0  0
    5.1273    7.8529   23.6208 N   0  0  0  0  0  0  0  0  0  0  0  0
    9.7552    9.2338   23.0171 N   0  0  0  0  0  0  0  0  0  0  0  0
   11.1797    6.7591   21.3326 N   0  0  0  0  0  0  0  0  0  0  0  0
   11.7728    8.0337   23.7267 C   0  0  0  0  0  0  0  0  0  0  0  0
    7.1194    8.3344   24.6775 C   0  0  0  0  0  0  0  0  0  0  0  0
    8.4311    4.7963   22.0500 C   0  0  0  0  0  0  0  0  0  0  0  0
    8.7393   10.8706   24.1871 O   0  0  0  0  0  0  0  0  0  0  0  0
    9.3093    3.8166   21.6712 C   0  0  0  0  0  0  0  0  0  0  0  0
  1  5  1  0
  1 15  4  0
  1 22  4  0
  2 20  1  0
  2 24  1  0
  3  6  4  0
  3 27  4  0
  4 22  4  0
  4 26  4  0
  6  7  4  0
  6 13  1  0
  7 19  4  0
  8 18  1  0
  8 23  1  0
  8 28  2  0
  9 17  1  0
  9 24  1  0
 10 11  1  0
 10 24  1  0
 11 23  1  0
 12 14  4  0
 12 16  4  0
 14 19  4  0
 15 18  4  0
 16 20  4  0
 17 25  1  0
 18 26  4  0
 19 29  4  0
 20 29  4  0
 21 23  1  0
 21 25  1  0
 27 29  4  0
M  END
$$$$

 Created by Python create_sdf_string function

 29 32  0  0  0  0  0  0  0  0999 V2000
    5.4450    8.7154   22.6662 C   0  0  0  0  0  0  0  0  0  0  0  0
   10.9154    5.4574   20.5483 C   0  0  0  0  0  0  0  0  0  0  0  0
    7.2709    4.5089   22.7542 C   0  0  0  0  0  0  0  0  0  0  0  0
    5.9698    7.6329   24.6581 C   0  0  0  0  0  0  0  0  0  0  0  0
    4.5542    8.9057   21.7104 O   0  0  0  0  0  0  0  0  0  0  0  0
    6.9895    3.2085   23.0690 C   0  0  0  0  0  0  0  0  0  0  0  0
    7.8391    2.2253   22.7260 N   0  0  0  0  0  0  0  0  0  0  0  0
    8.6968    9.8373   23.6359 C   0  0  0  0  0  0  0  0  0  0  0  0
   12.5135    6.5957   21.8396 C   0  0  0  0  0  0  0  0  0  0  0  0
   10.9406    8.2330   21.1350 C   0  0  0  0  0  0  0  0  0  0  0  0
    9.6648    8.5956   21.7310 C   0  0  0  0  0  0  0  0  0  0  0  0
   10.8829    1.7153   20.9865 C   0  0  0  0  0  0  0  0  0  0  0  0
    5.7768    2.8533   23.7910 C   0  0  0  0  0  0  0  0  0  0  0  0
    9.7977    1.4791   21.6912 N   0  0  0  0  0  0  0  0  0  0  0  0
    6.5976    9.3401   22.6478 N   0  0  0  0  0  0  0  0  0  0  0  0
   11.2031    3.0042   20.6246 C   0  0  0  0  0  0  0  0  0  0  0  0
   12.8688    7.7370   22.7287 C   0  0  0  0  0  0  0  0  0  0  0  0
    7.4487    9.1361   23.6506 C   0  0  0  0  0  0  0  0  0  0  0  0
    8.9772    2.5025   22.0273 C   0  0  0  0  0  0  0  0  0  0  0  0
   10.4859    4.0901   20.9730 C   0  0  0  0  0  0  0  0  0  0  0  0
   11.0962    9.3293   23.5072 C   0  0  0  0  0  0  0  0  0  0  0  0
    5.1273    7.8529   23.6208 N   0  0  0  0  0  0  0  0  0  0  0  0
    9.7552    9.2338   23.0171 N   0  0  0  0  0  0  0  0  0  0  0  0
   11.1797    6.7591   21.3326 N   0  0  0  0  0  0  0  0  0  0  0  0
   11.7728    8.0337   23.7267 C   0  0  0  0  0  0  0  0  0  0  0  0
    7.1194    8.3344   24.6775 C   0  0  0  0  0  0  0  0  0  0  0  0
    8.4311    4.7963   22.0500 C   0  0  0  0  0  0  0  0  0  0  0  0
    8.7393   10.8706   24.1871 O   0  0  0  0  0  0  0  0  0  0  0  0
    9.3093    3.8166   21.6712 C   0  0  0  0  0  0  0  0  0  0  0  0
  1  5  1  0
  1 15  4  0
  1 22  4  0
  2 20  1  0
  2 24  1  0
  3  6  4  0
  3 27  4  0
  4 22  4  0
  4 26  4  0
  6  7  4  0
  6 13  1  0
  7 19  4  0
  8 18  1  0
  8 23  1  0
  8 28  2  0
  9 17  1  0
  9 24  1  0
 10 11  1  0
 10 24  1  0
 11 23  1  0
 12 14  4  0
 12 16  4  0
 14 19  4  0
 15 18  4  0
 16 20  4  0
 17 25  1  0
 18 26  4  0
 19 29  4  0
 20 29  4  0
 21 23  1  0
 21 25  1  0
 27 29  4  0
M  END
$$$$

 Created by Python create_sdf_string function

 29 32  0  0  0  0  0  0  0  0999 V2000
    5.4450    8.7154   22.6662 C   0  0  0  0  0  0  0  0  0  0  0  0
   10.9154    5.4574   20.5483 C   0  0  0  0  0  0  0  0  0  0  0  0
    7.2709    4.5089   22.7542 C   0  0  0  0  0  0  0  0  0  0  0  0
    5.9698    7.6329   24.6581 C   0  0  0  0  0  0  0  0  0  0  0  0
    4.5542    8.9057   21.7104 O   0  0  0  0  0  0  0  0  0  0  0  0
    6.9895    3.2085   23.0690 C   0  0  0  0  0  0  0  0  0  0  0  0
    7.8391    2.2253   22.7260 N   0  0  0  0  0  0  0  0  0  0  0  0
    8.6968    9.8373   23.6359 C   0  0  0  0  0  0  0  0  0  0  0  0
   12.5135    6.5957   21.8396 C   0  0  0  0  0  0  0  0  0  0  0  0
   10.9406    8.2330   21.1350 C   0  0  0  0  0  0  0  0  0  0  0  0
    9.6648    8.5956   21.7310 C   0  0  0  0  0  0  0  0  0  0  0  0
   10.8829    1.7153   20.9865 C   0  0  0  0  0  0  0  0  0  0  0  0
    5.7768    2.8533   23.7910 C   0  0  0  0  0  0  0  0  0  0  0  0
    9.7977    1.4791   21.6912 N   0  0  0  0  0  0  0  0  0  0  0  0
    6.5976    9.3401   22.6478 N   0  0  0  0  0  0  0  0  0  0  0  0
   11.2031    3.0042   20.6246 C   0  0  0  0  0  0  0  0  0  0  0  0
   12.8688    7.7370   22.7287 C   0  0  0  0  0  0  0  0  0  0  0  0
    7.4487    9.1361   23.6506 C   0  0  0  0  0  0  0  0  0  0  0  0
    8.9772    2.5025   22.0273 C   0  0  0  0  0  0  0  0  0  0  0  0
   10.4859    4.0901   20.9730 C   0  0  0  0  0  0  0  0  0  0  0  0
   11.0962    9.3293   23.5072 C   0  0  0  0  0  0  0  0  0  0  0  0
    5.1273    7.8529   23.6208 N   0  0  0  0  0  0  0  0  0  0  0  0
    9.7552    9.2338   23.0171 N   0  0  0  0  0  0  0  0  0  0  0  0
   11.1797    6.7591   21.3326 N   0  0  0  0  0  0  0  0  0  0  0  0
   11.7728    8.0337   23.7267 C   0  0  0  0  0  0  0  0  0  0  0  0
    7.1194    8.3344   24.6775 C   0  0  0  0  0  0  0  0  0  0  0  0
    8.4311    4.7963   22.0500 C   0  0  0  0  0  0  0  0  0  0  0  0
    8.7393   10.8706   24.1871 O   0  0  0  0  0  0  0  0  0  0  0  0
    9.3093    3.8166   21.6712 C   0  0  0  0  0  0  0  0  0  0  0  0
  1  5  1  0
  1 15  4  0
  1 22  4  0
  2 20  1  0
  2 24  1  0
  3  6  4  0
  3 27  4  0
  4 22  4  0
  4 26  4  0
  6  7  4  0
  6 13  1  0
  7 19  4  0
  8 18  1  0
  8 23  1  0
  8 28  2  0
  9 17  1  0
  9 24  1  0
 10 11  1  0
 10 24  1  0
 11 23  1  0
 12 14  4  0
 12 16  4  0
 14 19  4  0
 15 18  4  0
 16 20  4  0
 17 25  1  0
 18 26  4  0
 19 29  4  0
 20 29  4  0
 21 23  1  0
 21 25  1  0
 27 29  4  0
M  END
$$$$

 Created by Python create_sdf_string function

 29 32  0  0  0  0  0  0  0  0999 V2000
    5.4450    8.7154   22.6662 C   0  0  0  0  0  0  0  0  0  0  0  0
   10.9154    5.4574   20.5483 C   0  0  0  0  0  0  0  0  0  0  0  0
    7.2709    4.5089   22.7542 C   0  0  0  0  0  0  0  0  0  0  0  0
    5.9698    7.6329   24.6581 C   0  0  0  0  0  0  0  0  0  0  0  0
    4.5542    8.9057   21.7104 O   0  0  0  0  0  0  0  0  0  0  0  0
    6.9895    3.2085   23.0690 C   0  0  0  0  0  0  0  0  0  0  0  0
    7.8391    2.2253   22.7260 N   0  0  0  0  0  0  0  0  0  0  0  0
    8.6968    9.8373   23.6359 C   0  0  0  0  0  0  0  0  0  0  0  0
   12.5135    6.5957   21.8396 C   0  0  0  0  0  0  0  0  0  0  0  0
   10.9406    8.2330   21.1350 C   0  0  0  0  0  0  0  0  0  0  0  0
    9.6648    8.5956   21.7310 C   0  0  0  0  0  0  0  0  0  0  0  0
   10.8829    1.7153   20.9865 C   0  0  0  0  0  0  0  0  0  0  0  0
    5.7768    2.8533   23.7910 C   0  0  0  0  0  0  0  0  0  0  0  0
    9.7977    1.4791   21.6912 N   0  0  0  0  0  0  0  0  0  0  0  0
    6.5976    9.3401   22.6478 N   0  0  0  0  0  0  0  0  0  0  0  0
   11.2031    3.0042   20.6246 C   0  0  0  0  0  0  0  0  0  0  0  0
   12.8688    7.7370   22.7287 C   0  0  0  0  0  0  0  0  0  0  0  0
    7.4487    9.1361   23.6506 C   0  0  0  0  0  0  0  0  0  0  0  0
    8.9772    2.5025   22.0273 C   0  0  0  0  0  0  0  0  0  0  0  0
   10.4859    4.0901   20.9730 C   0  0  0  0  0  0  0  0  0  0  0  0
   11.0962    9.3293   23.5072 C   0  0  0  0  0  0  0  0  0  0  0  0
    5.1273    7.8529   23.6208 N   0  0  0  0  0  0  0  0  0  0  0  0
    9.7552    9.2338   23.0171 N   0  0  0  0  0  0  0  0  0  0  0  0
   11.1797    6.7591   21.3326 N   0  0  0  0  0  0  0  0  0  0  0  0
   11.7728    8.0337   23.7267 C   0  0  0  0  0  0  0  0  0  0  0  0
    7.1194    8.3344   24.6775 C   0  0  0  0  0  0  0  0  0  0  0  0
    8.4311    4.7963   22.0500 C   0  0  0  0  0  0  0  0  0  0  0  0
    8.7393   10.8706   24.1871 O   0  0  0  0  0  0  0  0  0  0  0  0
    9.3093    3.8166   21.6712 C   0  0  0  0  0  0  0  0  0  0  0  0
  1  5  1  0
  1 15  4  0
  1 22  4  0
  2 20  1  0
  2 24  1  0
  3  6  4  0
  3 27  4  0
  4 22  4  0
  4 26  4  0
  6  7  4  0
  6 13  1  0
  7 19  4  0
  8 18  1  0
  8 23  1  0
  8 28  2  0
  9 17  1  0
  9 24  1  0
 10 11  1  0
 10 24  1  0
 11 23  1  0
 12 14  4  0
 12 16  4  0
 14 19  4  0
 15 18  4  0
 16 20  4  0
 17 25  1  0
 18 26  4  0
 19 29  4  0
 20 29  4  0
 21 23  1  0
 21 25  1  0
 27 29  4  0
M  END
$$$$

 Created by Python create_sdf_string function

 29 32  0  0  0  0  0  0  0  0999 V2000
    5.4450    8.7154   22.6662 C   0  0  0  0  0  0  0  0  0  0  0  0
   10.9154    5.4574   20.5483 C   0  0  0  0  0  0  0  0  0  0  0  0
    7.2709    4.5089   22.7542 C   0  0  0  0  0  0  0  0  0  0  0  0
    5.9698    7.6329   24.6581 C   0  0  0  0  0  0  0  0  0  0  0  0
    4.5542    8.9057   21.7104 O   0  0  0  0  0  0  0  0  0  0  0  0
    6.9895    3.2085   23.0690 C   0  0  0  0  0  0  0  0  0  0  0  0
    7.8391    2.2253   22.7260 N   0  0  0  0  0  0  0  0  0  0  0  0
    8.6968    9.8373   23.6359 C   0  0  0  0  0  0  0  0  0  0  0  0
   12.5135    6.5957   21.8396 C   0  0  0  0  0  0  0  0  0  0  0  0
   10.9406    8.2330   21.1350 C   0  0  0  0  0  0  0  0  0  0  0  0
    9.6648    8.5956   21.7310 C   0  0  0  0  0  0  0  0  0  0  0  0
   10.8829    1.7153   20.9865 C   0  0  0  0  0  0  0  0  0  0  0  0
    5.7768    2.8533   23.7910 C   0  0  0  0  0  0  0  0  0  0  0  0
    9.7977    1.4791   21.6912 N   0  0  0  0  0  0  0  0  0  0  0  0
    6.5976    9.3401   22.6478 N   0  0  0  0  0  0  0  0  0  0  0  0
   11.2031    3.0042   20.6246 C   0  0  0  0  0  0  0  0  0  0  0  0
   12.8688    7.7370   22.7287 C   0  0  0  0  0  0  0  0  0  0  0  0
    7.4487    9.1361   23.6506 C   0  0  0  0  0  0  0  0  0  0  0  0
    8.9772    2.5025   22.0273 C   0  0  0  0  0  0  0  0  0  0  0  0
   10.4859    4.0901   20.9730 C   0  0  0  0  0  0  0  0  0  0  0  0
   11.0962    9.3293   23.5072 C   0  0  0  0  0  0  0  0  0  0  0  0
    5.1273    7.8529   23.6208 N   0  0  0  0  0  0  0  0  0  0  0  0
    9.7552    9.2338   23.0171 N   0  0  0  0  0  0  0  0  0  0  0  0
   11.1797    6.7591   21.3326 N   0  0  0  0  0  0  0  0  0  0  0  0
   11.7728    8.0337   23.7267 C   0  0  0  0  0  0  0  0  0  0  0  0
    7.1194    8.3344   24.6775 C   0  0  0  0  0  0  0  0  0  0  0  0
    8.4311    4.7963   22.0500 C   0  0  0  0  0  0  0  0  0  0  0  0
    8.7393   10.8706   24.1871 O   0  0  0  0  0  0  0  0  0  0  0  0
    9.3093    3.8166   21.6712 C   0  0  0  0  0  0  0  0  0  0  0  0
  1  5  1  0
  1 15  4  0
  1 22  4  0
  2 20  1  0
  2 24  1  0
  3  6  4  0
  3 27  4  0
  4 22  4  0
  4 26  4  0
  6  7  4  0
  6 13  1  0
  7 19  4  0
  8 18  1  0
  8 23  1  0
  8 28  2  0
  9 17  1  0
  9 24  1  0
 10 11  1  0
 10 24  1  0
 11 23  1  0
 12 14  4  0
 12 16  4  0
 14 19  4  0
 15 18  4  0
 16 20  4  0
 17 25  1  0
 18 26  4  0
 19 29  4  0
 20 29  4  0
 21 23  1  0
 21 25  1  0
 27 29  4  0
M  END
$$$$

 Created by Python create_sdf_string function

 29 32  0  0  0  0  0  0  0  0999 V2000
    5.4450    8.7154   22.6662 C   0  0  0  0  0  0  0  0  0  0  0  0
   10.9154    5.4574   20.5483 C   0  0  0  0  0  0  0  0  0  0  0  0
    7.2709    4.5089   22.7542 C   0  0  0  0  0  0  0  0  0  0  0  0
    5.9698    7.6329   24.6581 C   0  0  0  0  0  0  0  0  0  0  0  0
    4.5542    8.9057   21.7104 O   0  0  0  0  0  0  0  0  0  0  0  0
    6.9895    3.2085   23.0690 C   0  0  0  0  0  0  0  0  0  0  0  0
    7.8391    2.2253   22.7260 N   0  0  0  0  0  0  0  0  0  0  0  0
    8.6968    9.8373   23.6359 C   0  0  0  0  0  0  0  0  0  0  0  0
   12.5135    6.5957   21.8396 C   0  0  0  0  0  0  0  0  0  0  0  0
   10.9406    8.2330   21.1350 C   0  0  0  0  0  0  0  0  0  0  0  0
    9.6648    8.5956   21.7310 C   0  0  0  0  0  0  0  0  0  0  0  0
   10.8829    1.7153   20.9865 C   0  0  0  0  0  0  0  0  0  0  0  0
    5.7768    2.8533   23.7910 C   0  0  0  0  0  0  0  0  0  0  0  0
    9.7977    1.4791   21.6912 N   0  0  0  0  0  0  0  0  0  0  0  0
    6.5976    9.3401   22.6478 N   0  0  0  0  0  0  0  0  0  0  0  0
   11.2031    3.0042   20.6246 C   0  0  0  0  0  0  0  0  0  0  0  0
   12.8688    7.7370   22.7287 C   0  0  0  0  0  0  0  0  0  0  0  0
    7.4487    9.1361   23.6506 C   0  0  0  0  0  0  0  0  0  0  0  0
    8.9772    2.5025   22.0273 C   0  0  0  0  0  0  0  0  0  0  0  0
   10.4859    4.0901   20.9730 C   0  0  0  0  0  0  0  0  0  0  0  0
   11.0962    9.3293   23.5072 C   0  0  0  0  0  0  0  0  0  0  0  0
    5.1273    7.8529   23.6208 N   0  0  0  0  0  0  0  0  0  0  0  0
    9.7552    9.2338   23.0171 N   0  0  0  0  0  0  0  0  0  0  0  0
   11.1797    6.7591   21.3326 N   0  0  0  0  0  0  0  0  0  0  0  0
   11.7728    8.0337   23.7267 C   0  0  0  0  0  0  0  0  0  0  0  0
    7.1194    8.3344   24.6775 C   0  0  0  0  0  0  0  0  0  0  0  0
    8.4311    4.7963   22.0500 C   0  0  0  0  0  0  0  0  0  0  0  0
    8.7393   10.8706   24.1871 O   0  0  0  0  0  0  0  0  0  0  0  0
    9.3093    3.8166   21.6712 C   0  0  0  0  0  0  0  0  0  0  0  0
  1  5  1  0
  1 15  4  0
  1 22  4  0
  2 20  1  0
  2 24  1  0
  3  6  4  0
  3 27  4  0
  4 22  4  0
  4 26  4  0
  6  7  4  0
  6 13  1  0
  7 19  4  0
  8 18  1  0
  8 23  1  0
  8 28  2  0
  9 17  1  0
  9 24  1  0
 10 11  1  0
 10 24  1  0
 11 23  1  0
 12 14  4  0
 12 16  4  0
 14 19  4  0
 15 18  4  0
 16 20  4  0
 17 25  1  0
 18 26  4  0
 19 29  4  0
 20 29  4  0
 21 23  1  0
 21 25  1  0
 27 29  4  0
M  END
$$$$

 Created by Python create_sdf_string function

 29 32  0  0  0  0  0  0  0  0999 V2000
    5.4450    8.7154   22.6662 C   0  0  0  0  0  0  0  0  0  0  0  0
   10.9154    5.4574   20.5483 C   0  0  0  0  0  0  0  0  0  0  0  0
    7.2709    4.5089   22.7542 C   0  0  0  0  0  0  0  0  0  0  0  0
    5.9698    7.6329   24.6581 C   0  0  0  0  0  0  0  0  0  0  0  0
    4.5542    8.9057   21.7104 O   0  0  0  0  0  0  0  0  0  0  0  0
    6.9895    3.2085   23.0690 C   0  0  0  0  0  0  0  0  0  0  0  0
    7.8391    2.2253   22.7260 N   0  0  0  0  0  0  0  0  0  0  0  0
    8.6968    9.8373   23.6359 C   0  0  0  0  0  0  0  0  0  0  0  0
   12.5135    6.5957   21.8396 C   0  0  0  0  0  0  0  0  0  0  0  0
   10.9406    8.2330   21.1350 C   0  0  0  0  0  0  0  0  0  0  0  0
    9.6648    8.5956   21.7310 C   0  0  0  0  0  0  0  0  0  0  0  0
   10.8829    1.7153   20.9865 C   0  0  0  0  0  0  0  0  0  0  0  0
    5.7768    2.8533   23.7910 C   0  0  0  0  0  0  0  0  0  0  0  0
    9.7977    1.4791   21.6912 N   0  0  0  0  0  0  0  0  0  0  0  0
    6.5976    9.3401   22.6478 N   0  0  0  0  0  0  0  0  0  0  0  0
   11.2031    3.0042   20.6246 C   0  0  0  0  0  0  0  0  0  0  0  0
   12.8688    7.7370   22.7287 C   0  0  0  0  0  0  0  0  0  0  0  0
    7.4487    9.1361   23.6506 C   0  0  0  0  0  0  0  0  0  0  0  0
    8.9772    2.5025   22.0273 C   0  0  0  0  0  0  0  0  0  0  0  0
   10.4859    4.0901   20.9730 C   0  0  0  0  0  0  0  0  0  0  0  0
   11.0962    9.3293   23.5072 C   0  0  0  0  0  0  0  0  0  0  0  0
    5.1273    7.8529   23.6208 N   0  0  0  0  0  0  0  0  0  0  0  0
    9.7552    9.2338   23.0171 N   0  0  0  0  0  0  0  0  0  0  0  0
   11.1797    6.7591   21.3326 N   0  0  0  0  0  0  0  0  0  0  0  0
   11.7728    8.0337   23.7267 C   0  0  0  0  0  0  0  0  0  0  0  0
    7.1194    8.3344   24.6775 C   0  0  0  0  0  0  0  0  0  0  0  0
    8.4311    4.7963   22.0500 C   0  0  0  0  0  0  0  0  0  0  0  0
    8.7393   10.8706   24.1871 O   0  0  0  0  0  0  0  0  0  0  0  0
    9.3093    3.8166   21.6712 C   0  0  0  0  0  0  0  0  0  0  0  0
  1  5  1  0
  1 15  4  0
  1 22  4  0
  2 20  1  0
  2 24  1  0
  3  6  4  0
  3 27  4  0
  4 22  4  0
  4 26  4  0
  6  7  4  0
  6 13  1  0
  7 19  4  0
  8 18  1  0
  8 23  1  0
  8 28  2  0
  9 17  1  0
  9 24  1  0
 10 11  1  0
 10 24  1  0
 11 23  1  0
 12 14  4  0
 12 16  4  0
 14 19  4  0
 15 18  4  0
 16 20  4  0
 17 25  1  0
 18 26  4  0
 19 29  4  0
 20 29  4  0
 21 23  1  0
 21 25  1  0
 27 29  4  0
M  END
$$$$

 Created by Python create_sdf_string function

 29 32  0  0  0  0  0  0  0  0999 V2000
    5.4450    8.7154   22.6662 C   0  0  0  0  0  0  0  0  0  0  0  0
   10.9154    5.4574   20.5483 C   0  0  0  0  0  0  0  0  0  0  0  0
    7.2709    4.5089   22.7542 C   0  0  0  0  0  0  0  0  0  0  0  0
    5.9698    7.6329   24.6581 C   0  0  0  0  0  0  0  0  0  0  0  0
    4.5542    8.9057   21.7104 O   0  0  0  0  0  0  0  0  0  0  0  0
    6.9895    3.2085   23.0690 C   0  0  0  0  0  0  0  0  0  0  0  0
    7.8391    2.2253   22.7260 N   0  0  0  0  0  0  0  0  0  0  0  0
    8.6968    9.8373   23.6359 C   0  0  0  0  0  0  0  0  0  0  0  0
   12.5135    6.5957   21.8396 C   0  0  0  0  0  0  0  0  0  0  0  0
   10.9406    8.2330   21.1350 C   0  0  0  0  0  0  0  0  0  0  0  0
    9.6648    8.5956   21.7310 C   0  0  0  0  0  0  0  0  0  0  0  0
   10.8829    1.7153   20.9865 C   0  0  0  0  0  0  0  0  0  0  0  0
    5.7768    2.8533   23.7910 C   0  0  0  0  0  0  0  0  0  0  0  0
    9.7977    1.4791   21.6912 N   0  0  0  0  0  0  0  0  0  0  0  0
    6.5976    9.3401   22.6478 N   0  0  0  0  0  0  0  0  0  0  0  0
   11.2031    3.0042   20.6246 C   0  0  0  0  0  0  0  0  0  0  0  0
   12.8688    7.7370   22.7287 C   0  0  0  0  0  0  0  0  0  0  0  0
    7.4487    9.1361   23.6506 C   0  0  0  0  0  0  0  0  0  0  0  0
    8.9772    2.5025   22.0273 C   0  0  0  0  0  0  0  0  0  0  0  0
   10.4859    4.0901   20.9730 C   0  0  0  0  0  0  0  0  0  0  0  0
   11.0962    9.3293   23.5072 C   0  0  0  0  0  0  0  0  0  0  0  0
    5.1273    7.8529   23.6208 N   0  0  0  0  0  0  0  0  0  0  0  0
    9.7552    9.2338   23.0171 N   0  0  0  0  0  0  0  0  0  0  0  0
   11.1797    6.7591   21.3326 N   0  0  0  0  0  0  0  0  0  0  0  0
   11.7728    8.0337   23.7267 C   0  0  0  0  0  0  0  0  0  0  0  0
    7.1194    8.3344   24.6775 C   0  0  0  0  0  0  0  0  0  0  0  0
    8.4311    4.7963   22.0500 C   0  0  0  0  0  0  0  0  0  0  0  0
    8.7393   10.8706   24.1871 O   0  0  0  0  0  0  0  0  0  0  0  0
    9.3093    3.8166   21.6712 C   0  0  0  0  0  0  0  0  0  0  0  0
  1  5  1  0
  1 15  4  0
  1 22  4  0
  2 20  1  0
  2 24  1  0
  3  6  4  0
  3 27  4  0
  4 22  4  0
  4 26  4  0
  6  7  4  0
  6 13  1  0
  7 19  4  0
  8 18  1  0
  8 23  1  0
  8 28  2  0
  9 17  1  0
  9 24  1  0
 10 11  1  0
 10 24  1  0
 11 23  1  0
 12 14  4  0
 12 16  4  0
 14 19  4  0
 15 18  4  0
 16 20  4  0
 17 25  1  0
 18 26  4  0
 19 29  4  0
 20 29  4  0
 21 23  1  0
 21 25  1  0
 27 29  4  0
M  END
$$$$

 Created by Python create_sdf_string function

 29 32  0  0  0  0  0  0  0  0999 V2000
    5.4450    8.7154   22.6662 C   0  0  0  0  0  0  0  0  0  0  0  0
   10.9154    5.4574   20.5483 C   0  0  0  0  0  0  0  0  0  0  0  0
    7.2709    4.5089   22.7542 C   0  0  0  0  0  0  0  0  0  0  0  0
    5.9698    7.6329   24.6581 C   0  0  0  0  0  0  0  0  0  0  0  0
    4.5542    8.9057   21.7104 O   0  0  0  0  0  0  0  0  0  0  0  0
    6.9895    3.2085   23.0690 C   0  0  0  0  0  0  0  0  0  0  0  0
    7.8391    2.2253   22.7260 N   0  0  0  0  0  0  0  0  0  0  0  0
    8.6968    9.8373   23.6359 C   0  0  0  0  0  0  0  0  0  0  0  0
   12.5135    6.5957   21.8396 C   0  0  0  0  0  0  0  0  0  0  0  0
   10.9406    8.2330   21.1350 C   0  0  0  0  0  0  0  0  0  0  0  0
    9.6648    8.5956   21.7310 C   0  0  0  0  0  0  0  0  0  0  0  0
   10.8829    1.7153   20.9865 C   0  0  0  0  0  0  0  0  0  0  0  0
    5.7768    2.8533   23.7910 C   0  0  0  0  0  0  0  0  0  0  0  0
    9.7977    1.4791   21.6912 N   0  0  0  0  0  0  0  0  0  0  0  0
    6.5976    9.3401   22.6478 N   0  0  0  0  0  0  0  0  0  0  0  0
   11.2031    3.0042   20.6246 C   0  0  0  0  0  0  0  0  0  0  0  0
   12.8688    7.7370   22.7287 C   0  0  0  0  0  0  0  0  0  0  0  0
    7.4487    9.1361   23.6506 C   0  0  0  0  0  0  0  0  0  0  0  0
    8.9772    2.5025   22.0273 C   0  0  0  0  0  0  0  0  0  0  0  0
   10.4859    4.0901   20.9730 C   0  0  0  0  0  0  0  0  0  0  0  0
   11.0962    9.3293   23.5072 C   0  0  0  0  0  0  0  0  0  0  0  0
    5.1273    7.8529   23.6208 N   0  0  0  0  0  0  0  0  0  0  0  0
    9.7552    9.2338   23.0171 N   0  0  0  0  0  0  0  0  0  0  0  0
   11.1797    6.7591   21.3326 N   0  0  0  0  0  0  0  0  0  0  0  0
   11.7728    8.0337   23.7267 C   0  0  0  0  0  0  0  0  0  0  0  0
    7.1194    8.3344   24.6775 C   0  0  0  0  0  0  0  0  0  0  0  0
    8.4311    4.7963   22.0500 C   0  0  0  0  0  0  0  0  0  0  0  0
    8.7393   10.8706   24.1871 O   0  0  0  0  0  0  0  0  0  0  0  0
    9.3093    3.8166   21.6712 C   0  0  0  0  0  0  0  0  0  0  0  0
  1  5  1  0
  1 15  4  0
  1 22  4  0
  2 20  1  0
  2 24  1  0
  3  6  4  0
  3 27  4  0
  4 22  4  0
  4 26  4  0
  6  7  4  0
  6 13  1  0
  7 19  4  0
  8 18  1  0
  8 23  1  0
  8 28  2  0
  9 17  1  0
  9 24  1  0
 10 11  1  0
 10 24  1  0
 11 23  1  0
 12 14  4  0
 12 16  4  0
 14 19  4  0
 15 18  4  0
 16 20  4  0
 17 25  1  0
 18 26  4  0
 19 29  4  0
 20 29  4  0
 21 23  1  0
 21 25  1  0
 27 29  4  0
M  END
$$$$

 Created by Python create_sdf_string function

 29 32  0  0  0  0  0  0  0  0999 V2000
    5.4450    8.7154   22.6662 C   0  0  0  0  0  0  0  0  0  0  0  0
   10.9154    5.4574   20.5483 C   0  0  0  0  0  0  0  0  0  0  0  0
    7.2709    4.5089   22.7542 C   0  0  0  0  0  0  0  0  0  0  0  0
    5.9698    7.6329   24.6581 C   0  0  0  0  0  0  0  0  0  0  0  0
    4.5542    8.9057   21.7104 O   0  0  0  0  0  0  0  0  0  0  0  0
    6.9895    3.2085   23.0690 C   0  0  0  0  0  0  0  0  0  0  0  0
    7.8391    2.2253   22.7260 N   0  0  0  0  0  0  0  0  0  0  0  0
    8.6968    9.8373   23.6359 C   0  0  0  0  0  0  0  0  0  0  0  0
   12.5135    6.5957   21.8396 C   0  0  0  0  0  0  0  0  0  0  0  0
   10.9406    8.2330   21.1350 C   0  0  0  0  0  0  0  0  0  0  0  0
    9.6648    8.5956   21.7310 C   0  0  0  0  0  0  0  0  0  0  0  0
   10.8829    1.7153   20.9865 C   0  0  0  0  0  0  0  0  0  0  0  0
    5.7768    2.8533   23.7910 C   0  0  0  0  0  0  0  0  0  0  0  0
    9.7977    1.4791   21.6912 N   0  0  0  0  0  0  0  0  0  0  0  0
    6.5976    9.3401   22.6478 N   0  0  0  0  0  0  0  0  0  0  0  0
   11.2031    3.0042   20.6246 C   0  0  0  0  0  0  0  0  0  0  0  0
   12.8688    7.7370   22.7287 C   0  0  0  0  0  0  0  0  0  0  0  0
    7.4487    9.1361   23.6506 C   0  0  0  0  0  0  0  0  0  0  0  0
    8.9772    2.5025   22.0273 C   0  0  0  0  0  0  0  0  0  0  0  0
   10.4859    4.0901   20.9730 C   0  0  0  0  0  0  0  0  0  0  0  0
   11.0962    9.3293   23.5072 C   0  0  0  0  0  0  0  0  0  0  0  0
    5.1273    7.8529   23.6208 N   0  0  0  0  0  0  0  0  0  0  0  0
    9.7552    9.2338   23.0171 N   0  0  0  0  0  0  0  0  0  0  0  0
   11.1797    6.7591   21.3326 N   0  0  0  0  0  0  0  0  0  0  0  0
   11.7728    8.0337   23.7267 C   0  0  0  0  0  0  0  0  0  0  0  0
    7.1194    8.3344   24.6775 C   0  0  0  0  0  0  0  0  0  0  0  0
    8.4311    4.7963   22.0500 C   0  0  0  0  0  0  0  0  0  0  0  0
    8.7393   10.8706   24.1871 O   0  0  0  0  0  0  0  0  0  0  0  0
    9.3093    3.8166   21.6712 C   0  0  0  0  0  0  0  0  0  0  0  0
  1  5  1  0
  1 15  4  0
  1 22  4  0
  2 20  1  0
  2 24  1  0
  3  6  4  0
  3 27  4  0
  4 22  4  0
  4 26  4  0
  6  7  4  0
  6 13  1  0
  7 19  4  0
  8 18  1  0
  8 23  1  0
  8 28  2  0
  9 17  1  0
  9 24  1  0
 10 11  1  0
 10 24  1  0
 11 23  1  0
 12 14  4  0
 12 16  4  0
 14 19  4  0
 15 18  4  0
 16 20  4  0
 17 25  1  0
 18 26  4  0
 19 29  4  0
 20 29  4  0
 21 23  1  0
 21 25  1  0
 27 29  4  0
M  END
$$$$

 Created by Python create_sdf_string function

 29 32  0  0  0  0  0  0  0  0999 V2000
    5.4450    8.7154   22.6662 C   0  0  0  0  0  0  0  0  0  0  0  0
   10.9154    5.4574   20.5483 C   0  0  0  0  0  0  0  0  0  0  0  0
    7.2709    4.5089   22.7542 C   0  0  0  0  0  0  0  0  0  0  0  0
    5.9698    7.6329   24.6581 C   0  0  0  0  0  0  0  0  0  0  0  0
    4.5542    8.9057   21.7104 O   0  0  0  0  0  0  0  0  0  0  0  0
    6.9895    3.2085   23.0690 C   0  0  0  0  0  0  0  0  0  0  0  0
    7.8391    2.2253   22.7260 N   0  0  0  0  0  0  0  0  0  0  0  0
    8.6968    9.8373   23.6359 C   0  0  0  0  0  0  0  0  0  0  0  0
   12.5135    6.5957   21.8396 C   0  0  0  0  0  0  0  0  0  0  0  0
   10.9406    8.2330   21.1350 C   0  0  0  0  0  0  0  0  0  0  0  0
    9.6648    8.5956   21.7310 C   0  0  0  0  0  0  0  0  0  0  0  0
   10.8829    1.7153   20.9865 C   0  0  0  0  0  0  0  0  0  0  0  0
    5.7768    2.8533   23.7910 C   0  0  0  0  0  0  0  0  0  0  0  0
    9.7977    1.4791   21.6912 N   0  0  0  0  0  0  0  0  0  0  0  0
    6.5976    9.3401   22.6478 N   0  0  0  0  0  0  0  0  0  0  0  0
   11.2031    3.0042   20.6246 C   0  0  0  0  0  0  0  0  0  0  0  0
   12.8688    7.7370   22.7287 C   0  0  0  0  0  0  0  0  0  0  0  0
    7.4487    9.1361   23.6506 C   0  0  0  0  0  0  0  0  0  0  0  0
    8.9772    2.5025   22.0273 C   0  0  0  0  0  0  0  0  0  0  0  0
   10.4859    4.0901   20.9730 C   0  0  0  0  0  0  0  0  0  0  0  0
   11.0962    9.3293   23.5072 C   0  0  0  0  0  0  0  0  0  0  0  0
    5.1273    7.8529   23.6208 N   0  0  0  0  0  0  0  0  0  0  0  0
    9.7552    9.2338   23.0171 N   0  0  0  0  0  0  0  0  0  0  0  0
   11.1797    6.7591   21.3326 N   0  0  0  0  0  0  0  0  0  0  0  0
   11.7728    8.0337   23.7267 C   0  0  0  0  0  0  0  0  0  0  0  0
    7.1194    8.3344   24.6775 C   0  0  0  0  0  0  0  0  0  0  0  0
    8.4311    4.7963   22.0500 C   0  0  0  0  0  0  0  0  0  0  0  0
    8.7393   10.8706   24.1871 O   0  0  0  0  0  0  0  0  0  0  0  0
    9.3093    3.8166   21.6712 C   0  0  0  0  0  0  0  0  0  0  0  0
  1  5  1  0
  1 15  4  0
  1 22  4  0
  2 20  1  0
  2 24  1  0
  3  6  4  0
  3 27  4  0
  4 22  4  0
  4 26  4  0
  6  7  4  0
  6 13  1  0
  7 19  4  0
  8 18  1  0
  8 23  1  0
  8 28  2  0
  9 17  1  0
  9 24  1  0
 10 11  1  0
 10 24  1  0
 11 23  1  0
 12 14  4  0
 12 16  4  0
 14 19  4  0
 15 18  4  0
 16 20  4  0
 17 25  1  0
 18 26  4  0
 19 29  4  0
 20 29  4  0
 21 23  1  0
 21 25  1  0
 27 29  4  0
M  END
$$$$

 Created by Python create_sdf_string function

 29 32  0  0  0  0  0  0  0  0999 V2000
    5.4450    8.7154   22.6662 C   0  0  0  0  0  0  0  0  0  0  0  0
   10.9154    5.4574   20.5483 C   0  0  0  0  0  0  0  0  0  0  0  0
    7.2709    4.5089   22.7542 C   0  0  0  0  0  0  0  0  0  0  0  0
    5.9698    7.6329   24.6581 C   0  0  0  0  0  0  0  0  0  0  0  0
    4.5542    8.9057   21.7104 O   0  0  0  0  0  0  0  0  0  0  0  0
    6.9895    3.2085   23.0690 C   0  0  0  0  0  0  0  0  0  0  0  0
    7.8391    2.2253   22.7260 N   0  0  0  0  0  0  0  0  0  0  0  0
    8.6968    9.8373   23.6359 C   0  0  0  0  0  0  0  0  0  0  0  0
   12.5135    6.5957   21.8396 C   0  0  0  0  0  0  0  0  0  0  0  0
   10.9406    8.2330   21.1350 C   0  0  0  0  0  0  0  0  0  0  0  0
    9.6648    8.5956   21.7310 C   0  0  0  0  0  0  0  0  0  0  0  0
   10.8829    1.7153   20.9865 C   0  0  0  0  0  0  0  0  0  0  0  0
    5.7768    2.8533   23.7910 C   0  0  0  0  0  0  0  0  0  0  0  0
    9.7977    1.4791   21.6912 N   0  0  0  0  0  0  0  0  0  0  0  0
    6.5976    9.3401   22.6478 N   0  0  0  0  0  0  0  0  0  0  0  0
   11.2031    3.0042   20.6246 C   0  0  0  0  0  0  0  0  0  0  0  0
   12.8688    7.7370   22.7287 C   0  0  0  0  0  0  0  0  0  0  0  0
    7.4487    9.1361   23.6506 C   0  0  0  0  0  0  0  0  0  0  0  0
    8.9772    2.5025   22.0273 C   0  0  0  0  0  0  0  0  0  0  0  0
   10.4859    4.0901   20.9730 C   0  0  0  0  0  0  0  0  0  0  0  0
   11.0962    9.3293   23.5072 C   0  0  0  0  0  0  0  0  0  0  0  0
    5.1273    7.8529   23.6208 N   0  0  0  0  0  0  0  0  0  0  0  0
    9.7552    9.2338   23.0171 N   0  0  0  0  0  0  0  0  0  0  0  0
   11.1797    6.7591   21.3326 N   0  0  0  0  0  0  0  0  0  0  0  0
   11.7728    8.0337   23.7267 C   0  0  0  0  0  0  0  0  0  0  0  0
    7.1194    8.3344   24.6775 C   0  0  0  0  0  0  0  0  0  0  0  0
    8.4311    4.7963   22.0500 C   0  0  0  0  0  0  0  0  0  0  0  0
    8.7393   10.8706   24.1871 O   0  0  0  0  0  0  0  0  0  0  0  0
    9.3093    3.8166   21.6712 C   0  0  0  0  0  0  0  0  0  0  0  0
  1  5  1  0
  1 15  4  0
  1 22  4  0
  2 20  1  0
  2 24  1  0
  3  6  4  0
  3 27  4  0
  4 22  4  0
  4 26  4  0
  6  7  4  0
  6 13  1  0
  7 19  4  0
  8 18  1  0
  8 23  1  0
  8 28  2  0
  9 17  1  0
  9 24  1  0
 10 11  1  0
 10 24  1  0
 11 23  1  0
 12 14  4  0
 12 16  4  0
 14 19  4  0
 15 18  4  0
 16 20  4  0
 17 25  1  0
 18 26  4  0
 19 29  4  0
 20 29  4  0
 21 23  1  0
 21 25  1  0
 27 29  4  0
M  END
$$$$

 Created by Python create_sdf_string function

 29 32  0  0  0  0  0  0  0  0999 V2000
    5.4450    8.7154   22.6662 C   0  0  0  0  0  0  0  0  0  0  0  0
   10.9154    5.4574   20.5483 C   0  0  0  0  0  0  0  0  0  0  0  0
    7.2709    4.5089   22.7542 C   0  0  0  0  0  0  0  0  0  0  0  0
    5.9698    7.6329   24.6581 C   0  0  0  0  0  0  0  0  0  0  0  0
    4.5542    8.9057   21.7104 O   0  0  0  0  0  0  0  0  0  0  0  0
    6.9895    3.2085   23.0690 C   0  0  0  0  0  0  0  0  0  0  0  0
    7.8391    2.2253   22.7260 N   0  0  0  0  0  0  0  0  0  0  0  0
    8.6968    9.8373   23.6359 C   0  0  0  0  0  0  0  0  0  0  0  0
   12.5135    6.5957   21.8396 C   0  0  0  0  0  0  0  0  0  0  0  0
   10.9406    8.2330   21.1350 C   0  0  0  0  0  0  0  0  0  0  0  0
    9.6648    8.5956   21.7310 C   0  0  0  0  0  0  0  0  0  0  0  0
   10.8829    1.7153   20.9865 C   0  0  0  0  0  0  0  0  0  0  0  0
    5.7768    2.8533   23.7910 C   0  0  0  0  0  0  0  0  0  0  0  0
    9.7977    1.4791   21.6912 N   0  0  0  0  0  0  0  0  0  0  0  0
    6.5976    9.3401   22.6478 N   0  0  0  0  0  0  0  0  0  0  0  0
   11.2031    3.0042   20.6246 C   0  0  0  0  0  0  0  0  0  0  0  0
   12.8688    7.7370   22.7287 C   0  0  0  0  0  0  0  0  0  0  0  0
    7.4487    9.1361   23.6506 C   0  0  0  0  0  0  0  0  0  0  0  0
    8.9772    2.5025   22.0273 C   0  0  0  0  0  0  0  0  0  0  0  0
   10.4859    4.0901   20.9730 C   0  0  0  0  0  0  0  0  0  0  0  0
   11.0962    9.3293   23.5072 C   0  0  0  0  0  0  0  0  0  0  0  0
    5.1273    7.8529   23.6208 N   0  0  0  0  0  0  0  0  0  0  0  0
    9.7552    9.2338   23.0171 N   0  0  0  0  0  0  0  0  0  0  0  0
   11.1797    6.7591   21.3326 N   0  0  0  0  0  0  0  0  0  0  0  0
   11.7728    8.0337   23.7267 C   0  0  0  0  0  0  0  0  0  0  0  0
    7.1194    8.3344   24.6775 C   0  0  0  0  0  0  0  0  0  0  0  0
    8.4311    4.7963   22.0500 C   0  0  0  0  0  0  0  0  0  0  0  0
    8.7393   10.8706   24.1871 O   0  0  0  0  0  0  0  0  0  0  0  0
    9.3093    3.8166   21.6712 C   0  0  0  0  0  0  0  0  0  0  0  0
  1  5  1  0
  1 15  4  0
  1 22  4  0
  2 20  1  0
  2 24  1  0
  3  6  4  0
  3 27  4  0
  4 22  4  0
  4 26  4  0
  6  7  4  0
  6 13  1  0
  7 19  4  0
  8 18  1  0
  8 23  1  0
  8 28  2  0
  9 17  1  0
  9 24  1  0
 10 11  1  0
 10 24  1  0
 11 23  1  0
 12 14  4  0
 12 16  4  0
 14 19  4  0
 15 18  4  0
 16 20  4  0
 17 25  1  0
 18 26  4  0
 19 29  4  0
 20 29  4  0
 21 23  1  0
 21 25  1  0
 27 29  4  0
M  END
$$$$

 Created by Python create_sdf_string function

 29 32  0  0  0  0  0  0  0  0999 V2000
    5.4450    8.7154   22.6662 C   0  0  0  0  0  0  0  0  0  0  0  0
   10.9154    5.4574   20.5483 C   0  0  0  0  0  0  0  0  0  0  0  0
    7.2709    4.5089   22.7542 C   0  0  0  0  0  0  0  0  0  0  0  0
    5.9698    7.6329   24.6581 C   0  0  0  0  0  0  0  0  0  0  0  0
    4.5542    8.9057   21.7104 O   0  0  0  0  0  0  0  0  0  0  0  0
    6.9895    3.2085   23.0690 C   0  0  0  0  0  0  0  0  0  0  0  0
    7.8391    2.2253   22.7260 N   0  0  0  0  0  0  0  0  0  0  0  0
    8.6968    9.8373   23.6359 C   0  0  0  0  0  0  0  0  0  0  0  0
   12.5135    6.5957   21.8396 C   0  0  0  0  0  0  0  0  0  0  0  0
   10.9406    8.2330   21.1350 C   0  0  0  0  0  0  0  0  0  0  0  0
    9.6648    8.5956   21.7310 C   0  0  0  0  0  0  0  0  0  0  0  0
   10.8829    1.7153   20.9865 C   0  0  0  0  0  0  0  0  0  0  0  0
    5.7768    2.8533   23.7910 C   0  0  0  0  0  0  0  0  0  0  0  0
    9.7977    1.4791   21.6912 N   0  0  0  0  0  0  0  0  0  0  0  0
    6.5976    9.3401   22.6478 N   0  0  0  0  0  0  0  0  0  0  0  0
   11.2031    3.0042   20.6246 C   0  0  0  0  0  0  0  0  0  0  0  0
   12.8688    7.7370   22.7287 C   0  0  0  0  0  0  0  0  0  0  0  0
    7.4487    9.1361   23.6506 C   0  0  0  0  0  0  0  0  0  0  0  0
    8.9772    2.5025   22.0273 C   0  0  0  0  0  0  0  0  0  0  0  0
   10.4859    4.0901   20.9730 C   0  0  0  0  0  0  0  0  0  0  0  0
   11.0962    9.3293   23.5072 C   0  0  0  0  0  0  0  0  0  0  0  0
    5.1273    7.8529   23.6208 N   0  0  0  0  0  0  0  0  0  0  0  0
    9.7552    9.2338   23.0171 N   0  0  0  0  0  0  0  0  0  0  0  0
   11.1797    6.7591   21.3326 N   0  0  0  0  0  0  0  0  0  0  0  0
   11.7728    8.0337   23.7267 C   0  0  0  0  0  0  0  0  0  0  0  0
    7.1194    8.3344   24.6775 C   0  0  0  0  0  0  0  0  0  0  0  0
    8.4311    4.7963   22.0500 C   0  0  0  0  0  0  0  0  0  0  0  0
    8.7393   10.8706   24.1871 O   0  0  0  0  0  0  0  0  0  0  0  0
    9.3093    3.8166   21.6712 C   0  0  0  0  0  0  0  0  0  0  0  0
  1  5  1  0
  1 15  4  0
  1 22  4  0
  2 20  1  0
  2 24  1  0
  3  6  4  0
  3 27  4  0
  4 22  4  0
  4 26  4  0
  6  7  4  0
  6 13  1  0
  7 19  4  0
  8 18  1  0
  8 23  1  0
  8 28  2  0
  9 17  1  0
  9 24  1  0
 10 11  1  0
 10 24  1  0
 11 23  1  0
 12 14  4  0
 12 16  4  0
 14 19  4  0
 15 18  4  0
 16 20  4  0
 17 25  1  0
 18 26  4  0
 19 29  4  0
 20 29  4  0
 21 23  1  0
 21 25  1  0
 27 29  4  0
M  END
$$$$

 Created by Python create_sdf_string function

 29 32  0  0  0  0  0  0  0  0999 V2000
    5.4450    8.7154   22.6662 C   0  0  0  0  0  0  0  0  0  0  0  0
   10.9154    5.4574   20.5483 C   0  0  0  0  0  0  0  0  0  0  0  0
    7.2709    4.5089   22.7542 C   0  0  0  0  0  0  0  0  0  0  0  0
    5.9698    7.6329   24.6581 C   0  0  0  0  0  0  0  0  0  0  0  0
    4.5542    8.9057   21.7104 O   0  0  0  0  0  0  0  0  0  0  0  0
    6.9895    3.2085   23.0690 C   0  0  0  0  0  0  0  0  0  0  0  0
    7.8391    2.2253   22.7260 N   0  0  0  0  0  0  0  0  0  0  0  0
    8.6968    9.8373   23.6359 C   0  0  0  0  0  0  0  0  0  0  0  0
   12.5135    6.5957   21.8396 C   0  0  0  0  0  0  0  0  0  0  0  0
   10.9406    8.2330   21.1350 C   0  0  0  0  0  0  0  0  0  0  0  0
    9.6648    8.5956   21.7310 C   0  0  0  0  0  0  0  0  0  0  0  0
   10.8829    1.7153   20.9865 C   0  0  0  0  0  0  0  0  0  0  0  0
    5.7768    2.8533   23.7910 C   0  0  0  0  0  0  0  0  0  0  0  0
    9.7977    1.4791   21.6912 N   0  0  0  0  0  0  0  0  0  0  0  0
    6.5976    9.3401   22.6478 N   0  0  0  0  0  0  0  0  0  0  0  0
   11.2031    3.0042   20.6246 C   0  0  0  0  0  0  0  0  0  0  0  0
   12.8688    7.7370   22.7287 C   0  0  0  0  0  0  0  0  0  0  0  0
    7.4487    9.1361   23.6506 C   0  0  0  0  0  0  0  0  0  0  0  0
    8.9772    2.5025   22.0273 C   0  0  0  0  0  0  0  0  0  0  0  0
   10.4859    4.0901   20.9730 C   0  0  0  0  0  0  0  0  0  0  0  0
   11.0962    9.3293   23.5072 C   0  0  0  0  0  0  0  0  0  0  0  0
    5.1273    7.8529   23.6208 N   0  0  0  0  0  0  0  0  0  0  0  0
    9.7552    9.2338   23.0171 N   0  0  0  0  0  0  0  0  0  0  0  0
   11.1797    6.7591   21.3326 N   0  0  0  0  0  0  0  0  0  0  0  0
   11.7728    8.0337   23.7267 C   0  0  0  0  0  0  0  0  0  0  0  0
    7.1194    8.3344   24.6775 C   0  0  0  0  0  0  0  0  0  0  0  0
    8.4311    4.7963   22.0500 C   0  0  0  0  0  0  0  0  0  0  0  0
    8.7393   10.8706   24.1871 O   0  0  0  0  0  0  0  0  0  0  0  0
    9.3093    3.8166   21.6712 C   0  0  0  0  0  0  0  0  0  0  0  0
  1  5  1  0
  1 15  4  0
  1 22  4  0
  2 20  1  0
  2 24  1  0
  3  6  4  0
  3 27  4  0
  4 22  4  0
  4 26  4  0
  6  7  4  0
  6 13  1  0
  7 19  4  0
  8 18  1  0
  8 23  1  0
  8 28  2  0
  9 17  1  0
  9 24  1  0
 10 11  1  0
 10 24  1  0
 11 23  1  0
 12 14  4  0
 12 16  4  0
 14 19  4  0
 15 18  4  0
 16 20  4  0
 17 25  1  0
 18 26  4  0
 19 29  4  0
 20 29  4  0
 21 23  1  0
 21 25  1  0
 27 29  4  0
M  END
$$$$

 Created by Python create_sdf_string function

 29 32  0  0  0  0  0  0  0  0999 V2000
    5.4450    8.7154   22.6662 C   0  0  0  0  0  0  0  0  0  0  0  0
   10.9154    5.4574   20.5483 C   0  0  0  0  0  0  0  0  0  0  0  0
    7.2709    4.5089   22.7542 C   0  0  0  0  0  0  0  0  0  0  0  0
    5.9698    7.6329   24.6581 C   0  0  0  0  0  0  0  0  0  0  0  0
    4.5542    8.9057   21.7104 O   0  0  0  0  0  0  0  0  0  0  0  0
    6.9895    3.2085   23.0690 C   0  0  0  0  0  0  0  0  0  0  0  0
    7.8391    2.2253   22.7260 N   0  0  0  0  0  0  0  0  0  0  0  0
    8.6968    9.8373   23.6359 C   0  0  0  0  0  0  0  0  0  0  0  0
   12.5135    6.5957   21.8396 C   0  0  0  0  0  0  0  0  0  0  0  0
   10.9406    8.2330   21.1350 C   0  0  0  0  0  0  0  0  0  0  0  0
    9.6648    8.5956   21.7310 C   0  0  0  0  0  0  0  0  0  0  0  0
   10.8829    1.7153   20.9865 C   0  0  0  0  0  0  0  0  0  0  0  0
    5.7768    2.8533   23.7910 C   0  0  0  0  0  0  0  0  0  0  0  0
    9.7977    1.4791   21.6912 N   0  0  0  0  0  0  0  0  0  0  0  0
    6.5976    9.3401   22.6478 N   0  0  0  0  0  0  0  0  0  0  0  0
   11.2031    3.0042   20.6246 C   0  0  0  0  0  0  0  0  0  0  0  0
   12.8688    7.7370   22.7287 C   0  0  0  0  0  0  0  0  0  0  0  0
    7.4487    9.1361   23.6506 C   0  0  0  0  0  0  0  0  0  0  0  0
    8.9772    2.5025   22.0273 C   0  0  0  0  0  0  0  0  0  0  0  0
   10.4859    4.0901   20.9730 C   0  0  0  0  0  0  0  0  0  0  0  0
   11.0962    9.3293   23.5072 C   0  0  0  0  0  0  0  0  0  0  0  0
    5.1273    7.8529   23.6208 N   0  0  0  0  0  0  0  0  0  0  0  0
    9.7552    9.2338   23.0171 N   0  0  0  0  0  0  0  0  0  0  0  0
   11.1797    6.7591   21.3326 N   0  0  0  0  0  0  0  0  0  0  0  0
   11.7728    8.0337   23.7267 C   0  0  0  0  0  0  0  0  0  0  0  0
    7.1194    8.3344   24.6775 C   0  0  0  0  0  0  0  0  0  0  0  0
    8.4311    4.7963   22.0500 C   0  0  0  0  0  0  0  0  0  0  0  0
    8.7393   10.8706   24.1871 O   0  0  0  0  0  0  0  0  0  0  0  0
    9.3093    3.8166   21.6712 C   0  0  0  0  0  0  0  0  0  0  0  0
  1  5  1  0
  1 15  4  0
  1 22  4  0
  2 20  1  0
  2 24  1  0
  3  6  4  0
  3 27  4  0
  4 22  4  0
  4 26  4  0
  6  7  4  0
  6 13  1  0
  7 19  4  0
  8 18  1  0
  8 23  1  0
  8 28  2  0
  9 17  1  0
  9 24  1  0
 10 11  1  0
 10 24  1  0
 11 23  1  0
 12 14  4  0
 12 16  4  0
 14 19  4  0
 15 18  4  0
 16 20  4  0
 17 25  1  0
 18 26  4  0
 19 29  4  0
 20 29  4  0
 21 23  1  0
 21 25  1  0
 27 29  4  0
M  END
$$$$

 Created by Python create_sdf_string function

 29 32  0  0  0  0  0  0  0  0999 V2000
    5.4450    8.7154   22.6662 C   0  0  0  0  0  0  0  0  0  0  0  0
   10.9154    5.4574   20.5483 C   0  0  0  0  0  0  0  0  0  0  0  0
    7.2709    4.5089   22.7542 C   0  0  0  0  0  0  0  0  0  0  0  0
    5.9698    7.6329   24.6581 C   0  0  0  0  0  0  0  0  0  0  0  0
    4.5542    8.9057   21.7104 O   0  0  0  0  0  0  0  0  0  0  0  0
    6.9895    3.2085   23.0690 C   0  0  0  0  0  0  0  0  0  0  0  0
    7.8391    2.2253   22.7260 N   0  0  0  0  0  0  0  0  0  0  0  0
    8.6968    9.8373   23.6359 C   0  0  0  0  0  0  0  0  0  0  0  0
   12.5135    6.5957   21.8396 C   0  0  0  0  0  0  0  0  0  0  0  0
   10.9406    8.2330   21.1350 C   0  0  0  0  0  0  0  0  0  0  0  0
    9.6648    8.5956   21.7310 C   0  0  0  0  0  0  0  0  0  0  0  0
   10.8829    1.7153   20.9865 C   0  0  0  0  0  0  0  0  0  0  0  0
    5.7768    2.8533   23.7910 C   0  0  0  0  0  0  0  0  0  0  0  0
    9.7977    1.4791   21.6912 N   0  0  0  0  0  0  0  0  0  0  0  0
    6.5976    9.3401   22.6478 N   0  0  0  0  0  0  0  0  0  0  0  0
   11.2031    3.0042   20.6246 C   0  0  0  0  0  0  0  0  0  0  0  0
   12.8688    7.7370   22.7287 C   0  0  0  0  0  0  0  0  0  0  0  0
    7.4487    9.1361   23.6506 C   0  0  0  0  0  0  0  0  0  0  0  0
    8.9772    2.5025   22.0273 C   0  0  0  0  0  0  0  0  0  0  0  0
   10.4859    4.0901   20.9730 C   0  0  0  0  0  0  0  0  0  0  0  0
   11.0962    9.3293   23.5072 C   0  0  0  0  0  0  0  0  0  0  0  0
    5.1273    7.8529   23.6208 N   0  0  0  0  0  0  0  0  0  0  0  0
    9.7552    9.2338   23.0171 N   0  0  0  0  0  0  0  0  0  0  0  0
   11.1797    6.7591   21.3326 N   0  0  0  0  0  0  0  0  0  0  0  0
   11.7728    8.0337   23.7267 C   0  0  0  0  0  0  0  0  0  0  0  0
    7.1194    8.3344   24.6775 C   0  0  0  0  0  0  0  0  0  0  0  0
    8.4311    4.7963   22.0500 C   0  0  0  0  0  0  0  0  0  0  0  0
    8.7393   10.8706   24.1871 O   0  0  0  0  0  0  0  0  0  0  0  0
    9.3093    3.8166   21.6712 C   0  0  0  0  0  0  0  0  0  0  0  0
  1  5  1  0
  1 15  4  0
  1 22  4  0
  2 20  1  0
  2 24  1  0
  3  6  4  0
  3 27  4  0
  4 22  4  0
  4 26  4  0
  6  7  4  0
  6 13  1  0
  7 19  4  0
  8 18  1  0
  8 23  1  0
  8 28  2  0
  9 17  1  0
  9 24  1  0
 10 11  1  0
 10 24  1  0
 11 23  1  0
 12 14  4  0
 12 16  4  0
 14 19  4  0
 15 18  4  0
 16 20  4  0
 17 25  1  0
 18 26  4  0
 19 29  4  0
 20 29  4  0
 21 23  1  0
 21 25  1  0
 27 29  4  0
M  END
$$$$

 Created by Python create_sdf_string function

 29 32  0  0  0  0  0  0  0  0999 V2000
    5.4450    8.7154   22.6662 C   0  0  0  0  0  0  0  0  0  0  0  0
   10.9154    5.4574   20.5483 C   0  0  0  0  0  0  0  0  0  0  0  0
    7.2709    4.5089   22.7542 C   0  0  0  0  0  0  0  0  0  0  0  0
    5.9698    7.6329   24.6581 C   0  0  0  0  0  0  0  0  0  0  0  0
    4.5542    8.9057   21.7104 O   0  0  0  0  0  0  0  0  0  0  0  0
    6.9895    3.2085   23.0690 C   0  0  0  0  0  0  0  0  0  0  0  0
    7.8391    2.2253   22.7260 N   0  0  0  0  0  0  0  0  0  0  0  0
    8.6968    9.8373   23.6359 C   0  0  0  0  0  0  0  0  0  0  0  0
   12.5135    6.5957   21.8396 C   0  0  0  0  0  0  0  0  0  0  0  0
   10.9406    8.2330   21.1350 C   0  0  0  0  0  0  0  0  0  0  0  0
    9.6648    8.5956   21.7310 C   0  0  0  0  0  0  0  0  0  0  0  0
   10.8829    1.7153   20.9865 C   0  0  0  0  0  0  0  0  0  0  0  0
    5.7768    2.8533   23.7910 C   0  0  0  0  0  0  0  0  0  0  0  0
    9.7977    1.4791   21.6912 N   0  0  0  0  0  0  0  0  0  0  0  0
    6.5976    9.3401   22.6478 N   0  0  0  0  0  0  0  0  0  0  0  0
   11.2031    3.0042   20.6246 C   0  0  0  0  0  0  0  0  0  0  0  0
   12.8688    7.7370   22.7287 C   0  0  0  0  0  0  0  0  0  0  0  0
    7.4487    9.1361   23.6506 C   0  0  0  0  0  0  0  0  0  0  0  0
    8.9772    2.5025   22.0273 C   0  0  0  0  0  0  0  0  0  0  0  0
   10.4859    4.0901   20.9730 C   0  0  0  0  0  0  0  0  0  0  0  0
   11.0962    9.3293   23.5072 C   0  0  0  0  0  0  0  0  0  0  0  0
    5.1273    7.8529   23.6208 N   0  0  0  0  0  0  0  0  0  0  0  0
    9.7552    9.2338   23.0171 N   0  0  0  0  0  0  0  0  0  0  0  0
   11.1797    6.7591   21.3326 N   0  0  0  0  0  0  0  0  0  0  0  0
   11.7728    8.0337   23.7267 C   0  0  0  0  0  0  0  0  0  0  0  0
    7.1194    8.3344   24.6775 C   0  0  0  0  0  0  0  0  0  0  0  0
    8.4311    4.7963   22.0500 C   0  0  0  0  0  0  0  0  0  0  0  0
    8.7393   10.8706   24.1871 O   0  0  0  0  0  0  0  0  0  0  0  0
    9.3093    3.8166   21.6712 C   0  0  0  0  0  0  0  0  0  0  0  0
  1  5  1  0
  1 15  4  0
  1 22  4  0
  2 20  1  0
  2 24  1  0
  3  6  4  0
  3 27  4  0
  4 22  4  0
  4 26  4  0
  6  7  4  0
  6 13  1  0
  7 19  4  0
  8 18  1  0
  8 23  1  0
  8 28  2  0
  9 17  1  0
  9 24  1  0
 10 11  1  0
 10 24  1  0
 11 23  1  0
 12 14  4  0
 12 16  4  0
 14 19  4  0
 15 18  4  0
 16 20  4  0
 17 25  1  0
 18 26  4  0
 19 29  4  0
 20 29  4  0
 21 23  1  0
 21 25  1  0
 27 29  4  0
M  END
$$$$

 Created by Python create_sdf_string function

 29 32  0  0  0  0  0  0  0  0999 V2000
    5.4450    8.7154   22.6662 C   0  0  0  0  0  0  0  0  0  0  0  0
   10.9154    5.4574   20.5483 C   0  0  0  0  0  0  0  0  0  0  0  0
    7.2709    4.5089   22.7542 C   0  0  0  0  0  0  0  0  0  0  0  0
    5.9698    7.6329   24.6581 C   0  0  0  0  0  0  0  0  0  0  0  0
    4.5542    8.9057   21.7104 O   0  0  0  0  0  0  0  0  0  0  0  0
    6.9895    3.2085   23.0690 C   0  0  0  0  0  0  0  0  0  0  0  0
    7.8391    2.2253   22.7260 N   0  0  0  0  0  0  0  0  0  0  0  0
    8.6968    9.8373   23.6359 C   0  0  0  0  0  0  0  0  0  0  0  0
   12.5135    6.5957   21.8396 C   0  0  0  0  0  0  0  0  0  0  0  0
   10.9406    8.2330   21.1350 C   0  0  0  0  0  0  0  0  0  0  0  0
    9.6648    8.5956   21.7310 C   0  0  0  0  0  0  0  0  0  0  0  0
   10.8829    1.7153   20.9865 C   0  0  0  0  0  0  0  0  0  0  0  0
    5.7768    2.8533   23.7910 C   0  0  0  0  0  0  0  0  0  0  0  0
    9.7977    1.4791   21.6912 N   0  0  0  0  0  0  0  0  0  0  0  0
    6.5976    9.3401   22.6478 N   0  0  0  0  0  0  0  0  0  0  0  0
   11.2031    3.0042   20.6246 C   0  0  0  0  0  0  0  0  0  0  0  0
   12.8688    7.7370   22.7287 C   0  0  0  0  0  0  0  0  0  0  0  0
    7.4487    9.1361   23.6506 C   0  0  0  0  0  0  0  0  0  0  0  0
    8.9772    2.5025   22.0273 C   0  0  0  0  0  0  0  0  0  0  0  0
   10.4859    4.0901   20.9730 C   0  0  0  0  0  0  0  0  0  0  0  0
   11.0962    9.3293   23.5072 C   0  0  0  0  0  0  0  0  0  0  0  0
    5.1273    7.8529   23.6208 N   0  0  0  0  0  0  0  0  0  0  0  0
    9.7552    9.2338   23.0171 N   0  0  0  0  0  0  0  0  0  0  0  0
   11.1797    6.7591   21.3326 N   0  0  0  0  0  0  0  0  0  0  0  0
   11.7728    8.0337   23.7267 C   0  0  0  0  0  0  0  0  0  0  0  0
    7.1194    8.3344   24.6775 C   0  0  0  0  0  0  0  0  0  0  0  0
    8.4311    4.7963   22.0500 C   0  0  0  0  0  0  0  0  0  0  0  0
    8.7393   10.8706   24.1871 O   0  0  0  0  0  0  0  0  0  0  0  0
    9.3093    3.8166   21.6712 C   0  0  0  0  0  0  0  0  0  0  0  0
  1  5  1  0
  1 15  4  0
  1 22  4  0
  2 20  1  0
  2 24  1  0
  3  6  4  0
  3 27  4  0
  4 22  4  0
  4 26  4  0
  6  7  4  0
  6 13  1  0
  7 19  4  0
  8 18  1  0
  8 23  1  0
  8 28  2  0
  9 17  1  0
  9 24  1  0
 10 11  1  0
 10 24  1  0
 11 23  1  0
 12 14  4  0
 12 16  4  0
 14 19  4  0
 15 18  4  0
 16 20  4  0
 17 25  1  0
 18 26  4  0
 19 29  4  0
 20 29  4  0
 21 23  1  0
 21 25  1  0
 27 29  4  0
M  END
$$$$

 Created by Python create_sdf_string function

 29 32  0  0  0  0  0  0  0  0999 V2000
    5.4450    8.7154   22.6662 C   0  0  0  0  0  0  0  0  0  0  0  0
   10.9154    5.4574   20.5483 C   0  0  0  0  0  0  0  0  0  0  0  0
    7.2709    4.5089   22.7542 C   0  0  0  0  0  0  0  0  0  0  0  0
    5.9698    7.6329   24.6581 C   0  0  0  0  0  0  0  0  0  0  0  0
    4.5542    8.9057   21.7104 O   0  0  0  0  0  0  0  0  0  0  0  0
    6.9895    3.2085   23.0690 C   0  0  0  0  0  0  0  0  0  0  0  0
    7.8391    2.2253   22.7260 N   0  0  0  0  0  0  0  0  0  0  0  0
    8.6968    9.8373   23.6359 C   0  0  0  0  0  0  0  0  0  0  0  0
   12.5135    6.5957   21.8396 C   0  0  0  0  0  0  0  0  0  0  0  0
   10.9406    8.2330   21.1350 C   0  0  0  0  0  0  0  0  0  0  0  0
    9.6648    8.5956   21.7310 C   0  0  0  0  0  0  0  0  0  0  0  0
   10.8829    1.7153   20.9865 C   0  0  0  0  0  0  0  0  0  0  0  0
    5.7768    2.8533   23.7910 C   0  0  0  0  0  0  0  0  0  0  0  0
    9.7977    1.4791   21.6912 N   0  0  0  0  0  0  0  0  0  0  0  0
    6.5976    9.3401   22.6478 N   0  0  0  0  0  0  0  0  0  0  0  0
   11.2031    3.0042   20.6246 C   0  0  0  0  0  0  0  0  0  0  0  0
   12.8688    7.7370   22.7287 C   0  0  0  0  0  0  0  0  0  0  0  0
    7.4487    9.1361   23.6506 C   0  0  0  0  0  0  0  0  0  0  0  0
    8.9772    2.5025   22.0273 C   0  0  0  0  0  0  0  0  0  0  0  0
   10.4859    4.0901   20.9730 C   0  0  0  0  0  0  0  0  0  0  0  0
   11.0962    9.3293   23.5072 C   0  0  0  0  0  0  0  0  0  0  0  0
    5.1273    7.8529   23.6208 N   0  0  0  0  0  0  0  0  0  0  0  0
    9.7552    9.2338   23.0171 N   0  0  0  0  0  0  0  0  0  0  0  0
   11.1797    6.7591   21.3326 N   0  0  0  0  0  0  0  0  0  0  0  0
   11.7728    8.0337   23.7267 C   0  0  0  0  0  0  0  0  0  0  0  0
    7.1194    8.3344   24.6775 C   0  0  0  0  0  0  0  0  0  0  0  0
    8.4311    4.7963   22.0500 C   0  0  0  0  0  0  0  0  0  0  0  0
    8.7393   10.8706   24.1871 O   0  0  0  0  0  0  0  0  0  0  0  0
    9.3093    3.8166   21.6712 C   0  0  0  0  0  0  0  0  0  0  0  0
  1  5  1  0
  1 15  4  0
  1 22  4  0
  2 20  1  0
  2 24  1  0
  3  6  4  0
  3 27  4  0
  4 22  4  0
  4 26  4  0
  6  7  4  0
  6 13  1  0
  7 19  4  0
  8 18  1  0
  8 23  1  0
  8 28  2  0
  9 17  1  0
  9 24  1  0
 10 11  1  0
 10 24  1  0
 11 23  1  0
 12 14  4  0
 12 16  4  0
 14 19  4  0
 15 18  4  0
 16 20  4  0
 17 25  1  0
 18 26  4  0
 19 29  4  0
 20 29  4  0
 21 23  1  0
 21 25  1  0
 27 29  4  0
M  END
$$$$

 Created by Python create_sdf_string function

 29 32  0  0  0  0  0  0  0  0999 V2000
    5.4450    8.7154   22.6662 C   0  0  0  0  0  0  0  0  0  0  0  0
   10.9154    5.4574   20.5483 C   0  0  0  0  0  0  0  0  0  0  0  0
    7.2709    4.5089   22.7542 C   0  0  0  0  0  0  0  0  0  0  0  0
    5.9698    7.6329   24.6581 C   0  0  0  0  0  0  0  0  0  0  0  0
    4.5542    8.9057   21.7104 O   0  0  0  0  0  0  0  0  0  0  0  0
    6.9895    3.2085   23.0690 C   0  0  0  0  0  0  0  0  0  0  0  0
    7.8391    2.2253   22.7260 N   0  0  0  0  0  0  0  0  0  0  0  0
    8.6968    9.8373   23.6359 C   0  0  0  0  0  0  0  0  0  0  0  0
   12.5135    6.5957   21.8396 C   0  0  0  0  0  0  0  0  0  0  0  0
   10.9406    8.2330   21.1350 C   0  0  0  0  0  0  0  0  0  0  0  0
    9.6648    8.5956   21.7310 C   0  0  0  0  0  0  0  0  0  0  0  0
   10.8829    1.7153   20.9865 C   0  0  0  0  0  0  0  0  0  0  0  0
    5.7768    2.8533   23.7910 C   0  0  0  0  0  0  0  0  0  0  0  0
    9.7977    1.4791   21.6912 N   0  0  0  0  0  0  0  0  0  0  0  0
    6.5976    9.3401   22.6478 N   0  0  0  0  0  0  0  0  0  0  0  0
   11.2031    3.0042   20.6246 C   0  0  0  0  0  0  0  0  0  0  0  0
   12.8688    7.7370   22.7287 C   0  0  0  0  0  0  0  0  0  0  0  0
    7.4487    9.1361   23.6506 C   0  0  0  0  0  0  0  0  0  0  0  0
    8.9772    2.5025   22.0273 C   0  0  0  0  0  0  0  0  0  0  0  0
   10.4859    4.0901   20.9730 C   0  0  0  0  0  0  0  0  0  0  0  0
   11.0962    9.3293   23.5072 C   0  0  0  0  0  0  0  0  0  0  0  0
    5.1273    7.8529   23.6208 N   0  0  0  0  0  0  0  0  0  0  0  0
    9.7552    9.2338   23.0171 N   0  0  0  0  0  0  0  0  0  0  0  0
   11.1797    6.7591   21.3326 N   0  0  0  0  0  0  0  0  0  0  0  0
   11.7728    8.0337   23.7267 C   0  0  0  0  0  0  0  0  0  0  0  0
    7.1194    8.3344   24.6775 C   0  0  0  0  0  0  0  0  0  0  0  0
    8.4311    4.7963   22.0500 C   0  0  0  0  0  0  0  0  0  0  0  0
    8.7393   10.8706   24.1871 O   0  0  0  0  0  0  0  0  0  0  0  0
    9.3093    3.8166   21.6712 C   0  0  0  0  0  0  0  0  0  0  0  0
  1  5  1  0
  1 15  4  0
  1 22  4  0
  2 20  1  0
  2 24  1  0
  3  6  4  0
  3 27  4  0
  4 22  4  0
  4 26  4  0
  6  7  4  0
  6 13  1  0
  7 19  4  0
  8 18  1  0
  8 23  1  0
  8 28  2  0
  9 17  1  0
  9 24  1  0
 10 11  1  0
 10 24  1  0
 11 23  1  0
 12 14  4  0
 12 16  4  0
 14 19  4  0
 15 18  4  0
 16 20  4  0
 17 25  1  0
 18 26  4  0
 19 29  4  0
 20 29  4  0
 21 23  1  0
 21 25  1  0
 27 29  4  0
M  END
$$$$

 Created by Python create_sdf_string function

 29 32  0  0  0  0  0  0  0  0999 V2000
    5.4450    8.7154   22.6662 C   0  0  0  0  0  0  0  0  0  0  0  0
   10.9154    5.4574   20.5483 C   0  0  0  0  0  0  0  0  0  0  0  0
    7.2709    4.5089   22.7542 C   0  0  0  0  0  0  0  0  0  0  0  0
    5.9698    7.6329   24.6581 C   0  0  0  0  0  0  0  0  0  0  0  0
    4.5542    8.9057   21.7104 O   0  0  0  0  0  0  0  0  0  0  0  0
    6.9895    3.2085   23.0690 C   0  0  0  0  0  0  0  0  0  0  0  0
    7.8391    2.2253   22.7260 N   0  0  0  0  0  0  0  0  0  0  0  0
    8.6968    9.8373   23.6359 C   0  0  0  0  0  0  0  0  0  0  0  0
   12.5135    6.5957   21.8396 C   0  0  0  0  0  0  0  0  0  0  0  0
   10.9406    8.2330   21.1350 C   0  0  0  0  0  0  0  0  0  0  0  0
    9.6648    8.5956   21.7310 C   0  0  0  0  0  0  0  0  0  0  0  0
   10.8829    1.7153   20.9865 C   0  0  0  0  0  0  0  0  0  0  0  0
    5.7768    2.8533   23.7910 C   0  0  0  0  0  0  0  0  0  0  0  0
    9.7977    1.4791   21.6912 N   0  0  0  0  0  0  0  0  0  0  0  0
    6.5976    9.3401   22.6478 N   0  0  0  0  0  0  0  0  0  0  0  0
   11.2031    3.0042   20.6246 C   0  0  0  0  0  0  0  0  0  0  0  0
   12.8688    7.7370   22.7287 C   0  0  0  0  0  0  0  0  0  0  0  0
    7.4487    9.1361   23.6506 C   0  0  0  0  0  0  0  0  0  0  0  0
    8.9772    2.5025   22.0273 C   0  0  0  0  0  0  0  0  0  0  0  0
   10.4859    4.0901   20.9730 C   0  0  0  0  0  0  0  0  0  0  0  0
   11.0962    9.3293   23.5072 C   0  0  0  0  0  0  0  0  0  0  0  0
    5.1273    7.8529   23.6208 N   0  0  0  0  0  0  0  0  0  0  0  0
    9.7552    9.2338   23.0171 N   0  0  0  0  0  0  0  0  0  0  0  0
   11.1797    6.7591   21.3326 N   0  0  0  0  0  0  0  0  0  0  0  0
   11.7728    8.0337   23.7267 C   0  0  0  0  0  0  0  0  0  0  0  0
    7.1194    8.3344   24.6775 C   0  0  0  0  0  0  0  0  0  0  0  0
    8.4311    4.7963   22.0500 C   0  0  0  0  0  0  0  0  0  0  0  0
    8.7393   10.8706   24.1871 O   0  0  0  0  0  0  0  0  0  0  0  0
    9.3093    3.8166   21.6712 C   0  0  0  0  0  0  0  0  0  0  0  0
  1  5  1  0
  1 15  4  0
  1 22  4  0
  2 20  1  0
  2 24  1  0
  3  6  4  0
  3 27  4  0
  4 22  4  0
  4 26  4  0
  6  7  4  0
  6 13  1  0
  7 19  4  0
  8 18  1  0
  8 23  1  0
  8 28  2  0
  9 17  1  0
  9 24  1  0
 10 11  1  0
 10 24  1  0
 11 23  1  0
 12 14  4  0
 12 16  4  0
 14 19  4  0
 15 18  4  0
 16 20  4  0
 17 25  1  0
 18 26  4  0
 19 29  4  0
 20 29  4  0
 21 23  1  0
 21 25  1  0
 27 29  4  0
M  END
$$$$

 Created by Python create_sdf_string function

 29 32  0  0  0  0  0  0  0  0999 V2000
    5.4450    8.7154   22.6662 C   0  0  0  0  0  0  0  0  0  0  0  0
   10.9154    5.4574   20.5483 C   0  0  0  0  0  0  0  0  0  0  0  0
    7.2709    4.5089   22.7542 C   0  0  0  0  0  0  0  0  0  0  0  0
    5.9698    7.6329   24.6581 C   0  0  0  0  0  0  0  0  0  0  0  0
    4.5542    8.9057   21.7104 O   0  0  0  0  0  0  0  0  0  0  0  0
    6.9895    3.2085   23.0690 C   0  0  0  0  0  0  0  0  0  0  0  0
    7.8391    2.2253   22.7260 N   0  0  0  0  0  0  0  0  0  0  0  0
    8.6968    9.8373   23.6359 C   0  0  0  0  0  0  0  0  0  0  0  0
   12.5135    6.5957   21.8396 C   0  0  0  0  0  0  0  0  0  0  0  0
   10.9406    8.2330   21.1350 C   0  0  0  0  0  0  0  0  0  0  0  0
    9.6648    8.5956   21.7310 C   0  0  0  0  0  0  0  0  0  0  0  0
   10.8829    1.7153   20.9865 C   0  0  0  0  0  0  0  0  0  0  0  0
    5.7768    2.8533   23.7910 C   0  0  0  0  0  0  0  0  0  0  0  0
    9.7977    1.4791   21.6912 N   0  0  0  0  0  0  0  0  0  0  0  0
    6.5976    9.3401   22.6478 N   0  0  0  0  0  0  0  0  0  0  0  0
   11.2031    3.0042   20.6246 C   0  0  0  0  0  0  0  0  0  0  0  0
   12.8688    7.7370   22.7287 C   0  0  0  0  0  0  0  0  0  0  0  0
    7.4487    9.1361   23.6506 C   0  0  0  0  0  0  0  0  0  0  0  0
    8.9772    2.5025   22.0273 C   0  0  0  0  0  0  0  0  0  0  0  0
   10.4859    4.0901   20.9730 C   0  0  0  0  0  0  0  0  0  0  0  0
   11.0962    9.3293   23.5072 C   0  0  0  0  0  0  0  0  0  0  0  0
    5.1273    7.8529   23.6208 N   0  0  0  0  0  0  0  0  0  0  0  0
    9.7552    9.2338   23.0171 N   0  0  0  0  0  0  0  0  0  0  0  0
   11.1797    6.7591   21.3326 N   0  0  0  0  0  0  0  0  0  0  0  0
   11.7728    8.0337   23.7267 C   0  0  0  0  0  0  0  0  0  0  0  0
    7.1194    8.3344   24.6775 C   0  0  0  0  0  0  0  0  0  0  0  0
    8.4311    4.7963   22.0500 C   0  0  0  0  0  0  0  0  0  0  0  0
    8.7393   10.8706   24.1871 O   0  0  0  0  0  0  0  0  0  0  0  0
    9.3093    3.8166   21.6712 C   0  0  0  0  0  0  0  0  0  0  0  0
  1  5  1  0
  1 15  4  0
  1 22  4  0
  2 20  1  0
  2 24  1  0
  3  6  4  0
  3 27  4  0
  4 22  4  0
  4 26  4  0
  6  7  4  0
  6 13  1  0
  7 19  4  0
  8 18  1  0
  8 23  1  0
  8 28  2  0
  9 17  1  0
  9 24  1  0
 10 11  1  0
 10 24  1  0
 11 23  1  0
 12 14  4  0
 12 16  4  0
 14 19  4  0
 15 18  4  0
 16 20  4  0
 17 25  1  0
 18 26  4  0
 19 29  4  0
 20 29  4  0
 21 23  1  0
 21 25  1  0
 27 29  4  0
M  END
$$$$

 Created by Python create_sdf_string function

 29 32  0  0  0  0  0  0  0  0999 V2000
    5.4450    8.7154   22.6662 C   0  0  0  0  0  0  0  0  0  0  0  0
   10.9154    5.4574   20.5483 C   0  0  0  0  0  0  0  0  0  0  0  0
    7.2709    4.5089   22.7542 C   0  0  0  0  0  0  0  0  0  0  0  0
    5.9698    7.6329   24.6581 C   0  0  0  0  0  0  0  0  0  0  0  0
    4.5542    8.9057   21.7104 O   0  0  0  0  0  0  0  0  0  0  0  0
    6.9895    3.2085   23.0690 C   0  0  0  0  0  0  0  0  0  0  0  0
    7.8391    2.2253   22.7260 N   0  0  0  0  0  0  0  0  0  0  0  0
    8.6968    9.8373   23.6359 C   0  0  0  0  0  0  0  0  0  0  0  0
   12.5135    6.5957   21.8396 C   0  0  0  0  0  0  0  0  0  0  0  0
   10.9406    8.2330   21.1350 C   0  0  0  0  0  0  0  0  0  0  0  0
    9.6648    8.5956   21.7310 C   0  0  0  0  0  0  0  0  0  0  0  0
   10.8829    1.7153   20.9865 C   0  0  0  0  0  0  0  0  0  0  0  0
    5.7768    2.8533   23.7910 C   0  0  0  0  0  0  0  0  0  0  0  0
    9.7977    1.4791   21.6912 N   0  0  0  0  0  0  0  0  0  0  0  0
    6.5976    9.3401   22.6478 N   0  0  0  0  0  0  0  0  0  0  0  0
   11.2031    3.0042   20.6246 C   0  0  0  0  0  0  0  0  0  0  0  0
   12.8688    7.7370   22.7287 C   0  0  0  0  0  0  0  0  0  0  0  0
    7.4487    9.1361   23.6506 C   0  0  0  0  0  0  0  0  0  0  0  0
    8.9772    2.5025   22.0273 C   0  0  0  0  0  0  0  0  0  0  0  0
   10.4859    4.0901   20.9730 C   0  0  0  0  0  0  0  0  0  0  0  0
   11.0962    9.3293   23.5072 C   0  0  0  0  0  0  0  0  0  0  0  0
    5.1273    7.8529   23.6208 N   0  0  0  0  0  0  0  0  0  0  0  0
    9.7552    9.2338   23.0171 N   0  0  0  0  0  0  0  0  0  0  0  0
   11.1797    6.7591   21.3326 N   0  0  0  0  0  0  0  0  0  0  0  0
   11.7728    8.0337   23.7267 C   0  0  0  0  0  0  0  0  0  0  0  0
    7.1194    8.3344   24.6775 C   0  0  0  0  0  0  0  0  0  0  0  0
    8.4311    4.7963   22.0500 C   0  0  0  0  0  0  0  0  0  0  0  0
    8.7393   10.8706   24.1871 O   0  0  0  0  0  0  0  0  0  0  0  0
    9.3093    3.8166   21.6712 C   0  0  0  0  0  0  0  0  0  0  0  0
  1  5  1  0
  1 15  4  0
  1 22  4  0
  2 20  1  0
  2 24  1  0
  3  6  4  0
  3 27  4  0
  4 22  4  0
  4 26  4  0
  6  7  4  0
  6 13  1  0
  7 19  4  0
  8 18  1  0
  8 23  1  0
  8 28  2  0
  9 17  1  0
  9 24  1  0
 10 11  1  0
 10 24  1  0
 11 23  1  0
 12 14  4  0
 12 16  4  0
 14 19  4  0
 15 18  4  0
 16 20  4  0
 17 25  1  0
 18 26  4  0
 19 29  4  0
 20 29  4  0
 21 23  1  0
 21 25  1  0
 27 29  4  0
M  END
$$$$

 Created by Python create_sdf_string function

 29 32  0  0  0  0  0  0  0  0999 V2000
    5.4450    8.7154   22.6662 C   0  0  0  0  0  0  0  0  0  0  0  0
   10.9154    5.4574   20.5483 C   0  0  0  0  0  0  0  0  0  0  0  0
    7.2709    4.5089   22.7542 C   0  0  0  0  0  0  0  0  0  0  0  0
    5.9698    7.6329   24.6581 C   0  0  0  0  0  0  0  0  0  0  0  0
    4.5542    8.9057   21.7104 O   0  0  0  0  0  0  0  0  0  0  0  0
    6.9895    3.2085   23.0690 C   0  0  0  0  0  0  0  0  0  0  0  0
    7.8391    2.2253   22.7260 N   0  0  0  0  0  0  0  0  0  0  0  0
    8.6968    9.8373   23.6359 C   0  0  0  0  0  0  0  0  0  0  0  0
   12.5135    6.5957   21.8396 C   0  0  0  0  0  0  0  0  0  0  0  0
   10.9406    8.2330   21.1350 C   0  0  0  0  0  0  0  0  0  0  0  0
    9.6648    8.5956   21.7310 C   0  0  0  0  0  0  0  0  0  0  0  0
   10.8829    1.7153   20.9865 C   0  0  0  0  0  0  0  0  0  0  0  0
    5.7768    2.8533   23.7910 C   0  0  0  0  0  0  0  0  0  0  0  0
    9.7977    1.4791   21.6912 N   0  0  0  0  0  0  0  0  0  0  0  0
    6.5976    9.3401   22.6478 N   0  0  0  0  0  0  0  0  0  0  0  0
   11.2031    3.0042   20.6246 C   0  0  0  0  0  0  0  0  0  0  0  0
   12.8688    7.7370   22.7287 C   0  0  0  0  0  0  0  0  0  0  0  0
    7.4487    9.1361   23.6506 C   0  0  0  0  0  0  0  0  0  0  0  0
    8.9772    2.5025   22.0273 C   0  0  0  0  0  0  0  0  0  0  0  0
   10.4859    4.0901   20.9730 C   0  0  0  0  0  0  0  0  0  0  0  0
   11.0962    9.3293   23.5072 C   0  0  0  0  0  0  0  0  0  0  0  0
    5.1273    7.8529   23.6208 N   0  0  0  0  0  0  0  0  0  0  0  0
    9.7552    9.2338   23.0171 N   0  0  0  0  0  0  0  0  0  0  0  0
   11.1797    6.7591   21.3326 N   0  0  0  0  0  0  0  0  0  0  0  0
   11.7728    8.0337   23.7267 C   0  0  0  0  0  0  0  0  0  0  0  0
    7.1194    8.3344   24.6775 C   0  0  0  0  0  0  0  0  0  0  0  0
    8.4311    4.7963   22.0500 C   0  0  0  0  0  0  0  0  0  0  0  0
    8.7393   10.8706   24.1871 O   0  0  0  0  0  0  0  0  0  0  0  0
    9.3093    3.8166   21.6712 C   0  0  0  0  0  0  0  0  0  0  0  0
  1  5  1  0
  1 15  4  0
  1 22  4  0
  2 20  1  0
  2 24  1  0
  3  6  4  0
  3 27  4  0
  4 22  4  0
  4 26  4  0
  6  7  4  0
  6 13  1  0
  7 19  4  0
  8 18  1  0
  8 23  1  0
  8 28  2  0
  9 17  1  0
  9 24  1  0
 10 11  1  0
 10 24  1  0
 11 23  1  0
 12 14  4  0
 12 16  4  0
 14 19  4  0
 15 18  4  0
 16 20  4  0
 17 25  1  0
 18 26  4  0
 19 29  4  0
 20 29  4  0
 21 23  1  0
 21 25  1  0
 27 29  4  0
M  END
$$$$

 Created by Python create_sdf_string function

 29 32  0  0  0  0  0  0  0  0999 V2000
    5.4450    8.7154   22.6662 C   0  0  0  0  0  0  0  0  0  0  0  0
   10.9154    5.4574   20.5483 C   0  0  0  0  0  0  0  0  0  0  0  0
    7.2709    4.5089   22.7542 C   0  0  0  0  0  0  0  0  0  0  0  0
    5.9698    7.6329   24.6581 C   0  0  0  0  0  0  0  0  0  0  0  0
    4.5542    8.9057   21.7104 O   0  0  0  0  0  0  0  0  0  0  0  0
    6.9895    3.2085   23.0690 C   0  0  0  0  0  0  0  0  0  0  0  0
    7.8391    2.2253   22.7260 N   0  0  0  0  0  0  0  0  0  0  0  0
    8.6968    9.8373   23.6359 C   0  0  0  0  0  0  0  0  0  0  0  0
   12.5135    6.5957   21.8396 C   0  0  0  0  0  0  0  0  0  0  0  0
   10.9406    8.2330   21.1350 C   0  0  0  0  0  0  0  0  0  0  0  0
    9.6648    8.5956   21.7310 C   0  0  0  0  0  0  0  0  0  0  0  0
   10.8829    1.7153   20.9865 C   0  0  0  0  0  0  0  0  0  0  0  0
    5.7768    2.8533   23.7910 C   0  0  0  0  0  0  0  0  0  0  0  0
    9.7977    1.4791   21.6912 N   0  0  0  0  0  0  0  0  0  0  0  0
    6.5976    9.3401   22.6478 N   0  0  0  0  0  0  0  0  0  0  0  0
   11.2031    3.0042   20.6246 C   0  0  0  0  0  0  0  0  0  0  0  0
   12.8688    7.7370   22.7287 C   0  0  0  0  0  0  0  0  0  0  0  0
    7.4487    9.1361   23.6506 C   0  0  0  0  0  0  0  0  0  0  0  0
    8.9772    2.5025   22.0273 C   0  0  0  0  0  0  0  0  0  0  0  0
   10.4859    4.0901   20.9730 C   0  0  0  0  0  0  0  0  0  0  0  0
   11.0962    9.3293   23.5072 C   0  0  0  0  0  0  0  0  0  0  0  0
    5.1273    7.8529   23.6208 N   0  0  0  0  0  0  0  0  0  0  0  0
    9.7552    9.2338   23.0171 N   0  0  0  0  0  0  0  0  0  0  0  0
   11.1797    6.7591   21.3326 N   0  0  0  0  0  0  0  0  0  0  0  0
   11.7728    8.0337   23.7267 C   0  0  0  0  0  0  0  0  0  0  0  0
    7.1194    8.3344   24.6775 C   0  0  0  0  0  0  0  0  0  0  0  0
    8.4311    4.7963   22.0500 C   0  0  0  0  0  0  0  0  0  0  0  0
    8.7393   10.8706   24.1871 O   0  0  0  0  0  0  0  0  0  0  0  0
    9.3093    3.8166   21.6712 C   0  0  0  0  0  0  0  0  0  0  0  0
  1  5  1  0
  1 15  4  0
  1 22  4  0
  2 20  1  0
  2 24  1  0
  3  6  4  0
  3 27  4  0
  4 22  4  0
  4 26  4  0
  6  7  4  0
  6 13  1  0
  7 19  4  0
  8 18  1  0
  8 23  1  0
  8 28  2  0
  9 17  1  0
  9 24  1  0
 10 11  1  0
 10 24  1  0
 11 23  1  0
 12 14  4  0
 12 16  4  0
 14 19  4  0
 15 18  4  0
 16 20  4  0
 17 25  1  0
 18 26  4  0
 19 29  4  0
 20 29  4  0
 21 23  1  0
 21 25  1  0
 27 29  4  0
M  END
$$$$

 Created by Python create_sdf_string function

 29 32  0  0  0  0  0  0  0  0999 V2000
    5.4450    8.7154   22.6662 C   0  0  0  0  0  0  0  0  0  0  0  0
   10.9154    5.4574   20.5483 C   0  0  0  0  0  0  0  0  0  0  0  0
    7.2709    4.5089   22.7542 C   0  0  0  0  0  0  0  0  0  0  0  0
    5.9698    7.6329   24.6581 C   0  0  0  0  0  0  0  0  0  0  0  0
    4.5542    8.9057   21.7104 O   0  0  0  0  0  0  0  0  0  0  0  0
    6.9895    3.2085   23.0690 C   0  0  0  0  0  0  0  0  0  0  0  0
    7.8391    2.2253   22.7260 N   0  0  0  0  0  0  0  0  0  0  0  0
    8.6968    9.8373   23.6359 C   0  0  0  0  0  0  0  0  0  0  0  0
   12.5135    6.5957   21.8396 C   0  0  0  0  0  0  0  0  0  0  0  0
   10.9406    8.2330   21.1350 C   0  0  0  0  0  0  0  0  0  0  0  0
    9.6648    8.5956   21.7310 C   0  0  0  0  0  0  0  0  0  0  0  0
   10.8829    1.7153   20.9865 C   0  0  0  0  0  0  0  0  0  0  0  0
    5.7768    2.8533   23.7910 C   0  0  0  0  0  0  0  0  0  0  0  0
    9.7977    1.4791   21.6912 N   0  0  0  0  0  0  0  0  0  0  0  0
    6.5976    9.3401   22.6478 N   0  0  0  0  0  0  0  0  0  0  0  0
   11.2031    3.0042   20.6246 C   0  0  0  0  0  0  0  0  0  0  0  0
   12.8688    7.7370   22.7287 C   0  0  0  0  0  0  0  0  0  0  0  0
    7.4487    9.1361   23.6506 C   0  0  0  0  0  0  0  0  0  0  0  0
    8.9772    2.5025   22.0273 C   0  0  0  0  0  0  0  0  0  0  0  0
   10.4859    4.0901   20.9730 C   0  0  0  0  0  0  0  0  0  0  0  0
   11.0962    9.3293   23.5072 C   0  0  0  0  0  0  0  0  0  0  0  0
    5.1273    7.8529   23.6208 N   0  0  0  0  0  0  0  0  0  0  0  0
    9.7552    9.2338   23.0171 N   0  0  0  0  0  0  0  0  0  0  0  0
   11.1797    6.7591   21.3326 N   0  0  0  0  0  0  0  0  0  0  0  0
   11.7728    8.0337   23.7267 C   0  0  0  0  0  0  0  0  0  0  0  0
    7.1194    8.3344   24.6775 C   0  0  0  0  0  0  0  0  0  0  0  0
    8.4311    4.7963   22.0500 C   0  0  0  0  0  0  0  0  0  0  0  0
    8.7393   10.8706   24.1871 O   0  0  0  0  0  0  0  0  0  0  0  0
    9.3093    3.8166   21.6712 C   0  0  0  0  0  0  0  0  0  0  0  0
  1  5  1  0
  1 15  4  0
  1 22  4  0
  2 20  1  0
  2 24  1  0
  3  6  4  0
  3 27  4  0
  4 22  4  0
  4 26  4  0
  6  7  4  0
  6 13  1  0
  7 19  4  0
  8 18  1  0
  8 23  1  0
  8 28  2  0
  9 17  1  0
  9 24  1  0
 10 11  1  0
 10 24  1  0
 11 23  1  0
 12 14  4  0
 12 16  4  0
 14 19  4  0
 15 18  4  0
 16 20  4  0
 17 25  1  0
 18 26  4  0
 19 29  4  0
 20 29  4  0
 21 23  1  0
 21 25  1  0
 27 29  4  0
M  END
$$$$

 Created by Python create_sdf_string function

 29 32  0  0  0  0  0  0  0  0999 V2000
    5.4450    8.7154   22.6662 C   0  0  0  0  0  0  0  0  0  0  0  0
   10.9154    5.4574   20.5483 C   0  0  0  0  0  0  0  0  0  0  0  0
    7.2709    4.5089   22.7542 C   0  0  0  0  0  0  0  0  0  0  0  0
    5.9698    7.6329   24.6581 C   0  0  0  0  0  0  0  0  0  0  0  0
    4.5542    8.9057   21.7104 O   0  0  0  0  0  0  0  0  0  0  0  0
    6.9895    3.2085   23.0690 C   0  0  0  0  0  0  0  0  0  0  0  0
    7.8391    2.2253   22.7260 N   0  0  0  0  0  0  0  0  0  0  0  0
    8.6968    9.8373   23.6359 C   0  0  0  0  0  0  0  0  0  0  0  0
   12.5135    6.5957   21.8396 C   0  0  0  0  0  0  0  0  0  0  0  0
   10.9406    8.2330   21.1350 C   0  0  0  0  0  0  0  0  0  0  0  0
    9.6648    8.5956   21.7310 C   0  0  0  0  0  0  0  0  0  0  0  0
   10.8829    1.7153   20.9865 C   0  0  0  0  0  0  0  0  0  0  0  0
    5.7768    2.8533   23.7910 C   0  0  0  0  0  0  0  0  0  0  0  0
    9.7977    1.4791   21.6912 N   0  0  0  0  0  0  0  0  0  0  0  0
    6.5976    9.3401   22.6478 N   0  0  0  0  0  0  0  0  0  0  0  0
   11.2031    3.0042   20.6246 C   0  0  0  0  0  0  0  0  0  0  0  0
   12.8688    7.7370   22.7287 C   0  0  0  0  0  0  0  0  0  0  0  0
    7.4487    9.1361   23.6506 C   0  0  0  0  0  0  0  0  0  0  0  0
    8.9772    2.5025   22.0273 C   0  0  0  0  0  0  0  0  0  0  0  0
   10.4859    4.0901   20.9730 C   0  0  0  0  0  0  0  0  0  0  0  0
   11.0962    9.3293   23.5072 C   0  0  0  0  0  0  0  0  0  0  0  0
    5.1273    7.8529   23.6208 N   0  0  0  0  0  0  0  0  0  0  0  0
    9.7552    9.2338   23.0171 N   0  0  0  0  0  0  0  0  0  0  0  0
   11.1797    6.7591   21.3326 N   0  0  0  0  0  0  0  0  0  0  0  0
   11.7728    8.0337   23.7267 C   0  0  0  0  0  0  0  0  0  0  0  0
    7.1194    8.3344   24.6775 C   0  0  0  0  0  0  0  0  0  0  0  0
    8.4311    4.7963   22.0500 C   0  0  0  0  0  0  0  0  0  0  0  0
    8.7393   10.8706   24.1871 O   0  0  0  0  0  0  0  0  0  0  0  0
    9.3093    3.8166   21.6712 C   0  0  0  0  0  0  0  0  0  0  0  0
  1  5  1  0
  1 15  4  0
  1 22  4  0
  2 20  1  0
  2 24  1  0
  3  6  4  0
  3 27  4  0
  4 22  4  0
  4 26  4  0
  6  7  4  0
  6 13  1  0
  7 19  4  0
  8 18  1  0
  8 23  1  0
  8 28  2  0
  9 17  1  0
  9 24  1  0
 10 11  1  0
 10 24  1  0
 11 23  1  0
 12 14  4  0
 12 16  4  0
 14 19  4  0
 15 18  4  0
 16 20  4  0
 17 25  1  0
 18 26  4  0
 19 29  4  0
 20 29  4  0
 21 23  1  0
 21 25  1  0
 27 29  4  0
M  END
$$$$

 Created by Python create_sdf_string function

 29 32  0  0  0  0  0  0  0  0999 V2000
    5.4450    8.7154   22.6662 C   0  0  0  0  0  0  0  0  0  0  0  0
   10.9154    5.4574   20.5483 C   0  0  0  0  0  0  0  0  0  0  0  0
    7.2709    4.5089   22.7542 C   0  0  0  0  0  0  0  0  0  0  0  0
    5.9698    7.6329   24.6581 C   0  0  0  0  0  0  0  0  0  0  0  0
    4.5542    8.9057   21.7104 O   0  0  0  0  0  0  0  0  0  0  0  0
    6.9895    3.2085   23.0690 C   0  0  0  0  0  0  0  0  0  0  0  0
    7.8391    2.2253   22.7260 N   0  0  0  0  0  0  0  0  0  0  0  0
    8.6968    9.8373   23.6359 C   0  0  0  0  0  0  0  0  0  0  0  0
   12.5135    6.5957   21.8396 C   0  0  0  0  0  0  0  0  0  0  0  0
   10.9406    8.2330   21.1350 C   0  0  0  0  0  0  0  0  0  0  0  0
    9.6648    8.5956   21.7310 C   0  0  0  0  0  0  0  0  0  0  0  0
   10.8829    1.7153   20.9865 C   0  0  0  0  0  0  0  0  0  0  0  0
    5.7768    2.8533   23.7910 C   0  0  0  0  0  0  0  0  0  0  0  0
    9.7977    1.4791   21.6912 N   0  0  0  0  0  0  0  0  0  0  0  0
    6.5976    9.3401   22.6478 N   0  0  0  0  0  0  0  0  0  0  0  0
   11.2031    3.0042   20.6246 C   0  0  0  0  0  0  0  0  0  0  0  0
   12.8688    7.7370   22.7287 C   0  0  0  0  0  0  0  0  0  0  0  0
    7.4487    9.1361   23.6506 C   0  0  0  0  0  0  0  0  0  0  0  0
    8.9772    2.5025   22.0273 C   0  0  0  0  0  0  0  0  0  0  0  0
   10.4859    4.0901   20.9730 C   0  0  0  0  0  0  0  0  0  0  0  0
   11.0962    9.3293   23.5072 C   0  0  0  0  0  0  0  0  0  0  0  0
    5.1273    7.8529   23.6208 N   0  0  0  0  0  0  0  0  0  0  0  0
    9.7552    9.2338   23.0171 N   0  0  0  0  0  0  0  0  0  0  0  0
   11.1797    6.7591   21.3326 N   0  0  0  0  0  0  0  0  0  0  0  0
   11.7728    8.0337   23.7267 C   0  0  0  0  0  0  0  0  0  0  0  0
    7.1194    8.3344   24.6775 C   0  0  0  0  0  0  0  0  0  0  0  0
    8.4311    4.7963   22.0500 C   0  0  0  0  0  0  0  0  0  0  0  0
    8.7393   10.8706   24.1871 O   0  0  0  0  0  0  0  0  0  0  0  0
    9.3093    3.8166   21.6712 C   0  0  0  0  0  0  0  0  0  0  0  0
  1  5  1  0
  1 15  4  0
  1 22  4  0
  2 20  1  0
  2 24  1  0
  3  6  4  0
  3 27  4  0
  4 22  4  0
  4 26  4  0
  6  7  4  0
  6 13  1  0
  7 19  4  0
  8 18  1  0
  8 23  1  0
  8 28  2  0
  9 17  1  0
  9 24  1  0
 10 11  1  0
 10 24  1  0
 11 23  1  0
 12 14  4  0
 12 16  4  0
 14 19  4  0
 15 18  4  0
 16 20  4  0
 17 25  1  0
 18 26  4  0
 19 29  4  0
 20 29  4  0
 21 23  1  0
 21 25  1  0
 27 29  4  0
M  END
$$$$

 Created by Python create_sdf_string function

 29 32  0  0  0  0  0  0  0  0999 V2000
    5.4450    8.7154   22.6662 C   0  0  0  0  0  0  0  0  0  0  0  0
   10.9154    5.4574   20.5483 C   0  0  0  0  0  0  0  0  0  0  0  0
    7.2709    4.5089   22.7542 C   0  0  0  0  0  0  0  0  0  0  0  0
    5.9698    7.6329   24.6581 C   0  0  0  0  0  0  0  0  0  0  0  0
    4.5542    8.9057   21.7104 O   0  0  0  0  0  0  0  0  0  0  0  0
    6.9895    3.2085   23.0690 C   0  0  0  0  0  0  0  0  0  0  0  0
    7.8391    2.2253   22.7260 N   0  0  0  0  0  0  0  0  0  0  0  0
    8.6968    9.8373   23.6359 C   0  0  0  0  0  0  0  0  0  0  0  0
   12.5135    6.5957   21.8396 C   0  0  0  0  0  0  0  0  0  0  0  0
   10.9406    8.2330   21.1350 C   0  0  0  0  0  0  0  0  0  0  0  0
    9.6648    8.5956   21.7310 C   0  0  0  0  0  0  0  0  0  0  0  0
   10.8829    1.7153   20.9865 C   0  0  0  0  0  0  0  0  0  0  0  0
    5.7768    2.8533   23.7910 C   0  0  0  0  0  0  0  0  0  0  0  0
    9.7977    1.4791   21.6912 N   0  0  0  0  0  0  0  0  0  0  0  0
    6.5976    9.3401   22.6478 N   0  0  0  0  0  0  0  0  0  0  0  0
   11.2031    3.0042   20.6246 C   0  0  0  0  0  0  0  0  0  0  0  0
   12.8688    7.7370   22.7287 C   0  0  0  0  0  0  0  0  0  0  0  0
    7.4487    9.1361   23.6506 C   0  0  0  0  0  0  0  0  0  0  0  0
    8.9772    2.5025   22.0273 C   0  0  0  0  0  0  0  0  0  0  0  0
   10.4859    4.0901   20.9730 C   0  0  0  0  0  0  0  0  0  0  0  0
   11.0962    9.3293   23.5072 C   0  0  0  0  0  0  0  0  0  0  0  0
    5.1273    7.8529   23.6208 N   0  0  0  0  0  0  0  0  0  0  0  0
    9.7552    9.2338   23.0171 N   0  0  0  0  0  0  0  0  0  0  0  0
   11.1797    6.7591   21.3326 N   0  0  0  0  0  0  0  0  0  0  0  0
   11.7728    8.0337   23.7267 C   0  0  0  0  0  0  0  0  0  0  0  0
    7.1194    8.3344   24.6775 C   0  0  0  0  0  0  0  0  0  0  0  0
    8.4311    4.7963   22.0500 C   0  0  0  0  0  0  0  0  0  0  0  0
    8.7393   10.8706   24.1871 O   0  0  0  0  0  0  0  0  0  0  0  0
    9.3093    3.8166   21.6712 C   0  0  0  0  0  0  0  0  0  0  0  0
  1  5  1  0
  1 15  4  0
  1 22  4  0
  2 20  1  0
  2 24  1  0
  3  6  4  0
  3 27  4  0
  4 22  4  0
  4 26  4  0
  6  7  4  0
  6 13  1  0
  7 19  4  0
  8 18  1  0
  8 23  1  0
  8 28  2  0
  9 17  1  0
  9 24  1  0
 10 11  1  0
 10 24  1  0
 11 23  1  0
 12 14  4  0
 12 16  4  0
 14 19  4  0
 15 18  4  0
 16 20  4  0
 17 25  1  0
 18 26  4  0
 19 29  4  0
 20 29  4  0
 21 23  1  0
 21 25  1  0
 27 29  4  0
M  END
$$$$

 Created by Python create_sdf_string function

 29 32  0  0  0  0  0  0  0  0999 V2000
    5.4450    8.7154   22.6662 C   0  0  0  0  0  0  0  0  0  0  0  0
   10.9154    5.4574   20.5483 C   0  0  0  0  0  0  0  0  0  0  0  0
    7.2709    4.5089   22.7542 C   0  0  0  0  0  0  0  0  0  0  0  0
    5.9698    7.6329   24.6581 C   0  0  0  0  0  0  0  0  0  0  0  0
    4.5542    8.9057   21.7104 O   0  0  0  0  0  0  0  0  0  0  0  0
    6.9895    3.2085   23.0690 C   0  0  0  0  0  0  0  0  0  0  0  0
    7.8391    2.2253   22.7260 N   0  0  0  0  0  0  0  0  0  0  0  0
    8.6968    9.8373   23.6359 C   0  0  0  0  0  0  0  0  0  0  0  0
   12.5135    6.5957   21.8396 C   0  0  0  0  0  0  0  0  0  0  0  0
   10.9406    8.2330   21.1350 C   0  0  0  0  0  0  0  0  0  0  0  0
    9.6648    8.5956   21.7310 C   0  0  0  0  0  0  0  0  0  0  0  0
   10.8829    1.7153   20.9865 C   0  0  0  0  0  0  0  0  0  0  0  0
    5.7768    2.8533   23.7910 C   0  0  0  0  0  0  0  0  0  0  0  0
    9.7977    1.4791   21.6912 N   0  0  0  0  0  0  0  0  0  0  0  0
    6.5976    9.3401   22.6478 N   0  0  0  0  0  0  0  0  0  0  0  0
   11.2031    3.0042   20.6246 C   0  0  0  0  0  0  0  0  0  0  0  0
   12.8688    7.7370   22.7287 C   0  0  0  0  0  0  0  0  0  0  0  0
    7.4487    9.1361   23.6506 C   0  0  0  0  0  0  0  0  0  0  0  0
    8.9772    2.5025   22.0273 C   0  0  0  0  0  0  0  0  0  0  0  0
   10.4859    4.0901   20.9730 C   0  0  0  0  0  0  0  0  0  0  0  0
   11.0962    9.3293   23.5072 C   0  0  0  0  0  0  0  0  0  0  0  0
    5.1273    7.8529   23.6208 N   0  0  0  0  0  0  0  0  0  0  0  0
    9.7552    9.2338   23.0171 N   0  0  0  0  0  0  0  0  0  0  0  0
   11.1797    6.7591   21.3326 N   0  0  0  0  0  0  0  0  0  0  0  0
   11.7728    8.0337   23.7267 C   0  0  0  0  0  0  0  0  0  0  0  0
    7.1194    8.3344   24.6775 C   0  0  0  0  0  0  0  0  0  0  0  0
    8.4311    4.7963   22.0500 C   0  0  0  0  0  0  0  0  0  0  0  0
    8.7393   10.8706   24.1871 O   0  0  0  0  0  0  0  0  0  0  0  0
    9.3093    3.8166   21.6712 C   0  0  0  0  0  0  0  0  0  0  0  0
  1  5  1  0
  1 15  4  0
  1 22  4  0
  2 20  1  0
  2 24  1  0
  3  6  4  0
  3 27  4  0
  4 22  4  0
  4 26  4  0
  6  7  4  0
  6 13  1  0
  7 19  4  0
  8 18  1  0
  8 23  1  0
  8 28  2  0
  9 17  1  0
  9 24  1  0
 10 11  1  0
 10 24  1  0
 11 23  1  0
 12 14  4  0
 12 16  4  0
 14 19  4  0
 15 18  4  0
 16 20  4  0
 17 25  1  0
 18 26  4  0
 19 29  4  0
 20 29  4  0
 21 23  1  0
 21 25  1  0
 27 29  4  0
M  END
$$$$

 Created by Python create_sdf_string function

 29 32  0  0  0  0  0  0  0  0999 V2000
    5.4450    8.7154   22.6662 C   0  0  0  0  0  0  0  0  0  0  0  0
   10.9154    5.4574   20.5483 C   0  0  0  0  0  0  0  0  0  0  0  0
    7.2709    4.5089   22.7542 C   0  0  0  0  0  0  0  0  0  0  0  0
    5.9698    7.6329   24.6581 C   0  0  0  0  0  0  0  0  0  0  0  0
    4.5542    8.9057   21.7104 O   0  0  0  0  0  0  0  0  0  0  0  0
    6.9895    3.2085   23.0690 C   0  0  0  0  0  0  0  0  0  0  0  0
    7.8391    2.2253   22.7260 N   0  0  0  0  0  0  0  0  0  0  0  0
    8.6968    9.8373   23.6359 C   0  0  0  0  0  0  0  0  0  0  0  0
   12.5135    6.5957   21.8396 C   0  0  0  0  0  0  0  0  0  0  0  0
   10.9406    8.2330   21.1350 C   0  0  0  0  0  0  0  0  0  0  0  0
    9.6648    8.5956   21.7310 C   0  0  0  0  0  0  0  0  0  0  0  0
   10.8829    1.7153   20.9865 C   0  0  0  0  0  0  0  0  0  0  0  0
    5.7768    2.8533   23.7910 C   0  0  0  0  0  0  0  0  0  0  0  0
    9.7977    1.4791   21.6912 N   0  0  0  0  0  0  0  0  0  0  0  0
    6.5976    9.3401   22.6478 N   0  0  0  0  0  0  0  0  0  0  0  0
   11.2031    3.0042   20.6246 C   0  0  0  0  0  0  0  0  0  0  0  0
   12.8688    7.7370   22.7287 C   0  0  0  0  0  0  0  0  0  0  0  0
    7.4487    9.1361   23.6506 C   0  0  0  0  0  0  0  0  0  0  0  0
    8.9772    2.5025   22.0273 C   0  0  0  0  0  0  0  0  0  0  0  0
   10.4859    4.0901   20.9730 C   0  0  0  0  0  0  0  0  0  0  0  0
   11.0962    9.3293   23.5072 C   0  0  0  0  0  0  0  0  0  0  0  0
    5.1273    7.8529   23.6208 N   0  0  0  0  0  0  0  0  0  0  0  0
    9.7552    9.2338   23.0171 N   0  0  0  0  0  0  0  0  0  0  0  0
   11.1797    6.7591   21.3326 N   0  0  0  0  0  0  0  0  0  0  0  0
   11.7728    8.0337   23.7267 C   0  0  0  0  0  0  0  0  0  0  0  0
    7.1194    8.3344   24.6775 C   0  0  0  0  0  0  0  0  0  0  0  0
    8.4311    4.7963   22.0500 C   0  0  0  0  0  0  0  0  0  0  0  0
    8.7393   10.8706   24.1871 O   0  0  0  0  0  0  0  0  0  0  0  0
    9.3093    3.8166   21.6712 C   0  0  0  0  0  0  0  0  0  0  0  0
  1  5  1  0
  1 15  4  0
  1 22  4  0
  2 20  1  0
  2 24  1  0
  3  6  4  0
  3 27  4  0
  4 22  4  0
  4 26  4  0
  6  7  4  0
  6 13  1  0
  7 19  4  0
  8 18  1  0
  8 23  1  0
  8 28  2  0
  9 17  1  0
  9 24  1  0
 10 11  1  0
 10 24  1  0
 11 23  1  0
 12 14  4  0
 12 16  4  0
 14 19  4  0
 15 18  4  0
 16 20  4  0
 17 25  1  0
 18 26  4  0
 19 29  4  0
 20 29  4  0
 21 23  1  0
 21 25  1  0
 27 29  4  0
M  END
$$$$

 Created by Python create_sdf_string function

 29 32  0  0  0  0  0  0  0  0999 V2000
    5.4450    8.7154   22.6662 C   0  0  0  0  0  0  0  0  0  0  0  0
   10.9154    5.4574   20.5483 C   0  0  0  0  0  0  0  0  0  0  0  0
    7.2709    4.5089   22.7542 C   0  0  0  0  0  0  0  0  0  0  0  0
    5.9698    7.6329   24.6581 C   0  0  0  0  0  0  0  0  0  0  0  0
    4.5542    8.9057   21.7104 O   0  0  0  0  0  0  0  0  0  0  0  0
    6.9895    3.2085   23.0690 C   0  0  0  0  0  0  0  0  0  0  0  0
    7.8391    2.2253   22.7260 N   0  0  0  0  0  0  0  0  0  0  0  0
    8.6968    9.8373   23.6359 C   0  0  0  0  0  0  0  0  0  0  0  0
   12.5135    6.5957   21.8396 C   0  0  0  0  0  0  0  0  0  0  0  0
   10.9406    8.2330   21.1350 C   0  0  0  0  0  0  0  0  0  0  0  0
    9.6648    8.5956   21.7310 C   0  0  0  0  0  0  0  0  0  0  0  0
   10.8829    1.7153   20.9865 C   0  0  0  0  0  0  0  0  0  0  0  0
    5.7768    2.8533   23.7910 C   0  0  0  0  0  0  0  0  0  0  0  0
    9.7977    1.4791   21.6912 N   0  0  0  0  0  0  0  0  0  0  0  0
    6.5976    9.3401   22.6478 N   0  0  0  0  0  0  0  0  0  0  0  0
   11.2031    3.0042   20.6246 C   0  0  0  0  0  0  0  0  0  0  0  0
   12.8688    7.7370   22.7287 C   0  0  0  0  0  0  0  0  0  0  0  0
    7.4487    9.1361   23.6506 C   0  0  0  0  0  0  0  0  0  0  0  0
    8.9772    2.5025   22.0273 C   0  0  0  0  0  0  0  0  0  0  0  0
   10.4859    4.0901   20.9730 C   0  0  0  0  0  0  0  0  0  0  0  0
   11.0962    9.3293   23.5072 C   0  0  0  0  0  0  0  0  0  0  0  0
    5.1273    7.8529   23.6208 N   0  0  0  0  0  0  0  0  0  0  0  0
    9.7552    9.2338   23.0171 N   0  0  0  0  0  0  0  0  0  0  0  0
   11.1797    6.7591   21.3326 N   0  0  0  0  0  0  0  0  0  0  0  0
   11.7728    8.0337   23.7267 C   0  0  0  0  0  0  0  0  0  0  0  0
    7.1194    8.3344   24.6775 C   0  0  0  0  0  0  0  0  0  0  0  0
    8.4311    4.7963   22.0500 C   0  0  0  0  0  0  0  0  0  0  0  0
    8.7393   10.8706   24.1871 O   0  0  0  0  0  0  0  0  0  0  0  0
    9.3093    3.8166   21.6712 C   0  0  0  0  0  0  0  0  0  0  0  0
  1  5  1  0
  1 15  4  0
  1 22  4  0
  2 20  1  0
  2 24  1  0
  3  6  4  0
  3 27  4  0
  4 22  4  0
  4 26  4  0
  6  7  4  0
  6 13  1  0
  7 19  4  0
  8 18  1  0
  8 23  1  0
  8 28  2  0
  9 17  1  0
  9 24  1  0
 10 11  1  0
 10 24  1  0
 11 23  1  0
 12 14  4  0
 12 16  4  0
 14 19  4  0
 15 18  4  0
 16 20  4  0
 17 25  1  0
 18 26  4  0
 19 29  4  0
 20 29  4  0
 21 23  1  0
 21 25  1  0
 27 29  4  0
M  END
$$$$

 Created by Python create_sdf_string function

 29 32  0  0  0  0  0  0  0  0999 V2000
    5.4450    8.7154   22.6662 C   0  0  0  0  0  0  0  0  0  0  0  0
   10.9154    5.4574   20.5483 C   0  0  0  0  0  0  0  0  0  0  0  0
    7.2709    4.5089   22.7542 C   0  0  0  0  0  0  0  0  0  0  0  0
    5.9698    7.6329   24.6581 C   0  0  0  0  0  0  0  0  0  0  0  0
    4.5542    8.9057   21.7104 O   0  0  0  0  0  0  0  0  0  0  0  0
    6.9895    3.2085   23.0690 C   0  0  0  0  0  0  0  0  0  0  0  0
    7.8391    2.2253   22.7260 N   0  0  0  0  0  0  0  0  0  0  0  0
    8.6968    9.8373   23.6359 C   0  0  0  0  0  0  0  0  0  0  0  0
   12.5135    6.5957   21.8396 C   0  0  0  0  0  0  0  0  0  0  0  0
   10.9406    8.2330   21.1350 C   0  0  0  0  0  0  0  0  0  0  0  0
    9.6648    8.5956   21.7310 C   0  0  0  0  0  0  0  0  0  0  0  0
   10.8829    1.7153   20.9865 C   0  0  0  0  0  0  0  0  0  0  0  0
    5.7768    2.8533   23.7910 C   0  0  0  0  0  0  0  0  0  0  0  0
    9.7977    1.4791   21.6912 N   0  0  0  0  0  0  0  0  0  0  0  0
    6.5976    9.3401   22.6478 N   0  0  0  0  0  0  0  0  0  0  0  0
   11.2031    3.0042   20.6246 C   0  0  0  0  0  0  0  0  0  0  0  0
   12.8688    7.7370   22.7287 C   0  0  0  0  0  0  0  0  0  0  0  0
    7.4487    9.1361   23.6506 C   0  0  0  0  0  0  0  0  0  0  0  0
    8.9772    2.5025   22.0273 C   0  0  0  0  0  0  0  0  0  0  0  0
   10.4859    4.0901   20.9730 C   0  0  0  0  0  0  0  0  0  0  0  0
   11.0962    9.3293   23.5072 C   0  0  0  0  0  0  0  0  0  0  0  0
    5.1273    7.8529   23.6208 N   0  0  0  0  0  0  0  0  0  0  0  0
    9.7552    9.2338   23.0171 N   0  0  0  0  0  0  0  0  0  0  0  0
   11.1797    6.7591   21.3326 N   0  0  0  0  0  0  0  0  0  0  0  0
   11.7728    8.0337   23.7267 C   0  0  0  0  0  0  0  0  0  0  0  0
    7.1194    8.3344   24.6775 C   0  0  0  0  0  0  0  0  0  0  0  0
    8.4311    4.7963   22.0500 C   0  0  0  0  0  0  0  0  0  0  0  0
    8.7393   10.8706   24.1871 O   0  0  0  0  0  0  0  0  0  0  0  0
    9.3093    3.8166   21.6712 C   0  0  0  0  0  0  0  0  0  0  0  0
  1  5  1  0
  1 15  4  0
  1 22  4  0
  2 20  1  0
  2 24  1  0
  3  6  4  0
  3 27  4  0
  4 22  4  0
  4 26  4  0
  6  7  4  0
  6 13  1  0
  7 19  4  0
  8 18  1  0
  8 23  1  0
  8 28  2  0
  9 17  1  0
  9 24  1  0
 10 11  1  0
 10 24  1  0
 11 23  1  0
 12 14  4  0
 12 16  4  0
 14 19  4  0
 15 18  4  0
 16 20  4  0
 17 25  1  0
 18 26  4  0
 19 29  4  0
 20 29  4  0
 21 23  1  0
 21 25  1  0
 27 29  4  0
M  END
$$$$

 Created by Python create_sdf_string function

 29 32  0  0  0  0  0  0  0  0999 V2000
    5.4450    8.7154   22.6662 C   0  0  0  0  0  0  0  0  0  0  0  0
   10.9154    5.4574   20.5483 C   0  0  0  0  0  0  0  0  0  0  0  0
    7.2709    4.5089   22.7542 C   0  0  0  0  0  0  0  0  0  0  0  0
    5.9698    7.6329   24.6581 C   0  0  0  0  0  0  0  0  0  0  0  0
    4.5542    8.9057   21.7104 O   0  0  0  0  0  0  0  0  0  0  0  0
    6.9895    3.2085   23.0690 C   0  0  0  0  0  0  0  0  0  0  0  0
    7.8391    2.2253   22.7260 N   0  0  0  0  0  0  0  0  0  0  0  0
    8.6968    9.8373   23.6359 C   0  0  0  0  0  0  0  0  0  0  0  0
   12.5135    6.5957   21.8396 C   0  0  0  0  0  0  0  0  0  0  0  0
   10.9406    8.2330   21.1350 C   0  0  0  0  0  0  0  0  0  0  0  0
    9.6648    8.5956   21.7310 C   0  0  0  0  0  0  0  0  0  0  0  0
   10.8829    1.7153   20.9865 C   0  0  0  0  0  0  0  0  0  0  0  0
    5.7768    2.8533   23.7910 C   0  0  0  0  0  0  0  0  0  0  0  0
    9.7977    1.4791   21.6912 N   0  0  0  0  0  0  0  0  0  0  0  0
    6.5976    9.3401   22.6478 N   0  0  0  0  0  0  0  0  0  0  0  0
   11.2031    3.0042   20.6246 C   0  0  0  0  0  0  0  0  0  0  0  0
   12.8688    7.7370   22.7287 C   0  0  0  0  0  0  0  0  0  0  0  0
    7.4487    9.1361   23.6506 C   0  0  0  0  0  0  0  0  0  0  0  0
    8.9772    2.5025   22.0273 C   0  0  0  0  0  0  0  0  0  0  0  0
   10.4859    4.0901   20.9730 C   0  0  0  0  0  0  0  0  0  0  0  0
   11.0962    9.3293   23.5072 C   0  0  0  0  0  0  0  0  0  0  0  0
    5.1273    7.8529   23.6208 N   0  0  0  0  0  0  0  0  0  0  0  0
    9.7552    9.2338   23.0171 N   0  0  0  0  0  0  0  0  0  0  0  0
   11.1797    6.7591   21.3326 N   0  0  0  0  0  0  0  0  0  0  0  0
   11.7728    8.0337   23.7267 C   0  0  0  0  0  0  0  0  0  0  0  0
    7.1194    8.3344   24.6775 C   0  0  0  0  0  0  0  0  0  0  0  0
    8.4311    4.7963   22.0500 C   0  0  0  0  0  0  0  0  0  0  0  0
    8.7393   10.8706   24.1871 O   0  0  0  0  0  0  0  0  0  0  0  0
    9.3093    3.8166   21.6712 C   0  0  0  0  0  0  0  0  0  0  0  0
  1  5  1  0
  1 15  4  0
  1 22  4  0
  2 20  1  0
  2 24  1  0
  3  6  4  0
  3 27  4  0
  4 22  4  0
  4 26  4  0
  6  7  4  0
  6 13  1  0
  7 19  4  0
  8 18  1  0
  8 23  1  0
  8 28  2  0
  9 17  1  0
  9 24  1  0
 10 11  1  0
 10 24  1  0
 11 23  1  0
 12 14  4  0
 12 16  4  0
 14 19  4  0
 15 18  4  0
 16 20  4  0
 17 25  1  0
 18 26  4  0
 19 29  4  0
 20 29  4  0
 21 23  1  0
 21 25  1  0
 27 29  4  0
M  END
$$$$

 Created by Python create_sdf_string function

 29 32  0  0  0  0  0  0  0  0999 V2000
    5.4450    8.7154   22.6662 C   0  0  0  0  0  0  0  0  0  0  0  0
   10.9154    5.4574   20.5483 C   0  0  0  0  0  0  0  0  0  0  0  0
    7.2709    4.5089   22.7542 C   0  0  0  0  0  0  0  0  0  0  0  0
    5.9698    7.6329   24.6581 C   0  0  0  0  0  0  0  0  0  0  0  0
    4.5542    8.9057   21.7104 O   0  0  0  0  0  0  0  0  0  0  0  0
    6.9895    3.2085   23.0690 C   0  0  0  0  0  0  0  0  0  0  0  0
    7.8391    2.2253   22.7260 N   0  0  0  0  0  0  0  0  0  0  0  0
    8.6968    9.8373   23.6359 C   0  0  0  0  0  0  0  0  0  0  0  0
   12.5135    6.5957   21.8396 C   0  0  0  0  0  0  0  0  0  0  0  0
   10.9406    8.2330   21.1350 C   0  0  0  0  0  0  0  0  0  0  0  0
    9.6648    8.5956   21.7310 C   0  0  0  0  0  0  0  0  0  0  0  0
   10.8829    1.7153   20.9865 C   0  0  0  0  0  0  0  0  0  0  0  0
    5.7768    2.8533   23.7910 C   0  0  0  0  0  0  0  0  0  0  0  0
    9.7977    1.4791   21.6912 N   0  0  0  0  0  0  0  0  0  0  0  0
    6.5976    9.3401   22.6478 N   0  0  0  0  0  0  0  0  0  0  0  0
   11.2031    3.0042   20.6246 C   0  0  0  0  0  0  0  0  0  0  0  0
   12.8688    7.7370   22.7287 C   0  0  0  0  0  0  0  0  0  0  0  0
    7.4487    9.1361   23.6506 C   0  0  0  0  0  0  0  0  0  0  0  0
    8.9772    2.5025   22.0273 C   0  0  0  0  0  0  0  0  0  0  0  0
   10.4859    4.0901   20.9730 C   0  0  0  0  0  0  0  0  0  0  0  0
   11.0962    9.3293   23.5072 C   0  0  0  0  0  0  0  0  0  0  0  0
    5.1273    7.8529   23.6208 N   0  0  0  0  0  0  0  0  0  0  0  0
    9.7552    9.2338   23.0171 N   0  0  0  0  0  0  0  0  0  0  0  0
   11.1797    6.7591   21.3326 N   0  0  0  0  0  0  0  0  0  0  0  0
   11.7728    8.0337   23.7267 C   0  0  0  0  0  0  0  0  0  0  0  0
    7.1194    8.3344   24.6775 C   0  0  0  0  0  0  0  0  0  0  0  0
    8.4311    4.7963   22.0500 C   0  0  0  0  0  0  0  0  0  0  0  0
    8.7393   10.8706   24.1871 O   0  0  0  0  0  0  0  0  0  0  0  0
    9.3093    3.8166   21.6712 C   0  0  0  0  0  0  0  0  0  0  0  0
  1  5  1  0
  1 15  4  0
  1 22  4  0
  2 20  1  0
  2 24  1  0
  3  6  4  0
  3 27  4  0
  4 22  4  0
  4 26  4  0
  6  7  4  0
  6 13  1  0
  7 19  4  0
  8 18  1  0
  8 23  1  0
  8 28  2  0
  9 17  1  0
  9 24  1  0
 10 11  1  0
 10 24  1  0
 11 23  1  0
 12 14  4  0
 12 16  4  0
 14 19  4  0
 15 18  4  0
 16 20  4  0
 17 25  1  0
 18 26  4  0
 19 29  4  0
 20 29  4  0
 21 23  1  0
 21 25  1  0
 27 29  4  0
M  END
$$$$

 Created by Python create_sdf_string function

 29 32  0  0  0  0  0  0  0  0999 V2000
    5.4450    8.7154   22.6662 C   0  0  0  0  0  0  0  0  0  0  0  0
   10.9154    5.4574   20.5483 C   0  0  0  0  0  0  0  0  0  0  0  0
    7.2709    4.5089   22.7542 C   0  0  0  0  0  0  0  0  0  0  0  0
    5.9698    7.6329   24.6581 C   0  0  0  0  0  0  0  0  0  0  0  0
    4.5542    8.9057   21.7104 O   0  0  0  0  0  0  0  0  0  0  0  0
    6.9895    3.2085   23.0690 C   0  0  0  0  0  0  0  0  0  0  0  0
    7.8391    2.2253   22.7260 N   0  0  0  0  0  0  0  0  0  0  0  0
    8.6968    9.8373   23.6359 C   0  0  0  0  0  0  0  0  0  0  0  0
   12.5135    6.5957   21.8396 C   0  0  0  0  0  0  0  0  0  0  0  0
   10.9406    8.2330   21.1350 C   0  0  0  0  0  0  0  0  0  0  0  0
    9.6648    8.5956   21.7310 C   0  0  0  0  0  0  0  0  0  0  0  0
   10.8829    1.7153   20.9865 C   0  0  0  0  0  0  0  0  0  0  0  0
    5.7768    2.8533   23.7910 C   0  0  0  0  0  0  0  0  0  0  0  0
    9.7977    1.4791   21.6912 N   0  0  0  0  0  0  0  0  0  0  0  0
    6.5976    9.3401   22.6478 N   0  0  0  0  0  0  0  0  0  0  0  0
   11.2031    3.0042   20.6246 C   0  0  0  0  0  0  0  0  0  0  0  0
   12.8688    7.7370   22.7287 C   0  0  0  0  0  0  0  0  0  0  0  0
    7.4487    9.1361   23.6506 C   0  0  0  0  0  0  0  0  0  0  0  0
    8.9772    2.5025   22.0273 C   0  0  0  0  0  0  0  0  0  0  0  0
   10.4859    4.0901   20.9730 C   0  0  0  0  0  0  0  0  0  0  0  0
   11.0962    9.3293   23.5072 C   0  0  0  0  0  0  0  0  0  0  0  0
    5.1273    7.8529   23.6208 N   0  0  0  0  0  0  0  0  0  0  0  0
    9.7552    9.2338   23.0171 N   0  0  0  0  0  0  0  0  0  0  0  0
   11.1797    6.7591   21.3326 N   0  0  0  0  0  0  0  0  0  0  0  0
   11.7728    8.0337   23.7267 C   0  0  0  0  0  0  0  0  0  0  0  0
    7.1194    8.3344   24.6775 C   0  0  0  0  0  0  0  0  0  0  0  0
    8.4311    4.7963   22.0500 C   0  0  0  0  0  0  0  0  0  0  0  0
    8.7393   10.8706   24.1871 O   0  0  0  0  0  0  0  0  0  0  0  0
    9.3093    3.8166   21.6712 C   0  0  0  0  0  0  0  0  0  0  0  0
  1  5  1  0
  1 15  4  0
  1 22  4  0
  2 20  1  0
  2 24  1  0
  3  6  4  0
  3 27  4  0
  4 22  4  0
  4 26  4  0
  6  7  4  0
  6 13  1  0
  7 19  4  0
  8 18  1  0
  8 23  1  0
  8 28  2  0
  9 17  1  0
  9 24  1  0
 10 11  1  0
 10 24  1  0
 11 23  1  0
 12 14  4  0
 12 16  4  0
 14 19  4  0
 15 18  4  0
 16 20  4  0
 17 25  1  0
 18 26  4  0
 19 29  4  0
 20 29  4  0
 21 23  1  0
 21 25  1  0
 27 29  4  0
M  END
$$$$

 Created by Python create_sdf_string function

 29 32  0  0  0  0  0  0  0  0999 V2000
    5.4450    8.7154   22.6662 C   0  0  0  0  0  0  0  0  0  0  0  0
   10.9154    5.4574   20.5483 C   0  0  0  0  0  0  0  0  0  0  0  0
    7.2709    4.5089   22.7542 C   0  0  0  0  0  0  0  0  0  0  0  0
    5.9698    7.6329   24.6581 C   0  0  0  0  0  0  0  0  0  0  0  0
    4.5542    8.9057   21.7104 O   0  0  0  0  0  0  0  0  0  0  0  0
    6.9895    3.2085   23.0690 C   0  0  0  0  0  0  0  0  0  0  0  0
    7.8391    2.2253   22.7260 N   0  0  0  0  0  0  0  0  0  0  0  0
    8.6968    9.8373   23.6359 C   0  0  0  0  0  0  0  0  0  0  0  0
   12.5135    6.5957   21.8396 C   0  0  0  0  0  0  0  0  0  0  0  0
   10.9406    8.2330   21.1350 C   0  0  0  0  0  0  0  0  0  0  0  0
    9.6648    8.5956   21.7310 C   0  0  0  0  0  0  0  0  0  0  0  0
   10.8829    1.7153   20.9865 C   0  0  0  0  0  0  0  0  0  0  0  0
    5.7768    2.8533   23.7910 C   0  0  0  0  0  0  0  0  0  0  0  0
    9.7977    1.4791   21.6912 N   0  0  0  0  0  0  0  0  0  0  0  0
    6.5976    9.3401   22.6478 N   0  0  0  0  0  0  0  0  0  0  0  0
   11.2031    3.0042   20.6246 C   0  0  0  0  0  0  0  0  0  0  0  0
   12.8688    7.7370   22.7287 C   0  0  0  0  0  0  0  0  0  0  0  0
    7.4487    9.1361   23.6506 C   0  0  0  0  0  0  0  0  0  0  0  0
    8.9772    2.5025   22.0273 C   0  0  0  0  0  0  0  0  0  0  0  0
   10.4859    4.0901   20.9730 C   0  0  0  0  0  0  0  0  0  0  0  0
   11.0962    9.3293   23.5072 C   0  0  0  0  0  0  0  0  0  0  0  0
    5.1273    7.8529   23.6208 N   0  0  0  0  0  0  0  0  0  0  0  0
    9.7552    9.2338   23.0171 N   0  0  0  0  0  0  0  0  0  0  0  0
   11.1797    6.7591   21.3326 N   0  0  0  0  0  0  0  0  0  0  0  0
   11.7728    8.0337   23.7267 C   0  0  0  0  0  0  0  0  0  0  0  0
    7.1194    8.3344   24.6775 C   0  0  0  0  0  0  0  0  0  0  0  0
    8.4311    4.7963   22.0500 C   0  0  0  0  0  0  0  0  0  0  0  0
    8.7393   10.8706   24.1871 O   0  0  0  0  0  0  0  0  0  0  0  0
    9.3093    3.8166   21.6712 C   0  0  0  0  0  0  0  0  0  0  0  0
  1  5  1  0
  1 15  4  0
  1 22  4  0
  2 20  1  0
  2 24  1  0
  3  6  4  0
  3 27  4  0
  4 22  4  0
  4 26  4  0
  6  7  4  0
  6 13  1  0
  7 19  4  0
  8 18  1  0
  8 23  1  0
  8 28  2  0
  9 17  1  0
  9 24  1  0
 10 11  1  0
 10 24  1  0
 11 23  1  0
 12 14  4  0
 12 16  4  0
 14 19  4  0
 15 18  4  0
 16 20  4  0
 17 25  1  0
 18 26  4  0
 19 29  4  0
 20 29  4  0
 21 23  1  0
 21 25  1  0
 27 29  4  0
M  END
$$$$

 Created by Python create_sdf_string function

 29 32  0  0  0  0  0  0  0  0999 V2000
    5.4450    8.7154   22.6662 C   0  0  0  0  0  0  0  0  0  0  0  0
   10.9154    5.4574   20.5483 C   0  0  0  0  0  0  0  0  0  0  0  0
    7.2709    4.5089   22.7542 C   0  0  0  0  0  0  0  0  0  0  0  0
    5.9698    7.6329   24.6581 C   0  0  0  0  0  0  0  0  0  0  0  0
    4.5542    8.9057   21.7104 O   0  0  0  0  0  0  0  0  0  0  0  0
    6.9895    3.2085   23.0690 C   0  0  0  0  0  0  0  0  0  0  0  0
    7.8391    2.2253   22.7260 N   0  0  0  0  0  0  0  0  0  0  0  0
    8.6968    9.8373   23.6359 C   0  0  0  0  0  0  0  0  0  0  0  0
   12.5135    6.5957   21.8396 C   0  0  0  0  0  0  0  0  0  0  0  0
   10.9406    8.2330   21.1350 C   0  0  0  0  0  0  0  0  0  0  0  0
    9.6648    8.5956   21.7310 C   0  0  0  0  0  0  0  0  0  0  0  0
   10.8829    1.7153   20.9865 C   0  0  0  0  0  0  0  0  0  0  0  0
    5.7768    2.8533   23.7910 C   0  0  0  0  0  0  0  0  0  0  0  0
    9.7977    1.4791   21.6912 N   0  0  0  0  0  0  0  0  0  0  0  0
    6.5976    9.3401   22.6478 N   0  0  0  0  0  0  0  0  0  0  0  0
   11.2031    3.0042   20.6246 C   0  0  0  0  0  0  0  0  0  0  0  0
   12.8688    7.7370   22.7287 C   0  0  0  0  0  0  0  0  0  0  0  0
    7.4487    9.1361   23.6506 C   0  0  0  0  0  0  0  0  0  0  0  0
    8.9772    2.5025   22.0273 C   0  0  0  0  0  0  0  0  0  0  0  0
   10.4859    4.0901   20.9730 C   0  0  0  0  0  0  0  0  0  0  0  0
   11.0962    9.3293   23.5072 C   0  0  0  0  0  0  0  0  0  0  0  0
    5.1273    7.8529   23.6208 N   0  0  0  0  0  0  0  0  0  0  0  0
    9.7552    9.2338   23.0171 N   0  0  0  0  0  0  0  0  0  0  0  0
   11.1797    6.7591   21.3326 N   0  0  0  0  0  0  0  0  0  0  0  0
   11.7728    8.0337   23.7267 C   0  0  0  0  0  0  0  0  0  0  0  0
    7.1194    8.3344   24.6775 C   0  0  0  0  0  0  0  0  0  0  0  0
    8.4311    4.7963   22.0500 C   0  0  0  0  0  0  0  0  0  0  0  0
    8.7393   10.8706   24.1871 O   0  0  0  0  0  0  0  0  0  0  0  0
    9.3093    3.8166   21.6712 C   0  0  0  0  0  0  0  0  0  0  0  0
  1  5  1  0
  1 15  4  0
  1 22  4  0
  2 20  1  0
  2 24  1  0
  3  6  4  0
  3 27  4  0
  4 22  4  0
  4 26  4  0
  6  7  4  0
  6 13  1  0
  7 19  4  0
  8 18  1  0
  8 23  1  0
  8 28  2  0
  9 17  1  0
  9 24  1  0
 10 11  1  0
 10 24  1  0
 11 23  1  0
 12 14  4  0
 12 16  4  0
 14 19  4  0
 15 18  4  0
 16 20  4  0
 17 25  1  0
 18 26  4  0
 19 29  4  0
 20 29  4  0
 21 23  1  0
 21 25  1  0
 27 29  4  0
M  END
$$$$

 Created by Python create_sdf_string function

 29 32  0  0  0  0  0  0  0  0999 V2000
    5.4450    8.7154   22.6662 C   0  0  0  0  0  0  0  0  0  0  0  0
   10.9154    5.4574   20.5483 C   0  0  0  0  0  0  0  0  0  0  0  0
    7.2709    4.5089   22.7542 C   0  0  0  0  0  0  0  0  0  0  0  0
    5.9698    7.6329   24.6581 C   0  0  0  0  0  0  0  0  0  0  0  0
    4.5542    8.9057   21.7104 O   0  0  0  0  0  0  0  0  0  0  0  0
    6.9895    3.2085   23.0690 C   0  0  0  0  0  0  0  0  0  0  0  0
    7.8391    2.2253   22.7260 N   0  0  0  0  0  0  0  0  0  0  0  0
    8.6968    9.8373   23.6359 C   0  0  0  0  0  0  0  0  0  0  0  0
   12.5135    6.5957   21.8396 C   0  0  0  0  0  0  0  0  0  0  0  0
   10.9406    8.2330   21.1350 C   0  0  0  0  0  0  0  0  0  0  0  0
    9.6648    8.5956   21.7310 C   0  0  0  0  0  0  0  0  0  0  0  0
   10.8829    1.7153   20.9865 C   0  0  0  0  0  0  0  0  0  0  0  0
    5.7768    2.8533   23.7910 C   0  0  0  0  0  0  0  0  0  0  0  0
    9.7977    1.4791   21.6912 N   0  0  0  0  0  0  0  0  0  0  0  0
    6.5976    9.3401   22.6478 N   0  0  0  0  0  0  0  0  0  0  0  0
   11.2031    3.0042   20.6246 C   0  0  0  0  0  0  0  0  0  0  0  0
   12.8688    7.7370   22.7287 C   0  0  0  0  0  0  0  0  0  0  0  0
    7.4487    9.1361   23.6506 C   0  0  0  0  0  0  0  0  0  0  0  0
    8.9772    2.5025   22.0273 C   0  0  0  0  0  0  0  0  0  0  0  0
   10.4859    4.0901   20.9730 C   0  0  0  0  0  0  0  0  0  0  0  0
   11.0962    9.3293   23.5072 C   0  0  0  0  0  0  0  0  0  0  0  0
    5.1273    7.8529   23.6208 N   0  0  0  0  0  0  0  0  0  0  0  0
    9.7552    9.2338   23.0171 N   0  0  0  0  0  0  0  0  0  0  0  0
   11.1797    6.7591   21.3326 N   0  0  0  0  0  0  0  0  0  0  0  0
   11.7728    8.0337   23.7267 C   0  0  0  0  0  0  0  0  0  0  0  0
    7.1194    8.3344   24.6775 C   0  0  0  0  0  0  0  0  0  0  0  0
    8.4311    4.7963   22.0500 C   0  0  0  0  0  0  0  0  0  0  0  0
    8.7393   10.8706   24.1871 O   0  0  0  0  0  0  0  0  0  0  0  0
    9.3093    3.8166   21.6712 C   0  0  0  0  0  0  0  0  0  0  0  0
  1  5  1  0
  1 15  4  0
  1 22  4  0
  2 20  1  0
  2 24  1  0
  3  6  4  0
  3 27  4  0
  4 22  4  0
  4 26  4  0
  6  7  4  0
  6 13  1  0
  7 19  4  0
  8 18  1  0
  8 23  1  0
  8 28  2  0
  9 17  1  0
  9 24  1  0
 10 11  1  0
 10 24  1  0
 11 23  1  0
 12 14  4  0
 12 16  4  0
 14 19  4  0
 15 18  4  0
 16 20  4  0
 17 25  1  0
 18 26  4  0
 19 29  4  0
 20 29  4  0
 21 23  1  0
 21 25  1  0
 27 29  4  0
M  END
$$$$

 Created by Python create_sdf_string function

 29 32  0  0  0  0  0  0  0  0999 V2000
    5.4450    8.7154   22.6662 C   0  0  0  0  0  0  0  0  0  0  0  0
   10.9154    5.4574   20.5483 C   0  0  0  0  0  0  0  0  0  0  0  0
    7.2709    4.5089   22.7542 C   0  0  0  0  0  0  0  0  0  0  0  0
    5.9698    7.6329   24.6581 C   0  0  0  0  0  0  0  0  0  0  0  0
    4.5542    8.9057   21.7104 O   0  0  0  0  0  0  0  0  0  0  0  0
    6.9895    3.2085   23.0690 C   0  0  0  0  0  0  0  0  0  0  0  0
    7.8391    2.2253   22.7260 N   0  0  0  0  0  0  0  0  0  0  0  0
    8.6968    9.8373   23.6359 C   0  0  0  0  0  0  0  0  0  0  0  0
   12.5135    6.5957   21.8396 C   0  0  0  0  0  0  0  0  0  0  0  0
   10.9406    8.2330   21.1350 C   0  0  0  0  0  0  0  0  0  0  0  0
    9.6648    8.5956   21.7310 C   0  0  0  0  0  0  0  0  0  0  0  0
   10.8829    1.7153   20.9865 C   0  0  0  0  0  0  0  0  0  0  0  0
    5.7768    2.8533   23.7910 C   0  0  0  0  0  0  0  0  0  0  0  0
    9.7977    1.4791   21.6912 N   0  0  0  0  0  0  0  0  0  0  0  0
    6.5976    9.3401   22.6478 N   0  0  0  0  0  0  0  0  0  0  0  0
   11.2031    3.0042   20.6246 C   0  0  0  0  0  0  0  0  0  0  0  0
   12.8688    7.7370   22.7287 C   0  0  0  0  0  0  0  0  0  0  0  0
    7.4487    9.1361   23.6506 C   0  0  0  0  0  0  0  0  0  0  0  0
    8.9772    2.5025   22.0273 C   0  0  0  0  0  0  0  0  0  0  0  0
   10.4859    4.0901   20.9730 C   0  0  0  0  0  0  0  0  0  0  0  0
   11.0962    9.3293   23.5072 C   0  0  0  0  0  0  0  0  0  0  0  0
    5.1273    7.8529   23.6208 N   0  0  0  0  0  0  0  0  0  0  0  0
    9.7552    9.2338   23.0171 N   0  0  0  0  0  0  0  0  0  0  0  0
   11.1797    6.7591   21.3326 N   0  0  0  0  0  0  0  0  0  0  0  0
   11.7728    8.0337   23.7267 C   0  0  0  0  0  0  0  0  0  0  0  0
    7.1194    8.3344   24.6775 C   0  0  0  0  0  0  0  0  0  0  0  0
    8.4311    4.7963   22.0500 C   0  0  0  0  0  0  0  0  0  0  0  0
    8.7393   10.8706   24.1871 O   0  0  0  0  0  0  0  0  0  0  0  0
    9.3093    3.8166   21.6712 C   0  0  0  0  0  0  0  0  0  0  0  0
  1  5  1  0
  1 15  4  0
  1 22  4  0
  2 20  1  0
  2 24  1  0
  3  6  4  0
  3 27  4  0
  4 22  4  0
  4 26  4  0
  6  7  4  0
  6 13  1  0
  7 19  4  0
  8 18  1  0
  8 23  1  0
  8 28  2  0
  9 17  1  0
  9 24  1  0
 10 11  1  0
 10 24  1  0
 11 23  1  0
 12 14  4  0
 12 16  4  0
 14 19  4  0
 15 18  4  0
 16 20  4  0
 17 25  1  0
 18 26  4  0
 19 29  4  0
 20 29  4  0
 21 23  1  0
 21 25  1  0
 27 29  4  0
M  END
$$$$

 Created by Python create_sdf_string function

 29 32  0  0  0  0  0  0  0  0999 V2000
    5.4450    8.7154   22.6662 C   0  0  0  0  0  0  0  0  0  0  0  0
   10.9154    5.4574   20.5483 C   0  0  0  0  0  0  0  0  0  0  0  0
    7.2709    4.5089   22.7542 C   0  0  0  0  0  0  0  0  0  0  0  0
    5.9698    7.6329   24.6581 C   0  0  0  0  0  0  0  0  0  0  0  0
    4.5542    8.9057   21.7104 O   0  0  0  0  0  0  0  0  0  0  0  0
    6.9895    3.2085   23.0690 C   0  0  0  0  0  0  0  0  0  0  0  0
    7.8391    2.2253   22.7260 N   0  0  0  0  0  0  0  0  0  0  0  0
    8.6968    9.8373   23.6359 C   0  0  0  0  0  0  0  0  0  0  0  0
   12.5135    6.5957   21.8396 C   0  0  0  0  0  0  0  0  0  0  0  0
   10.9406    8.2330   21.1350 C   0  0  0  0  0  0  0  0  0  0  0  0
    9.6648    8.5956   21.7310 C   0  0  0  0  0  0  0  0  0  0  0  0
   10.8829    1.7153   20.9865 C   0  0  0  0  0  0  0  0  0  0  0  0
    5.7768    2.8533   23.7910 C   0  0  0  0  0  0  0  0  0  0  0  0
    9.7977    1.4791   21.6912 N   0  0  0  0  0  0  0  0  0  0  0  0
    6.5976    9.3401   22.6478 N   0  0  0  0  0  0  0  0  0  0  0  0
   11.2031    3.0042   20.6246 C   0  0  0  0  0  0  0  0  0  0  0  0
   12.8688    7.7370   22.7287 C   0  0  0  0  0  0  0  0  0  0  0  0
    7.4487    9.1361   23.6506 C   0  0  0  0  0  0  0  0  0  0  0  0
    8.9772    2.5025   22.0273 C   0  0  0  0  0  0  0  0  0  0  0  0
   10.4859    4.0901   20.9730 C   0  0  0  0  0  0  0  0  0  0  0  0
   11.0962    9.3293   23.5072 C   0  0  0  0  0  0  0  0  0  0  0  0
    5.1273    7.8529   23.6208 N   0  0  0  0  0  0  0  0  0  0  0  0
    9.7552    9.2338   23.0171 N   0  0  0  0  0  0  0  0  0  0  0  0
   11.1797    6.7591   21.3326 N   0  0  0  0  0  0  0  0  0  0  0  0
   11.7728    8.0337   23.7267 C   0  0  0  0  0  0  0  0  0  0  0  0
    7.1194    8.3344   24.6775 C   0  0  0  0  0  0  0  0  0  0  0  0
    8.4311    4.7963   22.0500 C   0  0  0  0  0  0  0  0  0  0  0  0
    8.7393   10.8706   24.1871 O   0  0  0  0  0  0  0  0  0  0  0  0
    9.3093    3.8166   21.6712 C   0  0  0  0  0  0  0  0  0  0  0  0
  1  5  1  0
  1 15  4  0
  1 22  4  0
  2 20  1  0
  2 24  1  0
  3  6  4  0
  3 27  4  0
  4 22  4  0
  4 26  4  0
  6  7  4  0
  6 13  1  0
  7 19  4  0
  8 18  1  0
  8 23  1  0
  8 28  2  0
  9 17  1  0
  9 24  1  0
 10 11  1  0
 10 24  1  0
 11 23  1  0
 12 14  4  0
 12 16  4  0
 14 19  4  0
 15 18  4  0
 16 20  4  0
 17 25  1  0
 18 26  4  0
 19 29  4  0
 20 29  4  0
 21 23  1  0
 21 25  1  0
 27 29  4  0
M  END
$$$$

 Created by Python create_sdf_string function

 29 32  0  0  0  0  0  0  0  0999 V2000
    5.4450    8.7154   22.6662 C   0  0  0  0  0  0  0  0  0  0  0  0
   10.9154    5.4574   20.5483 C   0  0  0  0  0  0  0  0  0  0  0  0
    7.2709    4.5089   22.7542 C   0  0  0  0  0  0  0  0  0  0  0  0
    5.9698    7.6329   24.6581 C   0  0  0  0  0  0  0  0  0  0  0  0
    4.5542    8.9057   21.7104 O   0  0  0  0  0  0  0  0  0  0  0  0
    6.9895    3.2085   23.0690 C   0  0  0  0  0  0  0  0  0  0  0  0
    7.8391    2.2253   22.7260 N   0  0  0  0  0  0  0  0  0  0  0  0
    8.6968    9.8373   23.6359 C   0  0  0  0  0  0  0  0  0  0  0  0
   12.5135    6.5957   21.8396 C   0  0  0  0  0  0  0  0  0  0  0  0
   10.9406    8.2330   21.1350 C   0  0  0  0  0  0  0  0  0  0  0  0
    9.6648    8.5956   21.7310 C   0  0  0  0  0  0  0  0  0  0  0  0
   10.8829    1.7153   20.9865 C   0  0  0  0  0  0  0  0  0  0  0  0
    5.7768    2.8533   23.7910 C   0  0  0  0  0  0  0  0  0  0  0  0
    9.7977    1.4791   21.6912 N   0  0  0  0  0  0  0  0  0  0  0  0
    6.5976    9.3401   22.6478 N   0  0  0  0  0  0  0  0  0  0  0  0
   11.2031    3.0042   20.6246 C   0  0  0  0  0  0  0  0  0  0  0  0
   12.8688    7.7370   22.7287 C   0  0  0  0  0  0  0  0  0  0  0  0
    7.4487    9.1361   23.6506 C   0  0  0  0  0  0  0  0  0  0  0  0
    8.9772    2.5025   22.0273 C   0  0  0  0  0  0  0  0  0  0  0  0
   10.4859    4.0901   20.9730 C   0  0  0  0  0  0  0  0  0  0  0  0
   11.0962    9.3293   23.5072 C   0  0  0  0  0  0  0  0  0  0  0  0
    5.1273    7.8529   23.6208 N   0  0  0  0  0  0  0  0  0  0  0  0
    9.7552    9.2338   23.0171 N   0  0  0  0  0  0  0  0  0  0  0  0
   11.1797    6.7591   21.3326 N   0  0  0  0  0  0  0  0  0  0  0  0
   11.7728    8.0337   23.7267 C   0  0  0  0  0  0  0  0  0  0  0  0
    7.1194    8.3344   24.6775 C   0  0  0  0  0  0  0  0  0  0  0  0
    8.4311    4.7963   22.0500 C   0  0  0  0  0  0  0  0  0  0  0  0
    8.7393   10.8706   24.1871 O   0  0  0  0  0  0  0  0  0  0  0  0
    9.3093    3.8166   21.6712 C   0  0  0  0  0  0  0  0  0  0  0  0
  1  5  1  0
  1 15  4  0
  1 22  4  0
  2 20  1  0
  2 24  1  0
  3  6  4  0
  3 27  4  0
  4 22  4  0
  4 26  4  0
  6  7  4  0
  6 13  1  0
  7 19  4  0
  8 18  1  0
  8 23  1  0
  8 28  2  0
  9 17  1  0
  9 24  1  0
 10 11  1  0
 10 24  1  0
 11 23  1  0
 12 14  4  0
 12 16  4  0
 14 19  4  0
 15 18  4  0
 16 20  4  0
 17 25  1  0
 18 26  4  0
 19 29  4  0
 20 29  4  0
 21 23  1  0
 21 25  1  0
 27 29  4  0
M  END
$$$$

 Created by Python create_sdf_string function

 29 32  0  0  0  0  0  0  0  0999 V2000
    5.4450    8.7154   22.6662 C   0  0  0  0  0  0  0  0  0  0  0  0
   10.9154    5.4574   20.5483 C   0  0  0  0  0  0  0  0  0  0  0  0
    7.2709    4.5089   22.7542 C   0  0  0  0  0  0  0  0  0  0  0  0
    5.9698    7.6329   24.6581 C   0  0  0  0  0  0  0  0  0  0  0  0
    4.5542    8.9057   21.7104 O   0  0  0  0  0  0  0  0  0  0  0  0
    6.9895    3.2085   23.0690 C   0  0  0  0  0  0  0  0  0  0  0  0
    7.8391    2.2253   22.7260 N   0  0  0  0  0  0  0  0  0  0  0  0
    8.6968    9.8373   23.6359 C   0  0  0  0  0  0  0  0  0  0  0  0
   12.5135    6.5957   21.8396 C   0  0  0  0  0  0  0  0  0  0  0  0
   10.9406    8.2330   21.1350 C   0  0  0  0  0  0  0  0  0  0  0  0
    9.6648    8.5956   21.7310 C   0  0  0  0  0  0  0  0  0  0  0  0
   10.8829    1.7153   20.9865 C   0  0  0  0  0  0  0  0  0  0  0  0
    5.7768    2.8533   23.7910 C   0  0  0  0  0  0  0  0  0  0  0  0
    9.7977    1.4791   21.6912 N   0  0  0  0  0  0  0  0  0  0  0  0
    6.5976    9.3401   22.6478 N   0  0  0  0  0  0  0  0  0  0  0  0
   11.2031    3.0042   20.6246 C   0  0  0  0  0  0  0  0  0  0  0  0
   12.8688    7.7370   22.7287 C   0  0  0  0  0  0  0  0  0  0  0  0
    7.4487    9.1361   23.6506 C   0  0  0  0  0  0  0  0  0  0  0  0
    8.9772    2.5025   22.0273 C   0  0  0  0  0  0  0  0  0  0  0  0
   10.4859    4.0901   20.9730 C   0  0  0  0  0  0  0  0  0  0  0  0
   11.0962    9.3293   23.5072 C   0  0  0  0  0  0  0  0  0  0  0  0
    5.1273    7.8529   23.6208 N   0  0  0  0  0  0  0  0  0  0  0  0
    9.7552    9.2338   23.0171 N   0  0  0  0  0  0  0  0  0  0  0  0
   11.1797    6.7591   21.3326 N   0  0  0  0  0  0  0  0  0  0  0  0
   11.7728    8.0337   23.7267 C   0  0  0  0  0  0  0  0  0  0  0  0
    7.1194    8.3344   24.6775 C   0  0  0  0  0  0  0  0  0  0  0  0
    8.4311    4.7963   22.0500 C   0  0  0  0  0  0  0  0  0  0  0  0
    8.7393   10.8706   24.1871 O   0  0  0  0  0  0  0  0  0  0  0  0
    9.3093    3.8166   21.6712 C   0  0  0  0  0  0  0  0  0  0  0  0
  1  5  1  0
  1 15  4  0
  1 22  4  0
  2 20  1  0
  2 24  1  0
  3  6  4  0
  3 27  4  0
  4 22  4  0
  4 26  4  0
  6  7  4  0
  6 13  1  0
  7 19  4  0
  8 18  1  0
  8 23  1  0
  8 28  2  0
  9 17  1  0
  9 24  1  0
 10 11  1  0
 10 24  1  0
 11 23  1  0
 12 14  4  0
 12 16  4  0
 14 19  4  0
 15 18  4  0
 16 20  4  0
 17 25  1  0
 18 26  4  0
 19 29  4  0
 20 29  4  0
 21 23  1  0
 21 25  1  0
 27 29  4  0
M  END
$$$$

 Created by Python create_sdf_string function

 29 32  0  0  0  0  0  0  0  0999 V2000
    5.4450    8.7154   22.6662 C   0  0  0  0  0  0  0  0  0  0  0  0
   10.9154    5.4574   20.5483 C   0  0  0  0  0  0  0  0  0  0  0  0
    7.2709    4.5089   22.7542 C   0  0  0  0  0  0  0  0  0  0  0  0
    5.9698    7.6329   24.6581 C   0  0  0  0  0  0  0  0  0  0  0  0
    4.5542    8.9057   21.7104 O   0  0  0  0  0  0  0  0  0  0  0  0
    6.9895    3.2085   23.0690 C   0  0  0  0  0  0  0  0  0  0  0  0
    7.8391    2.2253   22.7260 N   0  0  0  0  0  0  0  0  0  0  0  0
    8.6968    9.8373   23.6359 C   0  0  0  0  0  0  0  0  0  0  0  0
   12.5135    6.5957   21.8396 C   0  0  0  0  0  0  0  0  0  0  0  0
   10.9406    8.2330   21.1350 C   0  0  0  0  0  0  0  0  0  0  0  0
    9.6648    8.5956   21.7310 C   0  0  0  0  0  0  0  0  0  0  0  0
   10.8829    1.7153   20.9865 C   0  0  0  0  0  0  0  0  0  0  0  0
    5.7768    2.8533   23.7910 C   0  0  0  0  0  0  0  0  0  0  0  0
    9.7977    1.4791   21.6912 N   0  0  0  0  0  0  0  0  0  0  0  0
    6.5976    9.3401   22.6478 N   0  0  0  0  0  0  0  0  0  0  0  0
   11.2031    3.0042   20.6246 C   0  0  0  0  0  0  0  0  0  0  0  0
   12.8688    7.7370   22.7287 C   0  0  0  0  0  0  0  0  0  0  0  0
    7.4487    9.1361   23.6506 C   0  0  0  0  0  0  0  0  0  0  0  0
    8.9772    2.5025   22.0273 C   0  0  0  0  0  0  0  0  0  0  0  0
   10.4859    4.0901   20.9730 C   0  0  0  0  0  0  0  0  0  0  0  0
   11.0962    9.3293   23.5072 C   0  0  0  0  0  0  0  0  0  0  0  0
    5.1273    7.8529   23.6208 N   0  0  0  0  0  0  0  0  0  0  0  0
    9.7552    9.2338   23.0171 N   0  0  0  0  0  0  0  0  0  0  0  0
   11.1797    6.7591   21.3326 N   0  0  0  0  0  0  0  0  0  0  0  0
   11.7728    8.0337   23.7267 C   0  0  0  0  0  0  0  0  0  0  0  0
    7.1194    8.3344   24.6775 C   0  0  0  0  0  0  0  0  0  0  0  0
    8.4311    4.7963   22.0500 C   0  0  0  0  0  0  0  0  0  0  0  0
    8.7393   10.8706   24.1871 O   0  0  0  0  0  0  0  0  0  0  0  0
    9.3093    3.8166   21.6712 C   0  0  0  0  0  0  0  0  0  0  0  0
  1  5  1  0
  1 15  4  0
  1 22  4  0
  2 20  1  0
  2 24  1  0
  3  6  4  0
  3 27  4  0
  4 22  4  0
  4 26  4  0
  6  7  4  0
  6 13  1  0
  7 19  4  0
  8 18  1  0
  8 23  1  0
  8 28  2  0
  9 17  1  0
  9 24  1  0
 10 11  1  0
 10 24  1  0
 11 23  1  0
 12 14  4  0
 12 16  4  0
 14 19  4  0
 15 18  4  0
 16 20  4  0
 17 25  1  0
 18 26  4  0
 19 29  4  0
 20 29  4  0
 21 23  1  0
 21 25  1  0
 27 29  4  0
M  END
$$$$

 Created by Python create_sdf_string function

 29 32  0  0  0  0  0  0  0  0999 V2000
    5.4450    8.7154   22.6662 C   0  0  0  0  0  0  0  0  0  0  0  0
   10.9154    5.4574   20.5483 C   0  0  0  0  0  0  0  0  0  0  0  0
    7.2709    4.5089   22.7542 C   0  0  0  0  0  0  0  0  0  0  0  0
    5.9698    7.6329   24.6581 C   0  0  0  0  0  0  0  0  0  0  0  0
    4.5542    8.9057   21.7104 O   0  0  0  0  0  0  0  0  0  0  0  0
    6.9895    3.2085   23.0690 C   0  0  0  0  0  0  0  0  0  0  0  0
    7.8391    2.2253   22.7260 N   0  0  0  0  0  0  0  0  0  0  0  0
    8.6968    9.8373   23.6359 C   0  0  0  0  0  0  0  0  0  0  0  0
   12.5135    6.5957   21.8396 C   0  0  0  0  0  0  0  0  0  0  0  0
   10.9406    8.2330   21.1350 C   0  0  0  0  0  0  0  0  0  0  0  0
    9.6648    8.5956   21.7310 C   0  0  0  0  0  0  0  0  0  0  0  0
   10.8829    1.7153   20.9865 C   0  0  0  0  0  0  0  0  0  0  0  0
    5.7768    2.8533   23.7910 C   0  0  0  0  0  0  0  0  0  0  0  0
    9.7977    1.4791   21.6912 N   0  0  0  0  0  0  0  0  0  0  0  0
    6.5976    9.3401   22.6478 N   0  0  0  0  0  0  0  0  0  0  0  0
   11.2031    3.0042   20.6246 C   0  0  0  0  0  0  0  0  0  0  0  0
   12.8688    7.7370   22.7287 C   0  0  0  0  0  0  0  0  0  0  0  0
    7.4487    9.1361   23.6506 C   0  0  0  0  0  0  0  0  0  0  0  0
    8.9772    2.5025   22.0273 C   0  0  0  0  0  0  0  0  0  0  0  0
   10.4859    4.0901   20.9730 C   0  0  0  0  0  0  0  0  0  0  0  0
   11.0962    9.3293   23.5072 C   0  0  0  0  0  0  0  0  0  0  0  0
    5.1273    7.8529   23.6208 N   0  0  0  0  0  0  0  0  0  0  0  0
    9.7552    9.2338   23.0171 N   0  0  0  0  0  0  0  0  0  0  0  0
   11.1797    6.7591   21.3326 N   0  0  0  0  0  0  0  0  0  0  0  0
   11.7728    8.0337   23.7267 C   0  0  0  0  0  0  0  0  0  0  0  0
    7.1194    8.3344   24.6775 C   0  0  0  0  0  0  0  0  0  0  0  0
    8.4311    4.7963   22.0500 C   0  0  0  0  0  0  0  0  0  0  0  0
    8.7393   10.8706   24.1871 O   0  0  0  0  0  0  0  0  0  0  0  0
    9.3093    3.8166   21.6712 C   0  0  0  0  0  0  0  0  0  0  0  0
  1  5  1  0
  1 15  4  0
  1 22  4  0
  2 20  1  0
  2 24  1  0
  3  6  4  0
  3 27  4  0
  4 22  4  0
  4 26  4  0
  6  7  4  0
  6 13  1  0
  7 19  4  0
  8 18  1  0
  8 23  1  0
  8 28  2  0
  9 17  1  0
  9 24  1  0
 10 11  1  0
 10 24  1  0
 11 23  1  0
 12 14  4  0
 12 16  4  0
 14 19  4  0
 15 18  4  0
 16 20  4  0
 17 25  1  0
 18 26  4  0
 19 29  4  0
 20 29  4  0
 21 23  1  0
 21 25  1  0
 27 29  4  0
M  END
$$$$

 Created by Python create_sdf_string function

 29 32  0  0  0  0  0  0  0  0999 V2000
    5.4450    8.7154   22.6662 C   0  0  0  0  0  0  0  0  0  0  0  0
   10.9154    5.4574   20.5483 C   0  0  0  0  0  0  0  0  0  0  0  0
    7.2709    4.5089   22.7542 C   0  0  0  0  0  0  0  0  0  0  0  0
    5.9698    7.6329   24.6581 C   0  0  0  0  0  0  0  0  0  0  0  0
    4.5542    8.9057   21.7104 O   0  0  0  0  0  0  0  0  0  0  0  0
    6.9895    3.2085   23.0690 C   0  0  0  0  0  0  0  0  0  0  0  0
    7.8391    2.2253   22.7260 N   0  0  0  0  0  0  0  0  0  0  0  0
    8.6968    9.8373   23.6359 C   0  0  0  0  0  0  0  0  0  0  0  0
   12.5135    6.5957   21.8396 C   0  0  0  0  0  0  0  0  0  0  0  0
   10.9406    8.2330   21.1350 C   0  0  0  0  0  0  0  0  0  0  0  0
    9.6648    8.5956   21.7310 C   0  0  0  0  0  0  0  0  0  0  0  0
   10.8829    1.7153   20.9865 C   0  0  0  0  0  0  0  0  0  0  0  0
    5.7768    2.8533   23.7910 C   0  0  0  0  0  0  0  0  0  0  0  0
    9.7977    1.4791   21.6912 N   0  0  0  0  0  0  0  0  0  0  0  0
    6.5976    9.3401   22.6478 N   0  0  0  0  0  0  0  0  0  0  0  0
   11.2031    3.0042   20.6246 C   0  0  0  0  0  0  0  0  0  0  0  0
   12.8688    7.7370   22.7287 C   0  0  0  0  0  0  0  0  0  0  0  0
    7.4487    9.1361   23.6506 C   0  0  0  0  0  0  0  0  0  0  0  0
    8.9772    2.5025   22.0273 C   0  0  0  0  0  0  0  0  0  0  0  0
   10.4859    4.0901   20.9730 C   0  0  0  0  0  0  0  0  0  0  0  0
   11.0962    9.3293   23.5072 C   0  0  0  0  0  0  0  0  0  0  0  0
    5.1273    7.8529   23.6208 N   0  0  0  0  0  0  0  0  0  0  0  0
    9.7552    9.2338   23.0171 N   0  0  0  0  0  0  0  0  0  0  0  0
   11.1797    6.7591   21.3326 N   0  0  0  0  0  0  0  0  0  0  0  0
   11.7728    8.0337   23.7267 C   0  0  0  0  0  0  0  0  0  0  0  0
    7.1194    8.3344   24.6775 C   0  0  0  0  0  0  0  0  0  0  0  0
    8.4311    4.7963   22.0500 C   0  0  0  0  0  0  0  0  0  0  0  0
    8.7393   10.8706   24.1871 O   0  0  0  0  0  0  0  0  0  0  0  0
    9.3093    3.8166   21.6712 C   0  0  0  0  0  0  0  0  0  0  0  0
  1  5  1  0
  1 15  4  0
  1 22  4  0
  2 20  1  0
  2 24  1  0
  3  6  4  0
  3 27  4  0
  4 22  4  0
  4 26  4  0
  6  7  4  0
  6 13  1  0
  7 19  4  0
  8 18  1  0
  8 23  1  0
  8 28  2  0
  9 17  1  0
  9 24  1  0
 10 11  1  0
 10 24  1  0
 11 23  1  0
 12 14  4  0
 12 16  4  0
 14 19  4  0
 15 18  4  0
 16 20  4  0
 17 25  1  0
 18 26  4  0
 19 29  4  0
 20 29  4  0
 21 23  1  0
 21 25  1  0
 27 29  4  0
M  END
$$$$

 Created by Python create_sdf_string function

 29 32  0  0  0  0  0  0  0  0999 V2000
    5.4450    8.7154   22.6662 C   0  0  0  0  0  0  0  0  0  0  0  0
   10.9154    5.4574   20.5483 C   0  0  0  0  0  0  0  0  0  0  0  0
    7.2709    4.5089   22.7542 C   0  0  0  0  0  0  0  0  0  0  0  0
    5.9698    7.6329   24.6581 C   0  0  0  0  0  0  0  0  0  0  0  0
    4.5542    8.9057   21.7104 O   0  0  0  0  0  0  0  0  0  0  0  0
    6.9895    3.2085   23.0690 C   0  0  0  0  0  0  0  0  0  0  0  0
    7.8391    2.2253   22.7260 N   0  0  0  0  0  0  0  0  0  0  0  0
    8.6968    9.8373   23.6359 C   0  0  0  0  0  0  0  0  0  0  0  0
   12.5135    6.5957   21.8396 C   0  0  0  0  0  0  0  0  0  0  0  0
   10.9406    8.2330   21.1350 C   0  0  0  0  0  0  0  0  0  0  0  0
    9.6648    8.5956   21.7310 C   0  0  0  0  0  0  0  0  0  0  0  0
   10.8829    1.7153   20.9865 C   0  0  0  0  0  0  0  0  0  0  0  0
    5.7768    2.8533   23.7910 C   0  0  0  0  0  0  0  0  0  0  0  0
    9.7977    1.4791   21.6912 N   0  0  0  0  0  0  0  0  0  0  0  0
    6.5976    9.3401   22.6478 N   0  0  0  0  0  0  0  0  0  0  0  0
   11.2031    3.0042   20.6246 C   0  0  0  0  0  0  0  0  0  0  0  0
   12.8688    7.7370   22.7287 C   0  0  0  0  0  0  0  0  0  0  0  0
    7.4487    9.1361   23.6506 C   0  0  0  0  0  0  0  0  0  0  0  0
    8.9772    2.5025   22.0273 C   0  0  0  0  0  0  0  0  0  0  0  0
   10.4859    4.0901   20.9730 C   0  0  0  0  0  0  0  0  0  0  0  0
   11.0962    9.3293   23.5072 C   0  0  0  0  0  0  0  0  0  0  0  0
    5.1273    7.8529   23.6208 N   0  0  0  0  0  0  0  0  0  0  0  0
    9.7552    9.2338   23.0171 N   0  0  0  0  0  0  0  0  0  0  0  0
   11.1797    6.7591   21.3326 N   0  0  0  0  0  0  0  0  0  0  0  0
   11.7728    8.0337   23.7267 C   0  0  0  0  0  0  0  0  0  0  0  0
    7.1194    8.3344   24.6775 C   0  0  0  0  0  0  0  0  0  0  0  0
    8.4311    4.7963   22.0500 C   0  0  0  0  0  0  0  0  0  0  0  0
    8.7393   10.8706   24.1871 O   0  0  0  0  0  0  0  0  0  0  0  0
    9.3093    3.8166   21.6712 C   0  0  0  0  0  0  0  0  0  0  0  0
  1  5  1  0
  1 15  4  0
  1 22  4  0
  2 20  1  0
  2 24  1  0
  3  6  4  0
  3 27  4  0
  4 22  4  0
  4 26  4  0
  6  7  4  0
  6 13  1  0
  7 19  4  0
  8 18  1  0
  8 23  1  0
  8 28  2  0
  9 17  1  0
  9 24  1  0
 10 11  1  0
 10 24  1  0
 11 23  1  0
 12 14  4  0
 12 16  4  0
 14 19  4  0
 15 18  4  0
 16 20  4  0
 17 25  1  0
 18 26  4  0
 19 29  4  0
 20 29  4  0
 21 23  1  0
 21 25  1  0
 27 29  4  0
M  END
$$$$

 Created by Python create_sdf_string function

 29 32  0  0  0  0  0  0  0  0999 V2000
    5.4450    8.7154   22.6662 C   0  0  0  0  0  0  0  0  0  0  0  0
   10.9154    5.4574   20.5483 C   0  0  0  0  0  0  0  0  0  0  0  0
    7.2709    4.5089   22.7542 C   0  0  0  0  0  0  0  0  0  0  0  0
    5.9698    7.6329   24.6581 C   0  0  0  0  0  0  0  0  0  0  0  0
    4.5542    8.9057   21.7104 O   0  0  0  0  0  0  0  0  0  0  0  0
    6.9895    3.2085   23.0690 C   0  0  0  0  0  0  0  0  0  0  0  0
    7.8391    2.2253   22.7260 N   0  0  0  0  0  0  0  0  0  0  0  0
    8.6968    9.8373   23.6359 C   0  0  0  0  0  0  0  0  0  0  0  0
   12.5135    6.5957   21.8396 C   0  0  0  0  0  0  0  0  0  0  0  0
   10.9406    8.2330   21.1350 C   0  0  0  0  0  0  0  0  0  0  0  0
    9.6648    8.5956   21.7310 C   0  0  0  0  0  0  0  0  0  0  0  0
   10.8829    1.7153   20.9865 C   0  0  0  0  0  0  0  0  0  0  0  0
    5.7768    2.8533   23.7910 C   0  0  0  0  0  0  0  0  0  0  0  0
    9.7977    1.4791   21.6912 N   0  0  0  0  0  0  0  0  0  0  0  0
    6.5976    9.3401   22.6478 N   0  0  0  0  0  0  0  0  0  0  0  0
   11.2031    3.0042   20.6246 C   0  0  0  0  0  0  0  0  0  0  0  0
   12.8688    7.7370   22.7287 C   0  0  0  0  0  0  0  0  0  0  0  0
    7.4487    9.1361   23.6506 C   0  0  0  0  0  0  0  0  0  0  0  0
    8.9772    2.5025   22.0273 C   0  0  0  0  0  0  0  0  0  0  0  0
   10.4859    4.0901   20.9730 C   0  0  0  0  0  0  0  0  0  0  0  0
   11.0962    9.3293   23.5072 C   0  0  0  0  0  0  0  0  0  0  0  0
    5.1273    7.8529   23.6208 N   0  0  0  0  0  0  0  0  0  0  0  0
    9.7552    9.2338   23.0171 N   0  0  0  0  0  0  0  0  0  0  0  0
   11.1797    6.7591   21.3326 N   0  0  0  0  0  0  0  0  0  0  0  0
   11.7728    8.0337   23.7267 C   0  0  0  0  0  0  0  0  0  0  0  0
    7.1194    8.3344   24.6775 C   0  0  0  0  0  0  0  0  0  0  0  0
    8.4311    4.7963   22.0500 C   0  0  0  0  0  0  0  0  0  0  0  0
    8.7393   10.8706   24.1871 O   0  0  0  0  0  0  0  0  0  0  0  0
    9.3093    3.8166   21.6712 C   0  0  0  0  0  0  0  0  0  0  0  0
  1  5  1  0
  1 15  4  0
  1 22  4  0
  2 20  1  0
  2 24  1  0
  3  6  4  0
  3 27  4  0
  4 22  4  0
  4 26  4  0
  6  7  4  0
  6 13  1  0
  7 19  4  0
  8 18  1  0
  8 23  1  0
  8 28  2  0
  9 17  1  0
  9 24  1  0
 10 11  1  0
 10 24  1  0
 11 23  1  0
 12 14  4  0
 12 16  4  0
 14 19  4  0
 15 18  4  0
 16 20  4  0
 17 25  1  0
 18 26  4  0
 19 29  4  0
 20 29  4  0
 21 23  1  0
 21 25  1  0
 27 29  4  0
M  END
$$$$

 Created by Python create_sdf_string function

 29 32  0  0  0  0  0  0  0  0999 V2000
    5.4450    8.7154   22.6662 C   0  0  0  0  0  0  0  0  0  0  0  0
   10.9154    5.4574   20.5483 C   0  0  0  0  0  0  0  0  0  0  0  0
    7.2709    4.5089   22.7542 C   0  0  0  0  0  0  0  0  0  0  0  0
    5.9698    7.6329   24.6581 C   0  0  0  0  0  0  0  0  0  0  0  0
    4.5542    8.9057   21.7104 O   0  0  0  0  0  0  0  0  0  0  0  0
    6.9895    3.2085   23.0690 C   0  0  0  0  0  0  0  0  0  0  0  0
    7.8391    2.2253   22.7260 N   0  0  0  0  0  0  0  0  0  0  0  0
    8.6968    9.8373   23.6359 C   0  0  0  0  0  0  0  0  0  0  0  0
   12.5135    6.5957   21.8396 C   0  0  0  0  0  0  0  0  0  0  0  0
   10.9406    8.2330   21.1350 C   0  0  0  0  0  0  0  0  0  0  0  0
    9.6648    8.5956   21.7310 C   0  0  0  0  0  0  0  0  0  0  0  0
   10.8829    1.7153   20.9865 C   0  0  0  0  0  0  0  0  0  0  0  0
    5.7768    2.8533   23.7910 C   0  0  0  0  0  0  0  0  0  0  0  0
    9.7977    1.4791   21.6912 N   0  0  0  0  0  0  0  0  0  0  0  0
    6.5976    9.3401   22.6478 N   0  0  0  0  0  0  0  0  0  0  0  0
   11.2031    3.0042   20.6246 C   0  0  0  0  0  0  0  0  0  0  0  0
   12.8688    7.7370   22.7287 C   0  0  0  0  0  0  0  0  0  0  0  0
    7.4487    9.1361   23.6506 C   0  0  0  0  0  0  0  0  0  0  0  0
    8.9772    2.5025   22.0273 C   0  0  0  0  0  0  0  0  0  0  0  0
   10.4859    4.0901   20.9730 C   0  0  0  0  0  0  0  0  0  0  0  0
   11.0962    9.3293   23.5072 C   0  0  0  0  0  0  0  0  0  0  0  0
    5.1273    7.8529   23.6208 N   0  0  0  0  0  0  0  0  0  0  0  0
    9.7552    9.2338   23.0171 N   0  0  0  0  0  0  0  0  0  0  0  0
   11.1797    6.7591   21.3326 N   0  0  0  0  0  0  0  0  0  0  0  0
   11.7728    8.0337   23.7267 C   0  0  0  0  0  0  0  0  0  0  0  0
    7.1194    8.3344   24.6775 C   0  0  0  0  0  0  0  0  0  0  0  0
    8.4311    4.7963   22.0500 C   0  0  0  0  0  0  0  0  0  0  0  0
    8.7393   10.8706   24.1871 O   0  0  0  0  0  0  0  0  0  0  0  0
    9.3093    3.8166   21.6712 C   0  0  0  0  0  0  0  0  0  0  0  0
  1  5  1  0
  1 15  4  0
  1 22  4  0
  2 20  1  0
  2 24  1  0
  3  6  4  0
  3 27  4  0
  4 22  4  0
  4 26  4  0
  6  7  4  0
  6 13  1  0
  7 19  4  0
  8 18  1  0
  8 23  1  0
  8 28  2  0
  9 17  1  0
  9 24  1  0
 10 11  1  0
 10 24  1  0
 11 23  1  0
 12 14  4  0
 12 16  4  0
 14 19  4  0
 15 18  4  0
 16 20  4  0
 17 25  1  0
 18 26  4  0
 19 29  4  0
 20 29  4  0
 21 23  1  0
 21 25  1  0
 27 29  4  0
M  END
$$$$

 Created by Python create_sdf_string function

 29 32  0  0  0  0  0  0  0  0999 V2000
    5.4450    8.7154   22.6662 C   0  0  0  0  0  0  0  0  0  0  0  0
   10.9154    5.4574   20.5483 C   0  0  0  0  0  0  0  0  0  0  0  0
    7.2709    4.5089   22.7542 C   0  0  0  0  0  0  0  0  0  0  0  0
    5.9698    7.6329   24.6581 C   0  0  0  0  0  0  0  0  0  0  0  0
    4.5542    8.9057   21.7104 O   0  0  0  0  0  0  0  0  0  0  0  0
    6.9895    3.2085   23.0690 C   0  0  0  0  0  0  0  0  0  0  0  0
    7.8391    2.2253   22.7260 N   0  0  0  0  0  0  0  0  0  0  0  0
    8.6968    9.8373   23.6359 C   0  0  0  0  0  0  0  0  0  0  0  0
   12.5135    6.5957   21.8396 C   0  0  0  0  0  0  0  0  0  0  0  0
   10.9406    8.2330   21.1350 C   0  0  0  0  0  0  0  0  0  0  0  0
    9.6648    8.5956   21.7310 C   0  0  0  0  0  0  0  0  0  0  0  0
   10.8829    1.7153   20.9865 C   0  0  0  0  0  0  0  0  0  0  0  0
    5.7768    2.8533   23.7910 C   0  0  0  0  0  0  0  0  0  0  0  0
    9.7977    1.4791   21.6912 N   0  0  0  0  0  0  0  0  0  0  0  0
    6.5976    9.3401   22.6478 N   0  0  0  0  0  0  0  0  0  0  0  0
   11.2031    3.0042   20.6246 C   0  0  0  0  0  0  0  0  0  0  0  0
   12.8688    7.7370   22.7287 C   0  0  0  0  0  0  0  0  0  0  0  0
    7.4487    9.1361   23.6506 C   0  0  0  0  0  0  0  0  0  0  0  0
    8.9772    2.5025   22.0273 C   0  0  0  0  0  0  0  0  0  0  0  0
   10.4859    4.0901   20.9730 C   0  0  0  0  0  0  0  0  0  0  0  0
   11.0962    9.3293   23.5072 C   0  0  0  0  0  0  0  0  0  0  0  0
    5.1273    7.8529   23.6208 N   0  0  0  0  0  0  0  0  0  0  0  0
    9.7552    9.2338   23.0171 N   0  0  0  0  0  0  0  0  0  0  0  0
   11.1797    6.7591   21.3326 N   0  0  0  0  0  0  0  0  0  0  0  0
   11.7728    8.0337   23.7267 C   0  0  0  0  0  0  0  0  0  0  0  0
    7.1194    8.3344   24.6775 C   0  0  0  0  0  0  0  0  0  0  0  0
    8.4311    4.7963   22.0500 C   0  0  0  0  0  0  0  0  0  0  0  0
    8.7393   10.8706   24.1871 O   0  0  0  0  0  0  0  0  0  0  0  0
    9.3093    3.8166   21.6712 C   0  0  0  0  0  0  0  0  0  0  0  0
  1  5  1  0
  1 15  4  0
  1 22  4  0
  2 20  1  0
  2 24  1  0
  3  6  4  0
  3 27  4  0
  4 22  4  0
  4 26  4  0
  6  7  4  0
  6 13  1  0
  7 19  4  0
  8 18  1  0
  8 23  1  0
  8 28  2  0
  9 17  1  0
  9 24  1  0
 10 11  1  0
 10 24  1  0
 11 23  1  0
 12 14  4  0
 12 16  4  0
 14 19  4  0
 15 18  4  0
 16 20  4  0
 17 25  1  0
 18 26  4  0
 19 29  4  0
 20 29  4  0
 21 23  1  0
 21 25  1  0
 27 29  4  0
M  END
$$$$

 Created by Python create_sdf_string function

 29 32  0  0  0  0  0  0  0  0999 V2000
    5.4450    8.7154   22.6662 C   0  0  0  0  0  0  0  0  0  0  0  0
   10.9154    5.4574   20.5483 C   0  0  0  0  0  0  0  0  0  0  0  0
    7.2709    4.5089   22.7542 C   0  0  0  0  0  0  0  0  0  0  0  0
    5.9698    7.6329   24.6581 C   0  0  0  0  0  0  0  0  0  0  0  0
    4.5542    8.9057   21.7104 O   0  0  0  0  0  0  0  0  0  0  0  0
    6.9895    3.2085   23.0690 C   0  0  0  0  0  0  0  0  0  0  0  0
    7.8391    2.2253   22.7260 N   0  0  0  0  0  0  0  0  0  0  0  0
    8.6968    9.8373   23.6359 C   0  0  0  0  0  0  0  0  0  0  0  0
   12.5135    6.5957   21.8396 C   0  0  0  0  0  0  0  0  0  0  0  0
   10.9406    8.2330   21.1350 C   0  0  0  0  0  0  0  0  0  0  0  0
    9.6648    8.5956   21.7310 C   0  0  0  0  0  0  0  0  0  0  0  0
   10.8829    1.7153   20.9865 C   0  0  0  0  0  0  0  0  0  0  0  0
    5.7768    2.8533   23.7910 C   0  0  0  0  0  0  0  0  0  0  0  0
    9.7977    1.4791   21.6912 N   0  0  0  0  0  0  0  0  0  0  0  0
    6.5976    9.3401   22.6478 N   0  0  0  0  0  0  0  0  0  0  0  0
   11.2031    3.0042   20.6246 C   0  0  0  0  0  0  0  0  0  0  0  0
   12.8688    7.7370   22.7287 C   0  0  0  0  0  0  0  0  0  0  0  0
    7.4487    9.1361   23.6506 C   0  0  0  0  0  0  0  0  0  0  0  0
    8.9772    2.5025   22.0273 C   0  0  0  0  0  0  0  0  0  0  0  0
   10.4859    4.0901   20.9730 C   0  0  0  0  0  0  0  0  0  0  0  0
   11.0962    9.3293   23.5072 C   0  0  0  0  0  0  0  0  0  0  0  0
    5.1273    7.8529   23.6208 N   0  0  0  0  0  0  0  0  0  0  0  0
    9.7552    9.2338   23.0171 N   0  0  0  0  0  0  0  0  0  0  0  0
   11.1797    6.7591   21.3326 N   0  0  0  0  0  0  0  0  0  0  0  0
   11.7728    8.0337   23.7267 C   0  0  0  0  0  0  0  0  0  0  0  0
    7.1194    8.3344   24.6775 C   0  0  0  0  0  0  0  0  0  0  0  0
    8.4311    4.7963   22.0500 C   0  0  0  0  0  0  0  0  0  0  0  0
    8.7393   10.8706   24.1871 O   0  0  0  0  0  0  0  0  0  0  0  0
    9.3093    3.8166   21.6712 C   0  0  0  0  0  0  0  0  0  0  0  0
  1  5  1  0
  1 15  4  0
  1 22  4  0
  2 20  1  0
  2 24  1  0
  3  6  4  0
  3 27  4  0
  4 22  4  0
  4 26  4  0
  6  7  4  0
  6 13  1  0
  7 19  4  0
  8 18  1  0
  8 23  1  0
  8 28  2  0
  9 17  1  0
  9 24  1  0
 10 11  1  0
 10 24  1  0
 11 23  1  0
 12 14  4  0
 12 16  4  0
 14 19  4  0
 15 18  4  0
 16 20  4  0
 17 25  1  0
 18 26  4  0
 19 29  4  0
 20 29  4  0
 21 23  1  0
 21 25  1  0
 27 29  4  0
M  END
$$$$

 Created by Python create_sdf_string function

 29 32  0  0  0  0  0  0  0  0999 V2000
    5.4450    8.7154   22.6662 C   0  0  0  0  0  0  0  0  0  0  0  0
   10.9154    5.4574   20.5483 C   0  0  0  0  0  0  0  0  0  0  0  0
    7.2709    4.5089   22.7542 C   0  0  0  0  0  0  0  0  0  0  0  0
    5.9698    7.6329   24.6581 C   0  0  0  0  0  0  0  0  0  0  0  0
    4.5542    8.9057   21.7104 O   0  0  0  0  0  0  0  0  0  0  0  0
    6.9895    3.2085   23.0690 C   0  0  0  0  0  0  0  0  0  0  0  0
    7.8391    2.2253   22.7260 N   0  0  0  0  0  0  0  0  0  0  0  0
    8.6968    9.8373   23.6359 C   0  0  0  0  0  0  0  0  0  0  0  0
   12.5135    6.5957   21.8396 C   0  0  0  0  0  0  0  0  0  0  0  0
   10.9406    8.2330   21.1350 C   0  0  0  0  0  0  0  0  0  0  0  0
    9.6648    8.5956   21.7310 C   0  0  0  0  0  0  0  0  0  0  0  0
   10.8829    1.7153   20.9865 C   0  0  0  0  0  0  0  0  0  0  0  0
    5.7768    2.8533   23.7910 C   0  0  0  0  0  0  0  0  0  0  0  0
    9.7977    1.4791   21.6912 N   0  0  0  0  0  0  0  0  0  0  0  0
    6.5976    9.3401   22.6478 N   0  0  0  0  0  0  0  0  0  0  0  0
   11.2031    3.0042   20.6246 C   0  0  0  0  0  0  0  0  0  0  0  0
   12.8688    7.7370   22.7287 C   0  0  0  0  0  0  0  0  0  0  0  0
    7.4487    9.1361   23.6506 C   0  0  0  0  0  0  0  0  0  0  0  0
    8.9772    2.5025   22.0273 C   0  0  0  0  0  0  0  0  0  0  0  0
   10.4859    4.0901   20.9730 C   0  0  0  0  0  0  0  0  0  0  0  0
   11.0962    9.3293   23.5072 C   0  0  0  0  0  0  0  0  0  0  0  0
    5.1273    7.8529   23.6208 N   0  0  0  0  0  0  0  0  0  0  0  0
    9.7552    9.2338   23.0171 N   0  0  0  0  0  0  0  0  0  0  0  0
   11.1797    6.7591   21.3326 N   0  0  0  0  0  0  0  0  0  0  0  0
   11.7728    8.0337   23.7267 C   0  0  0  0  0  0  0  0  0  0  0  0
    7.1194    8.3344   24.6775 C   0  0  0  0  0  0  0  0  0  0  0  0
    8.4311    4.7963   22.0500 C   0  0  0  0  0  0  0  0  0  0  0  0
    8.7393   10.8706   24.1871 O   0  0  0  0  0  0  0  0  0  0  0  0
    9.3093    3.8166   21.6712 C   0  0  0  0  0  0  0  0  0  0  0  0
  1  5  1  0
  1 15  4  0
  1 22  4  0
  2 20  1  0
  2 24  1  0
  3  6  4  0
  3 27  4  0
  4 22  4  0
  4 26  4  0
  6  7  4  0
  6 13  1  0
  7 19  4  0
  8 18  1  0
  8 23  1  0
  8 28  2  0
  9 17  1  0
  9 24  1  0
 10 11  1  0
 10 24  1  0
 11 23  1  0
 12 14  4  0
 12 16  4  0
 14 19  4  0
 15 18  4  0
 16 20  4  0
 17 25  1  0
 18 26  4  0
 19 29  4  0
 20 29  4  0
 21 23  1  0
 21 25  1  0
 27 29  4  0
M  END
$$$$

 Created by Python create_sdf_string function

 29 32  0  0  0  0  0  0  0  0999 V2000
    5.4450    8.7154   22.6662 C   0  0  0  0  0  0  0  0  0  0  0  0
   10.9154    5.4574   20.5483 C   0  0  0  0  0  0  0  0  0  0  0  0
    7.2709    4.5089   22.7542 C   0  0  0  0  0  0  0  0  0  0  0  0
    5.9698    7.6329   24.6581 C   0  0  0  0  0  0  0  0  0  0  0  0
    4.5542    8.9057   21.7104 O   0  0  0  0  0  0  0  0  0  0  0  0
    6.9895    3.2085   23.0690 C   0  0  0  0  0  0  0  0  0  0  0  0
    7.8391    2.2253   22.7260 N   0  0  0  0  0  0  0  0  0  0  0  0
    8.6968    9.8373   23.6359 C   0  0  0  0  0  0  0  0  0  0  0  0
   12.5135    6.5957   21.8396 C   0  0  0  0  0  0  0  0  0  0  0  0
   10.9406    8.2330   21.1350 C   0  0  0  0  0  0  0  0  0  0  0  0
    9.6648    8.5956   21.7310 C   0  0  0  0  0  0  0  0  0  0  0  0
   10.8829    1.7153   20.9865 C   0  0  0  0  0  0  0  0  0  0  0  0
    5.7768    2.8533   23.7910 C   0  0  0  0  0  0  0  0  0  0  0  0
    9.7977    1.4791   21.6912 N   0  0  0  0  0  0  0  0  0  0  0  0
    6.5976    9.3401   22.6478 N   0  0  0  0  0  0  0  0  0  0  0  0
   11.2031    3.0042   20.6246 C   0  0  0  0  0  0  0  0  0  0  0  0
   12.8688    7.7370   22.7287 C   0  0  0  0  0  0  0  0  0  0  0  0
    7.4487    9.1361   23.6506 C   0  0  0  0  0  0  0  0  0  0  0  0
    8.9772    2.5025   22.0273 C   0  0  0  0  0  0  0  0  0  0  0  0
   10.4859    4.0901   20.9730 C   0  0  0  0  0  0  0  0  0  0  0  0
   11.0962    9.3293   23.5072 C   0  0  0  0  0  0  0  0  0  0  0  0
    5.1273    7.8529   23.6208 N   0  0  0  0  0  0  0  0  0  0  0  0
    9.7552    9.2338   23.0171 N   0  0  0  0  0  0  0  0  0  0  0  0
   11.1797    6.7591   21.3326 N   0  0  0  0  0  0  0  0  0  0  0  0
   11.7728    8.0337   23.7267 C   0  0  0  0  0  0  0  0  0  0  0  0
    7.1194    8.3344   24.6775 C   0  0  0  0  0  0  0  0  0  0  0  0
    8.4311    4.7963   22.0500 C   0  0  0  0  0  0  0  0  0  0  0  0
    8.7393   10.8706   24.1871 O   0  0  0  0  0  0  0  0  0  0  0  0
    9.3093    3.8166   21.6712 C   0  0  0  0  0  0  0  0  0  0  0  0
  1  5  1  0
  1 15  4  0
  1 22  4  0
  2 20  1  0
  2 24  1  0
  3  6  4  0
  3 27  4  0
  4 22  4  0
  4 26  4  0
  6  7  4  0
  6 13  1  0
  7 19  4  0
  8 18  1  0
  8 23  1  0
  8 28  2  0
  9 17  1  0
  9 24  1  0
 10 11  1  0
 10 24  1  0
 11 23  1  0
 12 14  4  0
 12 16  4  0
 14 19  4  0
 15 18  4  0
 16 20  4  0
 17 25  1  0
 18 26  4  0
 19 29  4  0
 20 29  4  0
 21 23  1  0
 21 25  1  0
 27 29  4  0
M  END
$$$$

 Created by Python create_sdf_string function

 29 32  0  0  0  0  0  0  0  0999 V2000
    5.4450    8.7154   22.6662 C   0  0  0  0  0  0  0  0  0  0  0  0
   10.9154    5.4574   20.5483 C   0  0  0  0  0  0  0  0  0  0  0  0
    7.2709    4.5089   22.7542 C   0  0  0  0  0  0  0  0  0  0  0  0
    5.9698    7.6329   24.6581 C   0  0  0  0  0  0  0  0  0  0  0  0
    4.5542    8.9057   21.7104 O   0  0  0  0  0  0  0  0  0  0  0  0
    6.9895    3.2085   23.0690 C   0  0  0  0  0  0  0  0  0  0  0  0
    7.8391    2.2253   22.7260 N   0  0  0  0  0  0  0  0  0  0  0  0
    8.6968    9.8373   23.6359 C   0  0  0  0  0  0  0  0  0  0  0  0
   12.5135    6.5957   21.8396 C   0  0  0  0  0  0  0  0  0  0  0  0
   10.9406    8.2330   21.1350 C   0  0  0  0  0  0  0  0  0  0  0  0
    9.6648    8.5956   21.7310 C   0  0  0  0  0  0  0  0  0  0  0  0
   10.8829    1.7153   20.9865 C   0  0  0  0  0  0  0  0  0  0  0  0
    5.7768    2.8533   23.7910 C   0  0  0  0  0  0  0  0  0  0  0  0
    9.7977    1.4791   21.6912 N   0  0  0  0  0  0  0  0  0  0  0  0
    6.5976    9.3401   22.6478 N   0  0  0  0  0  0  0  0  0  0  0  0
   11.2031    3.0042   20.6246 C   0  0  0  0  0  0  0  0  0  0  0  0
   12.8688    7.7370   22.7287 C   0  0  0  0  0  0  0  0  0  0  0  0
    7.4487    9.1361   23.6506 C   0  0  0  0  0  0  0  0  0  0  0  0
    8.9772    2.5025   22.0273 C   0  0  0  0  0  0  0  0  0  0  0  0
   10.4859    4.0901   20.9730 C   0  0  0  0  0  0  0  0  0  0  0  0
   11.0962    9.3293   23.5072 C   0  0  0  0  0  0  0  0  0  0  0  0
    5.1273    7.8529   23.6208 N   0  0  0  0  0  0  0  0  0  0  0  0
    9.7552    9.2338   23.0171 N   0  0  0  0  0  0  0  0  0  0  0  0
   11.1797    6.7591   21.3326 N   0  0  0  0  0  0  0  0  0  0  0  0
   11.7728    8.0337   23.7267 C   0  0  0  0  0  0  0  0  0  0  0  0
    7.1194    8.3344   24.6775 C   0  0  0  0  0  0  0  0  0  0  0  0
    8.4311    4.7963   22.0500 C   0  0  0  0  0  0  0  0  0  0  0  0
    8.7393   10.8706   24.1871 O   0  0  0  0  0  0  0  0  0  0  0  0
    9.3093    3.8166   21.6712 C   0  0  0  0  0  0  0  0  0  0  0  0
  1  5  1  0
  1 15  4  0
  1 22  4  0
  2 20  1  0
  2 24  1  0
  3  6  4  0
  3 27  4  0
  4 22  4  0
  4 26  4  0
  6  7  4  0
  6 13  1  0
  7 19  4  0
  8 18  1  0
  8 23  1  0
  8 28  2  0
  9 17  1  0
  9 24  1  0
 10 11  1  0
 10 24  1  0
 11 23  1  0
 12 14  4  0
 12 16  4  0
 14 19  4  0
 15 18  4  0
 16 20  4  0
 17 25  1  0
 18 26  4  0
 19 29  4  0
 20 29  4  0
 21 23  1  0
 21 25  1  0
 27 29  4  0
M  END
$$$$

 Created by Python create_sdf_string function

 29 32  0  0  0  0  0  0  0  0999 V2000
    5.4450    8.7154   22.6662 C   0  0  0  0  0  0  0  0  0  0  0  0
   10.9154    5.4574   20.5483 C   0  0  0  0  0  0  0  0  0  0  0  0
    7.2709    4.5089   22.7542 C   0  0  0  0  0  0  0  0  0  0  0  0
    5.9698    7.6329   24.6581 C   0  0  0  0  0  0  0  0  0  0  0  0
    4.5542    8.9057   21.7104 O   0  0  0  0  0  0  0  0  0  0  0  0
    6.9895    3.2085   23.0690 C   0  0  0  0  0  0  0  0  0  0  0  0
    7.8391    2.2253   22.7260 N   0  0  0  0  0  0  0  0  0  0  0  0
    8.6968    9.8373   23.6359 C   0  0  0  0  0  0  0  0  0  0  0  0
   12.5135    6.5957   21.8396 C   0  0  0  0  0  0  0  0  0  0  0  0
   10.9406    8.2330   21.1350 C   0  0  0  0  0  0  0  0  0  0  0  0
    9.6648    8.5956   21.7310 C   0  0  0  0  0  0  0  0  0  0  0  0
   10.8829    1.7153   20.9865 C   0  0  0  0  0  0  0  0  0  0  0  0
    5.7768    2.8533   23.7910 C   0  0  0  0  0  0  0  0  0  0  0  0
    9.7977    1.4791   21.6912 N   0  0  0  0  0  0  0  0  0  0  0  0
    6.5976    9.3401   22.6478 N   0  0  0  0  0  0  0  0  0  0  0  0
   11.2031    3.0042   20.6246 C   0  0  0  0  0  0  0  0  0  0  0  0
   12.8688    7.7370   22.7287 C   0  0  0  0  0  0  0  0  0  0  0  0
    7.4487    9.1361   23.6506 C   0  0  0  0  0  0  0  0  0  0  0  0
    8.9772    2.5025   22.0273 C   0  0  0  0  0  0  0  0  0  0  0  0
   10.4859    4.0901   20.9730 C   0  0  0  0  0  0  0  0  0  0  0  0
   11.0962    9.3293   23.5072 C   0  0  0  0  0  0  0  0  0  0  0  0
    5.1273    7.8529   23.6208 N   0  0  0  0  0  0  0  0  0  0  0  0
    9.7552    9.2338   23.0171 N   0  0  0  0  0  0  0  0  0  0  0  0
   11.1797    6.7591   21.3326 N   0  0  0  0  0  0  0  0  0  0  0  0
   11.7728    8.0337   23.7267 C   0  0  0  0  0  0  0  0  0  0  0  0
    7.1194    8.3344   24.6775 C   0  0  0  0  0  0  0  0  0  0  0  0
    8.4311    4.7963   22.0500 C   0  0  0  0  0  0  0  0  0  0  0  0
    8.7393   10.8706   24.1871 O   0  0  0  0  0  0  0  0  0  0  0  0
    9.3093    3.8166   21.6712 C   0  0  0  0  0  0  0  0  0  0  0  0
  1  5  1  0
  1 15  4  0
  1 22  4  0
  2 20  1  0
  2 24  1  0
  3  6  4  0
  3 27  4  0
  4 22  4  0
  4 26  4  0
  6  7  4  0
  6 13  1  0
  7 19  4  0
  8 18  1  0
  8 23  1  0
  8 28  2  0
  9 17  1  0
  9 24  1  0
 10 11  1  0
 10 24  1  0
 11 23  1  0
 12 14  4  0
 12 16  4  0
 14 19  4  0
 15 18  4  0
 16 20  4  0
 17 25  1  0
 18 26  4  0
 19 29  4  0
 20 29  4  0
 21 23  1  0
 21 25  1  0
 27 29  4  0
M  END
$$$$

 Created by Python create_sdf_string function

 29 32  0  0  0  0  0  0  0  0999 V2000
    5.4450    8.7154   22.6662 C   0  0  0  0  0  0  0  0  0  0  0  0
   10.9154    5.4574   20.5483 C   0  0  0  0  0  0  0  0  0  0  0  0
    7.2709    4.5089   22.7542 C   0  0  0  0  0  0  0  0  0  0  0  0
    5.9698    7.6329   24.6581 C   0  0  0  0  0  0  0  0  0  0  0  0
    4.5542    8.9057   21.7104 O   0  0  0  0  0  0  0  0  0  0  0  0
    6.9895    3.2085   23.0690 C   0  0  0  0  0  0  0  0  0  0  0  0
    7.8391    2.2253   22.7260 N   0  0  0  0  0  0  0  0  0  0  0  0
    8.6968    9.8373   23.6359 C   0  0  0  0  0  0  0  0  0  0  0  0
   12.5135    6.5957   21.8396 C   0  0  0  0  0  0  0  0  0  0  0  0
   10.9406    8.2330   21.1350 C   0  0  0  0  0  0  0  0  0  0  0  0
    9.6648    8.5956   21.7310 C   0  0  0  0  0  0  0  0  0  0  0  0
   10.8829    1.7153   20.9865 C   0  0  0  0  0  0  0  0  0  0  0  0
    5.7768    2.8533   23.7910 C   0  0  0  0  0  0  0  0  0  0  0  0
    9.7977    1.4791   21.6912 N   0  0  0  0  0  0  0  0  0  0  0  0
    6.5976    9.3401   22.6478 N   0  0  0  0  0  0  0  0  0  0  0  0
   11.2031    3.0042   20.6246 C   0  0  0  0  0  0  0  0  0  0  0  0
   12.8688    7.7370   22.7287 C   0  0  0  0  0  0  0  0  0  0  0  0
    7.4487    9.1361   23.6506 C   0  0  0  0  0  0  0  0  0  0  0  0
    8.9772    2.5025   22.0273 C   0  0  0  0  0  0  0  0  0  0  0  0
   10.4859    4.0901   20.9730 C   0  0  0  0  0  0  0  0  0  0  0  0
   11.0962    9.3293   23.5072 C   0  0  0  0  0  0  0  0  0  0  0  0
    5.1273    7.8529   23.6208 N   0  0  0  0  0  0  0  0  0  0  0  0
    9.7552    9.2338   23.0171 N   0  0  0  0  0  0  0  0  0  0  0  0
   11.1797    6.7591   21.3326 N   0  0  0  0  0  0  0  0  0  0  0  0
   11.7728    8.0337   23.7267 C   0  0  0  0  0  0  0  0  0  0  0  0
    7.1194    8.3344   24.6775 C   0  0  0  0  0  0  0  0  0  0  0  0
    8.4311    4.7963   22.0500 C   0  0  0  0  0  0  0  0  0  0  0  0
    8.7393   10.8706   24.1871 O   0  0  0  0  0  0  0  0  0  0  0  0
    9.3093    3.8166   21.6712 C   0  0  0  0  0  0  0  0  0  0  0  0
  1  5  1  0
  1 15  4  0
  1 22  4  0
  2 20  1  0
  2 24  1  0
  3  6  4  0
  3 27  4  0
  4 22  4  0
  4 26  4  0
  6  7  4  0
  6 13  1  0
  7 19  4  0
  8 18  1  0
  8 23  1  0
  8 28  2  0
  9 17  1  0
  9 24  1  0
 10 11  1  0
 10 24  1  0
 11 23  1  0
 12 14  4  0
 12 16  4  0
 14 19  4  0
 15 18  4  0
 16 20  4  0
 17 25  1  0
 18 26  4  0
 19 29  4  0
 20 29  4  0
 21 23  1  0
 21 25  1  0
 27 29  4  0
M  END
$$$$

 Created by Python create_sdf_string function

 29 32  0  0  0  0  0  0  0  0999 V2000
    5.4450    8.7154   22.6662 C   0  0  0  0  0  0  0  0  0  0  0  0
   10.9154    5.4574   20.5483 C   0  0  0  0  0  0  0  0  0  0  0  0
    7.2709    4.5089   22.7542 C   0  0  0  0  0  0  0  0  0  0  0  0
    5.9698    7.6329   24.6581 C   0  0  0  0  0  0  0  0  0  0  0  0
    4.5542    8.9057   21.7104 O   0  0  0  0  0  0  0  0  0  0  0  0
    6.9895    3.2085   23.0690 C   0  0  0  0  0  0  0  0  0  0  0  0
    7.8391    2.2253   22.7260 N   0  0  0  0  0  0  0  0  0  0  0  0
    8.6968    9.8373   23.6359 C   0  0  0  0  0  0  0  0  0  0  0  0
   12.5135    6.5957   21.8396 C   0  0  0  0  0  0  0  0  0  0  0  0
   10.9406    8.2330   21.1350 C   0  0  0  0  0  0  0  0  0  0  0  0
    9.6648    8.5956   21.7310 C   0  0  0  0  0  0  0  0  0  0  0  0
   10.8829    1.7153   20.9865 C   0  0  0  0  0  0  0  0  0  0  0  0
    5.7768    2.8533   23.7910 C   0  0  0  0  0  0  0  0  0  0  0  0
    9.7977    1.4791   21.6912 N   0  0  0  0  0  0  0  0  0  0  0  0
    6.5976    9.3401   22.6478 N   0  0  0  0  0  0  0  0  0  0  0  0
   11.2031    3.0042   20.6246 C   0  0  0  0  0  0  0  0  0  0  0  0
   12.8688    7.7370   22.7287 C   0  0  0  0  0  0  0  0  0  0  0  0
    7.4487    9.1361   23.6506 C   0  0  0  0  0  0  0  0  0  0  0  0
    8.9772    2.5025   22.0273 C   0  0  0  0  0  0  0  0  0  0  0  0
   10.4859    4.0901   20.9730 C   0  0  0  0  0  0  0  0  0  0  0  0
   11.0962    9.3293   23.5072 C   0  0  0  0  0  0  0  0  0  0  0  0
    5.1273    7.8529   23.6208 N   0  0  0  0  0  0  0  0  0  0  0  0
    9.7552    9.2338   23.0171 N   0  0  0  0  0  0  0  0  0  0  0  0
   11.1797    6.7591   21.3326 N   0  0  0  0  0  0  0  0  0  0  0  0
   11.7728    8.0337   23.7267 C   0  0  0  0  0  0  0  0  0  0  0  0
    7.1194    8.3344   24.6775 C   0  0  0  0  0  0  0  0  0  0  0  0
    8.4311    4.7963   22.0500 C   0  0  0  0  0  0  0  0  0  0  0  0
    8.7393   10.8706   24.1871 O   0  0  0  0  0  0  0  0  0  0  0  0
    9.3093    3.8166   21.6712 C   0  0  0  0  0  0  0  0  0  0  0  0
  1  5  1  0
  1 15  4  0
  1 22  4  0
  2 20  1  0
  2 24  1  0
  3  6  4  0
  3 27  4  0
  4 22  4  0
  4 26  4  0
  6  7  4  0
  6 13  1  0
  7 19  4  0
  8 18  1  0
  8 23  1  0
  8 28  2  0
  9 17  1  0
  9 24  1  0
 10 11  1  0
 10 24  1  0
 11 23  1  0
 12 14  4  0
 12 16  4  0
 14 19  4  0
 15 18  4  0
 16 20  4  0
 17 25  1  0
 18 26  4  0
 19 29  4  0
 20 29  4  0
 21 23  1  0
 21 25  1  0
 27 29  4  0
M  END
$$$$

 Created by Python create_sdf_string function

 29 32  0  0  0  0  0  0  0  0999 V2000
    5.4450    8.7154   22.6662 C   0  0  0  0  0  0  0  0  0  0  0  0
   10.9154    5.4574   20.5483 C   0  0  0  0  0  0  0  0  0  0  0  0
    7.2709    4.5089   22.7542 C   0  0  0  0  0  0  0  0  0  0  0  0
    5.9698    7.6329   24.6581 C   0  0  0  0  0  0  0  0  0  0  0  0
    4.5542    8.9057   21.7104 O   0  0  0  0  0  0  0  0  0  0  0  0
    6.9895    3.2085   23.0690 C   0  0  0  0  0  0  0  0  0  0  0  0
    7.8391    2.2253   22.7260 N   0  0  0  0  0  0  0  0  0  0  0  0
    8.6968    9.8373   23.6359 C   0  0  0  0  0  0  0  0  0  0  0  0
   12.5135    6.5957   21.8396 C   0  0  0  0  0  0  0  0  0  0  0  0
   10.9406    8.2330   21.1350 C   0  0  0  0  0  0  0  0  0  0  0  0
    9.6648    8.5956   21.7310 C   0  0  0  0  0  0  0  0  0  0  0  0
   10.8829    1.7153   20.9865 C   0  0  0  0  0  0  0  0  0  0  0  0
    5.7768    2.8533   23.7910 C   0  0  0  0  0  0  0  0  0  0  0  0
    9.7977    1.4791   21.6912 N   0  0  0  0  0  0  0  0  0  0  0  0
    6.5976    9.3401   22.6478 N   0  0  0  0  0  0  0  0  0  0  0  0
   11.2031    3.0042   20.6246 C   0  0  0  0  0  0  0  0  0  0  0  0
   12.8688    7.7370   22.7287 C   0  0  0  0  0  0  0  0  0  0  0  0
    7.4487    9.1361   23.6506 C   0  0  0  0  0  0  0  0  0  0  0  0
    8.9772    2.5025   22.0273 C   0  0  0  0  0  0  0  0  0  0  0  0
   10.4859    4.0901   20.9730 C   0  0  0  0  0  0  0  0  0  0  0  0
   11.0962    9.3293   23.5072 C   0  0  0  0  0  0  0  0  0  0  0  0
    5.1273    7.8529   23.6208 N   0  0  0  0  0  0  0  0  0  0  0  0
    9.7552    9.2338   23.0171 N   0  0  0  0  0  0  0  0  0  0  0  0
   11.1797    6.7591   21.3326 N   0  0  0  0  0  0  0  0  0  0  0  0
   11.7728    8.0337   23.7267 C   0  0  0  0  0  0  0  0  0  0  0  0
    7.1194    8.3344   24.6775 C   0  0  0  0  0  0  0  0  0  0  0  0
    8.4311    4.7963   22.0500 C   0  0  0  0  0  0  0  0  0  0  0  0
    8.7393   10.8706   24.1871 O   0  0  0  0  0  0  0  0  0  0  0  0
    9.3093    3.8166   21.6712 C   0  0  0  0  0  0  0  0  0  0  0  0
  1  5  1  0
  1 15  4  0
  1 22  4  0
  2 20  1  0
  2 24  1  0
  3  6  4  0
  3 27  4  0
  4 22  4  0
  4 26  4  0
  6  7  4  0
  6 13  1  0
  7 19  4  0
  8 18  1  0
  8 23  1  0
  8 28  2  0
  9 17  1  0
  9 24  1  0
 10 11  1  0
 10 24  1  0
 11 23  1  0
 12 14  4  0
 12 16  4  0
 14 19  4  0
 15 18  4  0
 16 20  4  0
 17 25  1  0
 18 26  4  0
 19 29  4  0
 20 29  4  0
 21 23  1  0
 21 25  1  0
 27 29  4  0
M  END
$$$$

 Created by Python create_sdf_string function

 29 32  0  0  0  0  0  0  0  0999 V2000
    5.4450    8.7154   22.6662 C   0  0  0  0  0  0  0  0  0  0  0  0
   10.9154    5.4574   20.5483 C   0  0  0  0  0  0  0  0  0  0  0  0
    7.2709    4.5089   22.7542 C   0  0  0  0  0  0  0  0  0  0  0  0
    5.9698    7.6329   24.6581 C   0  0  0  0  0  0  0  0  0  0  0  0
    4.5542    8.9057   21.7104 O   0  0  0  0  0  0  0  0  0  0  0  0
    6.9895    3.2085   23.0690 C   0  0  0  0  0  0  0  0  0  0  0  0
    7.8391    2.2253   22.7260 N   0  0  0  0  0  0  0  0  0  0  0  0
    8.6968    9.8373   23.6359 C   0  0  0  0  0  0  0  0  0  0  0  0
   12.5135    6.5957   21.8396 C   0  0  0  0  0  0  0  0  0  0  0  0
   10.9406    8.2330   21.1350 C   0  0  0  0  0  0  0  0  0  0  0  0
    9.6648    8.5956   21.7310 C   0  0  0  0  0  0  0  0  0  0  0  0
   10.8829    1.7153   20.9865 C   0  0  0  0  0  0  0  0  0  0  0  0
    5.7768    2.8533   23.7910 C   0  0  0  0  0  0  0  0  0  0  0  0
    9.7977    1.4791   21.6912 N   0  0  0  0  0  0  0  0  0  0  0  0
    6.5976    9.3401   22.6478 N   0  0  0  0  0  0  0  0  0  0  0  0
   11.2031    3.0042   20.6246 C   0  0  0  0  0  0  0  0  0  0  0  0
   12.8688    7.7370   22.7287 C   0  0  0  0  0  0  0  0  0  0  0  0
    7.4487    9.1361   23.6506 C   0  0  0  0  0  0  0  0  0  0  0  0
    8.9772    2.5025   22.0273 C   0  0  0  0  0  0  0  0  0  0  0  0
   10.4859    4.0901   20.9730 C   0  0  0  0  0  0  0  0  0  0  0  0
   11.0962    9.3293   23.5072 C   0  0  0  0  0  0  0  0  0  0  0  0
    5.1273    7.8529   23.6208 N   0  0  0  0  0  0  0  0  0  0  0  0
    9.7552    9.2338   23.0171 N   0  0  0  0  0  0  0  0  0  0  0  0
   11.1797    6.7591   21.3326 N   0  0  0  0  0  0  0  0  0  0  0  0
   11.7728    8.0337   23.7267 C   0  0  0  0  0  0  0  0  0  0  0  0
    7.1194    8.3344   24.6775 C   0  0  0  0  0  0  0  0  0  0  0  0
    8.4311    4.7963   22.0500 C   0  0  0  0  0  0  0  0  0  0  0  0
    8.7393   10.8706   24.1871 O   0  0  0  0  0  0  0  0  0  0  0  0
    9.3093    3.8166   21.6712 C   0  0  0  0  0  0  0  0  0  0  0  0
  1  5  1  0
  1 15  4  0
  1 22  4  0
  2 20  1  0
  2 24  1  0
  3  6  4  0
  3 27  4  0
  4 22  4  0
  4 26  4  0
  6  7  4  0
  6 13  1  0
  7 19  4  0
  8 18  1  0
  8 23  1  0
  8 28  2  0
  9 17  1  0
  9 24  1  0
 10 11  1  0
 10 24  1  0
 11 23  1  0
 12 14  4  0
 12 16  4  0
 14 19  4  0
 15 18  4  0
 16 20  4  0
 17 25  1  0
 18 26  4  0
 19 29  4  0
 20 29  4  0
 21 23  1  0
 21 25  1  0
 27 29  4  0
M  END
$$$$

 Created by Python create_sdf_string function

 29 32  0  0  0  0  0  0  0  0999 V2000
    5.4450    8.7154   22.6662 C   0  0  0  0  0  0  0  0  0  0  0  0
   10.9154    5.4574   20.5483 C   0  0  0  0  0  0  0  0  0  0  0  0
    7.2709    4.5089   22.7542 C   0  0  0  0  0  0  0  0  0  0  0  0
    5.9698    7.6329   24.6581 C   0  0  0  0  0  0  0  0  0  0  0  0
    4.5542    8.9057   21.7104 O   0  0  0  0  0  0  0  0  0  0  0  0
    6.9895    3.2085   23.0690 C   0  0  0  0  0  0  0  0  0  0  0  0
    7.8391    2.2253   22.7260 N   0  0  0  0  0  0  0  0  0  0  0  0
    8.6968    9.8373   23.6359 C   0  0  0  0  0  0  0  0  0  0  0  0
   12.5135    6.5957   21.8396 C   0  0  0  0  0  0  0  0  0  0  0  0
   10.9406    8.2330   21.1350 C   0  0  0  0  0  0  0  0  0  0  0  0
    9.6648    8.5956   21.7310 C   0  0  0  0  0  0  0  0  0  0  0  0
   10.8829    1.7153   20.9865 C   0  0  0  0  0  0  0  0  0  0  0  0
    5.7768    2.8533   23.7910 C   0  0  0  0  0  0  0  0  0  0  0  0
    9.7977    1.4791   21.6912 N   0  0  0  0  0  0  0  0  0  0  0  0
    6.5976    9.3401   22.6478 N   0  0  0  0  0  0  0  0  0  0  0  0
   11.2031    3.0042   20.6246 C   0  0  0  0  0  0  0  0  0  0  0  0
   12.8688    7.7370   22.7287 C   0  0  0  0  0  0  0  0  0  0  0  0
    7.4487    9.1361   23.6506 C   0  0  0  0  0  0  0  0  0  0  0  0
    8.9772    2.5025   22.0273 C   0  0  0  0  0  0  0  0  0  0  0  0
   10.4859    4.0901   20.9730 C   0  0  0  0  0  0  0  0  0  0  0  0
   11.0962    9.3293   23.5072 C   0  0  0  0  0  0  0  0  0  0  0  0
    5.1273    7.8529   23.6208 N   0  0  0  0  0  0  0  0  0  0  0  0
    9.7552    9.2338   23.0171 N   0  0  0  0  0  0  0  0  0  0  0  0
   11.1797    6.7591   21.3326 N   0  0  0  0  0  0  0  0  0  0  0  0
   11.7728    8.0337   23.7267 C   0  0  0  0  0  0  0  0  0  0  0  0
    7.1194    8.3344   24.6775 C   0  0  0  0  0  0  0  0  0  0  0  0
    8.4311    4.7963   22.0500 C   0  0  0  0  0  0  0  0  0  0  0  0
    8.7393   10.8706   24.1871 O   0  0  0  0  0  0  0  0  0  0  0  0
    9.3093    3.8166   21.6712 C   0  0  0  0  0  0  0  0  0  0  0  0
  1  5  1  0
  1 15  4  0
  1 22  4  0
  2 20  1  0
  2 24  1  0
  3  6  4  0
  3 27  4  0
  4 22  4  0
  4 26  4  0
  6  7  4  0
  6 13  1  0
  7 19  4  0
  8 18  1  0
  8 23  1  0
  8 28  2  0
  9 17  1  0
  9 24  1  0
 10 11  1  0
 10 24  1  0
 11 23  1  0
 12 14  4  0
 12 16  4  0
 14 19  4  0
 15 18  4  0
 16 20  4  0
 17 25  1  0
 18 26  4  0
 19 29  4  0
 20 29  4  0
 21 23  1  0
 21 25  1  0
 27 29  4  0
M  END
$$$$

 Created by Python create_sdf_string function

 29 32  0  0  0  0  0  0  0  0999 V2000
    5.4450    8.7154   22.6662 C   0  0  0  0  0  0  0  0  0  0  0  0
   10.9154    5.4574   20.5483 C   0  0  0  0  0  0  0  0  0  0  0  0
    7.2709    4.5089   22.7542 C   0  0  0  0  0  0  0  0  0  0  0  0
    5.9698    7.6329   24.6581 C   0  0  0  0  0  0  0  0  0  0  0  0
    4.5542    8.9057   21.7104 O   0  0  0  0  0  0  0  0  0  0  0  0
    6.9895    3.2085   23.0690 C   0  0  0  0  0  0  0  0  0  0  0  0
    7.8391    2.2253   22.7260 N   0  0  0  0  0  0  0  0  0  0  0  0
    8.6968    9.8373   23.6359 C   0  0  0  0  0  0  0  0  0  0  0  0
   12.5135    6.5957   21.8396 C   0  0  0  0  0  0  0  0  0  0  0  0
   10.9406    8.2330   21.1350 C   0  0  0  0  0  0  0  0  0  0  0  0
    9.6648    8.5956   21.7310 C   0  0  0  0  0  0  0  0  0  0  0  0
   10.8829    1.7153   20.9865 C   0  0  0  0  0  0  0  0  0  0  0  0
    5.7768    2.8533   23.7910 C   0  0  0  0  0  0  0  0  0  0  0  0
    9.7977    1.4791   21.6912 N   0  0  0  0  0  0  0  0  0  0  0  0
    6.5976    9.3401   22.6478 N   0  0  0  0  0  0  0  0  0  0  0  0
   11.2031    3.0042   20.6246 C   0  0  0  0  0  0  0  0  0  0  0  0
   12.8688    7.7370   22.7287 C   0  0  0  0  0  0  0  0  0  0  0  0
    7.4487    9.1361   23.6506 C   0  0  0  0  0  0  0  0  0  0  0  0
    8.9772    2.5025   22.0273 C   0  0  0  0  0  0  0  0  0  0  0  0
   10.4859    4.0901   20.9730 C   0  0  0  0  0  0  0  0  0  0  0  0
   11.0962    9.3293   23.5072 C   0  0  0  0  0  0  0  0  0  0  0  0
    5.1273    7.8529   23.6208 N   0  0  0  0  0  0  0  0  0  0  0  0
    9.7552    9.2338   23.0171 N   0  0  0  0  0  0  0  0  0  0  0  0
   11.1797    6.7591   21.3326 N   0  0  0  0  0  0  0  0  0  0  0  0
   11.7728    8.0337   23.7267 C   0  0  0  0  0  0  0  0  0  0  0  0
    7.1194    8.3344   24.6775 C   0  0  0  0  0  0  0  0  0  0  0  0
    8.4311    4.7963   22.0500 C   0  0  0  0  0  0  0  0  0  0  0  0
    8.7393   10.8706   24.1871 O   0  0  0  0  0  0  0  0  0  0  0  0
    9.3093    3.8166   21.6712 C   0  0  0  0  0  0  0  0  0  0  0  0
  1  5  1  0
  1 15  4  0
  1 22  4  0
  2 20  1  0
  2 24  1  0
  3  6  4  0
  3 27  4  0
  4 22  4  0
  4 26  4  0
  6  7  4  0
  6 13  1  0
  7 19  4  0
  8 18  1  0
  8 23  1  0
  8 28  2  0
  9 17  1  0
  9 24  1  0
 10 11  1  0
 10 24  1  0
 11 23  1  0
 12 14  4  0
 12 16  4  0
 14 19  4  0
 15 18  4  0
 16 20  4  0
 17 25  1  0
 18 26  4  0
 19 29  4  0
 20 29  4  0
 21 23  1  0
 21 25  1  0
 27 29  4  0
M  END
$$$$

 Created by Python create_sdf_string function

 29 32  0  0  0  0  0  0  0  0999 V2000
    5.4450    8.7154   22.6662 C   0  0  0  0  0  0  0  0  0  0  0  0
   10.9154    5.4574   20.5483 C   0  0  0  0  0  0  0  0  0  0  0  0
    7.2709    4.5089   22.7542 C   0  0  0  0  0  0  0  0  0  0  0  0
    5.9698    7.6329   24.6581 C   0  0  0  0  0  0  0  0  0  0  0  0
    4.5542    8.9057   21.7104 O   0  0  0  0  0  0  0  0  0  0  0  0
    6.9895    3.2085   23.0690 C   0  0  0  0  0  0  0  0  0  0  0  0
    7.8391    2.2253   22.7260 N   0  0  0  0  0  0  0  0  0  0  0  0
    8.6968    9.8373   23.6359 C   0  0  0  0  0  0  0  0  0  0  0  0
   12.5135    6.5957   21.8396 C   0  0  0  0  0  0  0  0  0  0  0  0
   10.9406    8.2330   21.1350 C   0  0  0  0  0  0  0  0  0  0  0  0
    9.6648    8.5956   21.7310 C   0  0  0  0  0  0  0  0  0  0  0  0
   10.8829    1.7153   20.9865 C   0  0  0  0  0  0  0  0  0  0  0  0
    5.7768    2.8533   23.7910 C   0  0  0  0  0  0  0  0  0  0  0  0
    9.7977    1.4791   21.6912 N   0  0  0  0  0  0  0  0  0  0  0  0
    6.5976    9.3401   22.6478 N   0  0  0  0  0  0  0  0  0  0  0  0
   11.2031    3.0042   20.6246 C   0  0  0  0  0  0  0  0  0  0  0  0
   12.8688    7.7370   22.7287 C   0  0  0  0  0  0  0  0  0  0  0  0
    7.4487    9.1361   23.6506 C   0  0  0  0  0  0  0  0  0  0  0  0
    8.9772    2.5025   22.0273 C   0  0  0  0  0  0  0  0  0  0  0  0
   10.4859    4.0901   20.9730 C   0  0  0  0  0  0  0  0  0  0  0  0
   11.0962    9.3293   23.5072 C   0  0  0  0  0  0  0  0  0  0  0  0
    5.1273    7.8529   23.6208 N   0  0  0  0  0  0  0  0  0  0  0  0
    9.7552    9.2338   23.0171 N   0  0  0  0  0  0  0  0  0  0  0  0
   11.1797    6.7591   21.3326 N   0  0  0  0  0  0  0  0  0  0  0  0
   11.7728    8.0337   23.7267 C   0  0  0  0  0  0  0  0  0  0  0  0
    7.1194    8.3344   24.6775 C   0  0  0  0  0  0  0  0  0  0  0  0
    8.4311    4.7963   22.0500 C   0  0  0  0  0  0  0  0  0  0  0  0
    8.7393   10.8706   24.1871 O   0  0  0  0  0  0  0  0  0  0  0  0
    9.3093    3.8166   21.6712 C   0  0  0  0  0  0  0  0  0  0  0  0
  1  5  1  0
  1 15  4  0
  1 22  4  0
  2 20  1  0
  2 24  1  0
  3  6  4  0
  3 27  4  0
  4 22  4  0
  4 26  4  0
  6  7  4  0
  6 13  1  0
  7 19  4  0
  8 18  1  0
  8 23  1  0
  8 28  2  0
  9 17  1  0
  9 24  1  0
 10 11  1  0
 10 24  1  0
 11 23  1  0
 12 14  4  0
 12 16  4  0
 14 19  4  0
 15 18  4  0
 16 20  4  0
 17 25  1  0
 18 26  4  0
 19 29  4  0
 20 29  4  0
 21 23  1  0
 21 25  1  0
 27 29  4  0
M  END
$$$$

 Created by Python create_sdf_string function

 29 32  0  0  0  0  0  0  0  0999 V2000
    5.4450    8.7154   22.6662 C   0  0  0  0  0  0  0  0  0  0  0  0
   10.9154    5.4574   20.5483 C   0  0  0  0  0  0  0  0  0  0  0  0
    7.2709    4.5089   22.7542 C   0  0  0  0  0  0  0  0  0  0  0  0
    5.9698    7.6329   24.6581 C   0  0  0  0  0  0  0  0  0  0  0  0
    4.5542    8.9057   21.7104 O   0  0  0  0  0  0  0  0  0  0  0  0
    6.9895    3.2085   23.0690 C   0  0  0  0  0  0  0  0  0  0  0  0
    7.8391    2.2253   22.7260 N   0  0  0  0  0  0  0  0  0  0  0  0
    8.6968    9.8373   23.6359 C   0  0  0  0  0  0  0  0  0  0  0  0
   12.5135    6.5957   21.8396 C   0  0  0  0  0  0  0  0  0  0  0  0
   10.9406    8.2330   21.1350 C   0  0  0  0  0  0  0  0  0  0  0  0
    9.6648    8.5956   21.7310 C   0  0  0  0  0  0  0  0  0  0  0  0
   10.8829    1.7153   20.9865 C   0  0  0  0  0  0  0  0  0  0  0  0
    5.7768    2.8533   23.7910 C   0  0  0  0  0  0  0  0  0  0  0  0
    9.7977    1.4791   21.6912 N   0  0  0  0  0  0  0  0  0  0  0  0
    6.5976    9.3401   22.6478 N   0  0  0  0  0  0  0  0  0  0  0  0
   11.2031    3.0042   20.6246 C   0  0  0  0  0  0  0  0  0  0  0  0
   12.8688    7.7370   22.7287 C   0  0  0  0  0  0  0  0  0  0  0  0
    7.4487    9.1361   23.6506 C   0  0  0  0  0  0  0  0  0  0  0  0
    8.9772    2.5025   22.0273 C   0  0  0  0  0  0  0  0  0  0  0  0
   10.4859    4.0901   20.9730 C   0  0  0  0  0  0  0  0  0  0  0  0
   11.0962    9.3293   23.5072 C   0  0  0  0  0  0  0  0  0  0  0  0
    5.1273    7.8529   23.6208 N   0  0  0  0  0  0  0  0  0  0  0  0
    9.7552    9.2338   23.0171 N   0  0  0  0  0  0  0  0  0  0  0  0
   11.1797    6.7591   21.3326 N   0  0  0  0  0  0  0  0  0  0  0  0
   11.7728    8.0337   23.7267 C   0  0  0  0  0  0  0  0  0  0  0  0
    7.1194    8.3344   24.6775 C   0  0  0  0  0  0  0  0  0  0  0  0
    8.4311    4.7963   22.0500 C   0  0  0  0  0  0  0  0  0  0  0  0
    8.7393   10.8706   24.1871 O   0  0  0  0  0  0  0  0  0  0  0  0
    9.3093    3.8166   21.6712 C   0  0  0  0  0  0  0  0  0  0  0  0
  1  5  1  0
  1 15  4  0
  1 22  4  0
  2 20  1  0
  2 24  1  0
  3  6  4  0
  3 27  4  0
  4 22  4  0
  4 26  4  0
  6  7  4  0
  6 13  1  0
  7 19  4  0
  8 18  1  0
  8 23  1  0
  8 28  2  0
  9 17  1  0
  9 24  1  0
 10 11  1  0
 10 24  1  0
 11 23  1  0
 12 14  4  0
 12 16  4  0
 14 19  4  0
 15 18  4  0
 16 20  4  0
 17 25  1  0
 18 26  4  0
 19 29  4  0
 20 29  4  0
 21 23  1  0
 21 25  1  0
 27 29  4  0
M  END
$$$$

 Created by Python create_sdf_string function

 29 32  0  0  0  0  0  0  0  0999 V2000
    5.4450    8.7154   22.6662 C   0  0  0  0  0  0  0  0  0  0  0  0
   10.9154    5.4574   20.5483 C   0  0  0  0  0  0  0  0  0  0  0  0
    7.2709    4.5089   22.7542 C   0  0  0  0  0  0  0  0  0  0  0  0
    5.9698    7.6329   24.6581 C   0  0  0  0  0  0  0  0  0  0  0  0
    4.5542    8.9057   21.7104 O   0  0  0  0  0  0  0  0  0  0  0  0
    6.9895    3.2085   23.0690 C   0  0  0  0  0  0  0  0  0  0  0  0
    7.8391    2.2253   22.7260 N   0  0  0  0  0  0  0  0  0  0  0  0
    8.6968    9.8373   23.6359 C   0  0  0  0  0  0  0  0  0  0  0  0
   12.5135    6.5957   21.8396 C   0  0  0  0  0  0  0  0  0  0  0  0
   10.9406    8.2330   21.1350 C   0  0  0  0  0  0  0  0  0  0  0  0
    9.6648    8.5956   21.7310 C   0  0  0  0  0  0  0  0  0  0  0  0
   10.8829    1.7153   20.9865 C   0  0  0  0  0  0  0  0  0  0  0  0
    5.7768    2.8533   23.7910 C   0  0  0  0  0  0  0  0  0  0  0  0
    9.7977    1.4791   21.6912 N   0  0  0  0  0  0  0  0  0  0  0  0
    6.5976    9.3401   22.6478 N   0  0  0  0  0  0  0  0  0  0  0  0
   11.2031    3.0042   20.6246 C   0  0  0  0  0  0  0  0  0  0  0  0
   12.8688    7.7370   22.7287 C   0  0  0  0  0  0  0  0  0  0  0  0
    7.4487    9.1361   23.6506 C   0  0  0  0  0  0  0  0  0  0  0  0
    8.9772    2.5025   22.0273 C   0  0  0  0  0  0  0  0  0  0  0  0
   10.4859    4.0901   20.9730 C   0  0  0  0  0  0  0  0  0  0  0  0
   11.0962    9.3293   23.5072 C   0  0  0  0  0  0  0  0  0  0  0  0
    5.1273    7.8529   23.6208 N   0  0  0  0  0  0  0  0  0  0  0  0
    9.7552    9.2338   23.0171 N   0  0  0  0  0  0  0  0  0  0  0  0
   11.1797    6.7591   21.3326 N   0  0  0  0  0  0  0  0  0  0  0  0
   11.7728    8.0337   23.7267 C   0  0  0  0  0  0  0  0  0  0  0  0
    7.1194    8.3344   24.6775 C   0  0  0  0  0  0  0  0  0  0  0  0
    8.4311    4.7963   22.0500 C   0  0  0  0  0  0  0  0  0  0  0  0
    8.7393   10.8706   24.1871 O   0  0  0  0  0  0  0  0  0  0  0  0
    9.3093    3.8166   21.6712 C   0  0  0  0  0  0  0  0  0  0  0  0
  1  5  1  0
  1 15  4  0
  1 22  4  0
  2 20  1  0
  2 24  1  0
  3  6  4  0
  3 27  4  0
  4 22  4  0
  4 26  4  0
  6  7  4  0
  6 13  1  0
  7 19  4  0
  8 18  1  0
  8 23  1  0
  8 28  2  0
  9 17  1  0
  9 24  1  0
 10 11  1  0
 10 24  1  0
 11 23  1  0
 12 14  4  0
 12 16  4  0
 14 19  4  0
 15 18  4  0
 16 20  4  0
 17 25  1  0
 18 26  4  0
 19 29  4  0
 20 29  4  0
 21 23  1  0
 21 25  1  0
 27 29  4  0
M  END
$$$$

 Created by Python create_sdf_string function

 29 32  0  0  0  0  0  0  0  0999 V2000
    5.4450    8.7154   22.6662 C   0  0  0  0  0  0  0  0  0  0  0  0
   10.9154    5.4574   20.5483 C   0  0  0  0  0  0  0  0  0  0  0  0
    7.2709    4.5089   22.7542 C   0  0  0  0  0  0  0  0  0  0  0  0
    5.9698    7.6329   24.6581 C   0  0  0  0  0  0  0  0  0  0  0  0
    4.5542    8.9057   21.7104 O   0  0  0  0  0  0  0  0  0  0  0  0
    6.9895    3.2085   23.0690 C   0  0  0  0  0  0  0  0  0  0  0  0
    7.8391    2.2253   22.7260 N   0  0  0  0  0  0  0  0  0  0  0  0
    8.6968    9.8373   23.6359 C   0  0  0  0  0  0  0  0  0  0  0  0
   12.5135    6.5957   21.8396 C   0  0  0  0  0  0  0  0  0  0  0  0
   10.9406    8.2330   21.1350 C   0  0  0  0  0  0  0  0  0  0  0  0
    9.6648    8.5956   21.7310 C   0  0  0  0  0  0  0  0  0  0  0  0
   10.8829    1.7153   20.9865 C   0  0  0  0  0  0  0  0  0  0  0  0
    5.7768    2.8533   23.7910 C   0  0  0  0  0  0  0  0  0  0  0  0
    9.7977    1.4791   21.6912 N   0  0  0  0  0  0  0  0  0  0  0  0
    6.5976    9.3401   22.6478 N   0  0  0  0  0  0  0  0  0  0  0  0
   11.2031    3.0042   20.6246 C   0  0  0  0  0  0  0  0  0  0  0  0
   12.8688    7.7370   22.7287 C   0  0  0  0  0  0  0  0  0  0  0  0
    7.4487    9.1361   23.6506 C   0  0  0  0  0  0  0  0  0  0  0  0
    8.9772    2.5025   22.0273 C   0  0  0  0  0  0  0  0  0  0  0  0
   10.4859    4.0901   20.9730 C   0  0  0  0  0  0  0  0  0  0  0  0
   11.0962    9.3293   23.5072 C   0  0  0  0  0  0  0  0  0  0  0  0
    5.1273    7.8529   23.6208 N   0  0  0  0  0  0  0  0  0  0  0  0
    9.7552    9.2338   23.0171 N   0  0  0  0  0  0  0  0  0  0  0  0
   11.1797    6.7591   21.3326 N   0  0  0  0  0  0  0  0  0  0  0  0
   11.7728    8.0337   23.7267 C   0  0  0  0  0  0  0  0  0  0  0  0
    7.1194    8.3344   24.6775 C   0  0  0  0  0  0  0  0  0  0  0  0
    8.4311    4.7963   22.0500 C   0  0  0  0  0  0  0  0  0  0  0  0
    8.7393   10.8706   24.1871 O   0  0  0  0  0  0  0  0  0  0  0  0
    9.3093    3.8166   21.6712 C   0  0  0  0  0  0  0  0  0  0  0  0
  1  5  1  0
  1 15  4  0
  1 22  4  0
  2 20  1  0
  2 24  1  0
  3  6  4  0
  3 27  4  0
  4 22  4  0
  4 26  4  0
  6  7  4  0
  6 13  1  0
  7 19  4  0
  8 18  1  0
  8 23  1  0
  8 28  2  0
  9 17  1  0
  9 24  1  0
 10 11  1  0
 10 24  1  0
 11 23  1  0
 12 14  4  0
 12 16  4  0
 14 19  4  0
 15 18  4  0
 16 20  4  0
 17 25  1  0
 18 26  4  0
 19 29  4  0
 20 29  4  0
 21 23  1  0
 21 25  1  0
 27 29  4  0
M  END
$$$$

 Created by Python create_sdf_string function

 29 32  0  0  0  0  0  0  0  0999 V2000
    5.4450    8.7154   22.6662 C   0  0  0  0  0  0  0  0  0  0  0  0
   10.9154    5.4574   20.5483 C   0  0  0  0  0  0  0  0  0  0  0  0
    7.2709    4.5089   22.7542 C   0  0  0  0  0  0  0  0  0  0  0  0
    5.9698    7.6329   24.6581 C   0  0  0  0  0  0  0  0  0  0  0  0
    4.5542    8.9057   21.7104 O   0  0  0  0  0  0  0  0  0  0  0  0
    6.9895    3.2085   23.0690 C   0  0  0  0  0  0  0  0  0  0  0  0
    7.8391    2.2253   22.7260 N   0  0  0  0  0  0  0  0  0  0  0  0
    8.6968    9.8373   23.6359 C   0  0  0  0  0  0  0  0  0  0  0  0
   12.5135    6.5957   21.8396 C   0  0  0  0  0  0  0  0  0  0  0  0
   10.9406    8.2330   21.1350 C   0  0  0  0  0  0  0  0  0  0  0  0
    9.6648    8.5956   21.7310 C   0  0  0  0  0  0  0  0  0  0  0  0
   10.8829    1.7153   20.9865 C   0  0  0  0  0  0  0  0  0  0  0  0
    5.7768    2.8533   23.7910 C   0  0  0  0  0  0  0  0  0  0  0  0
    9.7977    1.4791   21.6912 N   0  0  0  0  0  0  0  0  0  0  0  0
    6.5976    9.3401   22.6478 N   0  0  0  0  0  0  0  0  0  0  0  0
   11.2031    3.0042   20.6246 C   0  0  0  0  0  0  0  0  0  0  0  0
   12.8688    7.7370   22.7287 C   0  0  0  0  0  0  0  0  0  0  0  0
    7.4487    9.1361   23.6506 C   0  0  0  0  0  0  0  0  0  0  0  0
    8.9772    2.5025   22.0273 C   0  0  0  0  0  0  0  0  0  0  0  0
   10.4859    4.0901   20.9730 C   0  0  0  0  0  0  0  0  0  0  0  0
   11.0962    9.3293   23.5072 C   0  0  0  0  0  0  0  0  0  0  0  0
    5.1273    7.8529   23.6208 N   0  0  0  0  0  0  0  0  0  0  0  0
    9.7552    9.2338   23.0171 N   0  0  0  0  0  0  0  0  0  0  0  0
   11.1797    6.7591   21.3326 N   0  0  0  0  0  0  0  0  0  0  0  0
   11.7728    8.0337   23.7267 C   0  0  0  0  0  0  0  0  0  0  0  0
    7.1194    8.3344   24.6775 C   0  0  0  0  0  0  0  0  0  0  0  0
    8.4311    4.7963   22.0500 C   0  0  0  0  0  0  0  0  0  0  0  0
    8.7393   10.8706   24.1871 O   0  0  0  0  0  0  0  0  0  0  0  0
    9.3093    3.8166   21.6712 C   0  0  0  0  0  0  0  0  0  0  0  0
  1  5  1  0
  1 15  4  0
  1 22  4  0
  2 20  1  0
  2 24  1  0
  3  6  4  0
  3 27  4  0
  4 22  4  0
  4 26  4  0
  6  7  4  0
  6 13  1  0
  7 19  4  0
  8 18  1  0
  8 23  1  0
  8 28  2  0
  9 17  1  0
  9 24  1  0
 10 11  1  0
 10 24  1  0
 11 23  1  0
 12 14  4  0
 12 16  4  0
 14 19  4  0
 15 18  4  0
 16 20  4  0
 17 25  1  0
 18 26  4  0
 19 29  4  0
 20 29  4  0
 21 23  1  0
 21 25  1  0
 27 29  4  0
M  END
$$$$

 Created by Python create_sdf_string function

 29 32  0  0  0  0  0  0  0  0999 V2000
    5.4450    8.7154   22.6662 C   0  0  0  0  0  0  0  0  0  0  0  0
   10.9154    5.4574   20.5483 C   0  0  0  0  0  0  0  0  0  0  0  0
    7.2709    4.5089   22.7542 C   0  0  0  0  0  0  0  0  0  0  0  0
    5.9698    7.6329   24.6581 C   0  0  0  0  0  0  0  0  0  0  0  0
    4.5542    8.9057   21.7104 O   0  0  0  0  0  0  0  0  0  0  0  0
    6.9895    3.2085   23.0690 C   0  0  0  0  0  0  0  0  0  0  0  0
    7.8391    2.2253   22.7260 N   0  0  0  0  0  0  0  0  0  0  0  0
    8.6968    9.8373   23.6359 C   0  0  0  0  0  0  0  0  0  0  0  0
   12.5135    6.5957   21.8396 C   0  0  0  0  0  0  0  0  0  0  0  0
   10.9406    8.2330   21.1350 C   0  0  0  0  0  0  0  0  0  0  0  0
    9.6648    8.5956   21.7310 C   0  0  0  0  0  0  0  0  0  0  0  0
   10.8829    1.7153   20.9865 C   0  0  0  0  0  0  0  0  0  0  0  0
    5.7768    2.8533   23.7910 C   0  0  0  0  0  0  0  0  0  0  0  0
    9.7977    1.4791   21.6912 N   0  0  0  0  0  0  0  0  0  0  0  0
    6.5976    9.3401   22.6478 N   0  0  0  0  0  0  0  0  0  0  0  0
   11.2031    3.0042   20.6246 C   0  0  0  0  0  0  0  0  0  0  0  0
   12.8688    7.7370   22.7287 C   0  0  0  0  0  0  0  0  0  0  0  0
    7.4487    9.1361   23.6506 C   0  0  0  0  0  0  0  0  0  0  0  0
    8.9772    2.5025   22.0273 C   0  0  0  0  0  0  0  0  0  0  0  0
   10.4859    4.0901   20.9730 C   0  0  0  0  0  0  0  0  0  0  0  0
   11.0962    9.3293   23.5072 C   0  0  0  0  0  0  0  0  0  0  0  0
    5.1273    7.8529   23.6208 N   0  0  0  0  0  0  0  0  0  0  0  0
    9.7552    9.2338   23.0171 N   0  0  0  0  0  0  0  0  0  0  0  0
   11.1797    6.7591   21.3326 N   0  0  0  0  0  0  0  0  0  0  0  0
   11.7728    8.0337   23.7267 C   0  0  0  0  0  0  0  0  0  0  0  0
    7.1194    8.3344   24.6775 C   0  0  0  0  0  0  0  0  0  0  0  0
    8.4311    4.7963   22.0500 C   0  0  0  0  0  0  0  0  0  0  0  0
    8.7393   10.8706   24.1871 O   0  0  0  0  0  0  0  0  0  0  0  0
    9.3093    3.8166   21.6712 C   0  0  0  0  0  0  0  0  0  0  0  0
  1  5  1  0
  1 15  4  0
  1 22  4  0
  2 20  1  0
  2 24  1  0
  3  6  4  0
  3 27  4  0
  4 22  4  0
  4 26  4  0
  6  7  4  0
  6 13  1  0
  7 19  4  0
  8 18  1  0
  8 23  1  0
  8 28  2  0
  9 17  1  0
  9 24  1  0
 10 11  1  0
 10 24  1  0
 11 23  1  0
 12 14  4  0
 12 16  4  0
 14 19  4  0
 15 18  4  0
 16 20  4  0
 17 25  1  0
 18 26  4  0
 19 29  4  0
 20 29  4  0
 21 23  1  0
 21 25  1  0
 27 29  4  0
M  END
$$$$

 Created by Python create_sdf_string function

 29 32  0  0  0  0  0  0  0  0999 V2000
    5.4450    8.7154   22.6662 C   0  0  0  0  0  0  0  0  0  0  0  0
   10.9154    5.4574   20.5483 C   0  0  0  0  0  0  0  0  0  0  0  0
    7.2709    4.5089   22.7542 C   0  0  0  0  0  0  0  0  0  0  0  0
    5.9698    7.6329   24.6581 C   0  0  0  0  0  0  0  0  0  0  0  0
    4.5542    8.9057   21.7104 O   0  0  0  0  0  0  0  0  0  0  0  0
    6.9895    3.2085   23.0690 C   0  0  0  0  0  0  0  0  0  0  0  0
    7.8391    2.2253   22.7260 N   0  0  0  0  0  0  0  0  0  0  0  0
    8.6968    9.8373   23.6359 C   0  0  0  0  0  0  0  0  0  0  0  0
   12.5135    6.5957   21.8396 C   0  0  0  0  0  0  0  0  0  0  0  0
   10.9406    8.2330   21.1350 C   0  0  0  0  0  0  0  0  0  0  0  0
    9.6648    8.5956   21.7310 C   0  0  0  0  0  0  0  0  0  0  0  0
   10.8829    1.7153   20.9865 C   0  0  0  0  0  0  0  0  0  0  0  0
    5.7768    2.8533   23.7910 C   0  0  0  0  0  0  0  0  0  0  0  0
    9.7977    1.4791   21.6912 N   0  0  0  0  0  0  0  0  0  0  0  0
    6.5976    9.3401   22.6478 N   0  0  0  0  0  0  0  0  0  0  0  0
   11.2031    3.0042   20.6246 C   0  0  0  0  0  0  0  0  0  0  0  0
   12.8688    7.7370   22.7287 C   0  0  0  0  0  0  0  0  0  0  0  0
    7.4487    9.1361   23.6506 C   0  0  0  0  0  0  0  0  0  0  0  0
    8.9772    2.5025   22.0273 C   0  0  0  0  0  0  0  0  0  0  0  0
   10.4859    4.0901   20.9730 C   0  0  0  0  0  0  0  0  0  0  0  0
   11.0962    9.3293   23.5072 C   0  0  0  0  0  0  0  0  0  0  0  0
    5.1273    7.8529   23.6208 N   0  0  0  0  0  0  0  0  0  0  0  0
    9.7552    9.2338   23.0171 N   0  0  0  0  0  0  0  0  0  0  0  0
   11.1797    6.7591   21.3326 N   0  0  0  0  0  0  0  0  0  0  0  0
   11.7728    8.0337   23.7267 C   0  0  0  0  0  0  0  0  0  0  0  0
    7.1194    8.3344   24.6775 C   0  0  0  0  0  0  0  0  0  0  0  0
    8.4311    4.7963   22.0500 C   0  0  0  0  0  0  0  0  0  0  0  0
    8.7393   10.8706   24.1871 O   0  0  0  0  0  0  0  0  0  0  0  0
    9.3093    3.8166   21.6712 C   0  0  0  0  0  0  0  0  0  0  0  0
  1  5  1  0
  1 15  4  0
  1 22  4  0
  2 20  1  0
  2 24  1  0
  3  6  4  0
  3 27  4  0
  4 22  4  0
  4 26  4  0
  6  7  4  0
  6 13  1  0
  7 19  4  0
  8 18  1  0
  8 23  1  0
  8 28  2  0
  9 17  1  0
  9 24  1  0
 10 11  1  0
 10 24  1  0
 11 23  1  0
 12 14  4  0
 12 16  4  0
 14 19  4  0
 15 18  4  0
 16 20  4  0
 17 25  1  0
 18 26  4  0
 19 29  4  0
 20 29  4  0
 21 23  1  0
 21 25  1  0
 27 29  4  0
M  END
$$$$

 Created by Python create_sdf_string function

 29 32  0  0  0  0  0  0  0  0999 V2000
    5.4450    8.7154   22.6662 C   0  0  0  0  0  0  0  0  0  0  0  0
   10.9154    5.4574   20.5483 C   0  0  0  0  0  0  0  0  0  0  0  0
    7.2709    4.5089   22.7542 C   0  0  0  0  0  0  0  0  0  0  0  0
    5.9698    7.6329   24.6581 C   0  0  0  0  0  0  0  0  0  0  0  0
    4.5542    8.9057   21.7104 O   0  0  0  0  0  0  0  0  0  0  0  0
    6.9895    3.2085   23.0690 C   0  0  0  0  0  0  0  0  0  0  0  0
    7.8391    2.2253   22.7260 N   0  0  0  0  0  0  0  0  0  0  0  0
    8.6968    9.8373   23.6359 C   0  0  0  0  0  0  0  0  0  0  0  0
   12.5135    6.5957   21.8396 C   0  0  0  0  0  0  0  0  0  0  0  0
   10.9406    8.2330   21.1350 C   0  0  0  0  0  0  0  0  0  0  0  0
    9.6648    8.5956   21.7310 C   0  0  0  0  0  0  0  0  0  0  0  0
   10.8829    1.7153   20.9865 C   0  0  0  0  0  0  0  0  0  0  0  0
    5.7768    2.8533   23.7910 C   0  0  0  0  0  0  0  0  0  0  0  0
    9.7977    1.4791   21.6912 N   0  0  0  0  0  0  0  0  0  0  0  0
    6.5976    9.3401   22.6478 N   0  0  0  0  0  0  0  0  0  0  0  0
   11.2031    3.0042   20.6246 C   0  0  0  0  0  0  0  0  0  0  0  0
   12.8688    7.7370   22.7287 C   0  0  0  0  0  0  0  0  0  0  0  0
    7.4487    9.1361   23.6506 C   0  0  0  0  0  0  0  0  0  0  0  0
    8.9772    2.5025   22.0273 C   0  0  0  0  0  0  0  0  0  0  0  0
   10.4859    4.0901   20.9730 C   0  0  0  0  0  0  0  0  0  0  0  0
   11.0962    9.3293   23.5072 C   0  0  0  0  0  0  0  0  0  0  0  0
    5.1273    7.8529   23.6208 N   0  0  0  0  0  0  0  0  0  0  0  0
    9.7552    9.2338   23.0171 N   0  0  0  0  0  0  0  0  0  0  0  0
   11.1797    6.7591   21.3326 N   0  0  0  0  0  0  0  0  0  0  0  0
   11.7728    8.0337   23.7267 C   0  0  0  0  0  0  0  0  0  0  0  0
    7.1194    8.3344   24.6775 C   0  0  0  0  0  0  0  0  0  0  0  0
    8.4311    4.7963   22.0500 C   0  0  0  0  0  0  0  0  0  0  0  0
    8.7393   10.8706   24.1871 O   0  0  0  0  0  0  0  0  0  0  0  0
    9.3093    3.8166   21.6712 C   0  0  0  0  0  0  0  0  0  0  0  0
  1  5  1  0
  1 15  4  0
  1 22  4  0
  2 20  1  0
  2 24  1  0
  3  6  4  0
  3 27  4  0
  4 22  4  0
  4 26  4  0
  6  7  4  0
  6 13  1  0
  7 19  4  0
  8 18  1  0
  8 23  1  0
  8 28  2  0
  9 17  1  0
  9 24  1  0
 10 11  1  0
 10 24  1  0
 11 23  1  0
 12 14  4  0
 12 16  4  0
 14 19  4  0
 15 18  4  0
 16 20  4  0
 17 25  1  0
 18 26  4  0
 19 29  4  0
 20 29  4  0
 21 23  1  0
 21 25  1  0
 27 29  4  0
M  END
$$$$

 Created by Python create_sdf_string function

 29 32  0  0  0  0  0  0  0  0999 V2000
    5.4450    8.7154   22.6662 C   0  0  0  0  0  0  0  0  0  0  0  0
   10.9154    5.4574   20.5483 C   0  0  0  0  0  0  0  0  0  0  0  0
    7.2709    4.5089   22.7542 C   0  0  0  0  0  0  0  0  0  0  0  0
    5.9698    7.6329   24.6581 C   0  0  0  0  0  0  0  0  0  0  0  0
    4.5542    8.9057   21.7104 O   0  0  0  0  0  0  0  0  0  0  0  0
    6.9895    3.2085   23.0690 C   0  0  0  0  0  0  0  0  0  0  0  0
    7.8391    2.2253   22.7260 N   0  0  0  0  0  0  0  0  0  0  0  0
    8.6968    9.8373   23.6359 C   0  0  0  0  0  0  0  0  0  0  0  0
   12.5135    6.5957   21.8396 C   0  0  0  0  0  0  0  0  0  0  0  0
   10.9406    8.2330   21.1350 C   0  0  0  0  0  0  0  0  0  0  0  0
    9.6648    8.5956   21.7310 C   0  0  0  0  0  0  0  0  0  0  0  0
   10.8829    1.7153   20.9865 C   0  0  0  0  0  0  0  0  0  0  0  0
    5.7768    2.8533   23.7910 C   0  0  0  0  0  0  0  0  0  0  0  0
    9.7977    1.4791   21.6912 N   0  0  0  0  0  0  0  0  0  0  0  0
    6.5976    9.3401   22.6478 N   0  0  0  0  0  0  0  0  0  0  0  0
   11.2031    3.0042   20.6246 C   0  0  0  0  0  0  0  0  0  0  0  0
   12.8688    7.7370   22.7287 C   0  0  0  0  0  0  0  0  0  0  0  0
    7.4487    9.1361   23.6506 C   0  0  0  0  0  0  0  0  0  0  0  0
    8.9772    2.5025   22.0273 C   0  0  0  0  0  0  0  0  0  0  0  0
   10.4859    4.0901   20.9730 C   0  0  0  0  0  0  0  0  0  0  0  0
   11.0962    9.3293   23.5072 C   0  0  0  0  0  0  0  0  0  0  0  0
    5.1273    7.8529   23.6208 N   0  0  0  0  0  0  0  0  0  0  0  0
    9.7552    9.2338   23.0171 N   0  0  0  0  0  0  0  0  0  0  0  0
   11.1797    6.7591   21.3326 N   0  0  0  0  0  0  0  0  0  0  0  0
   11.7728    8.0337   23.7267 C   0  0  0  0  0  0  0  0  0  0  0  0
    7.1194    8.3344   24.6775 C   0  0  0  0  0  0  0  0  0  0  0  0
    8.4311    4.7963   22.0500 C   0  0  0  0  0  0  0  0  0  0  0  0
    8.7393   10.8706   24.1871 O   0  0  0  0  0  0  0  0  0  0  0  0
    9.3093    3.8166   21.6712 C   0  0  0  0  0  0  0  0  0  0  0  0
  1  5  1  0
  1 15  4  0
  1 22  4  0
  2 20  1  0
  2 24  1  0
  3  6  4  0
  3 27  4  0
  4 22  4  0
  4 26  4  0
  6  7  4  0
  6 13  1  0
  7 19  4  0
  8 18  1  0
  8 23  1  0
  8 28  2  0
  9 17  1  0
  9 24  1  0
 10 11  1  0
 10 24  1  0
 11 23  1  0
 12 14  4  0
 12 16  4  0
 14 19  4  0
 15 18  4  0
 16 20  4  0
 17 25  1  0
 18 26  4  0
 19 29  4  0
 20 29  4  0
 21 23  1  0
 21 25  1  0
 27 29  4  0
M  END
$$$$

 Created by Python create_sdf_string function

 29 32  0  0  0  0  0  0  0  0999 V2000
    5.4450    8.7154   22.6662 C   0  0  0  0  0  0  0  0  0  0  0  0
   10.9154    5.4574   20.5483 C   0  0  0  0  0  0  0  0  0  0  0  0
    7.2709    4.5089   22.7542 C   0  0  0  0  0  0  0  0  0  0  0  0
    5.9698    7.6329   24.6581 C   0  0  0  0  0  0  0  0  0  0  0  0
    4.5542    8.9057   21.7104 O   0  0  0  0  0  0  0  0  0  0  0  0
    6.9895    3.2085   23.0690 C   0  0  0  0  0  0  0  0  0  0  0  0
    7.8391    2.2253   22.7260 N   0  0  0  0  0  0  0  0  0  0  0  0
    8.6968    9.8373   23.6359 C   0  0  0  0  0  0  0  0  0  0  0  0
   12.5135    6.5957   21.8396 C   0  0  0  0  0  0  0  0  0  0  0  0
   10.9406    8.2330   21.1350 C   0  0  0  0  0  0  0  0  0  0  0  0
    9.6648    8.5956   21.7310 C   0  0  0  0  0  0  0  0  0  0  0  0
   10.8829    1.7153   20.9865 C   0  0  0  0  0  0  0  0  0  0  0  0
    5.7768    2.8533   23.7910 C   0  0  0  0  0  0  0  0  0  0  0  0
    9.7977    1.4791   21.6912 N   0  0  0  0  0  0  0  0  0  0  0  0
    6.5976    9.3401   22.6478 N   0  0  0  0  0  0  0  0  0  0  0  0
   11.2031    3.0042   20.6246 C   0  0  0  0  0  0  0  0  0  0  0  0
   12.8688    7.7370   22.7287 C   0  0  0  0  0  0  0  0  0  0  0  0
    7.4487    9.1361   23.6506 C   0  0  0  0  0  0  0  0  0  0  0  0
    8.9772    2.5025   22.0273 C   0  0  0  0  0  0  0  0  0  0  0  0
   10.4859    4.0901   20.9730 C   0  0  0  0  0  0  0  0  0  0  0  0
   11.0962    9.3293   23.5072 C   0  0  0  0  0  0  0  0  0  0  0  0
    5.1273    7.8529   23.6208 N   0  0  0  0  0  0  0  0  0  0  0  0
    9.7552    9.2338   23.0171 N   0  0  0  0  0  0  0  0  0  0  0  0
   11.1797    6.7591   21.3326 N   0  0  0  0  0  0  0  0  0  0  0  0
   11.7728    8.0337   23.7267 C   0  0  0  0  0  0  0  0  0  0  0  0
    7.1194    8.3344   24.6775 C   0  0  0  0  0  0  0  0  0  0  0  0
    8.4311    4.7963   22.0500 C   0  0  0  0  0  0  0  0  0  0  0  0
    8.7393   10.8706   24.1871 O   0  0  0  0  0  0  0  0  0  0  0  0
    9.3093    3.8166   21.6712 C   0  0  0  0  0  0  0  0  0  0  0  0
  1  5  1  0
  1 15  4  0
  1 22  4  0
  2 20  1  0
  2 24  1  0
  3  6  4  0
  3 27  4  0
  4 22  4  0
  4 26  4  0
  6  7  4  0
  6 13  1  0
  7 19  4  0
  8 18  1  0
  8 23  1  0
  8 28  2  0
  9 17  1  0
  9 24  1  0
 10 11  1  0
 10 24  1  0
 11 23  1  0
 12 14  4  0
 12 16  4  0
 14 19  4  0
 15 18  4  0
 16 20  4  0
 17 25  1  0
 18 26  4  0
 19 29  4  0
 20 29  4  0
 21 23  1  0
 21 25  1  0
 27 29  4  0
M  END
$$$$

 Created by Python create_sdf_string function

 29 32  0  0  0  0  0  0  0  0999 V2000
    5.4450    8.7154   22.6662 C   0  0  0  0  0  0  0  0  0  0  0  0
   10.9154    5.4574   20.5483 C   0  0  0  0  0  0  0  0  0  0  0  0
    7.2709    4.5089   22.7542 C   0  0  0  0  0  0  0  0  0  0  0  0
    5.9698    7.6329   24.6581 C   0  0  0  0  0  0  0  0  0  0  0  0
    4.5542    8.9057   21.7104 O   0  0  0  0  0  0  0  0  0  0  0  0
    6.9895    3.2085   23.0690 C   0  0  0  0  0  0  0  0  0  0  0  0
    7.8391    2.2253   22.7260 N   0  0  0  0  0  0  0  0  0  0  0  0
    8.6968    9.8373   23.6359 C   0  0  0  0  0  0  0  0  0  0  0  0
   12.5135    6.5957   21.8396 C   0  0  0  0  0  0  0  0  0  0  0  0
   10.9406    8.2330   21.1350 C   0  0  0  0  0  0  0  0  0  0  0  0
    9.6648    8.5956   21.7310 C   0  0  0  0  0  0  0  0  0  0  0  0
   10.8829    1.7153   20.9865 C   0  0  0  0  0  0  0  0  0  0  0  0
    5.7768    2.8533   23.7910 C   0  0  0  0  0  0  0  0  0  0  0  0
    9.7977    1.4791   21.6912 N   0  0  0  0  0  0  0  0  0  0  0  0
    6.5976    9.3401   22.6478 N   0  0  0  0  0  0  0  0  0  0  0  0
   11.2031    3.0042   20.6246 C   0  0  0  0  0  0  0  0  0  0  0  0
   12.8688    7.7370   22.7287 C   0  0  0  0  0  0  0  0  0  0  0  0
    7.4487    9.1361   23.6506 C   0  0  0  0  0  0  0  0  0  0  0  0
    8.9772    2.5025   22.0273 C   0  0  0  0  0  0  0  0  0  0  0  0
   10.4859    4.0901   20.9730 C   0  0  0  0  0  0  0  0  0  0  0  0
   11.0962    9.3293   23.5072 C   0  0  0  0  0  0  0  0  0  0  0  0
    5.1273    7.8529   23.6208 N   0  0  0  0  0  0  0  0  0  0  0  0
    9.7552    9.2338   23.0171 N   0  0  0  0  0  0  0  0  0  0  0  0
   11.1797    6.7591   21.3326 N   0  0  0  0  0  0  0  0  0  0  0  0
   11.7728    8.0337   23.7267 C   0  0  0  0  0  0  0  0  0  0  0  0
    7.1194    8.3344   24.6775 C   0  0  0  0  0  0  0  0  0  0  0  0
    8.4311    4.7963   22.0500 C   0  0  0  0  0  0  0  0  0  0  0  0
    8.7393   10.8706   24.1871 O   0  0  0  0  0  0  0  0  0  0  0  0
    9.3093    3.8166   21.6712 C   0  0  0  0  0  0  0  0  0  0  0  0
  1  5  1  0
  1 15  4  0
  1 22  4  0
  2 20  1  0
  2 24  1  0
  3  6  4  0
  3 27  4  0
  4 22  4  0
  4 26  4  0
  6  7  4  0
  6 13  1  0
  7 19  4  0
  8 18  1  0
  8 23  1  0
  8 28  2  0
  9 17  1  0
  9 24  1  0
 10 11  1  0
 10 24  1  0
 11 23  1  0
 12 14  4  0
 12 16  4  0
 14 19  4  0
 15 18  4  0
 16 20  4  0
 17 25  1  0
 18 26  4  0
 19 29  4  0
 20 29  4  0
 21 23  1  0
 21 25  1  0
 27 29  4  0
M  END
$$$$

 Created by Python create_sdf_string function

 29 32  0  0  0  0  0  0  0  0999 V2000
    5.4450    8.7154   22.6662 C   0  0  0  0  0  0  0  0  0  0  0  0
   10.9154    5.4574   20.5483 C   0  0  0  0  0  0  0  0  0  0  0  0
    7.2709    4.5089   22.7542 C   0  0  0  0  0  0  0  0  0  0  0  0
    5.9698    7.6329   24.6581 C   0  0  0  0  0  0  0  0  0  0  0  0
    4.5542    8.9057   21.7104 O   0  0  0  0  0  0  0  0  0  0  0  0
    6.9895    3.2085   23.0690 C   0  0  0  0  0  0  0  0  0  0  0  0
    7.8391    2.2253   22.7260 N   0  0  0  0  0  0  0  0  0  0  0  0
    8.6968    9.8373   23.6359 C   0  0  0  0  0  0  0  0  0  0  0  0
   12.5135    6.5957   21.8396 C   0  0  0  0  0  0  0  0  0  0  0  0
   10.9406    8.2330   21.1350 C   0  0  0  0  0  0  0  0  0  0  0  0
    9.6648    8.5956   21.7310 C   0  0  0  0  0  0  0  0  0  0  0  0
   10.8829    1.7153   20.9865 C   0  0  0  0  0  0  0  0  0  0  0  0
    5.7768    2.8533   23.7910 C   0  0  0  0  0  0  0  0  0  0  0  0
    9.7977    1.4791   21.6912 N   0  0  0  0  0  0  0  0  0  0  0  0
    6.5976    9.3401   22.6478 N   0  0  0  0  0  0  0  0  0  0  0  0
   11.2031    3.0042   20.6246 C   0  0  0  0  0  0  0  0  0  0  0  0
   12.8688    7.7370   22.7287 C   0  0  0  0  0  0  0  0  0  0  0  0
    7.4487    9.1361   23.6506 C   0  0  0  0  0  0  0  0  0  0  0  0
    8.9772    2.5025   22.0273 C   0  0  0  0  0  0  0  0  0  0  0  0
   10.4859    4.0901   20.9730 C   0  0  0  0  0  0  0  0  0  0  0  0
   11.0962    9.3293   23.5072 C   0  0  0  0  0  0  0  0  0  0  0  0
    5.1273    7.8529   23.6208 N   0  0  0  0  0  0  0  0  0  0  0  0
    9.7552    9.2338   23.0171 N   0  0  0  0  0  0  0  0  0  0  0  0
   11.1797    6.7591   21.3326 N   0  0  0  0  0  0  0  0  0  0  0  0
   11.7728    8.0337   23.7267 C   0  0  0  0  0  0  0  0  0  0  0  0
    7.1194    8.3344   24.6775 C   0  0  0  0  0  0  0  0  0  0  0  0
    8.4311    4.7963   22.0500 C   0  0  0  0  0  0  0  0  0  0  0  0
    8.7393   10.8706   24.1871 O   0  0  0  0  0  0  0  0  0  0  0  0
    9.3093    3.8166   21.6712 C   0  0  0  0  0  0  0  0  0  0  0  0
  1  5  1  0
  1 15  4  0
  1 22  4  0
  2 20  1  0
  2 24  1  0
  3  6  4  0
  3 27  4  0
  4 22  4  0
  4 26  4  0
  6  7  4  0
  6 13  1  0
  7 19  4  0
  8 18  1  0
  8 23  1  0
  8 28  2  0
  9 17  1  0
  9 24  1  0
 10 11  1  0
 10 24  1  0
 11 23  1  0
 12 14  4  0
 12 16  4  0
 14 19  4  0
 15 18  4  0
 16 20  4  0
 17 25  1  0
 18 26  4  0
 19 29  4  0
 20 29  4  0
 21 23  1  0
 21 25  1  0
 27 29  4  0
M  END
$$$$

 Created by Python create_sdf_string function

 29 32  0  0  0  0  0  0  0  0999 V2000
    5.4450    8.7154   22.6662 C   0  0  0  0  0  0  0  0  0  0  0  0
   10.9154    5.4574   20.5483 C   0  0  0  0  0  0  0  0  0  0  0  0
    7.2709    4.5089   22.7542 C   0  0  0  0  0  0  0  0  0  0  0  0
    5.9698    7.6329   24.6581 C   0  0  0  0  0  0  0  0  0  0  0  0
    4.5542    8.9057   21.7104 O   0  0  0  0  0  0  0  0  0  0  0  0
    6.9895    3.2085   23.0690 C   0  0  0  0  0  0  0  0  0  0  0  0
    7.8391    2.2253   22.7260 N   0  0  0  0  0  0  0  0  0  0  0  0
    8.6968    9.8373   23.6359 C   0  0  0  0  0  0  0  0  0  0  0  0
   12.5135    6.5957   21.8396 C   0  0  0  0  0  0  0  0  0  0  0  0
   10.9406    8.2330   21.1350 C   0  0  0  0  0  0  0  0  0  0  0  0
    9.6648    8.5956   21.7310 C   0  0  0  0  0  0  0  0  0  0  0  0
   10.8829    1.7153   20.9865 C   0  0  0  0  0  0  0  0  0  0  0  0
    5.7768    2.8533   23.7910 C   0  0  0  0  0  0  0  0  0  0  0  0
    9.7977    1.4791   21.6912 N   0  0  0  0  0  0  0  0  0  0  0  0
    6.5976    9.3401   22.6478 N   0  0  0  0  0  0  0  0  0  0  0  0
   11.2031    3.0042   20.6246 C   0  0  0  0  0  0  0  0  0  0  0  0
   12.8688    7.7370   22.7287 C   0  0  0  0  0  0  0  0  0  0  0  0
    7.4487    9.1361   23.6506 C   0  0  0  0  0  0  0  0  0  0  0  0
    8.9772    2.5025   22.0273 C   0  0  0  0  0  0  0  0  0  0  0  0
   10.4859    4.0901   20.9730 C   0  0  0  0  0  0  0  0  0  0  0  0
   11.0962    9.3293   23.5072 C   0  0  0  0  0  0  0  0  0  0  0  0
    5.1273    7.8529   23.6208 N   0  0  0  0  0  0  0  0  0  0  0  0
    9.7552    9.2338   23.0171 N   0  0  0  0  0  0  0  0  0  0  0  0
   11.1797    6.7591   21.3326 N   0  0  0  0  0  0  0  0  0  0  0  0
   11.7728    8.0337   23.7267 C   0  0  0  0  0  0  0  0  0  0  0  0
    7.1194    8.3344   24.6775 C   0  0  0  0  0  0  0  0  0  0  0  0
    8.4311    4.7963   22.0500 C   0  0  0  0  0  0  0  0  0  0  0  0
    8.7393   10.8706   24.1871 O   0  0  0  0  0  0  0  0  0  0  0  0
    9.3093    3.8166   21.6712 C   0  0  0  0  0  0  0  0  0  0  0  0
  1  5  1  0
  1 15  4  0
  1 22  4  0
  2 20  1  0
  2 24  1  0
  3  6  4  0
  3 27  4  0
  4 22  4  0
  4 26  4  0
  6  7  4  0
  6 13  1  0
  7 19  4  0
  8 18  1  0
  8 23  1  0
  8 28  2  0
  9 17  1  0
  9 24  1  0
 10 11  1  0
 10 24  1  0
 11 23  1  0
 12 14  4  0
 12 16  4  0
 14 19  4  0
 15 18  4  0
 16 20  4  0
 17 25  1  0
 18 26  4  0
 19 29  4  0
 20 29  4  0
 21 23  1  0
 21 25  1  0
 27 29  4  0
M  END
$$$$

 Created by Python create_sdf_string function

 29 32  0  0  0  0  0  0  0  0999 V2000
    5.4450    8.7154   22.6662 C   0  0  0  0  0  0  0  0  0  0  0  0
   10.9154    5.4574   20.5483 C   0  0  0  0  0  0  0  0  0  0  0  0
    7.2709    4.5089   22.7542 C   0  0  0  0  0  0  0  0  0  0  0  0
    5.9698    7.6329   24.6581 C   0  0  0  0  0  0  0  0  0  0  0  0
    4.5542    8.9057   21.7104 O   0  0  0  0  0  0  0  0  0  0  0  0
    6.9895    3.2085   23.0690 C   0  0  0  0  0  0  0  0  0  0  0  0
    7.8391    2.2253   22.7260 N   0  0  0  0  0  0  0  0  0  0  0  0
    8.6968    9.8373   23.6359 C   0  0  0  0  0  0  0  0  0  0  0  0
   12.5135    6.5957   21.8396 C   0  0  0  0  0  0  0  0  0  0  0  0
   10.9406    8.2330   21.1350 C   0  0  0  0  0  0  0  0  0  0  0  0
    9.6648    8.5956   21.7310 C   0  0  0  0  0  0  0  0  0  0  0  0
   10.8829    1.7153   20.9865 C   0  0  0  0  0  0  0  0  0  0  0  0
    5.7768    2.8533   23.7910 C   0  0  0  0  0  0  0  0  0  0  0  0
    9.7977    1.4791   21.6912 N   0  0  0  0  0  0  0  0  0  0  0  0
    6.5976    9.3401   22.6478 N   0  0  0  0  0  0  0  0  0  0  0  0
   11.2031    3.0042   20.6246 C   0  0  0  0  0  0  0  0  0  0  0  0
   12.8688    7.7370   22.7287 C   0  0  0  0  0  0  0  0  0  0  0  0
    7.4487    9.1361   23.6506 C   0  0  0  0  0  0  0  0  0  0  0  0
    8.9772    2.5025   22.0273 C   0  0  0  0  0  0  0  0  0  0  0  0
   10.4859    4.0901   20.9730 C   0  0  0  0  0  0  0  0  0  0  0  0
   11.0962    9.3293   23.5072 C   0  0  0  0  0  0  0  0  0  0  0  0
    5.1273    7.8529   23.6208 N   0  0  0  0  0  0  0  0  0  0  0  0
    9.7552    9.2338   23.0171 N   0  0  0  0  0  0  0  0  0  0  0  0
   11.1797    6.7591   21.3326 N   0  0  0  0  0  0  0  0  0  0  0  0
   11.7728    8.0337   23.7267 C   0  0  0  0  0  0  0  0  0  0  0  0
    7.1194    8.3344   24.6775 C   0  0  0  0  0  0  0  0  0  0  0  0
    8.4311    4.7963   22.0500 C   0  0  0  0  0  0  0  0  0  0  0  0
    8.7393   10.8706   24.1871 O   0  0  0  0  0  0  0  0  0  0  0  0
    9.3093    3.8166   21.6712 C   0  0  0  0  0  0  0  0  0  0  0  0
  1  5  1  0
  1 15  4  0
  1 22  4  0
  2 20  1  0
  2 24  1  0
  3  6  4  0
  3 27  4  0
  4 22  4  0
  4 26  4  0
  6  7  4  0
  6 13  1  0
  7 19  4  0
  8 18  1  0
  8 23  1  0
  8 28  2  0
  9 17  1  0
  9 24  1  0
 10 11  1  0
 10 24  1  0
 11 23  1  0
 12 14  4  0
 12 16  4  0
 14 19  4  0
 15 18  4  0
 16 20  4  0
 17 25  1  0
 18 26  4  0
 19 29  4  0
 20 29  4  0
 21 23  1  0
 21 25  1  0
 27 29  4  0
M  END
$$$$

 Created by Python create_sdf_string function

 29 32  0  0  0  0  0  0  0  0999 V2000
    5.4450    8.7154   22.6662 C   0  0  0  0  0  0  0  0  0  0  0  0
   10.9154    5.4574   20.5483 C   0  0  0  0  0  0  0  0  0  0  0  0
    7.2709    4.5089   22.7542 C   0  0  0  0  0  0  0  0  0  0  0  0
    5.9698    7.6329   24.6581 C   0  0  0  0  0  0  0  0  0  0  0  0
    4.5542    8.9057   21.7104 O   0  0  0  0  0  0  0  0  0  0  0  0
    6.9895    3.2085   23.0690 C   0  0  0  0  0  0  0  0  0  0  0  0
    7.8391    2.2253   22.7260 N   0  0  0  0  0  0  0  0  0  0  0  0
    8.6968    9.8373   23.6359 C   0  0  0  0  0  0  0  0  0  0  0  0
   12.5135    6.5957   21.8396 C   0  0  0  0  0  0  0  0  0  0  0  0
   10.9406    8.2330   21.1350 C   0  0  0  0  0  0  0  0  0  0  0  0
    9.6648    8.5956   21.7310 C   0  0  0  0  0  0  0  0  0  0  0  0
   10.8829    1.7153   20.9865 C   0  0  0  0  0  0  0  0  0  0  0  0
    5.7768    2.8533   23.7910 C   0  0  0  0  0  0  0  0  0  0  0  0
    9.7977    1.4791   21.6912 N   0  0  0  0  0  0  0  0  0  0  0  0
    6.5976    9.3401   22.6478 N   0  0  0  0  0  0  0  0  0  0  0  0
   11.2031    3.0042   20.6246 C   0  0  0  0  0  0  0  0  0  0  0  0
   12.8688    7.7370   22.7287 C   0  0  0  0  0  0  0  0  0  0  0  0
    7.4487    9.1361   23.6506 C   0  0  0  0  0  0  0  0  0  0  0  0
    8.9772    2.5025   22.0273 C   0  0  0  0  0  0  0  0  0  0  0  0
   10.4859    4.0901   20.9730 C   0  0  0  0  0  0  0  0  0  0  0  0
   11.0962    9.3293   23.5072 C   0  0  0  0  0  0  0  0  0  0  0  0
    5.1273    7.8529   23.6208 N   0  0  0  0  0  0  0  0  0  0  0  0
    9.7552    9.2338   23.0171 N   0  0  0  0  0  0  0  0  0  0  0  0
   11.1797    6.7591   21.3326 N   0  0  0  0  0  0  0  0  0  0  0  0
   11.7728    8.0337   23.7267 C   0  0  0  0  0  0  0  0  0  0  0  0
    7.1194    8.3344   24.6775 C   0  0  0  0  0  0  0  0  0  0  0  0
    8.4311    4.7963   22.0500 C   0  0  0  0  0  0  0  0  0  0  0  0
    8.7393   10.8706   24.1871 O   0  0  0  0  0  0  0  0  0  0  0  0
    9.3093    3.8166   21.6712 C   0  0  0  0  0  0  0  0  0  0  0  0
  1  5  1  0
  1 15  4  0
  1 22  4  0
  2 20  1  0
  2 24  1  0
  3  6  4  0
  3 27  4  0
  4 22  4  0
  4 26  4  0
  6  7  4  0
  6 13  1  0
  7 19  4  0
  8 18  1  0
  8 23  1  0
  8 28  2  0
  9 17  1  0
  9 24  1  0
 10 11  1  0
 10 24  1  0
 11 23  1  0
 12 14  4  0
 12 16  4  0
 14 19  4  0
 15 18  4  0
 16 20  4  0
 17 25  1  0
 18 26  4  0
 19 29  4  0
 20 29  4  0
 21 23  1  0
 21 25  1  0
 27 29  4  0
M  END
$$$$

 Created by Python create_sdf_string function

 29 32  0  0  0  0  0  0  0  0999 V2000
    5.4450    8.7154   22.6662 C   0  0  0  0  0  0  0  0  0  0  0  0
   10.9154    5.4574   20.5483 C   0  0  0  0  0  0  0  0  0  0  0  0
    7.2709    4.5089   22.7542 C   0  0  0  0  0  0  0  0  0  0  0  0
    5.9698    7.6329   24.6581 C   0  0  0  0  0  0  0  0  0  0  0  0
    4.5542    8.9057   21.7104 O   0  0  0  0  0  0  0  0  0  0  0  0
    6.9895    3.2085   23.0690 C   0  0  0  0  0  0  0  0  0  0  0  0
    7.8391    2.2253   22.7260 N   0  0  0  0  0  0  0  0  0  0  0  0
    8.6968    9.8373   23.6359 C   0  0  0  0  0  0  0  0  0  0  0  0
   12.5135    6.5957   21.8396 C   0  0  0  0  0  0  0  0  0  0  0  0
   10.9406    8.2330   21.1350 C   0  0  0  0  0  0  0  0  0  0  0  0
    9.6648    8.5956   21.7310 C   0  0  0  0  0  0  0  0  0  0  0  0
   10.8829    1.7153   20.9865 C   0  0  0  0  0  0  0  0  0  0  0  0
    5.7768    2.8533   23.7910 C   0  0  0  0  0  0  0  0  0  0  0  0
    9.7977    1.4791   21.6912 N   0  0  0  0  0  0  0  0  0  0  0  0
    6.5976    9.3401   22.6478 N   0  0  0  0  0  0  0  0  0  0  0  0
   11.2031    3.0042   20.6246 C   0  0  0  0  0  0  0  0  0  0  0  0
   12.8688    7.7370   22.7287 C   0  0  0  0  0  0  0  0  0  0  0  0
    7.4487    9.1361   23.6506 C   0  0  0  0  0  0  0  0  0  0  0  0
    8.9772    2.5025   22.0273 C   0  0  0  0  0  0  0  0  0  0  0  0
   10.4859    4.0901   20.9730 C   0  0  0  0  0  0  0  0  0  0  0  0
   11.0962    9.3293   23.5072 C   0  0  0  0  0  0  0  0  0  0  0  0
    5.1273    7.8529   23.6208 N   0  0  0  0  0  0  0  0  0  0  0  0
    9.7552    9.2338   23.0171 N   0  0  0  0  0  0  0  0  0  0  0  0
   11.1797    6.7591   21.3326 N   0  0  0  0  0  0  0  0  0  0  0  0
   11.7728    8.0337   23.7267 C   0  0  0  0  0  0  0  0  0  0  0  0
    7.1194    8.3344   24.6775 C   0  0  0  0  0  0  0  0  0  0  0  0
    8.4311    4.7963   22.0500 C   0  0  0  0  0  0  0  0  0  0  0  0
    8.7393   10.8706   24.1871 O   0  0  0  0  0  0  0  0  0  0  0  0
    9.3093    3.8166   21.6712 C   0  0  0  0  0  0  0  0  0  0  0  0
  1  5  1  0
  1 15  4  0
  1 22  4  0
  2 20  1  0
  2 24  1  0
  3  6  4  0
  3 27  4  0
  4 22  4  0
  4 26  4  0
  6  7  4  0
  6 13  1  0
  7 19  4  0
  8 18  1  0
  8 23  1  0
  8 28  2  0
  9 17  1  0
  9 24  1  0
 10 11  1  0
 10 24  1  0
 11 23  1  0
 12 14  4  0
 12 16  4  0
 14 19  4  0
 15 18  4  0
 16 20  4  0
 17 25  1  0
 18 26  4  0
 19 29  4  0
 20 29  4  0
 21 23  1  0
 21 25  1  0
 27 29  4  0
M  END
$$$$

 Created by Python create_sdf_string function

 29 32  0  0  0  0  0  0  0  0999 V2000
    5.4450    8.7154   22.6662 C   0  0  0  0  0  0  0  0  0  0  0  0
   10.9154    5.4574   20.5483 C   0  0  0  0  0  0  0  0  0  0  0  0
    7.2709    4.5089   22.7542 C   0  0  0  0  0  0  0  0  0  0  0  0
    5.9698    7.6329   24.6581 C   0  0  0  0  0  0  0  0  0  0  0  0
    4.5542    8.9057   21.7104 O   0  0  0  0  0  0  0  0  0  0  0  0
    6.9895    3.2085   23.0690 C   0  0  0  0  0  0  0  0  0  0  0  0
    7.8391    2.2253   22.7260 N   0  0  0  0  0  0  0  0  0  0  0  0
    8.6968    9.8373   23.6359 C   0  0  0  0  0  0  0  0  0  0  0  0
   12.5135    6.5957   21.8396 C   0  0  0  0  0  0  0  0  0  0  0  0
   10.9406    8.2330   21.1350 C   0  0  0  0  0  0  0  0  0  0  0  0
    9.6648    8.5956   21.7310 C   0  0  0  0  0  0  0  0  0  0  0  0
   10.8829    1.7153   20.9865 C   0  0  0  0  0  0  0  0  0  0  0  0
    5.7768    2.8533   23.7910 C   0  0  0  0  0  0  0  0  0  0  0  0
    9.7977    1.4791   21.6912 N   0  0  0  0  0  0  0  0  0  0  0  0
    6.5976    9.3401   22.6478 N   0  0  0  0  0  0  0  0  0  0  0  0
   11.2031    3.0042   20.6246 C   0  0  0  0  0  0  0  0  0  0  0  0
   12.8688    7.7370   22.7287 C   0  0  0  0  0  0  0  0  0  0  0  0
    7.4487    9.1361   23.6506 C   0  0  0  0  0  0  0  0  0  0  0  0
    8.9772    2.5025   22.0273 C   0  0  0  0  0  0  0  0  0  0  0  0
   10.4859    4.0901   20.9730 C   0  0  0  0  0  0  0  0  0  0  0  0
   11.0962    9.3293   23.5072 C   0  0  0  0  0  0  0  0  0  0  0  0
    5.1273    7.8529   23.6208 N   0  0  0  0  0  0  0  0  0  0  0  0
    9.7552    9.2338   23.0171 N   0  0  0  0  0  0  0  0  0  0  0  0
   11.1797    6.7591   21.3326 N   0  0  0  0  0  0  0  0  0  0  0  0
   11.7728    8.0337   23.7267 C   0  0  0  0  0  0  0  0  0  0  0  0
    7.1194    8.3344   24.6775 C   0  0  0  0  0  0  0  0  0  0  0  0
    8.4311    4.7963   22.0500 C   0  0  0  0  0  0  0  0  0  0  0  0
    8.7393   10.8706   24.1871 O   0  0  0  0  0  0  0  0  0  0  0  0
    9.3093    3.8166   21.6712 C   0  0  0  0  0  0  0  0  0  0  0  0
  1  5  1  0
  1 15  4  0
  1 22  4  0
  2 20  1  0
  2 24  1  0
  3  6  4  0
  3 27  4  0
  4 22  4  0
  4 26  4  0
  6  7  4  0
  6 13  1  0
  7 19  4  0
  8 18  1  0
  8 23  1  0
  8 28  2  0
  9 17  1  0
  9 24  1  0
 10 11  1  0
 10 24  1  0
 11 23  1  0
 12 14  4  0
 12 16  4  0
 14 19  4  0
 15 18  4  0
 16 20  4  0
 17 25  1  0
 18 26  4  0
 19 29  4  0
 20 29  4  0
 21 23  1  0
 21 25  1  0
 27 29  4  0
M  END
$$$$

 Created by Python create_sdf_string function

 29 32  0  0  0  0  0  0  0  0999 V2000
    5.4450    8.7154   22.6662 C   0  0  0  0  0  0  0  0  0  0  0  0
   10.9154    5.4574   20.5483 C   0  0  0  0  0  0  0  0  0  0  0  0
    7.2709    4.5089   22.7542 C   0  0  0  0  0  0  0  0  0  0  0  0
    5.9698    7.6329   24.6581 C   0  0  0  0  0  0  0  0  0  0  0  0
    4.5542    8.9057   21.7104 O   0  0  0  0  0  0  0  0  0  0  0  0
    6.9895    3.2085   23.0690 C   0  0  0  0  0  0  0  0  0  0  0  0
    7.8391    2.2253   22.7260 N   0  0  0  0  0  0  0  0  0  0  0  0
    8.6968    9.8373   23.6359 C   0  0  0  0  0  0  0  0  0  0  0  0
   12.5135    6.5957   21.8396 C   0  0  0  0  0  0  0  0  0  0  0  0
   10.9406    8.2330   21.1350 C   0  0  0  0  0  0  0  0  0  0  0  0
    9.6648    8.5956   21.7310 C   0  0  0  0  0  0  0  0  0  0  0  0
   10.8829    1.7153   20.9865 C   0  0  0  0  0  0  0  0  0  0  0  0
    5.7768    2.8533   23.7910 C   0  0  0  0  0  0  0  0  0  0  0  0
    9.7977    1.4791   21.6912 N   0  0  0  0  0  0  0  0  0  0  0  0
    6.5976    9.3401   22.6478 N   0  0  0  0  0  0  0  0  0  0  0  0
   11.2031    3.0042   20.6246 C   0  0  0  0  0  0  0  0  0  0  0  0
   12.8688    7.7370   22.7287 C   0  0  0  0  0  0  0  0  0  0  0  0
    7.4487    9.1361   23.6506 C   0  0  0  0  0  0  0  0  0  0  0  0
    8.9772    2.5025   22.0273 C   0  0  0  0  0  0  0  0  0  0  0  0
   10.4859    4.0901   20.9730 C   0  0  0  0  0  0  0  0  0  0  0  0
   11.0962    9.3293   23.5072 C   0  0  0  0  0  0  0  0  0  0  0  0
    5.1273    7.8529   23.6208 N   0  0  0  0  0  0  0  0  0  0  0  0
    9.7552    9.2338   23.0171 N   0  0  0  0  0  0  0  0  0  0  0  0
   11.1797    6.7591   21.3326 N   0  0  0  0  0  0  0  0  0  0  0  0
   11.7728    8.0337   23.7267 C   0  0  0  0  0  0  0  0  0  0  0  0
    7.1194    8.3344   24.6775 C   0  0  0  0  0  0  0  0  0  0  0  0
    8.4311    4.7963   22.0500 C   0  0  0  0  0  0  0  0  0  0  0  0
    8.7393   10.8706   24.1871 O   0  0  0  0  0  0  0  0  0  0  0  0
    9.3093    3.8166   21.6712 C   0  0  0  0  0  0  0  0  0  0  0  0
  1  5  1  0
  1 15  4  0
  1 22  4  0
  2 20  1  0
  2 24  1  0
  3  6  4  0
  3 27  4  0
  4 22  4  0
  4 26  4  0
  6  7  4  0
  6 13  1  0
  7 19  4  0
  8 18  1  0
  8 23  1  0
  8 28  2  0
  9 17  1  0
  9 24  1  0
 10 11  1  0
 10 24  1  0
 11 23  1  0
 12 14  4  0
 12 16  4  0
 14 19  4  0
 15 18  4  0
 16 20  4  0
 17 25  1  0
 18 26  4  0
 19 29  4  0
 20 29  4  0
 21 23  1  0
 21 25  1  0
 27 29  4  0
M  END
$$$$

 Created by Python create_sdf_string function

 29 32  0  0  0  0  0  0  0  0999 V2000
    5.4450    8.7154   22.6662 C   0  0  0  0  0  0  0  0  0  0  0  0
   10.9154    5.4574   20.5483 C   0  0  0  0  0  0  0  0  0  0  0  0
    7.2709    4.5089   22.7542 C   0  0  0  0  0  0  0  0  0  0  0  0
    5.9698    7.6329   24.6581 C   0  0  0  0  0  0  0  0  0  0  0  0
    4.5542    8.9057   21.7104 O   0  0  0  0  0  0  0  0  0  0  0  0
    6.9895    3.2085   23.0690 C   0  0  0  0  0  0  0  0  0  0  0  0
    7.8391    2.2253   22.7260 N   0  0  0  0  0  0  0  0  0  0  0  0
    8.6968    9.8373   23.6359 C   0  0  0  0  0  0  0  0  0  0  0  0
   12.5135    6.5957   21.8396 C   0  0  0  0  0  0  0  0  0  0  0  0
   10.9406    8.2330   21.1350 C   0  0  0  0  0  0  0  0  0  0  0  0
    9.6648    8.5956   21.7310 C   0  0  0  0  0  0  0  0  0  0  0  0
   10.8829    1.7153   20.9865 C   0  0  0  0  0  0  0  0  0  0  0  0
    5.7768    2.8533   23.7910 C   0  0  0  0  0  0  0  0  0  0  0  0
    9.7977    1.4791   21.6912 N   0  0  0  0  0  0  0  0  0  0  0  0
    6.5976    9.3401   22.6478 N   0  0  0  0  0  0  0  0  0  0  0  0
   11.2031    3.0042   20.6246 C   0  0  0  0  0  0  0  0  0  0  0  0
   12.8688    7.7370   22.7287 C   0  0  0  0  0  0  0  0  0  0  0  0
    7.4487    9.1361   23.6506 C   0  0  0  0  0  0  0  0  0  0  0  0
    8.9772    2.5025   22.0273 C   0  0  0  0  0  0  0  0  0  0  0  0
   10.4859    4.0901   20.9730 C   0  0  0  0  0  0  0  0  0  0  0  0
   11.0962    9.3293   23.5072 C   0  0  0  0  0  0  0  0  0  0  0  0
    5.1273    7.8529   23.6208 N   0  0  0  0  0  0  0  0  0  0  0  0
    9.7552    9.2338   23.0171 N   0  0  0  0  0  0  0  0  0  0  0  0
   11.1797    6.7591   21.3326 N   0  0  0  0  0  0  0  0  0  0  0  0
   11.7728    8.0337   23.7267 C   0  0  0  0  0  0  0  0  0  0  0  0
    7.1194    8.3344   24.6775 C   0  0  0  0  0  0  0  0  0  0  0  0
    8.4311    4.7963   22.0500 C   0  0  0  0  0  0  0  0  0  0  0  0
    8.7393   10.8706   24.1871 O   0  0  0  0  0  0  0  0  0  0  0  0
    9.3093    3.8166   21.6712 C   0  0  0  0  0  0  0  0  0  0  0  0
  1  5  1  0
  1 15  4  0
  1 22  4  0
  2 20  1  0
  2 24  1  0
  3  6  4  0
  3 27  4  0
  4 22  4  0
  4 26  4  0
  6  7  4  0
  6 13  1  0
  7 19  4  0
  8 18  1  0
  8 23  1  0
  8 28  2  0
  9 17  1  0
  9 24  1  0
 10 11  1  0
 10 24  1  0
 11 23  1  0
 12 14  4  0
 12 16  4  0
 14 19  4  0
 15 18  4  0
 16 20  4  0
 17 25  1  0
 18 26  4  0
 19 29  4  0
 20 29  4  0
 21 23  1  0
 21 25  1  0
 27 29  4  0
M  END
$$$$

 Created by Python create_sdf_string function

 29 32  0  0  0  0  0  0  0  0999 V2000
    5.4450    8.7154   22.6662 C   0  0  0  0  0  0  0  0  0  0  0  0
   10.9154    5.4574   20.5483 C   0  0  0  0  0  0  0  0  0  0  0  0
    7.2709    4.5089   22.7542 C   0  0  0  0  0  0  0  0  0  0  0  0
    5.9698    7.6329   24.6581 C   0  0  0  0  0  0  0  0  0  0  0  0
    4.5542    8.9057   21.7104 O   0  0  0  0  0  0  0  0  0  0  0  0
    6.9895    3.2085   23.0690 C   0  0  0  0  0  0  0  0  0  0  0  0
    7.8391    2.2253   22.7260 N   0  0  0  0  0  0  0  0  0  0  0  0
    8.6968    9.8373   23.6359 C   0  0  0  0  0  0  0  0  0  0  0  0
   12.5135    6.5957   21.8396 C   0  0  0  0  0  0  0  0  0  0  0  0
   10.9406    8.2330   21.1350 C   0  0  0  0  0  0  0  0  0  0  0  0
    9.6648    8.5956   21.7310 C   0  0  0  0  0  0  0  0  0  0  0  0
   10.8829    1.7153   20.9865 C   0  0  0  0  0  0  0  0  0  0  0  0
    5.7768    2.8533   23.7910 C   0  0  0  0  0  0  0  0  0  0  0  0
    9.7977    1.4791   21.6912 N   0  0  0  0  0  0  0  0  0  0  0  0
    6.5976    9.3401   22.6478 N   0  0  0  0  0  0  0  0  0  0  0  0
   11.2031    3.0042   20.6246 C   0  0  0  0  0  0  0  0  0  0  0  0
   12.8688    7.7370   22.7287 C   0  0  0  0  0  0  0  0  0  0  0  0
    7.4487    9.1361   23.6506 C   0  0  0  0  0  0  0  0  0  0  0  0
    8.9772    2.5025   22.0273 C   0  0  0  0  0  0  0  0  0  0  0  0
   10.4859    4.0901   20.9730 C   0  0  0  0  0  0  0  0  0  0  0  0
   11.0962    9.3293   23.5072 C   0  0  0  0  0  0  0  0  0  0  0  0
    5.1273    7.8529   23.6208 N   0  0  0  0  0  0  0  0  0  0  0  0
    9.7552    9.2338   23.0171 N   0  0  0  0  0  0  0  0  0  0  0  0
   11.1797    6.7591   21.3326 N   0  0  0  0  0  0  0  0  0  0  0  0
   11.7728    8.0337   23.7267 C   0  0  0  0  0  0  0  0  0  0  0  0
    7.1194    8.3344   24.6775 C   0  0  0  0  0  0  0  0  0  0  0  0
    8.4311    4.7963   22.0500 C   0  0  0  0  0  0  0  0  0  0  0  0
    8.7393   10.8706   24.1871 O   0  0  0  0  0  0  0  0  0  0  0  0
    9.3093    3.8166   21.6712 C   0  0  0  0  0  0  0  0  0  0  0  0
  1  5  1  0
  1 15  4  0
  1 22  4  0
  2 20  1  0
  2 24  1  0
  3  6  4  0
  3 27  4  0
  4 22  4  0
  4 26  4  0
  6  7  4  0
  6 13  1  0
  7 19  4  0
  8 18  1  0
  8 23  1  0
  8 28  2  0
  9 17  1  0
  9 24  1  0
 10 11  1  0
 10 24  1  0
 11 23  1  0
 12 14  4  0
 12 16  4  0
 14 19  4  0
 15 18  4  0
 16 20  4  0
 17 25  1  0
 18 26  4  0
 19 29  4  0
 20 29  4  0
 21 23  1  0
 21 25  1  0
 27 29  4  0
M  END
$$$$

 Created by Python create_sdf_string function

 29 32  0  0  0  0  0  0  0  0999 V2000
    5.4450    8.7154   22.6662 C   0  0  0  0  0  0  0  0  0  0  0  0
   10.9154    5.4574   20.5483 C   0  0  0  0  0  0  0  0  0  0  0  0
    7.2709    4.5089   22.7542 C   0  0  0  0  0  0  0  0  0  0  0  0
    5.9698    7.6329   24.6581 C   0  0  0  0  0  0  0  0  0  0  0  0
    4.5542    8.9057   21.7104 O   0  0  0  0  0  0  0  0  0  0  0  0
    6.9895    3.2085   23.0690 C   0  0  0  0  0  0  0  0  0  0  0  0
    7.8391    2.2253   22.7260 N   0  0  0  0  0  0  0  0  0  0  0  0
    8.6968    9.8373   23.6359 C   0  0  0  0  0  0  0  0  0  0  0  0
   12.5135    6.5957   21.8396 C   0  0  0  0  0  0  0  0  0  0  0  0
   10.9406    8.2330   21.1350 C   0  0  0  0  0  0  0  0  0  0  0  0
    9.6648    8.5956   21.7310 C   0  0  0  0  0  0  0  0  0  0  0  0
   10.8829    1.7153   20.9865 C   0  0  0  0  0  0  0  0  0  0  0  0
    5.7768    2.8533   23.7910 C   0  0  0  0  0  0  0  0  0  0  0  0
    9.7977    1.4791   21.6912 N   0  0  0  0  0  0  0  0  0  0  0  0
    6.5976    9.3401   22.6478 N   0  0  0  0  0  0  0  0  0  0  0  0
   11.2031    3.0042   20.6246 C   0  0  0  0  0  0  0  0  0  0  0  0
   12.8688    7.7370   22.7287 C   0  0  0  0  0  0  0  0  0  0  0  0
    7.4487    9.1361   23.6506 C   0  0  0  0  0  0  0  0  0  0  0  0
    8.9772    2.5025   22.0273 C   0  0  0  0  0  0  0  0  0  0  0  0
   10.4859    4.0901   20.9730 C   0  0  0  0  0  0  0  0  0  0  0  0
   11.0962    9.3293   23.5072 C   0  0  0  0  0  0  0  0  0  0  0  0
    5.1273    7.8529   23.6208 N   0  0  0  0  0  0  0  0  0  0  0  0
    9.7552    9.2338   23.0171 N   0  0  0  0  0  0  0  0  0  0  0  0
   11.1797    6.7591   21.3326 N   0  0  0  0  0  0  0  0  0  0  0  0
   11.7728    8.0337   23.7267 C   0  0  0  0  0  0  0  0  0  0  0  0
    7.1194    8.3344   24.6775 C   0  0  0  0  0  0  0  0  0  0  0  0
    8.4311    4.7963   22.0500 C   0  0  0  0  0  0  0  0  0  0  0  0
    8.7393   10.8706   24.1871 O   0  0  0  0  0  0  0  0  0  0  0  0
    9.3093    3.8166   21.6712 C   0  0  0  0  0  0  0  0  0  0  0  0
  1  5  1  0
  1 15  4  0
  1 22  4  0
  2 20  1  0
  2 24  1  0
  3  6  4  0
  3 27  4  0
  4 22  4  0
  4 26  4  0
  6  7  4  0
  6 13  1  0
  7 19  4  0
  8 18  1  0
  8 23  1  0
  8 28  2  0
  9 17  1  0
  9 24  1  0
 10 11  1  0
 10 24  1  0
 11 23  1  0
 12 14  4  0
 12 16  4  0
 14 19  4  0
 15 18  4  0
 16 20  4  0
 17 25  1  0
 18 26  4  0
 19 29  4  0
 20 29  4  0
 21 23  1  0
 21 25  1  0
 27 29  4  0
M  END
$$$$

 Created by Python create_sdf_string function

 29 32  0  0  0  0  0  0  0  0999 V2000
    5.4450    8.7154   22.6662 C   0  0  0  0  0  0  0  0  0  0  0  0
   10.9154    5.4574   20.5483 C   0  0  0  0  0  0  0  0  0  0  0  0
    7.2709    4.5089   22.7542 C   0  0  0  0  0  0  0  0  0  0  0  0
    5.9698    7.6329   24.6581 C   0  0  0  0  0  0  0  0  0  0  0  0
    4.5542    8.9057   21.7104 O   0  0  0  0  0  0  0  0  0  0  0  0
    6.9895    3.2085   23.0690 C   0  0  0  0  0  0  0  0  0  0  0  0
    7.8391    2.2253   22.7260 N   0  0  0  0  0  0  0  0  0  0  0  0
    8.6968    9.8373   23.6359 C   0  0  0  0  0  0  0  0  0  0  0  0
   12.5135    6.5957   21.8396 C   0  0  0  0  0  0  0  0  0  0  0  0
   10.9406    8.2330   21.1350 C   0  0  0  0  0  0  0  0  0  0  0  0
    9.6648    8.5956   21.7310 C   0  0  0  0  0  0  0  0  0  0  0  0
   10.8829    1.7153   20.9865 C   0  0  0  0  0  0  0  0  0  0  0  0
    5.7768    2.8533   23.7910 C   0  0  0  0  0  0  0  0  0  0  0  0
    9.7977    1.4791   21.6912 N   0  0  0  0  0  0  0  0  0  0  0  0
    6.5976    9.3401   22.6478 N   0  0  0  0  0  0  0  0  0  0  0  0
   11.2031    3.0042   20.6246 C   0  0  0  0  0  0  0  0  0  0  0  0
   12.8688    7.7370   22.7287 C   0  0  0  0  0  0  0  0  0  0  0  0
    7.4487    9.1361   23.6506 C   0  0  0  0  0  0  0  0  0  0  0  0
    8.9772    2.5025   22.0273 C   0  0  0  0  0  0  0  0  0  0  0  0
   10.4859    4.0901   20.9730 C   0  0  0  0  0  0  0  0  0  0  0  0
   11.0962    9.3293   23.5072 C   0  0  0  0  0  0  0  0  0  0  0  0
    5.1273    7.8529   23.6208 N   0  0  0  0  0  0  0  0  0  0  0  0
    9.7552    9.2338   23.0171 N   0  0  0  0  0  0  0  0  0  0  0  0
   11.1797    6.7591   21.3326 N   0  0  0  0  0  0  0  0  0  0  0  0
   11.7728    8.0337   23.7267 C   0  0  0  0  0  0  0  0  0  0  0  0
    7.1194    8.3344   24.6775 C   0  0  0  0  0  0  0  0  0  0  0  0
    8.4311    4.7963   22.0500 C   0  0  0  0  0  0  0  0  0  0  0  0
    8.7393   10.8706   24.1871 O   0  0  0  0  0  0  0  0  0  0  0  0
    9.3093    3.8166   21.6712 C   0  0  0  0  0  0  0  0  0  0  0  0
  1  5  1  0
  1 15  4  0
  1 22  4  0
  2 20  1  0
  2 24  1  0
  3  6  4  0
  3 27  4  0
  4 22  4  0
  4 26  4  0
  6  7  4  0
  6 13  1  0
  7 19  4  0
  8 18  1  0
  8 23  1  0
  8 28  2  0
  9 17  1  0
  9 24  1  0
 10 11  1  0
 10 24  1  0
 11 23  1  0
 12 14  4  0
 12 16  4  0
 14 19  4  0
 15 18  4  0
 16 20  4  0
 17 25  1  0
 18 26  4  0
 19 29  4  0
 20 29  4  0
 21 23  1  0
 21 25  1  0
 27 29  4  0
M  END
$$$$

 Created by Python create_sdf_string function

 29 32  0  0  0  0  0  0  0  0999 V2000
    5.4450    8.7154   22.6662 C   0  0  0  0  0  0  0  0  0  0  0  0
   10.9154    5.4574   20.5483 C   0  0  0  0  0  0  0  0  0  0  0  0
    7.2709    4.5089   22.7542 C   0  0  0  0  0  0  0  0  0  0  0  0
    5.9698    7.6329   24.6581 C   0  0  0  0  0  0  0  0  0  0  0  0
    4.5542    8.9057   21.7104 O   0  0  0  0  0  0  0  0  0  0  0  0
    6.9895    3.2085   23.0690 C   0  0  0  0  0  0  0  0  0  0  0  0
    7.8391    2.2253   22.7260 N   0  0  0  0  0  0  0  0  0  0  0  0
    8.6968    9.8373   23.6359 C   0  0  0  0  0  0  0  0  0  0  0  0
   12.5135    6.5957   21.8396 C   0  0  0  0  0  0  0  0  0  0  0  0
   10.9406    8.2330   21.1350 C   0  0  0  0  0  0  0  0  0  0  0  0
    9.6648    8.5956   21.7310 C   0  0  0  0  0  0  0  0  0  0  0  0
   10.8829    1.7153   20.9865 C   0  0  0  0  0  0  0  0  0  0  0  0
    5.7768    2.8533   23.7910 C   0  0  0  0  0  0  0  0  0  0  0  0
    9.7977    1.4791   21.6912 N   0  0  0  0  0  0  0  0  0  0  0  0
    6.5976    9.3401   22.6478 N   0  0  0  0  0  0  0  0  0  0  0  0
   11.2031    3.0042   20.6246 C   0  0  0  0  0  0  0  0  0  0  0  0
   12.8688    7.7370   22.7287 C   0  0  0  0  0  0  0  0  0  0  0  0
    7.4487    9.1361   23.6506 C   0  0  0  0  0  0  0  0  0  0  0  0
    8.9772    2.5025   22.0273 C   0  0  0  0  0  0  0  0  0  0  0  0
   10.4859    4.0901   20.9730 C   0  0  0  0  0  0  0  0  0  0  0  0
   11.0962    9.3293   23.5072 C   0  0  0  0  0  0  0  0  0  0  0  0
    5.1273    7.8529   23.6208 N   0  0  0  0  0  0  0  0  0  0  0  0
    9.7552    9.2338   23.0171 N   0  0  0  0  0  0  0  0  0  0  0  0
   11.1797    6.7591   21.3326 N   0  0  0  0  0  0  0  0  0  0  0  0
   11.7728    8.0337   23.7267 C   0  0  0  0  0  0  0  0  0  0  0  0
    7.1194    8.3344   24.6775 C   0  0  0  0  0  0  0  0  0  0  0  0
    8.4311    4.7963   22.0500 C   0  0  0  0  0  0  0  0  0  0  0  0
    8.7393   10.8706   24.1871 O   0  0  0  0  0  0  0  0  0  0  0  0
    9.3093    3.8166   21.6712 C   0  0  0  0  0  0  0  0  0  0  0  0
  1  5  1  0
  1 15  4  0
  1 22  4  0
  2 20  1  0
  2 24  1  0
  3  6  4  0
  3 27  4  0
  4 22  4  0
  4 26  4  0
  6  7  4  0
  6 13  1  0
  7 19  4  0
  8 18  1  0
  8 23  1  0
  8 28  2  0
  9 17  1  0
  9 24  1  0
 10 11  1  0
 10 24  1  0
 11 23  1  0
 12 14  4  0
 12 16  4  0
 14 19  4  0
 15 18  4  0
 16 20  4  0
 17 25  1  0
 18 26  4  0
 19 29  4  0
 20 29  4  0
 21 23  1  0
 21 25  1  0
 27 29  4  0
M  END
$$$$

 Created by Python create_sdf_string function

 29 32  0  0  0  0  0  0  0  0999 V2000
    5.4450    8.7154   22.6662 C   0  0  0  0  0  0  0  0  0  0  0  0
   10.9154    5.4574   20.5483 C   0  0  0  0  0  0  0  0  0  0  0  0
    7.2709    4.5089   22.7542 C   0  0  0  0  0  0  0  0  0  0  0  0
    5.9698    7.6329   24.6581 C   0  0  0  0  0  0  0  0  0  0  0  0
    4.5542    8.9057   21.7104 O   0  0  0  0  0  0  0  0  0  0  0  0
    6.9895    3.2085   23.0690 C   0  0  0  0  0  0  0  0  0  0  0  0
    7.8391    2.2253   22.7260 N   0  0  0  0  0  0  0  0  0  0  0  0
    8.6968    9.8373   23.6359 C   0  0  0  0  0  0  0  0  0  0  0  0
   12.5135    6.5957   21.8396 C   0  0  0  0  0  0  0  0  0  0  0  0
   10.9406    8.2330   21.1350 C   0  0  0  0  0  0  0  0  0  0  0  0
    9.6648    8.5956   21.7310 C   0  0  0  0  0  0  0  0  0  0  0  0
   10.8829    1.7153   20.9865 C   0  0  0  0  0  0  0  0  0  0  0  0
    5.7768    2.8533   23.7910 C   0  0  0  0  0  0  0  0  0  0  0  0
    9.7977    1.4791   21.6912 N   0  0  0  0  0  0  0  0  0  0  0  0
    6.5976    9.3401   22.6478 N   0  0  0  0  0  0  0  0  0  0  0  0
   11.2031    3.0042   20.6246 C   0  0  0  0  0  0  0  0  0  0  0  0
   12.8688    7.7370   22.7287 C   0  0  0  0  0  0  0  0  0  0  0  0
    7.4487    9.1361   23.6506 C   0  0  0  0  0  0  0  0  0  0  0  0
    8.9772    2.5025   22.0273 C   0  0  0  0  0  0  0  0  0  0  0  0
   10.4859    4.0901   20.9730 C   0  0  0  0  0  0  0  0  0  0  0  0
   11.0962    9.3293   23.5072 C   0  0  0  0  0  0  0  0  0  0  0  0
    5.1273    7.8529   23.6208 N   0  0  0  0  0  0  0  0  0  0  0  0
    9.7552    9.2338   23.0171 N   0  0  0  0  0  0  0  0  0  0  0  0
   11.1797    6.7591   21.3326 N   0  0  0  0  0  0  0  0  0  0  0  0
   11.7728    8.0337   23.7267 C   0  0  0  0  0  0  0  0  0  0  0  0
    7.1194    8.3344   24.6775 C   0  0  0  0  0  0  0  0  0  0  0  0
    8.4311    4.7963   22.0500 C   0  0  0  0  0  0  0  0  0  0  0  0
    8.7393   10.8706   24.1871 O   0  0  0  0  0  0  0  0  0  0  0  0
    9.3093    3.8166   21.6712 C   0  0  0  0  0  0  0  0  0  0  0  0
  1  5  1  0
  1 15  4  0
  1 22  4  0
  2 20  1  0
  2 24  1  0
  3  6  4  0
  3 27  4  0
  4 22  4  0
  4 26  4  0
  6  7  4  0
  6 13  1  0
  7 19  4  0
  8 18  1  0
  8 23  1  0
  8 28  2  0
  9 17  1  0
  9 24  1  0
 10 11  1  0
 10 24  1  0
 11 23  1  0
 12 14  4  0
 12 16  4  0
 14 19  4  0
 15 18  4  0
 16 20  4  0
 17 25  1  0
 18 26  4  0
 19 29  4  0
 20 29  4  0
 21 23  1  0
 21 25  1  0
 27 29  4  0
M  END
$$$$

 Created by Python create_sdf_string function

 29 32  0  0  0  0  0  0  0  0999 V2000
    5.4450    8.7154   22.6662 C   0  0  0  0  0  0  0  0  0  0  0  0
   10.9154    5.4574   20.5483 C   0  0  0  0  0  0  0  0  0  0  0  0
    7.2709    4.5089   22.7542 C   0  0  0  0  0  0  0  0  0  0  0  0
    5.9698    7.6329   24.6581 C   0  0  0  0  0  0  0  0  0  0  0  0
    4.5542    8.9057   21.7104 O   0  0  0  0  0  0  0  0  0  0  0  0
    6.9895    3.2085   23.0690 C   0  0  0  0  0  0  0  0  0  0  0  0
    7.8391    2.2253   22.7260 N   0  0  0  0  0  0  0  0  0  0  0  0
    8.6968    9.8373   23.6359 C   0  0  0  0  0  0  0  0  0  0  0  0
   12.5135    6.5957   21.8396 C   0  0  0  0  0  0  0  0  0  0  0  0
   10.9406    8.2330   21.1350 C   0  0  0  0  0  0  0  0  0  0  0  0
    9.6648    8.5956   21.7310 C   0  0  0  0  0  0  0  0  0  0  0  0
   10.8829    1.7153   20.9865 C   0  0  0  0  0  0  0  0  0  0  0  0
    5.7768    2.8533   23.7910 C   0  0  0  0  0  0  0  0  0  0  0  0
    9.7977    1.4791   21.6912 N   0  0  0  0  0  0  0  0  0  0  0  0
    6.5976    9.3401   22.6478 N   0  0  0  0  0  0  0  0  0  0  0  0
   11.2031    3.0042   20.6246 C   0  0  0  0  0  0  0  0  0  0  0  0
   12.8688    7.7370   22.7287 C   0  0  0  0  0  0  0  0  0  0  0  0
    7.4487    9.1361   23.6506 C   0  0  0  0  0  0  0  0  0  0  0  0
    8.9772    2.5025   22.0273 C   0  0  0  0  0  0  0  0  0  0  0  0
   10.4859    4.0901   20.9730 C   0  0  0  0  0  0  0  0  0  0  0  0
   11.0962    9.3293   23.5072 C   0  0  0  0  0  0  0  0  0  0  0  0
    5.1273    7.8529   23.6208 N   0  0  0  0  0  0  0  0  0  0  0  0
    9.7552    9.2338   23.0171 N   0  0  0  0  0  0  0  0  0  0  0  0
   11.1797    6.7591   21.3326 N   0  0  0  0  0  0  0  0  0  0  0  0
   11.7728    8.0337   23.7267 C   0  0  0  0  0  0  0  0  0  0  0  0
    7.1194    8.3344   24.6775 C   0  0  0  0  0  0  0  0  0  0  0  0
    8.4311    4.7963   22.0500 C   0  0  0  0  0  0  0  0  0  0  0  0
    8.7393   10.8706   24.1871 O   0  0  0  0  0  0  0  0  0  0  0  0
    9.3093    3.8166   21.6712 C   0  0  0  0  0  0  0  0  0  0  0  0
  1  5  1  0
  1 15  4  0
  1 22  4  0
  2 20  1  0
  2 24  1  0
  3  6  4  0
  3 27  4  0
  4 22  4  0
  4 26  4  0
  6  7  4  0
  6 13  1  0
  7 19  4  0
  8 18  1  0
  8 23  1  0
  8 28  2  0
  9 17  1  0
  9 24  1  0
 10 11  1  0
 10 24  1  0
 11 23  1  0
 12 14  4  0
 12 16  4  0
 14 19  4  0
 15 18  4  0
 16 20  4  0
 17 25  1  0
 18 26  4  0
 19 29  4  0
 20 29  4  0
 21 23  1  0
 21 25  1  0
 27 29  4  0
M  END
$$$$

 Created by Python create_sdf_string function

 29 32  0  0  0  0  0  0  0  0999 V2000
    5.4450    8.7154   22.6662 C   0  0  0  0  0  0  0  0  0  0  0  0
   10.9154    5.4574   20.5483 C   0  0  0  0  0  0  0  0  0  0  0  0
    7.2709    4.5089   22.7542 C   0  0  0  0  0  0  0  0  0  0  0  0
    5.9698    7.6329   24.6581 C   0  0  0  0  0  0  0  0  0  0  0  0
    4.5542    8.9057   21.7104 O   0  0  0  0  0  0  0  0  0  0  0  0
    6.9895    3.2085   23.0690 C   0  0  0  0  0  0  0  0  0  0  0  0
    7.8391    2.2253   22.7260 N   0  0  0  0  0  0  0  0  0  0  0  0
    8.6968    9.8373   23.6359 C   0  0  0  0  0  0  0  0  0  0  0  0
   12.5135    6.5957   21.8396 C   0  0  0  0  0  0  0  0  0  0  0  0
   10.9406    8.2330   21.1350 C   0  0  0  0  0  0  0  0  0  0  0  0
    9.6648    8.5956   21.7310 C   0  0  0  0  0  0  0  0  0  0  0  0
   10.8829    1.7153   20.9865 C   0  0  0  0  0  0  0  0  0  0  0  0
    5.7768    2.8533   23.7910 C   0  0  0  0  0  0  0  0  0  0  0  0
    9.7977    1.4791   21.6912 N   0  0  0  0  0  0  0  0  0  0  0  0
    6.5976    9.3401   22.6478 N   0  0  0  0  0  0  0  0  0  0  0  0
   11.2031    3.0042   20.6246 C   0  0  0  0  0  0  0  0  0  0  0  0
   12.8688    7.7370   22.7287 C   0  0  0  0  0  0  0  0  0  0  0  0
    7.4487    9.1361   23.6506 C   0  0  0  0  0  0  0  0  0  0  0  0
    8.9772    2.5025   22.0273 C   0  0  0  0  0  0  0  0  0  0  0  0
   10.4859    4.0901   20.9730 C   0  0  0  0  0  0  0  0  0  0  0  0
   11.0962    9.3293   23.5072 C   0  0  0  0  0  0  0  0  0  0  0  0
    5.1273    7.8529   23.6208 N   0  0  0  0  0  0  0  0  0  0  0  0
    9.7552    9.2338   23.0171 N   0  0  0  0  0  0  0  0  0  0  0  0
   11.1797    6.7591   21.3326 N   0  0  0  0  0  0  0  0  0  0  0  0
   11.7728    8.0337   23.7267 C   0  0  0  0  0  0  0  0  0  0  0  0
    7.1194    8.3344   24.6775 C   0  0  0  0  0  0  0  0  0  0  0  0
    8.4311    4.7963   22.0500 C   0  0  0  0  0  0  0  0  0  0  0  0
    8.7393   10.8706   24.1871 O   0  0  0  0  0  0  0  0  0  0  0  0
    9.3093    3.8166   21.6712 C   0  0  0  0  0  0  0  0  0  0  0  0
  1  5  1  0
  1 15  4  0
  1 22  4  0
  2 20  1  0
  2 24  1  0
  3  6  4  0
  3 27  4  0
  4 22  4  0
  4 26  4  0
  6  7  4  0
  6 13  1  0
  7 19  4  0
  8 18  1  0
  8 23  1  0
  8 28  2  0
  9 17  1  0
  9 24  1  0
 10 11  1  0
 10 24  1  0
 11 23  1  0
 12 14  4  0
 12 16  4  0
 14 19  4  0
 15 18  4  0
 16 20  4  0
 17 25  1  0
 18 26  4  0
 19 29  4  0
 20 29  4  0
 21 23  1  0
 21 25  1  0
 27 29  4  0
M  END
$$$$

 Created by Python create_sdf_string function

 29 32  0  0  0  0  0  0  0  0999 V2000
    5.4450    8.7154   22.6662 C   0  0  0  0  0  0  0  0  0  0  0  0
   10.9154    5.4574   20.5483 C   0  0  0  0  0  0  0  0  0  0  0  0
    7.2709    4.5089   22.7542 C   0  0  0  0  0  0  0  0  0  0  0  0
    5.9698    7.6329   24.6581 C   0  0  0  0  0  0  0  0  0  0  0  0
    4.5542    8.9057   21.7104 O   0  0  0  0  0  0  0  0  0  0  0  0
    6.9895    3.2085   23.0690 C   0  0  0  0  0  0  0  0  0  0  0  0
    7.8391    2.2253   22.7260 N   0  0  0  0  0  0  0  0  0  0  0  0
    8.6968    9.8373   23.6359 C   0  0  0  0  0  0  0  0  0  0  0  0
   12.5135    6.5957   21.8396 C   0  0  0  0  0  0  0  0  0  0  0  0
   10.9406    8.2330   21.1350 C   0  0  0  0  0  0  0  0  0  0  0  0
    9.6648    8.5956   21.7310 C   0  0  0  0  0  0  0  0  0  0  0  0
   10.8829    1.7153   20.9865 C   0  0  0  0  0  0  0  0  0  0  0  0
    5.7768    2.8533   23.7910 C   0  0  0  0  0  0  0  0  0  0  0  0
    9.7977    1.4791   21.6912 N   0  0  0  0  0  0  0  0  0  0  0  0
    6.5976    9.3401   22.6478 N   0  0  0  0  0  0  0  0  0  0  0  0
   11.2031    3.0042   20.6246 C   0  0  0  0  0  0  0  0  0  0  0  0
   12.8688    7.7370   22.7287 C   0  0  0  0  0  0  0  0  0  0  0  0
    7.4487    9.1361   23.6506 C   0  0  0  0  0  0  0  0  0  0  0  0
    8.9772    2.5025   22.0273 C   0  0  0  0  0  0  0  0  0  0  0  0
   10.4859    4.0901   20.9730 C   0  0  0  0  0  0  0  0  0  0  0  0
   11.0962    9.3293   23.5072 C   0  0  0  0  0  0  0  0  0  0  0  0
    5.1273    7.8529   23.6208 N   0  0  0  0  0  0  0  0  0  0  0  0
    9.7552    9.2338   23.0171 N   0  0  0  0  0  0  0  0  0  0  0  0
   11.1797    6.7591   21.3326 N   0  0  0  0  0  0  0  0  0  0  0  0
   11.7728    8.0337   23.7267 C   0  0  0  0  0  0  0  0  0  0  0  0
    7.1194    8.3344   24.6775 C   0  0  0  0  0  0  0  0  0  0  0  0
    8.4311    4.7963   22.0500 C   0  0  0  0  0  0  0  0  0  0  0  0
    8.7393   10.8706   24.1871 O   0  0  0  0  0  0  0  0  0  0  0  0
    9.3093    3.8166   21.6712 C   0  0  0  0  0  0  0  0  0  0  0  0
  1  5  1  0
  1 15  4  0
  1 22  4  0
  2 20  1  0
  2 24  1  0
  3  6  4  0
  3 27  4  0
  4 22  4  0
  4 26  4  0
  6  7  4  0
  6 13  1  0
  7 19  4  0
  8 18  1  0
  8 23  1  0
  8 28  2  0
  9 17  1  0
  9 24  1  0
 10 11  1  0
 10 24  1  0
 11 23  1  0
 12 14  4  0
 12 16  4  0
 14 19  4  0
 15 18  4  0
 16 20  4  0
 17 25  1  0
 18 26  4  0
 19 29  4  0
 20 29  4  0
 21 23  1  0
 21 25  1  0
 27 29  4  0
M  END
$$$$

 Created by Python create_sdf_string function

 29 32  0  0  0  0  0  0  0  0999 V2000
    5.4450    8.7154   22.6662 C   0  0  0  0  0  0  0  0  0  0  0  0
   10.9154    5.4574   20.5483 C   0  0  0  0  0  0  0  0  0  0  0  0
    7.2709    4.5089   22.7542 C   0  0  0  0  0  0  0  0  0  0  0  0
    5.9698    7.6329   24.6581 C   0  0  0  0  0  0  0  0  0  0  0  0
    4.5542    8.9057   21.7104 O   0  0  0  0  0  0  0  0  0  0  0  0
    6.9895    3.2085   23.0690 C   0  0  0  0  0  0  0  0  0  0  0  0
    7.8391    2.2253   22.7260 N   0  0  0  0  0  0  0  0  0  0  0  0
    8.6968    9.8373   23.6359 C   0  0  0  0  0  0  0  0  0  0  0  0
   12.5135    6.5957   21.8396 C   0  0  0  0  0  0  0  0  0  0  0  0
   10.9406    8.2330   21.1350 C   0  0  0  0  0  0  0  0  0  0  0  0
    9.6648    8.5956   21.7310 C   0  0  0  0  0  0  0  0  0  0  0  0
   10.8829    1.7153   20.9865 C   0  0  0  0  0  0  0  0  0  0  0  0
    5.7768    2.8533   23.7910 C   0  0  0  0  0  0  0  0  0  0  0  0
    9.7977    1.4791   21.6912 N   0  0  0  0  0  0  0  0  0  0  0  0
    6.5976    9.3401   22.6478 N   0  0  0  0  0  0  0  0  0  0  0  0
   11.2031    3.0042   20.6246 C   0  0  0  0  0  0  0  0  0  0  0  0
   12.8688    7.7370   22.7287 C   0  0  0  0  0  0  0  0  0  0  0  0
    7.4487    9.1361   23.6506 C   0  0  0  0  0  0  0  0  0  0  0  0
    8.9772    2.5025   22.0273 C   0  0  0  0  0  0  0  0  0  0  0  0
   10.4859    4.0901   20.9730 C   0  0  0  0  0  0  0  0  0  0  0  0
   11.0962    9.3293   23.5072 C   0  0  0  0  0  0  0  0  0  0  0  0
    5.1273    7.8529   23.6208 N   0  0  0  0  0  0  0  0  0  0  0  0
    9.7552    9.2338   23.0171 N   0  0  0  0  0  0  0  0  0  0  0  0
   11.1797    6.7591   21.3326 N   0  0  0  0  0  0  0  0  0  0  0  0
   11.7728    8.0337   23.7267 C   0  0  0  0  0  0  0  0  0  0  0  0
    7.1194    8.3344   24.6775 C   0  0  0  0  0  0  0  0  0  0  0  0
    8.4311    4.7963   22.0500 C   0  0  0  0  0  0  0  0  0  0  0  0
    8.7393   10.8706   24.1871 O   0  0  0  0  0  0  0  0  0  0  0  0
    9.3093    3.8166   21.6712 C   0  0  0  0  0  0  0  0  0  0  0  0
  1  5  1  0
  1 15  4  0
  1 22  4  0
  2 20  1  0
  2 24  1  0
  3  6  4  0
  3 27  4  0
  4 22  4  0
  4 26  4  0
  6  7  4  0
  6 13  1  0
  7 19  4  0
  8 18  1  0
  8 23  1  0
  8 28  2  0
  9 17  1  0
  9 24  1  0
 10 11  1  0
 10 24  1  0
 11 23  1  0
 12 14  4  0
 12 16  4  0
 14 19  4  0
 15 18  4  0
 16 20  4  0
 17 25  1  0
 18 26  4  0
 19 29  4  0
 20 29  4  0
 21 23  1  0
 21 25  1  0
 27 29  4  0
M  END
$$$$

 Created by Python create_sdf_string function

 29 32  0  0  0  0  0  0  0  0999 V2000
    5.4450    8.7154   22.6662 C   0  0  0  0  0  0  0  0  0  0  0  0
   10.9154    5.4574   20.5483 C   0  0  0  0  0  0  0  0  0  0  0  0
    7.2709    4.5089   22.7542 C   0  0  0  0  0  0  0  0  0  0  0  0
    5.9698    7.6329   24.6581 C   0  0  0  0  0  0  0  0  0  0  0  0
    4.5542    8.9057   21.7104 O   0  0  0  0  0  0  0  0  0  0  0  0
    6.9895    3.2085   23.0690 C   0  0  0  0  0  0  0  0  0  0  0  0
    7.8391    2.2253   22.7260 N   0  0  0  0  0  0  0  0  0  0  0  0
    8.6968    9.8373   23.6359 C   0  0  0  0  0  0  0  0  0  0  0  0
   12.5135    6.5957   21.8396 C   0  0  0  0  0  0  0  0  0  0  0  0
   10.9406    8.2330   21.1350 C   0  0  0  0  0  0  0  0  0  0  0  0
    9.6648    8.5956   21.7310 C   0  0  0  0  0  0  0  0  0  0  0  0
   10.8829    1.7153   20.9865 C   0  0  0  0  0  0  0  0  0  0  0  0
    5.7768    2.8533   23.7910 C   0  0  0  0  0  0  0  0  0  0  0  0
    9.7977    1.4791   21.6912 N   0  0  0  0  0  0  0  0  0  0  0  0
    6.5976    9.3401   22.6478 N   0  0  0  0  0  0  0  0  0  0  0  0
   11.2031    3.0042   20.6246 C   0  0  0  0  0  0  0  0  0  0  0  0
   12.8688    7.7370   22.7287 C   0  0  0  0  0  0  0  0  0  0  0  0
    7.4487    9.1361   23.6506 C   0  0  0  0  0  0  0  0  0  0  0  0
    8.9772    2.5025   22.0273 C   0  0  0  0  0  0  0  0  0  0  0  0
   10.4859    4.0901   20.9730 C   0  0  0  0  0  0  0  0  0  0  0  0
   11.0962    9.3293   23.5072 C   0  0  0  0  0  0  0  0  0  0  0  0
    5.1273    7.8529   23.6208 N   0  0  0  0  0  0  0  0  0  0  0  0
    9.7552    9.2338   23.0171 N   0  0  0  0  0  0  0  0  0  0  0  0
   11.1797    6.7591   21.3326 N   0  0  0  0  0  0  0  0  0  0  0  0
   11.7728    8.0337   23.7267 C   0  0  0  0  0  0  0  0  0  0  0  0
    7.1194    8.3344   24.6775 C   0  0  0  0  0  0  0  0  0  0  0  0
    8.4311    4.7963   22.0500 C   0  0  0  0  0  0  0  0  0  0  0  0
    8.7393   10.8706   24.1871 O   0  0  0  0  0  0  0  0  0  0  0  0
    9.3093    3.8166   21.6712 C   0  0  0  0  0  0  0  0  0  0  0  0
  1  5  1  0
  1 15  4  0
  1 22  4  0
  2 20  1  0
  2 24  1  0
  3  6  4  0
  3 27  4  0
  4 22  4  0
  4 26  4  0
  6  7  4  0
  6 13  1  0
  7 19  4  0
  8 18  1  0
  8 23  1  0
  8 28  2  0
  9 17  1  0
  9 24  1  0
 10 11  1  0
 10 24  1  0
 11 23  1  0
 12 14  4  0
 12 16  4  0
 14 19  4  0
 15 18  4  0
 16 20  4  0
 17 25  1  0
 18 26  4  0
 19 29  4  0
 20 29  4  0
 21 23  1  0
 21 25  1  0
 27 29  4  0
M  END
$$$$

 Created by Python create_sdf_string function

 29 32  0  0  0  0  0  0  0  0999 V2000
    5.4450    8.7154   22.6662 C   0  0  0  0  0  0  0  0  0  0  0  0
   10.9154    5.4574   20.5483 C   0  0  0  0  0  0  0  0  0  0  0  0
    7.2709    4.5089   22.7542 C   0  0  0  0  0  0  0  0  0  0  0  0
    5.9698    7.6329   24.6581 C   0  0  0  0  0  0  0  0  0  0  0  0
    4.5542    8.9057   21.7104 O   0  0  0  0  0  0  0  0  0  0  0  0
    6.9895    3.2085   23.0690 C   0  0  0  0  0  0  0  0  0  0  0  0
    7.8391    2.2253   22.7260 N   0  0  0  0  0  0  0  0  0  0  0  0
    8.6968    9.8373   23.6359 C   0  0  0  0  0  0  0  0  0  0  0  0
   12.5135    6.5957   21.8396 C   0  0  0  0  0  0  0  0  0  0  0  0
   10.9406    8.2330   21.1350 C   0  0  0  0  0  0  0  0  0  0  0  0
    9.6648    8.5956   21.7310 C   0  0  0  0  0  0  0  0  0  0  0  0
   10.8829    1.7153   20.9865 C   0  0  0  0  0  0  0  0  0  0  0  0
    5.7768    2.8533   23.7910 C   0  0  0  0  0  0  0  0  0  0  0  0
    9.7977    1.4791   21.6912 N   0  0  0  0  0  0  0  0  0  0  0  0
    6.5976    9.3401   22.6478 N   0  0  0  0  0  0  0  0  0  0  0  0
   11.2031    3.0042   20.6246 C   0  0  0  0  0  0  0  0  0  0  0  0
   12.8688    7.7370   22.7287 C   0  0  0  0  0  0  0  0  0  0  0  0
    7.4487    9.1361   23.6506 C   0  0  0  0  0  0  0  0  0  0  0  0
    8.9772    2.5025   22.0273 C   0  0  0  0  0  0  0  0  0  0  0  0
   10.4859    4.0901   20.9730 C   0  0  0  0  0  0  0  0  0  0  0  0
   11.0962    9.3293   23.5072 C   0  0  0  0  0  0  0  0  0  0  0  0
    5.1273    7.8529   23.6208 N   0  0  0  0  0  0  0  0  0  0  0  0
    9.7552    9.2338   23.0171 N   0  0  0  0  0  0  0  0  0  0  0  0
   11.1797    6.7591   21.3326 N   0  0  0  0  0  0  0  0  0  0  0  0
   11.7728    8.0337   23.7267 C   0  0  0  0  0  0  0  0  0  0  0  0
    7.1194    8.3344   24.6775 C   0  0  0  0  0  0  0  0  0  0  0  0
    8.4311    4.7963   22.0500 C   0  0  0  0  0  0  0  0  0  0  0  0
    8.7393   10.8706   24.1871 O   0  0  0  0  0  0  0  0  0  0  0  0
    9.3093    3.8166   21.6712 C   0  0  0  0  0  0  0  0  0  0  0  0
  1  5  1  0
  1 15  4  0
  1 22  4  0
  2 20  1  0
  2 24  1  0
  3  6  4  0
  3 27  4  0
  4 22  4  0
  4 26  4  0
  6  7  4  0
  6 13  1  0
  7 19  4  0
  8 18  1  0
  8 23  1  0
  8 28  2  0
  9 17  1  0
  9 24  1  0
 10 11  1  0
 10 24  1  0
 11 23  1  0
 12 14  4  0
 12 16  4  0
 14 19  4  0
 15 18  4  0
 16 20  4  0
 17 25  1  0
 18 26  4  0
 19 29  4  0
 20 29  4  0
 21 23  1  0
 21 25  1  0
 27 29  4  0
M  END
$$$$

 Created by Python create_sdf_string function

 29 32  0  0  0  0  0  0  0  0999 V2000
    5.4450    8.7154   22.6662 C   0  0  0  0  0  0  0  0  0  0  0  0
   10.9154    5.4574   20.5483 C   0  0  0  0  0  0  0  0  0  0  0  0
    7.2709    4.5089   22.7542 C   0  0  0  0  0  0  0  0  0  0  0  0
    5.9698    7.6329   24.6581 C   0  0  0  0  0  0  0  0  0  0  0  0
    4.5542    8.9057   21.7104 O   0  0  0  0  0  0  0  0  0  0  0  0
    6.9895    3.2085   23.0690 C   0  0  0  0  0  0  0  0  0  0  0  0
    7.8391    2.2253   22.7260 N   0  0  0  0  0  0  0  0  0  0  0  0
    8.6968    9.8373   23.6359 C   0  0  0  0  0  0  0  0  0  0  0  0
   12.5135    6.5957   21.8396 C   0  0  0  0  0  0  0  0  0  0  0  0
   10.9406    8.2330   21.1350 C   0  0  0  0  0  0  0  0  0  0  0  0
    9.6648    8.5956   21.7310 C   0  0  0  0  0  0  0  0  0  0  0  0
   10.8829    1.7153   20.9865 C   0  0  0  0  0  0  0  0  0  0  0  0
    5.7768    2.8533   23.7910 C   0  0  0  0  0  0  0  0  0  0  0  0
    9.7977    1.4791   21.6912 N   0  0  0  0  0  0  0  0  0  0  0  0
    6.5976    9.3401   22.6478 N   0  0  0  0  0  0  0  0  0  0  0  0
   11.2031    3.0042   20.6246 C   0  0  0  0  0  0  0  0  0  0  0  0
   12.8688    7.7370   22.7287 C   0  0  0  0  0  0  0  0  0  0  0  0
    7.4487    9.1361   23.6506 C   0  0  0  0  0  0  0  0  0  0  0  0
    8.9772    2.5025   22.0273 C   0  0  0  0  0  0  0  0  0  0  0  0
   10.4859    4.0901   20.9730 C   0  0  0  0  0  0  0  0  0  0  0  0
   11.0962    9.3293   23.5072 C   0  0  0  0  0  0  0  0  0  0  0  0
    5.1273    7.8529   23.6208 N   0  0  0  0  0  0  0  0  0  0  0  0
    9.7552    9.2338   23.0171 N   0  0  0  0  0  0  0  0  0  0  0  0
   11.1797    6.7591   21.3326 N   0  0  0  0  0  0  0  0  0  0  0  0
   11.7728    8.0337   23.7267 C   0  0  0  0  0  0  0  0  0  0  0  0
    7.1194    8.3344   24.6775 C   0  0  0  0  0  0  0  0  0  0  0  0
    8.4311    4.7963   22.0500 C   0  0  0  0  0  0  0  0  0  0  0  0
    8.7393   10.8706   24.1871 O   0  0  0  0  0  0  0  0  0  0  0  0
    9.3093    3.8166   21.6712 C   0  0  0  0  0  0  0  0  0  0  0  0
  1  5  1  0
  1 15  4  0
  1 22  4  0
  2 20  1  0
  2 24  1  0
  3  6  4  0
  3 27  4  0
  4 22  4  0
  4 26  4  0
  6  7  4  0
  6 13  1  0
  7 19  4  0
  8 18  1  0
  8 23  1  0
  8 28  2  0
  9 17  1  0
  9 24  1  0
 10 11  1  0
 10 24  1  0
 11 23  1  0
 12 14  4  0
 12 16  4  0
 14 19  4  0
 15 18  4  0
 16 20  4  0
 17 25  1  0
 18 26  4  0
 19 29  4  0
 20 29  4  0
 21 23  1  0
 21 25  1  0
 27 29  4  0
M  END
$$$$

 Created by Python create_sdf_string function

 29 32  0  0  0  0  0  0  0  0999 V2000
    5.4450    8.7154   22.6662 C   0  0  0  0  0  0  0  0  0  0  0  0
   10.9154    5.4574   20.5483 C   0  0  0  0  0  0  0  0  0  0  0  0
    7.2709    4.5089   22.7542 C   0  0  0  0  0  0  0  0  0  0  0  0
    5.9698    7.6329   24.6581 C   0  0  0  0  0  0  0  0  0  0  0  0
    4.5542    8.9057   21.7104 O   0  0  0  0  0  0  0  0  0  0  0  0
    6.9895    3.2085   23.0690 C   0  0  0  0  0  0  0  0  0  0  0  0
    7.8391    2.2253   22.7260 N   0  0  0  0  0  0  0  0  0  0  0  0
    8.6968    9.8373   23.6359 C   0  0  0  0  0  0  0  0  0  0  0  0
   12.5135    6.5957   21.8396 C   0  0  0  0  0  0  0  0  0  0  0  0
   10.9406    8.2330   21.1350 C   0  0  0  0  0  0  0  0  0  0  0  0
    9.6648    8.5956   21.7310 C   0  0  0  0  0  0  0  0  0  0  0  0
   10.8829    1.7153   20.9865 C   0  0  0  0  0  0  0  0  0  0  0  0
    5.7768    2.8533   23.7910 C   0  0  0  0  0  0  0  0  0  0  0  0
    9.7977    1.4791   21.6912 N   0  0  0  0  0  0  0  0  0  0  0  0
    6.5976    9.3401   22.6478 N   0  0  0  0  0  0  0  0  0  0  0  0
   11.2031    3.0042   20.6246 C   0  0  0  0  0  0  0  0  0  0  0  0
   12.8688    7.7370   22.7287 C   0  0  0  0  0  0  0  0  0  0  0  0
    7.4487    9.1361   23.6506 C   0  0  0  0  0  0  0  0  0  0  0  0
    8.9772    2.5025   22.0273 C   0  0  0  0  0  0  0  0  0  0  0  0
   10.4859    4.0901   20.9730 C   0  0  0  0  0  0  0  0  0  0  0  0
   11.0962    9.3293   23.5072 C   0  0  0  0  0  0  0  0  0  0  0  0
    5.1273    7.8529   23.6208 N   0  0  0  0  0  0  0  0  0  0  0  0
    9.7552    9.2338   23.0171 N   0  0  0  0  0  0  0  0  0  0  0  0
   11.1797    6.7591   21.3326 N   0  0  0  0  0  0  0  0  0  0  0  0
   11.7728    8.0337   23.7267 C   0  0  0  0  0  0  0  0  0  0  0  0
    7.1194    8.3344   24.6775 C   0  0  0  0  0  0  0  0  0  0  0  0
    8.4311    4.7963   22.0500 C   0  0  0  0  0  0  0  0  0  0  0  0
    8.7393   10.8706   24.1871 O   0  0  0  0  0  0  0  0  0  0  0  0
    9.3093    3.8166   21.6712 C   0  0  0  0  0  0  0  0  0  0  0  0
  1  5  1  0
  1 15  4  0
  1 22  4  0
  2 20  1  0
  2 24  1  0
  3  6  4  0
  3 27  4  0
  4 22  4  0
  4 26  4  0
  6  7  4  0
  6 13  1  0
  7 19  4  0
  8 18  1  0
  8 23  1  0
  8 28  2  0
  9 17  1  0
  9 24  1  0
 10 11  1  0
 10 24  1  0
 11 23  1  0
 12 14  4  0
 12 16  4  0
 14 19  4  0
 15 18  4  0
 16 20  4  0
 17 25  1  0
 18 26  4  0
 19 29  4  0
 20 29  4  0
 21 23  1  0
 21 25  1  0
 27 29  4  0
M  END
$$$$

 Created by Python create_sdf_string function

 29 32  0  0  0  0  0  0  0  0999 V2000
    5.4450    8.7154   22.6662 C   0  0  0  0  0  0  0  0  0  0  0  0
   10.9154    5.4574   20.5483 C   0  0  0  0  0  0  0  0  0  0  0  0
    7.2709    4.5089   22.7542 C   0  0  0  0  0  0  0  0  0  0  0  0
    5.9698    7.6329   24.6581 C   0  0  0  0  0  0  0  0  0  0  0  0
    4.5542    8.9057   21.7104 O   0  0  0  0  0  0  0  0  0  0  0  0
    6.9895    3.2085   23.0690 C   0  0  0  0  0  0  0  0  0  0  0  0
    7.8391    2.2253   22.7260 N   0  0  0  0  0  0  0  0  0  0  0  0
    8.6968    9.8373   23.6359 C   0  0  0  0  0  0  0  0  0  0  0  0
   12.5135    6.5957   21.8396 C   0  0  0  0  0  0  0  0  0  0  0  0
   10.9406    8.2330   21.1350 C   0  0  0  0  0  0  0  0  0  0  0  0
    9.6648    8.5956   21.7310 C   0  0  0  0  0  0  0  0  0  0  0  0
   10.8829    1.7153   20.9865 C   0  0  0  0  0  0  0  0  0  0  0  0
    5.7768    2.8533   23.7910 C   0  0  0  0  0  0  0  0  0  0  0  0
    9.7977    1.4791   21.6912 N   0  0  0  0  0  0  0  0  0  0  0  0
    6.5976    9.3401   22.6478 N   0  0  0  0  0  0  0  0  0  0  0  0
   11.2031    3.0042   20.6246 C   0  0  0  0  0  0  0  0  0  0  0  0
   12.8688    7.7370   22.7287 C   0  0  0  0  0  0  0  0  0  0  0  0
    7.4487    9.1361   23.6506 C   0  0  0  0  0  0  0  0  0  0  0  0
    8.9772    2.5025   22.0273 C   0  0  0  0  0  0  0  0  0  0  0  0
   10.4859    4.0901   20.9730 C   0  0  0  0  0  0  0  0  0  0  0  0
   11.0962    9.3293   23.5072 C   0  0  0  0  0  0  0  0  0  0  0  0
    5.1273    7.8529   23.6208 N   0  0  0  0  0  0  0  0  0  0  0  0
    9.7552    9.2338   23.0171 N   0  0  0  0  0  0  0  0  0  0  0  0
   11.1797    6.7591   21.3326 N   0  0  0  0  0  0  0  0  0  0  0  0
   11.7728    8.0337   23.7267 C   0  0  0  0  0  0  0  0  0  0  0  0
    7.1194    8.3344   24.6775 C   0  0  0  0  0  0  0  0  0  0  0  0
    8.4311    4.7963   22.0500 C   0  0  0  0  0  0  0  0  0  0  0  0
    8.7393   10.8706   24.1871 O   0  0  0  0  0  0  0  0  0  0  0  0
    9.3093    3.8166   21.6712 C   0  0  0  0  0  0  0  0  0  0  0  0
  1  5  1  0
  1 15  4  0
  1 22  4  0
  2 20  1  0
  2 24  1  0
  3  6  4  0
  3 27  4  0
  4 22  4  0
  4 26  4  0
  6  7  4  0
  6 13  1  0
  7 19  4  0
  8 18  1  0
  8 23  1  0
  8 28  2  0
  9 17  1  0
  9 24  1  0
 10 11  1  0
 10 24  1  0
 11 23  1  0
 12 14  4  0
 12 16  4  0
 14 19  4  0
 15 18  4  0
 16 20  4  0
 17 25  1  0
 18 26  4  0
 19 29  4  0
 20 29  4  0
 21 23  1  0
 21 25  1  0
 27 29  4  0
M  END
$$$$

 Created by Python create_sdf_string function

 29 32  0  0  0  0  0  0  0  0999 V2000
    5.4450    8.7154   22.6662 C   0  0  0  0  0  0  0  0  0  0  0  0
   10.9154    5.4574   20.5483 C   0  0  0  0  0  0  0  0  0  0  0  0
    7.2709    4.5089   22.7542 C   0  0  0  0  0  0  0  0  0  0  0  0
    5.9698    7.6329   24.6581 C   0  0  0  0  0  0  0  0  0  0  0  0
    4.5542    8.9057   21.7104 O   0  0  0  0  0  0  0  0  0  0  0  0
    6.9895    3.2085   23.0690 C   0  0  0  0  0  0  0  0  0  0  0  0
    7.8391    2.2253   22.7260 N   0  0  0  0  0  0  0  0  0  0  0  0
    8.6968    9.8373   23.6359 C   0  0  0  0  0  0  0  0  0  0  0  0
   12.5135    6.5957   21.8396 C   0  0  0  0  0  0  0  0  0  0  0  0
   10.9406    8.2330   21.1350 C   0  0  0  0  0  0  0  0  0  0  0  0
    9.6648    8.5956   21.7310 C   0  0  0  0  0  0  0  0  0  0  0  0
   10.8829    1.7153   20.9865 C   0  0  0  0  0  0  0  0  0  0  0  0
    5.7768    2.8533   23.7910 C   0  0  0  0  0  0  0  0  0  0  0  0
    9.7977    1.4791   21.6912 N   0  0  0  0  0  0  0  0  0  0  0  0
    6.5976    9.3401   22.6478 N   0  0  0  0  0  0  0  0  0  0  0  0
   11.2031    3.0042   20.6246 C   0  0  0  0  0  0  0  0  0  0  0  0
   12.8688    7.7370   22.7287 C   0  0  0  0  0  0  0  0  0  0  0  0
    7.4487    9.1361   23.6506 C   0  0  0  0  0  0  0  0  0  0  0  0
    8.9772    2.5025   22.0273 C   0  0  0  0  0  0  0  0  0  0  0  0
   10.4859    4.0901   20.9730 C   0  0  0  0  0  0  0  0  0  0  0  0
   11.0962    9.3293   23.5072 C   0  0  0  0  0  0  0  0  0  0  0  0
    5.1273    7.8529   23.6208 N   0  0  0  0  0  0  0  0  0  0  0  0
    9.7552    9.2338   23.0171 N   0  0  0  0  0  0  0  0  0  0  0  0
   11.1797    6.7591   21.3326 N   0  0  0  0  0  0  0  0  0  0  0  0
   11.7728    8.0337   23.7267 C   0  0  0  0  0  0  0  0  0  0  0  0
    7.1194    8.3344   24.6775 C   0  0  0  0  0  0  0  0  0  0  0  0
    8.4311    4.7963   22.0500 C   0  0  0  0  0  0  0  0  0  0  0  0
    8.7393   10.8706   24.1871 O   0  0  0  0  0  0  0  0  0  0  0  0
    9.3093    3.8166   21.6712 C   0  0  0  0  0  0  0  0  0  0  0  0
  1  5  1  0
  1 15  4  0
  1 22  4  0
  2 20  1  0
  2 24  1  0
  3  6  4  0
  3 27  4  0
  4 22  4  0
  4 26  4  0
  6  7  4  0
  6 13  1  0
  7 19  4  0
  8 18  1  0
  8 23  1  0
  8 28  2  0
  9 17  1  0
  9 24  1  0
 10 11  1  0
 10 24  1  0
 11 23  1  0
 12 14  4  0
 12 16  4  0
 14 19  4  0
 15 18  4  0
 16 20  4  0
 17 25  1  0
 18 26  4  0
 19 29  4  0
 20 29  4  0
 21 23  1  0
 21 25  1  0
 27 29  4  0
M  END
$$$$

 Created by Python create_sdf_string function

 29 32  0  0  0  0  0  0  0  0999 V2000
    5.4450    8.7154   22.6662 C   0  0  0  0  0  0  0  0  0  0  0  0
   10.9154    5.4574   20.5483 C   0  0  0  0  0  0  0  0  0  0  0  0
    7.2709    4.5089   22.7542 C   0  0  0  0  0  0  0  0  0  0  0  0
    5.9698    7.6329   24.6581 C   0  0  0  0  0  0  0  0  0  0  0  0
    4.5542    8.9057   21.7104 O   0  0  0  0  0  0  0  0  0  0  0  0
    6.9895    3.2085   23.0690 C   0  0  0  0  0  0  0  0  0  0  0  0
    7.8391    2.2253   22.7260 N   0  0  0  0  0  0  0  0  0  0  0  0
    8.6968    9.8373   23.6359 C   0  0  0  0  0  0  0  0  0  0  0  0
   12.5135    6.5957   21.8396 C   0  0  0  0  0  0  0  0  0  0  0  0
   10.9406    8.2330   21.1350 C   0  0  0  0  0  0  0  0  0  0  0  0
    9.6648    8.5956   21.7310 C   0  0  0  0  0  0  0  0  0  0  0  0
   10.8829    1.7153   20.9865 C   0  0  0  0  0  0  0  0  0  0  0  0
    5.7768    2.8533   23.7910 C   0  0  0  0  0  0  0  0  0  0  0  0
    9.7977    1.4791   21.6912 N   0  0  0  0  0  0  0  0  0  0  0  0
    6.5976    9.3401   22.6478 N   0  0  0  0  0  0  0  0  0  0  0  0
   11.2031    3.0042   20.6246 C   0  0  0  0  0  0  0  0  0  0  0  0
   12.8688    7.7370   22.7287 C   0  0  0  0  0  0  0  0  0  0  0  0
    7.4487    9.1361   23.6506 C   0  0  0  0  0  0  0  0  0  0  0  0
    8.9772    2.5025   22.0273 C   0  0  0  0  0  0  0  0  0  0  0  0
   10.4859    4.0901   20.9730 C   0  0  0  0  0  0  0  0  0  0  0  0
   11.0962    9.3293   23.5072 C   0  0  0  0  0  0  0  0  0  0  0  0
    5.1273    7.8529   23.6208 N   0  0  0  0  0  0  0  0  0  0  0  0
    9.7552    9.2338   23.0171 N   0  0  0  0  0  0  0  0  0  0  0  0
   11.1797    6.7591   21.3326 N   0  0  0  0  0  0  0  0  0  0  0  0
   11.7728    8.0337   23.7267 C   0  0  0  0  0  0  0  0  0  0  0  0
    7.1194    8.3344   24.6775 C   0  0  0  0  0  0  0  0  0  0  0  0
    8.4311    4.7963   22.0500 C   0  0  0  0  0  0  0  0  0  0  0  0
    8.7393   10.8706   24.1871 O   0  0  0  0  0  0  0  0  0  0  0  0
    9.3093    3.8166   21.6712 C   0  0  0  0  0  0  0  0  0  0  0  0
  1  5  1  0
  1 15  4  0
  1 22  4  0
  2 20  1  0
  2 24  1  0
  3  6  4  0
  3 27  4  0
  4 22  4  0
  4 26  4  0
  6  7  4  0
  6 13  1  0
  7 19  4  0
  8 18  1  0
  8 23  1  0
  8 28  2  0
  9 17  1  0
  9 24  1  0
 10 11  1  0
 10 24  1  0
 11 23  1  0
 12 14  4  0
 12 16  4  0
 14 19  4  0
 15 18  4  0
 16 20  4  0
 17 25  1  0
 18 26  4  0
 19 29  4  0
 20 29  4  0
 21 23  1  0
 21 25  1  0
 27 29  4  0
M  END
$$$$

 Created by Python create_sdf_string function

 29 32  0  0  0  0  0  0  0  0999 V2000
    5.4450    8.7154   22.6662 C   0  0  0  0  0  0  0  0  0  0  0  0
   10.9154    5.4574   20.5483 C   0  0  0  0  0  0  0  0  0  0  0  0
    7.2709    4.5089   22.7542 C   0  0  0  0  0  0  0  0  0  0  0  0
    5.9698    7.6329   24.6581 C   0  0  0  0  0  0  0  0  0  0  0  0
    4.5542    8.9057   21.7104 O   0  0  0  0  0  0  0  0  0  0  0  0
    6.9895    3.2085   23.0690 C   0  0  0  0  0  0  0  0  0  0  0  0
    7.8391    2.2253   22.7260 N   0  0  0  0  0  0  0  0  0  0  0  0
    8.6968    9.8373   23.6359 C   0  0  0  0  0  0  0  0  0  0  0  0
   12.5135    6.5957   21.8396 C   0  0  0  0  0  0  0  0  0  0  0  0
   10.9406    8.2330   21.1350 C   0  0  0  0  0  0  0  0  0  0  0  0
    9.6648    8.5956   21.7310 C   0  0  0  0  0  0  0  0  0  0  0  0
   10.8829    1.7153   20.9865 C   0  0  0  0  0  0  0  0  0  0  0  0
    5.7768    2.8533   23.7910 C   0  0  0  0  0  0  0  0  0  0  0  0
    9.7977    1.4791   21.6912 N   0  0  0  0  0  0  0  0  0  0  0  0
    6.5976    9.3401   22.6478 N   0  0  0  0  0  0  0  0  0  0  0  0
   11.2031    3.0042   20.6246 C   0  0  0  0  0  0  0  0  0  0  0  0
   12.8688    7.7370   22.7287 C   0  0  0  0  0  0  0  0  0  0  0  0
    7.4487    9.1361   23.6506 C   0  0  0  0  0  0  0  0  0  0  0  0
    8.9772    2.5025   22.0273 C   0  0  0  0  0  0  0  0  0  0  0  0
   10.4859    4.0901   20.9730 C   0  0  0  0  0  0  0  0  0  0  0  0
   11.0962    9.3293   23.5072 C   0  0  0  0  0  0  0  0  0  0  0  0
    5.1273    7.8529   23.6208 N   0  0  0  0  0  0  0  0  0  0  0  0
    9.7552    9.2338   23.0171 N   0  0  0  0  0  0  0  0  0  0  0  0
   11.1797    6.7591   21.3326 N   0  0  0  0  0  0  0  0  0  0  0  0
   11.7728    8.0337   23.7267 C   0  0  0  0  0  0  0  0  0  0  0  0
    7.1194    8.3344   24.6775 C   0  0  0  0  0  0  0  0  0  0  0  0
    8.4311    4.7963   22.0500 C   0  0  0  0  0  0  0  0  0  0  0  0
    8.7393   10.8706   24.1871 O   0  0  0  0  0  0  0  0  0  0  0  0
    9.3093    3.8166   21.6712 C   0  0  0  0  0  0  0  0  0  0  0  0
  1  5  1  0
  1 15  4  0
  1 22  4  0
  2 20  1  0
  2 24  1  0
  3  6  4  0
  3 27  4  0
  4 22  4  0
  4 26  4  0
  6  7  4  0
  6 13  1  0
  7 19  4  0
  8 18  1  0
  8 23  1  0
  8 28  2  0
  9 17  1  0
  9 24  1  0
 10 11  1  0
 10 24  1  0
 11 23  1  0
 12 14  4  0
 12 16  4  0
 14 19  4  0
 15 18  4  0
 16 20  4  0
 17 25  1  0
 18 26  4  0
 19 29  4  0
 20 29  4  0
 21 23  1  0
 21 25  1  0
 27 29  4  0
M  END
$$$$

 Created by Python create_sdf_string function

 29 32  0  0  0  0  0  0  0  0999 V2000
    5.4450    8.7154   22.6662 C   0  0  0  0  0  0  0  0  0  0  0  0
   10.9154    5.4574   20.5483 C   0  0  0  0  0  0  0  0  0  0  0  0
    7.2709    4.5089   22.7542 C   0  0  0  0  0  0  0  0  0  0  0  0
    5.9698    7.6329   24.6581 C   0  0  0  0  0  0  0  0  0  0  0  0
    4.5542    8.9057   21.7104 O   0  0  0  0  0  0  0  0  0  0  0  0
    6.9895    3.2085   23.0690 C   0  0  0  0  0  0  0  0  0  0  0  0
    7.8391    2.2253   22.7260 N   0  0  0  0  0  0  0  0  0  0  0  0
    8.6968    9.8373   23.6359 C   0  0  0  0  0  0  0  0  0  0  0  0
   12.5135    6.5957   21.8396 C   0  0  0  0  0  0  0  0  0  0  0  0
   10.9406    8.2330   21.1350 C   0  0  0  0  0  0  0  0  0  0  0  0
    9.6648    8.5956   21.7310 C   0  0  0  0  0  0  0  0  0  0  0  0
   10.8829    1.7153   20.9865 C   0  0  0  0  0  0  0  0  0  0  0  0
    5.7768    2.8533   23.7910 C   0  0  0  0  0  0  0  0  0  0  0  0
    9.7977    1.4791   21.6912 N   0  0  0  0  0  0  0  0  0  0  0  0
    6.5976    9.3401   22.6478 N   0  0  0  0  0  0  0  0  0  0  0  0
   11.2031    3.0042   20.6246 C   0  0  0  0  0  0  0  0  0  0  0  0
   12.8688    7.7370   22.7287 C   0  0  0  0  0  0  0  0  0  0  0  0
    7.4487    9.1361   23.6506 C   0  0  0  0  0  0  0  0  0  0  0  0
    8.9772    2.5025   22.0273 C   0  0  0  0  0  0  0  0  0  0  0  0
   10.4859    4.0901   20.9730 C   0  0  0  0  0  0  0  0  0  0  0  0
   11.0962    9.3293   23.5072 C   0  0  0  0  0  0  0  0  0  0  0  0
    5.1273    7.8529   23.6208 N   0  0  0  0  0  0  0  0  0  0  0  0
    9.7552    9.2338   23.0171 N   0  0  0  0  0  0  0  0  0  0  0  0
   11.1797    6.7591   21.3326 N   0  0  0  0  0  0  0  0  0  0  0  0
   11.7728    8.0337   23.7267 C   0  0  0  0  0  0  0  0  0  0  0  0
    7.1194    8.3344   24.6775 C   0  0  0  0  0  0  0  0  0  0  0  0
    8.4311    4.7963   22.0500 C   0  0  0  0  0  0  0  0  0  0  0  0
    8.7393   10.8706   24.1871 O   0  0  0  0  0  0  0  0  0  0  0  0
    9.3093    3.8166   21.6712 C   0  0  0  0  0  0  0  0  0  0  0  0
  1  5  1  0
  1 15  4  0
  1 22  4  0
  2 20  1  0
  2 24  1  0
  3  6  4  0
  3 27  4  0
  4 22  4  0
  4 26  4  0
  6  7  4  0
  6 13  1  0
  7 19  4  0
  8 18  1  0
  8 23  1  0
  8 28  2  0
  9 17  1  0
  9 24  1  0
 10 11  1  0
 10 24  1  0
 11 23  1  0
 12 14  4  0
 12 16  4  0
 14 19  4  0
 15 18  4  0
 16 20  4  0
 17 25  1  0
 18 26  4  0
 19 29  4  0
 20 29  4  0
 21 23  1  0
 21 25  1  0
 27 29  4  0
M  END
$$$$

 Created by Python create_sdf_string function

 29 32  0  0  0  0  0  0  0  0999 V2000
    5.4450    8.7154   22.6662 C   0  0  0  0  0  0  0  0  0  0  0  0
   10.9154    5.4574   20.5483 C   0  0  0  0  0  0  0  0  0  0  0  0
    7.2709    4.5089   22.7542 C   0  0  0  0  0  0  0  0  0  0  0  0
    5.9698    7.6329   24.6581 C   0  0  0  0  0  0  0  0  0  0  0  0
    4.5542    8.9057   21.7104 O   0  0  0  0  0  0  0  0  0  0  0  0
    6.9895    3.2085   23.0690 C   0  0  0  0  0  0  0  0  0  0  0  0
    7.8391    2.2253   22.7260 N   0  0  0  0  0  0  0  0  0  0  0  0
    8.6968    9.8373   23.6359 C   0  0  0  0  0  0  0  0  0  0  0  0
   12.5135    6.5957   21.8396 C   0  0  0  0  0  0  0  0  0  0  0  0
   10.9406    8.2330   21.1350 C   0  0  0  0  0  0  0  0  0  0  0  0
    9.6648    8.5956   21.7310 C   0  0  0  0  0  0  0  0  0  0  0  0
   10.8829    1.7153   20.9865 C   0  0  0  0  0  0  0  0  0  0  0  0
    5.7768    2.8533   23.7910 C   0  0  0  0  0  0  0  0  0  0  0  0
    9.7977    1.4791   21.6912 N   0  0  0  0  0  0  0  0  0  0  0  0
    6.5976    9.3401   22.6478 N   0  0  0  0  0  0  0  0  0  0  0  0
   11.2031    3.0042   20.6246 C   0  0  0  0  0  0  0  0  0  0  0  0
   12.8688    7.7370   22.7287 C   0  0  0  0  0  0  0  0  0  0  0  0
    7.4487    9.1361   23.6506 C   0  0  0  0  0  0  0  0  0  0  0  0
    8.9772    2.5025   22.0273 C   0  0  0  0  0  0  0  0  0  0  0  0
   10.4859    4.0901   20.9730 C   0  0  0  0  0  0  0  0  0  0  0  0
   11.0962    9.3293   23.5072 C   0  0  0  0  0  0  0  0  0  0  0  0
    5.1273    7.8529   23.6208 N   0  0  0  0  0  0  0  0  0  0  0  0
    9.7552    9.2338   23.0171 N   0  0  0  0  0  0  0  0  0  0  0  0
   11.1797    6.7591   21.3326 N   0  0  0  0  0  0  0  0  0  0  0  0
   11.7728    8.0337   23.7267 C   0  0  0  0  0  0  0  0  0  0  0  0
    7.1194    8.3344   24.6775 C   0  0  0  0  0  0  0  0  0  0  0  0
    8.4311    4.7963   22.0500 C   0  0  0  0  0  0  0  0  0  0  0  0
    8.7393   10.8706   24.1871 O   0  0  0  0  0  0  0  0  0  0  0  0
    9.3093    3.8166   21.6712 C   0  0  0  0  0  0  0  0  0  0  0  0
  1  5  1  0
  1 15  4  0
  1 22  4  0
  2 20  1  0
  2 24  1  0
  3  6  4  0
  3 27  4  0
  4 22  4  0
  4 26  4  0
  6  7  4  0
  6 13  1  0
  7 19  4  0
  8 18  1  0
  8 23  1  0
  8 28  2  0
  9 17  1  0
  9 24  1  0
 10 11  1  0
 10 24  1  0
 11 23  1  0
 12 14  4  0
 12 16  4  0
 14 19  4  0
 15 18  4  0
 16 20  4  0
 17 25  1  0
 18 26  4  0
 19 29  4  0
 20 29  4  0
 21 23  1  0
 21 25  1  0
 27 29  4  0
M  END
$$$$

 Created by Python create_sdf_string function

 29 32  0  0  0  0  0  0  0  0999 V2000
    5.4450    8.7154   22.6662 C   0  0  0  0  0  0  0  0  0  0  0  0
   10.9154    5.4574   20.5483 C   0  0  0  0  0  0  0  0  0  0  0  0
    7.2709    4.5089   22.7542 C   0  0  0  0  0  0  0  0  0  0  0  0
    5.9698    7.6329   24.6581 C   0  0  0  0  0  0  0  0  0  0  0  0
    4.5542    8.9057   21.7104 O   0  0  0  0  0  0  0  0  0  0  0  0
    6.9895    3.2085   23.0690 C   0  0  0  0  0  0  0  0  0  0  0  0
    7.8391    2.2253   22.7260 N   0  0  0  0  0  0  0  0  0  0  0  0
    8.6968    9.8373   23.6359 C   0  0  0  0  0  0  0  0  0  0  0  0
   12.5135    6.5957   21.8396 C   0  0  0  0  0  0  0  0  0  0  0  0
   10.9406    8.2330   21.1350 C   0  0  0  0  0  0  0  0  0  0  0  0
    9.6648    8.5956   21.7310 C   0  0  0  0  0  0  0  0  0  0  0  0
   10.8829    1.7153   20.9865 C   0  0  0  0  0  0  0  0  0  0  0  0
    5.7768    2.8533   23.7910 C   0  0  0  0  0  0  0  0  0  0  0  0
    9.7977    1.4791   21.6912 N   0  0  0  0  0  0  0  0  0  0  0  0
    6.5976    9.3401   22.6478 N   0  0  0  0  0  0  0  0  0  0  0  0
   11.2031    3.0042   20.6246 C   0  0  0  0  0  0  0  0  0  0  0  0
   12.8688    7.7370   22.7287 C   0  0  0  0  0  0  0  0  0  0  0  0
    7.4487    9.1361   23.6506 C   0  0  0  0  0  0  0  0  0  0  0  0
    8.9772    2.5025   22.0273 C   0  0  0  0  0  0  0  0  0  0  0  0
   10.4859    4.0901   20.9730 C   0  0  0  0  0  0  0  0  0  0  0  0
   11.0962    9.3293   23.5072 C   0  0  0  0  0  0  0  0  0  0  0  0
    5.1273    7.8529   23.6208 N   0  0  0  0  0  0  0  0  0  0  0  0
    9.7552    9.2338   23.0171 N   0  0  0  0  0  0  0  0  0  0  0  0
   11.1797    6.7591   21.3326 N   0  0  0  0  0  0  0  0  0  0  0  0
   11.7728    8.0337   23.7267 C   0  0  0  0  0  0  0  0  0  0  0  0
    7.1194    8.3344   24.6775 C   0  0  0  0  0  0  0  0  0  0  0  0
    8.4311    4.7963   22.0500 C   0  0  0  0  0  0  0  0  0  0  0  0
    8.7393   10.8706   24.1871 O   0  0  0  0  0  0  0  0  0  0  0  0
    9.3093    3.8166   21.6712 C   0  0  0  0  0  0  0  0  0  0  0  0
  1  5  1  0
  1 15  4  0
  1 22  4  0
  2 20  1  0
  2 24  1  0
  3  6  4  0
  3 27  4  0
  4 22  4  0
  4 26  4  0
  6  7  4  0
  6 13  1  0
  7 19  4  0
  8 18  1  0
  8 23  1  0
  8 28  2  0
  9 17  1  0
  9 24  1  0
 10 11  1  0
 10 24  1  0
 11 23  1  0
 12 14  4  0
 12 16  4  0
 14 19  4  0
 15 18  4  0
 16 20  4  0
 17 25  1  0
 18 26  4  0
 19 29  4  0
 20 29  4  0
 21 23  1  0
 21 25  1  0
 27 29  4  0
M  END
$$$$

 Created by Python create_sdf_string function

 29 32  0  0  0  0  0  0  0  0999 V2000
    5.4450    8.7154   22.6662 C   0  0  0  0  0  0  0  0  0  0  0  0
   10.9154    5.4574   20.5483 C   0  0  0  0  0  0  0  0  0  0  0  0
    7.2709    4.5089   22.7542 C   0  0  0  0  0  0  0  0  0  0  0  0
    5.9698    7.6329   24.6581 C   0  0  0  0  0  0  0  0  0  0  0  0
    4.5542    8.9057   21.7104 O   0  0  0  0  0  0  0  0  0  0  0  0
    6.9895    3.2085   23.0690 C   0  0  0  0  0  0  0  0  0  0  0  0
    7.8391    2.2253   22.7260 N   0  0  0  0  0  0  0  0  0  0  0  0
    8.6968    9.8373   23.6359 C   0  0  0  0  0  0  0  0  0  0  0  0
   12.5135    6.5957   21.8396 C   0  0  0  0  0  0  0  0  0  0  0  0
   10.9406    8.2330   21.1350 C   0  0  0  0  0  0  0  0  0  0  0  0
    9.6648    8.5956   21.7310 C   0  0  0  0  0  0  0  0  0  0  0  0
   10.8829    1.7153   20.9865 C   0  0  0  0  0  0  0  0  0  0  0  0
    5.7768    2.8533   23.7910 C   0  0  0  0  0  0  0  0  0  0  0  0
    9.7977    1.4791   21.6912 N   0  0  0  0  0  0  0  0  0  0  0  0
    6.5976    9.3401   22.6478 N   0  0  0  0  0  0  0  0  0  0  0  0
   11.2031    3.0042   20.6246 C   0  0  0  0  0  0  0  0  0  0  0  0
   12.8688    7.7370   22.7287 C   0  0  0  0  0  0  0  0  0  0  0  0
    7.4487    9.1361   23.6506 C   0  0  0  0  0  0  0  0  0  0  0  0
    8.9772    2.5025   22.0273 C   0  0  0  0  0  0  0  0  0  0  0  0
   10.4859    4.0901   20.9730 C   0  0  0  0  0  0  0  0  0  0  0  0
   11.0962    9.3293   23.5072 C   0  0  0  0  0  0  0  0  0  0  0  0
    5.1273    7.8529   23.6208 N   0  0  0  0  0  0  0  0  0  0  0  0
    9.7552    9.2338   23.0171 N   0  0  0  0  0  0  0  0  0  0  0  0
   11.1797    6.7591   21.3326 N   0  0  0  0  0  0  0  0  0  0  0  0
   11.7728    8.0337   23.7267 C   0  0  0  0  0  0  0  0  0  0  0  0
    7.1194    8.3344   24.6775 C   0  0  0  0  0  0  0  0  0  0  0  0
    8.4311    4.7963   22.0500 C   0  0  0  0  0  0  0  0  0  0  0  0
    8.7393   10.8706   24.1871 O   0  0  0  0  0  0  0  0  0  0  0  0
    9.3093    3.8166   21.6712 C   0  0  0  0  0  0  0  0  0  0  0  0
  1  5  1  0
  1 15  4  0
  1 22  4  0
  2 20  1  0
  2 24  1  0
  3  6  4  0
  3 27  4  0
  4 22  4  0
  4 26  4  0
  6  7  4  0
  6 13  1  0
  7 19  4  0
  8 18  1  0
  8 23  1  0
  8 28  2  0
  9 17  1  0
  9 24  1  0
 10 11  1  0
 10 24  1  0
 11 23  1  0
 12 14  4  0
 12 16  4  0
 14 19  4  0
 15 18  4  0
 16 20  4  0
 17 25  1  0
 18 26  4  0
 19 29  4  0
 20 29  4  0
 21 23  1  0
 21 25  1  0
 27 29  4  0
M  END
$$$$

 Created by Python create_sdf_string function

 29 32  0  0  0  0  0  0  0  0999 V2000
    5.4450    8.7154   22.6662 C   0  0  0  0  0  0  0  0  0  0  0  0
   10.9154    5.4574   20.5483 C   0  0  0  0  0  0  0  0  0  0  0  0
    7.2709    4.5089   22.7542 C   0  0  0  0  0  0  0  0  0  0  0  0
    5.9698    7.6329   24.6581 C   0  0  0  0  0  0  0  0  0  0  0  0
    4.5542    8.9057   21.7104 O   0  0  0  0  0  0  0  0  0  0  0  0
    6.9895    3.2085   23.0690 C   0  0  0  0  0  0  0  0  0  0  0  0
    7.8391    2.2253   22.7260 N   0  0  0  0  0  0  0  0  0  0  0  0
    8.6968    9.8373   23.6359 C   0  0  0  0  0  0  0  0  0  0  0  0
   12.5135    6.5957   21.8396 C   0  0  0  0  0  0  0  0  0  0  0  0
   10.9406    8.2330   21.1350 C   0  0  0  0  0  0  0  0  0  0  0  0
    9.6648    8.5956   21.7310 C   0  0  0  0  0  0  0  0  0  0  0  0
   10.8829    1.7153   20.9865 C   0  0  0  0  0  0  0  0  0  0  0  0
    5.7768    2.8533   23.7910 C   0  0  0  0  0  0  0  0  0  0  0  0
    9.7977    1.4791   21.6912 N   0  0  0  0  0  0  0  0  0  0  0  0
    6.5976    9.3401   22.6478 N   0  0  0  0  0  0  0  0  0  0  0  0
   11.2031    3.0042   20.6246 C   0  0  0  0  0  0  0  0  0  0  0  0
   12.8688    7.7370   22.7287 C   0  0  0  0  0  0  0  0  0  0  0  0
    7.4487    9.1361   23.6506 C   0  0  0  0  0  0  0  0  0  0  0  0
    8.9772    2.5025   22.0273 C   0  0  0  0  0  0  0  0  0  0  0  0
   10.4859    4.0901   20.9730 C   0  0  0  0  0  0  0  0  0  0  0  0
   11.0962    9.3293   23.5072 C   0  0  0  0  0  0  0  0  0  0  0  0
    5.1273    7.8529   23.6208 N   0  0  0  0  0  0  0  0  0  0  0  0
    9.7552    9.2338   23.0171 N   0  0  0  0  0  0  0  0  0  0  0  0
   11.1797    6.7591   21.3326 N   0  0  0  0  0  0  0  0  0  0  0  0
   11.7728    8.0337   23.7267 C   0  0  0  0  0  0  0  0  0  0  0  0
    7.1194    8.3344   24.6775 C   0  0  0  0  0  0  0  0  0  0  0  0
    8.4311    4.7963   22.0500 C   0  0  0  0  0  0  0  0  0  0  0  0
    8.7393   10.8706   24.1871 O   0  0  0  0  0  0  0  0  0  0  0  0
    9.3093    3.8166   21.6712 C   0  0  0  0  0  0  0  0  0  0  0  0
  1  5  1  0
  1 15  4  0
  1 22  4  0
  2 20  1  0
  2 24  1  0
  3  6  4  0
  3 27  4  0
  4 22  4  0
  4 26  4  0
  6  7  4  0
  6 13  1  0
  7 19  4  0
  8 18  1  0
  8 23  1  0
  8 28  2  0
  9 17  1  0
  9 24  1  0
 10 11  1  0
 10 24  1  0
 11 23  1  0
 12 14  4  0
 12 16  4  0
 14 19  4  0
 15 18  4  0
 16 20  4  0
 17 25  1  0
 18 26  4  0
 19 29  4  0
 20 29  4  0
 21 23  1  0
 21 25  1  0
 27 29  4  0
M  END
$$$$

 Created by Python create_sdf_string function

 29 32  0  0  0  0  0  0  0  0999 V2000
    5.4450    8.7154   22.6662 C   0  0  0  0  0  0  0  0  0  0  0  0
   10.9154    5.4574   20.5483 C   0  0  0  0  0  0  0  0  0  0  0  0
    7.2709    4.5089   22.7542 C   0  0  0  0  0  0  0  0  0  0  0  0
    5.9698    7.6329   24.6581 C   0  0  0  0  0  0  0  0  0  0  0  0
    4.5542    8.9057   21.7104 O   0  0  0  0  0  0  0  0  0  0  0  0
    6.9895    3.2085   23.0690 C   0  0  0  0  0  0  0  0  0  0  0  0
    7.8391    2.2253   22.7260 N   0  0  0  0  0  0  0  0  0  0  0  0
    8.6968    9.8373   23.6359 C   0  0  0  0  0  0  0  0  0  0  0  0
   12.5135    6.5957   21.8396 C   0  0  0  0  0  0  0  0  0  0  0  0
   10.9406    8.2330   21.1350 C   0  0  0  0  0  0  0  0  0  0  0  0
    9.6648    8.5956   21.7310 C   0  0  0  0  0  0  0  0  0  0  0  0
   10.8829    1.7153   20.9865 C   0  0  0  0  0  0  0  0  0  0  0  0
    5.7768    2.8533   23.7910 C   0  0  0  0  0  0  0  0  0  0  0  0
    9.7977    1.4791   21.6912 N   0  0  0  0  0  0  0  0  0  0  0  0
    6.5976    9.3401   22.6478 N   0  0  0  0  0  0  0  0  0  0  0  0
   11.2031    3.0042   20.6246 C   0  0  0  0  0  0  0  0  0  0  0  0
   12.8688    7.7370   22.7287 C   0  0  0  0  0  0  0  0  0  0  0  0
    7.4487    9.1361   23.6506 C   0  0  0  0  0  0  0  0  0  0  0  0
    8.9772    2.5025   22.0273 C   0  0  0  0  0  0  0  0  0  0  0  0
   10.4859    4.0901   20.9730 C   0  0  0  0  0  0  0  0  0  0  0  0
   11.0962    9.3293   23.5072 C   0  0  0  0  0  0  0  0  0  0  0  0
    5.1273    7.8529   23.6208 N   0  0  0  0  0  0  0  0  0  0  0  0
    9.7552    9.2338   23.0171 N   0  0  0  0  0  0  0  0  0  0  0  0
   11.1797    6.7591   21.3326 N   0  0  0  0  0  0  0  0  0  0  0  0
   11.7728    8.0337   23.7267 C   0  0  0  0  0  0  0  0  0  0  0  0
    7.1194    8.3344   24.6775 C   0  0  0  0  0  0  0  0  0  0  0  0
    8.4311    4.7963   22.0500 C   0  0  0  0  0  0  0  0  0  0  0  0
    8.7393   10.8706   24.1871 O   0  0  0  0  0  0  0  0  0  0  0  0
    9.3093    3.8166   21.6712 C   0  0  0  0  0  0  0  0  0  0  0  0
  1  5  1  0
  1 15  4  0
  1 22  4  0
  2 20  1  0
  2 24  1  0
  3  6  4  0
  3 27  4  0
  4 22  4  0
  4 26  4  0
  6  7  4  0
  6 13  1  0
  7 19  4  0
  8 18  1  0
  8 23  1  0
  8 28  2  0
  9 17  1  0
  9 24  1  0
 10 11  1  0
 10 24  1  0
 11 23  1  0
 12 14  4  0
 12 16  4  0
 14 19  4  0
 15 18  4  0
 16 20  4  0
 17 25  1  0
 18 26  4  0
 19 29  4  0
 20 29  4  0
 21 23  1  0
 21 25  1  0
 27 29  4  0
M  END
$$$$

 Created by Python create_sdf_string function

 29 32  0  0  0  0  0  0  0  0999 V2000
    5.4450    8.7154   22.6662 C   0  0  0  0  0  0  0  0  0  0  0  0
   10.9154    5.4574   20.5483 C   0  0  0  0  0  0  0  0  0  0  0  0
    7.2709    4.5089   22.7542 C   0  0  0  0  0  0  0  0  0  0  0  0
    5.9698    7.6329   24.6581 C   0  0  0  0  0  0  0  0  0  0  0  0
    4.5542    8.9057   21.7104 O   0  0  0  0  0  0  0  0  0  0  0  0
    6.9895    3.2085   23.0690 C   0  0  0  0  0  0  0  0  0  0  0  0
    7.8391    2.2253   22.7260 N   0  0  0  0  0  0  0  0  0  0  0  0
    8.6968    9.8373   23.6359 C   0  0  0  0  0  0  0  0  0  0  0  0
   12.5135    6.5957   21.8396 C   0  0  0  0  0  0  0  0  0  0  0  0
   10.9406    8.2330   21.1350 C   0  0  0  0  0  0  0  0  0  0  0  0
    9.6648    8.5956   21.7310 C   0  0  0  0  0  0  0  0  0  0  0  0
   10.8829    1.7153   20.9865 C   0  0  0  0  0  0  0  0  0  0  0  0
    5.7768    2.8533   23.7910 C   0  0  0  0  0  0  0  0  0  0  0  0
    9.7977    1.4791   21.6912 N   0  0  0  0  0  0  0  0  0  0  0  0
    6.5976    9.3401   22.6478 N   0  0  0  0  0  0  0  0  0  0  0  0
   11.2031    3.0042   20.6246 C   0  0  0  0  0  0  0  0  0  0  0  0
   12.8688    7.7370   22.7287 C   0  0  0  0  0  0  0  0  0  0  0  0
    7.4487    9.1361   23.6506 C   0  0  0  0  0  0  0  0  0  0  0  0
    8.9772    2.5025   22.0273 C   0  0  0  0  0  0  0  0  0  0  0  0
   10.4859    4.0901   20.9730 C   0  0  0  0  0  0  0  0  0  0  0  0
   11.0962    9.3293   23.5072 C   0  0  0  0  0  0  0  0  0  0  0  0
    5.1273    7.8529   23.6208 N   0  0  0  0  0  0  0  0  0  0  0  0
    9.7552    9.2338   23.0171 N   0  0  0  0  0  0  0  0  0  0  0  0
   11.1797    6.7591   21.3326 N   0  0  0  0  0  0  0  0  0  0  0  0
   11.7728    8.0337   23.7267 C   0  0  0  0  0  0  0  0  0  0  0  0
    7.1194    8.3344   24.6775 C   0  0  0  0  0  0  0  0  0  0  0  0
    8.4311    4.7963   22.0500 C   0  0  0  0  0  0  0  0  0  0  0  0
    8.7393   10.8706   24.1871 O   0  0  0  0  0  0  0  0  0  0  0  0
    9.3093    3.8166   21.6712 C   0  0  0  0  0  0  0  0  0  0  0  0
  1  5  1  0
  1 15  4  0
  1 22  4  0
  2 20  1  0
  2 24  1  0
  3  6  4  0
  3 27  4  0
  4 22  4  0
  4 26  4  0
  6  7  4  0
  6 13  1  0
  7 19  4  0
  8 18  1  0
  8 23  1  0
  8 28  2  0
  9 17  1  0
  9 24  1  0
 10 11  1  0
 10 24  1  0
 11 23  1  0
 12 14  4  0
 12 16  4  0
 14 19  4  0
 15 18  4  0
 16 20  4  0
 17 25  1  0
 18 26  4  0
 19 29  4  0
 20 29  4  0
 21 23  1  0
 21 25  1  0
 27 29  4  0
M  END
$$$$

 Created by Python create_sdf_string function

 29 32  0  0  0  0  0  0  0  0999 V2000
    5.4450    8.7154   22.6662 C   0  0  0  0  0  0  0  0  0  0  0  0
   10.9154    5.4574   20.5483 C   0  0  0  0  0  0  0  0  0  0  0  0
    7.2709    4.5089   22.7542 C   0  0  0  0  0  0  0  0  0  0  0  0
    5.9698    7.6329   24.6581 C   0  0  0  0  0  0  0  0  0  0  0  0
    4.5542    8.9057   21.7104 O   0  0  0  0  0  0  0  0  0  0  0  0
    6.9895    3.2085   23.0690 C   0  0  0  0  0  0  0  0  0  0  0  0
    7.8391    2.2253   22.7260 N   0  0  0  0  0  0  0  0  0  0  0  0
    8.6968    9.8373   23.6359 C   0  0  0  0  0  0  0  0  0  0  0  0
   12.5135    6.5957   21.8396 C   0  0  0  0  0  0  0  0  0  0  0  0
   10.9406    8.2330   21.1350 C   0  0  0  0  0  0  0  0  0  0  0  0
    9.6648    8.5956   21.7310 C   0  0  0  0  0  0  0  0  0  0  0  0
   10.8829    1.7153   20.9865 C   0  0  0  0  0  0  0  0  0  0  0  0
    5.7768    2.8533   23.7910 C   0  0  0  0  0  0  0  0  0  0  0  0
    9.7977    1.4791   21.6912 N   0  0  0  0  0  0  0  0  0  0  0  0
    6.5976    9.3401   22.6478 N   0  0  0  0  0  0  0  0  0  0  0  0
   11.2031    3.0042   20.6246 C   0  0  0  0  0  0  0  0  0  0  0  0
   12.8688    7.7370   22.7287 C   0  0  0  0  0  0  0  0  0  0  0  0
    7.4487    9.1361   23.6506 C   0  0  0  0  0  0  0  0  0  0  0  0
    8.9772    2.5025   22.0273 C   0  0  0  0  0  0  0  0  0  0  0  0
   10.4859    4.0901   20.9730 C   0  0  0  0  0  0  0  0  0  0  0  0
   11.0962    9.3293   23.5072 C   0  0  0  0  0  0  0  0  0  0  0  0
    5.1273    7.8529   23.6208 N   0  0  0  0  0  0  0  0  0  0  0  0
    9.7552    9.2338   23.0171 N   0  0  0  0  0  0  0  0  0  0  0  0
   11.1797    6.7591   21.3326 N   0  0  0  0  0  0  0  0  0  0  0  0
   11.7728    8.0337   23.7267 C   0  0  0  0  0  0  0  0  0  0  0  0
    7.1194    8.3344   24.6775 C   0  0  0  0  0  0  0  0  0  0  0  0
    8.4311    4.7963   22.0500 C   0  0  0  0  0  0  0  0  0  0  0  0
    8.7393   10.8706   24.1871 O   0  0  0  0  0  0  0  0  0  0  0  0
    9.3093    3.8166   21.6712 C   0  0  0  0  0  0  0  0  0  0  0  0
  1  5  1  0
  1 15  4  0
  1 22  4  0
  2 20  1  0
  2 24  1  0
  3  6  4  0
  3 27  4  0
  4 22  4  0
  4 26  4  0
  6  7  4  0
  6 13  1  0
  7 19  4  0
  8 18  1  0
  8 23  1  0
  8 28  2  0
  9 17  1  0
  9 24  1  0
 10 11  1  0
 10 24  1  0
 11 23  1  0
 12 14  4  0
 12 16  4  0
 14 19  4  0
 15 18  4  0
 16 20  4  0
 17 25  1  0
 18 26  4  0
 19 29  4  0
 20 29  4  0
 21 23  1  0
 21 25  1  0
 27 29  4  0
M  END
$$$$

 Created by Python create_sdf_string function

 29 32  0  0  0  0  0  0  0  0999 V2000
    5.4450    8.7154   22.6662 C   0  0  0  0  0  0  0  0  0  0  0  0
   10.9154    5.4574   20.5483 C   0  0  0  0  0  0  0  0  0  0  0  0
    7.2709    4.5089   22.7542 C   0  0  0  0  0  0  0  0  0  0  0  0
    5.9698    7.6329   24.6581 C   0  0  0  0  0  0  0  0  0  0  0  0
    4.5542    8.9057   21.7104 O   0  0  0  0  0  0  0  0  0  0  0  0
    6.9895    3.2085   23.0690 C   0  0  0  0  0  0  0  0  0  0  0  0
    7.8391    2.2253   22.7260 N   0  0  0  0  0  0  0  0  0  0  0  0
    8.6968    9.8373   23.6359 C   0  0  0  0  0  0  0  0  0  0  0  0
   12.5135    6.5957   21.8396 C   0  0  0  0  0  0  0  0  0  0  0  0
   10.9406    8.2330   21.1350 C   0  0  0  0  0  0  0  0  0  0  0  0
    9.6648    8.5956   21.7310 C   0  0  0  0  0  0  0  0  0  0  0  0
   10.8829    1.7153   20.9865 C   0  0  0  0  0  0  0  0  0  0  0  0
    5.7768    2.8533   23.7910 C   0  0  0  0  0  0  0  0  0  0  0  0
    9.7977    1.4791   21.6912 N   0  0  0  0  0  0  0  0  0  0  0  0
    6.5976    9.3401   22.6478 N   0  0  0  0  0  0  0  0  0  0  0  0
   11.2031    3.0042   20.6246 C   0  0  0  0  0  0  0  0  0  0  0  0
   12.8688    7.7370   22.7287 C   0  0  0  0  0  0  0  0  0  0  0  0
    7.4487    9.1361   23.6506 C   0  0  0  0  0  0  0  0  0  0  0  0
    8.9772    2.5025   22.0273 C   0  0  0  0  0  0  0  0  0  0  0  0
   10.4859    4.0901   20.9730 C   0  0  0  0  0  0  0  0  0  0  0  0
   11.0962    9.3293   23.5072 C   0  0  0  0  0  0  0  0  0  0  0  0
    5.1273    7.8529   23.6208 N   0  0  0  0  0  0  0  0  0  0  0  0
    9.7552    9.2338   23.0171 N   0  0  0  0  0  0  0  0  0  0  0  0
   11.1797    6.7591   21.3326 N   0  0  0  0  0  0  0  0  0  0  0  0
   11.7728    8.0337   23.7267 C   0  0  0  0  0  0  0  0  0  0  0  0
    7.1194    8.3344   24.6775 C   0  0  0  0  0  0  0  0  0  0  0  0
    8.4311    4.7963   22.0500 C   0  0  0  0  0  0  0  0  0  0  0  0
    8.7393   10.8706   24.1871 O   0  0  0  0  0  0  0  0  0  0  0  0
    9.3093    3.8166   21.6712 C   0  0  0  0  0  0  0  0  0  0  0  0
  1  5  1  0
  1 15  4  0
  1 22  4  0
  2 20  1  0
  2 24  1  0
  3  6  4  0
  3 27  4  0
  4 22  4  0
  4 26  4  0
  6  7  4  0
  6 13  1  0
  7 19  4  0
  8 18  1  0
  8 23  1  0
  8 28  2  0
  9 17  1  0
  9 24  1  0
 10 11  1  0
 10 24  1  0
 11 23  1  0
 12 14  4  0
 12 16  4  0
 14 19  4  0
 15 18  4  0
 16 20  4  0
 17 25  1  0
 18 26  4  0
 19 29  4  0
 20 29  4  0
 21 23  1  0
 21 25  1  0
 27 29  4  0
M  END
$$$$

 Created by Python create_sdf_string function

 29 32  0  0  0  0  0  0  0  0999 V2000
    5.4450    8.7154   22.6662 C   0  0  0  0  0  0  0  0  0  0  0  0
   10.9154    5.4574   20.5483 C   0  0  0  0  0  0  0  0  0  0  0  0
    7.2709    4.5089   22.7542 C   0  0  0  0  0  0  0  0  0  0  0  0
    5.9698    7.6329   24.6581 C   0  0  0  0  0  0  0  0  0  0  0  0
    4.5542    8.9057   21.7104 O   0  0  0  0  0  0  0  0  0  0  0  0
    6.9895    3.2085   23.0690 C   0  0  0  0  0  0  0  0  0  0  0  0
    7.8391    2.2253   22.7260 N   0  0  0  0  0  0  0  0  0  0  0  0
    8.6968    9.8373   23.6359 C   0  0  0  0  0  0  0  0  0  0  0  0
   12.5135    6.5957   21.8396 C   0  0  0  0  0  0  0  0  0  0  0  0
   10.9406    8.2330   21.1350 C   0  0  0  0  0  0  0  0  0  0  0  0
    9.6648    8.5956   21.7310 C   0  0  0  0  0  0  0  0  0  0  0  0
   10.8829    1.7153   20.9865 C   0  0  0  0  0  0  0  0  0  0  0  0
    5.7768    2.8533   23.7910 C   0  0  0  0  0  0  0  0  0  0  0  0
    9.7977    1.4791   21.6912 N   0  0  0  0  0  0  0  0  0  0  0  0
    6.5976    9.3401   22.6478 N   0  0  0  0  0  0  0  0  0  0  0  0
   11.2031    3.0042   20.6246 C   0  0  0  0  0  0  0  0  0  0  0  0
   12.8688    7.7370   22.7287 C   0  0  0  0  0  0  0  0  0  0  0  0
    7.4487    9.1361   23.6506 C   0  0  0  0  0  0  0  0  0  0  0  0
    8.9772    2.5025   22.0273 C   0  0  0  0  0  0  0  0  0  0  0  0
   10.4859    4.0901   20.9730 C   0  0  0  0  0  0  0  0  0  0  0  0
   11.0962    9.3293   23.5072 C   0  0  0  0  0  0  0  0  0  0  0  0
    5.1273    7.8529   23.6208 N   0  0  0  0  0  0  0  0  0  0  0  0
    9.7552    9.2338   23.0171 N   0  0  0  0  0  0  0  0  0  0  0  0
   11.1797    6.7591   21.3326 N   0  0  0  0  0  0  0  0  0  0  0  0
   11.7728    8.0337   23.7267 C   0  0  0  0  0  0  0  0  0  0  0  0
    7.1194    8.3344   24.6775 C   0  0  0  0  0  0  0  0  0  0  0  0
    8.4311    4.7963   22.0500 C   0  0  0  0  0  0  0  0  0  0  0  0
    8.7393   10.8706   24.1871 O   0  0  0  0  0  0  0  0  0  0  0  0
    9.3093    3.8166   21.6712 C   0  0  0  0  0  0  0  0  0  0  0  0
  1  5  1  0
  1 15  4  0
  1 22  4  0
  2 20  1  0
  2 24  1  0
  3  6  4  0
  3 27  4  0
  4 22  4  0
  4 26  4  0
  6  7  4  0
  6 13  1  0
  7 19  4  0
  8 18  1  0
  8 23  1  0
  8 28  2  0
  9 17  1  0
  9 24  1  0
 10 11  1  0
 10 24  1  0
 11 23  1  0
 12 14  4  0
 12 16  4  0
 14 19  4  0
 15 18  4  0
 16 20  4  0
 17 25  1  0
 18 26  4  0
 19 29  4  0
 20 29  4  0
 21 23  1  0
 21 25  1  0
 27 29  4  0
M  END
$$$$

 Created by Python create_sdf_string function

 29 32  0  0  0  0  0  0  0  0999 V2000
    5.4450    8.7154   22.6662 C   0  0  0  0  0  0  0  0  0  0  0  0
   10.9154    5.4574   20.5483 C   0  0  0  0  0  0  0  0  0  0  0  0
    7.2709    4.5089   22.7542 C   0  0  0  0  0  0  0  0  0  0  0  0
    5.9698    7.6329   24.6581 C   0  0  0  0  0  0  0  0  0  0  0  0
    4.5542    8.9057   21.7104 O   0  0  0  0  0  0  0  0  0  0  0  0
    6.9895    3.2085   23.0690 C   0  0  0  0  0  0  0  0  0  0  0  0
    7.8391    2.2253   22.7260 N   0  0  0  0  0  0  0  0  0  0  0  0
    8.6968    9.8373   23.6359 C   0  0  0  0  0  0  0  0  0  0  0  0
   12.5135    6.5957   21.8396 C   0  0  0  0  0  0  0  0  0  0  0  0
   10.9406    8.2330   21.1350 C   0  0  0  0  0  0  0  0  0  0  0  0
    9.6648    8.5956   21.7310 C   0  0  0  0  0  0  0  0  0  0  0  0
   10.8829    1.7153   20.9865 C   0  0  0  0  0  0  0  0  0  0  0  0
    5.7768    2.8533   23.7910 C   0  0  0  0  0  0  0  0  0  0  0  0
    9.7977    1.4791   21.6912 N   0  0  0  0  0  0  0  0  0  0  0  0
    6.5976    9.3401   22.6478 N   0  0  0  0  0  0  0  0  0  0  0  0
   11.2031    3.0042   20.6246 C   0  0  0  0  0  0  0  0  0  0  0  0
   12.8688    7.7370   22.7287 C   0  0  0  0  0  0  0  0  0  0  0  0
    7.4487    9.1361   23.6506 C   0  0  0  0  0  0  0  0  0  0  0  0
    8.9772    2.5025   22.0273 C   0  0  0  0  0  0  0  0  0  0  0  0
   10.4859    4.0901   20.9730 C   0  0  0  0  0  0  0  0  0  0  0  0
   11.0962    9.3293   23.5072 C   0  0  0  0  0  0  0  0  0  0  0  0
    5.1273    7.8529   23.6208 N   0  0  0  0  0  0  0  0  0  0  0  0
    9.7552    9.2338   23.0171 N   0  0  0  0  0  0  0  0  0  0  0  0
   11.1797    6.7591   21.3326 N   0  0  0  0  0  0  0  0  0  0  0  0
   11.7728    8.0337   23.7267 C   0  0  0  0  0  0  0  0  0  0  0  0
    7.1194    8.3344   24.6775 C   0  0  0  0  0  0  0  0  0  0  0  0
    8.4311    4.7963   22.0500 C   0  0  0  0  0  0  0  0  0  0  0  0
    8.7393   10.8706   24.1871 O   0  0  0  0  0  0  0  0  0  0  0  0
    9.3093    3.8166   21.6712 C   0  0  0  0  0  0  0  0  0  0  0  0
  1  5  1  0
  1 15  4  0
  1 22  4  0
  2 20  1  0
  2 24  1  0
  3  6  4  0
  3 27  4  0
  4 22  4  0
  4 26  4  0
  6  7  4  0
  6 13  1  0
  7 19  4  0
  8 18  1  0
  8 23  1  0
  8 28  2  0
  9 17  1  0
  9 24  1  0
 10 11  1  0
 10 24  1  0
 11 23  1  0
 12 14  4  0
 12 16  4  0
 14 19  4  0
 15 18  4  0
 16 20  4  0
 17 25  1  0
 18 26  4  0
 19 29  4  0
 20 29  4  0
 21 23  1  0
 21 25  1  0
 27 29  4  0
M  END
$$$$

 Created by Python create_sdf_string function

 29 32  0  0  0  0  0  0  0  0999 V2000
    5.4450    8.7154   22.6662 C   0  0  0  0  0  0  0  0  0  0  0  0
   10.9154    5.4574   20.5483 C   0  0  0  0  0  0  0  0  0  0  0  0
    7.2709    4.5089   22.7542 C   0  0  0  0  0  0  0  0  0  0  0  0
    5.9698    7.6329   24.6581 C   0  0  0  0  0  0  0  0  0  0  0  0
    4.5542    8.9057   21.7104 O   0  0  0  0  0  0  0  0  0  0  0  0
    6.9895    3.2085   23.0690 C   0  0  0  0  0  0  0  0  0  0  0  0
    7.8391    2.2253   22.7260 N   0  0  0  0  0  0  0  0  0  0  0  0
    8.6968    9.8373   23.6359 C   0  0  0  0  0  0  0  0  0  0  0  0
   12.5135    6.5957   21.8396 C   0  0  0  0  0  0  0  0  0  0  0  0
   10.9406    8.2330   21.1350 C   0  0  0  0  0  0  0  0  0  0  0  0
    9.6648    8.5956   21.7310 C   0  0  0  0  0  0  0  0  0  0  0  0
   10.8829    1.7153   20.9865 C   0  0  0  0  0  0  0  0  0  0  0  0
    5.7768    2.8533   23.7910 C   0  0  0  0  0  0  0  0  0  0  0  0
    9.7977    1.4791   21.6912 N   0  0  0  0  0  0  0  0  0  0  0  0
    6.5976    9.3401   22.6478 N   0  0  0  0  0  0  0  0  0  0  0  0
   11.2031    3.0042   20.6246 C   0  0  0  0  0  0  0  0  0  0  0  0
   12.8688    7.7370   22.7287 C   0  0  0  0  0  0  0  0  0  0  0  0
    7.4487    9.1361   23.6506 C   0  0  0  0  0  0  0  0  0  0  0  0
    8.9772    2.5025   22.0273 C   0  0  0  0  0  0  0  0  0  0  0  0
   10.4859    4.0901   20.9730 C   0  0  0  0  0  0  0  0  0  0  0  0
   11.0962    9.3293   23.5072 C   0  0  0  0  0  0  0  0  0  0  0  0
    5.1273    7.8529   23.6208 N   0  0  0  0  0  0  0  0  0  0  0  0
    9.7552    9.2338   23.0171 N   0  0  0  0  0  0  0  0  0  0  0  0
   11.1797    6.7591   21.3326 N   0  0  0  0  0  0  0  0  0  0  0  0
   11.7728    8.0337   23.7267 C   0  0  0  0  0  0  0  0  0  0  0  0
    7.1194    8.3344   24.6775 C   0  0  0  0  0  0  0  0  0  0  0  0
    8.4311    4.7963   22.0500 C   0  0  0  0  0  0  0  0  0  0  0  0
    8.7393   10.8706   24.1871 O   0  0  0  0  0  0  0  0  0  0  0  0
    9.3093    3.8166   21.6712 C   0  0  0  0  0  0  0  0  0  0  0  0
  1  5  1  0
  1 15  4  0
  1 22  4  0
  2 20  1  0
  2 24  1  0
  3  6  4  0
  3 27  4  0
  4 22  4  0
  4 26  4  0
  6  7  4  0
  6 13  1  0
  7 19  4  0
  8 18  1  0
  8 23  1  0
  8 28  2  0
  9 17  1  0
  9 24  1  0
 10 11  1  0
 10 24  1  0
 11 23  1  0
 12 14  4  0
 12 16  4  0
 14 19  4  0
 15 18  4  0
 16 20  4  0
 17 25  1  0
 18 26  4  0
 19 29  4  0
 20 29  4  0
 21 23  1  0
 21 25  1  0
 27 29  4  0
M  END
$$$$

 Created by Python create_sdf_string function

 29 32  0  0  0  0  0  0  0  0999 V2000
    5.4450    8.7154   22.6662 C   0  0  0  0  0  0  0  0  0  0  0  0
   10.9154    5.4574   20.5483 C   0  0  0  0  0  0  0  0  0  0  0  0
    7.2709    4.5089   22.7542 C   0  0  0  0  0  0  0  0  0  0  0  0
    5.9698    7.6329   24.6581 C   0  0  0  0  0  0  0  0  0  0  0  0
    4.5542    8.9057   21.7104 O   0  0  0  0  0  0  0  0  0  0  0  0
    6.9895    3.2085   23.0690 C   0  0  0  0  0  0  0  0  0  0  0  0
    7.8391    2.2253   22.7260 N   0  0  0  0  0  0  0  0  0  0  0  0
    8.6968    9.8373   23.6359 C   0  0  0  0  0  0  0  0  0  0  0  0
   12.5135    6.5957   21.8396 C   0  0  0  0  0  0  0  0  0  0  0  0
   10.9406    8.2330   21.1350 C   0  0  0  0  0  0  0  0  0  0  0  0
    9.6648    8.5956   21.7310 C   0  0  0  0  0  0  0  0  0  0  0  0
   10.8829    1.7153   20.9865 C   0  0  0  0  0  0  0  0  0  0  0  0
    5.7768    2.8533   23.7910 C   0  0  0  0  0  0  0  0  0  0  0  0
    9.7977    1.4791   21.6912 N   0  0  0  0  0  0  0  0  0  0  0  0
    6.5976    9.3401   22.6478 N   0  0  0  0  0  0  0  0  0  0  0  0
   11.2031    3.0042   20.6246 C   0  0  0  0  0  0  0  0  0  0  0  0
   12.8688    7.7370   22.7287 C   0  0  0  0  0  0  0  0  0  0  0  0
    7.4487    9.1361   23.6506 C   0  0  0  0  0  0  0  0  0  0  0  0
    8.9772    2.5025   22.0273 C   0  0  0  0  0  0  0  0  0  0  0  0
   10.4859    4.0901   20.9730 C   0  0  0  0  0  0  0  0  0  0  0  0
   11.0962    9.3293   23.5072 C   0  0  0  0  0  0  0  0  0  0  0  0
    5.1273    7.8529   23.6208 N   0  0  0  0  0  0  0  0  0  0  0  0
    9.7552    9.2338   23.0171 N   0  0  0  0  0  0  0  0  0  0  0  0
   11.1797    6.7591   21.3326 N   0  0  0  0  0  0  0  0  0  0  0  0
   11.7728    8.0337   23.7267 C   0  0  0  0  0  0  0  0  0  0  0  0
    7.1194    8.3344   24.6775 C   0  0  0  0  0  0  0  0  0  0  0  0
    8.4311    4.7963   22.0500 C   0  0  0  0  0  0  0  0  0  0  0  0
    8.7393   10.8706   24.1871 O   0  0  0  0  0  0  0  0  0  0  0  0
    9.3093    3.8166   21.6712 C   0  0  0  0  0  0  0  0  0  0  0  0
  1  5  1  0
  1 15  4  0
  1 22  4  0
  2 20  1  0
  2 24  1  0
  3  6  4  0
  3 27  4  0
  4 22  4  0
  4 26  4  0
  6  7  4  0
  6 13  1  0
  7 19  4  0
  8 18  1  0
  8 23  1  0
  8 28  2  0
  9 17  1  0
  9 24  1  0
 10 11  1  0
 10 24  1  0
 11 23  1  0
 12 14  4  0
 12 16  4  0
 14 19  4  0
 15 18  4  0
 16 20  4  0
 17 25  1  0
 18 26  4  0
 19 29  4  0
 20 29  4  0
 21 23  1  0
 21 25  1  0
 27 29  4  0
M  END
$$$$

 Created by Python create_sdf_string function

 29 32  0  0  0  0  0  0  0  0999 V2000
    5.4450    8.7154   22.6662 C   0  0  0  0  0  0  0  0  0  0  0  0
   10.9154    5.4574   20.5483 C   0  0  0  0  0  0  0  0  0  0  0  0
    7.2709    4.5089   22.7542 C   0  0  0  0  0  0  0  0  0  0  0  0
    5.9698    7.6329   24.6581 C   0  0  0  0  0  0  0  0  0  0  0  0
    4.5542    8.9057   21.7104 O   0  0  0  0  0  0  0  0  0  0  0  0
    6.9895    3.2085   23.0690 C   0  0  0  0  0  0  0  0  0  0  0  0
    7.8391    2.2253   22.7260 N   0  0  0  0  0  0  0  0  0  0  0  0
    8.6968    9.8373   23.6359 C   0  0  0  0  0  0  0  0  0  0  0  0
   12.5135    6.5957   21.8396 C   0  0  0  0  0  0  0  0  0  0  0  0
   10.9406    8.2330   21.1350 C   0  0  0  0  0  0  0  0  0  0  0  0
    9.6648    8.5956   21.7310 C   0  0  0  0  0  0  0  0  0  0  0  0
   10.8829    1.7153   20.9865 C   0  0  0  0  0  0  0  0  0  0  0  0
    5.7768    2.8533   23.7910 C   0  0  0  0  0  0  0  0  0  0  0  0
    9.7977    1.4791   21.6912 N   0  0  0  0  0  0  0  0  0  0  0  0
    6.5976    9.3401   22.6478 N   0  0  0  0  0  0  0  0  0  0  0  0
   11.2031    3.0042   20.6246 C   0  0  0  0  0  0  0  0  0  0  0  0
   12.8688    7.7370   22.7287 C   0  0  0  0  0  0  0  0  0  0  0  0
    7.4487    9.1361   23.6506 C   0  0  0  0  0  0  0  0  0  0  0  0
    8.9772    2.5025   22.0273 C   0  0  0  0  0  0  0  0  0  0  0  0
   10.4859    4.0901   20.9730 C   0  0  0  0  0  0  0  0  0  0  0  0
   11.0962    9.3293   23.5072 C   0  0  0  0  0  0  0  0  0  0  0  0
    5.1273    7.8529   23.6208 N   0  0  0  0  0  0  0  0  0  0  0  0
    9.7552    9.2338   23.0171 N   0  0  0  0  0  0  0  0  0  0  0  0
   11.1797    6.7591   21.3326 N   0  0  0  0  0  0  0  0  0  0  0  0
   11.7728    8.0337   23.7267 C   0  0  0  0  0  0  0  0  0  0  0  0
    7.1194    8.3344   24.6775 C   0  0  0  0  0  0  0  0  0  0  0  0
    8.4311    4.7963   22.0500 C   0  0  0  0  0  0  0  0  0  0  0  0
    8.7393   10.8706   24.1871 O   0  0  0  0  0  0  0  0  0  0  0  0
    9.3093    3.8166   21.6712 C   0  0  0  0  0  0  0  0  0  0  0  0
  1  5  1  0
  1 15  4  0
  1 22  4  0
  2 20  1  0
  2 24  1  0
  3  6  4  0
  3 27  4  0
  4 22  4  0
  4 26  4  0
  6  7  4  0
  6 13  1  0
  7 19  4  0
  8 18  1  0
  8 23  1  0
  8 28  2  0
  9 17  1  0
  9 24  1  0
 10 11  1  0
 10 24  1  0
 11 23  1  0
 12 14  4  0
 12 16  4  0
 14 19  4  0
 15 18  4  0
 16 20  4  0
 17 25  1  0
 18 26  4  0
 19 29  4  0
 20 29  4  0
 21 23  1  0
 21 25  1  0
 27 29  4  0
M  END
$$$$

 Created by Python create_sdf_string function

 29 32  0  0  0  0  0  0  0  0999 V2000
    5.4450    8.7154   22.6662 C   0  0  0  0  0  0  0  0  0  0  0  0
   10.9154    5.4574   20.5483 C   0  0  0  0  0  0  0  0  0  0  0  0
    7.2709    4.5089   22.7542 C   0  0  0  0  0  0  0  0  0  0  0  0
    5.9698    7.6329   24.6581 C   0  0  0  0  0  0  0  0  0  0  0  0
    4.5542    8.9057   21.7104 O   0  0  0  0  0  0  0  0  0  0  0  0
    6.9895    3.2085   23.0690 C   0  0  0  0  0  0  0  0  0  0  0  0
    7.8391    2.2253   22.7260 N   0  0  0  0  0  0  0  0  0  0  0  0
    8.6968    9.8373   23.6359 C   0  0  0  0  0  0  0  0  0  0  0  0
   12.5135    6.5957   21.8396 C   0  0  0  0  0  0  0  0  0  0  0  0
   10.9406    8.2330   21.1350 C   0  0  0  0  0  0  0  0  0  0  0  0
    9.6648    8.5956   21.7310 C   0  0  0  0  0  0  0  0  0  0  0  0
   10.8829    1.7153   20.9865 C   0  0  0  0  0  0  0  0  0  0  0  0
    5.7768    2.8533   23.7910 C   0  0  0  0  0  0  0  0  0  0  0  0
    9.7977    1.4791   21.6912 N   0  0  0  0  0  0  0  0  0  0  0  0
    6.5976    9.3401   22.6478 N   0  0  0  0  0  0  0  0  0  0  0  0
   11.2031    3.0042   20.6246 C   0  0  0  0  0  0  0  0  0  0  0  0
   12.8688    7.7370   22.7287 C   0  0  0  0  0  0  0  0  0  0  0  0
    7.4487    9.1361   23.6506 C   0  0  0  0  0  0  0  0  0  0  0  0
    8.9772    2.5025   22.0273 C   0  0  0  0  0  0  0  0  0  0  0  0
   10.4859    4.0901   20.9730 C   0  0  0  0  0  0  0  0  0  0  0  0
   11.0962    9.3293   23.5072 C   0  0  0  0  0  0  0  0  0  0  0  0
    5.1273    7.8529   23.6208 N   0  0  0  0  0  0  0  0  0  0  0  0
    9.7552    9.2338   23.0171 N   0  0  0  0  0  0  0  0  0  0  0  0
   11.1797    6.7591   21.3326 N   0  0  0  0  0  0  0  0  0  0  0  0
   11.7728    8.0337   23.7267 C   0  0  0  0  0  0  0  0  0  0  0  0
    7.1194    8.3344   24.6775 C   0  0  0  0  0  0  0  0  0  0  0  0
    8.4311    4.7963   22.0500 C   0  0  0  0  0  0  0  0  0  0  0  0
    8.7393   10.8706   24.1871 O   0  0  0  0  0  0  0  0  0  0  0  0
    9.3093    3.8166   21.6712 C   0  0  0  0  0  0  0  0  0  0  0  0
  1  5  1  0
  1 15  4  0
  1 22  4  0
  2 20  1  0
  2 24  1  0
  3  6  4  0
  3 27  4  0
  4 22  4  0
  4 26  4  0
  6  7  4  0
  6 13  1  0
  7 19  4  0
  8 18  1  0
  8 23  1  0
  8 28  2  0
  9 17  1  0
  9 24  1  0
 10 11  1  0
 10 24  1  0
 11 23  1  0
 12 14  4  0
 12 16  4  0
 14 19  4  0
 15 18  4  0
 16 20  4  0
 17 25  1  0
 18 26  4  0
 19 29  4  0
 20 29  4  0
 21 23  1  0
 21 25  1  0
 27 29  4  0
M  END
$$$$

 Created by Python create_sdf_string function

 29 32  0  0  0  0  0  0  0  0999 V2000
    5.4450    8.7154   22.6662 C   0  0  0  0  0  0  0  0  0  0  0  0
   10.9154    5.4574   20.5483 C   0  0  0  0  0  0  0  0  0  0  0  0
    7.2709    4.5089   22.7542 C   0  0  0  0  0  0  0  0  0  0  0  0
    5.9698    7.6329   24.6581 C   0  0  0  0  0  0  0  0  0  0  0  0
    4.5542    8.9057   21.7104 O   0  0  0  0  0  0  0  0  0  0  0  0
    6.9895    3.2085   23.0690 C   0  0  0  0  0  0  0  0  0  0  0  0
    7.8391    2.2253   22.7260 N   0  0  0  0  0  0  0  0  0  0  0  0
    8.6968    9.8373   23.6359 C   0  0  0  0  0  0  0  0  0  0  0  0
   12.5135    6.5957   21.8396 C   0  0  0  0  0  0  0  0  0  0  0  0
   10.9406    8.2330   21.1350 C   0  0  0  0  0  0  0  0  0  0  0  0
    9.6648    8.5956   21.7310 C   0  0  0  0  0  0  0  0  0  0  0  0
   10.8829    1.7153   20.9865 C   0  0  0  0  0  0  0  0  0  0  0  0
    5.7768    2.8533   23.7910 C   0  0  0  0  0  0  0  0  0  0  0  0
    9.7977    1.4791   21.6912 N   0  0  0  0  0  0  0  0  0  0  0  0
    6.5976    9.3401   22.6478 N   0  0  0  0  0  0  0  0  0  0  0  0
   11.2031    3.0042   20.6246 C   0  0  0  0  0  0  0  0  0  0  0  0
   12.8688    7.7370   22.7287 C   0  0  0  0  0  0  0  0  0  0  0  0
    7.4487    9.1361   23.6506 C   0  0  0  0  0  0  0  0  0  0  0  0
    8.9772    2.5025   22.0273 C   0  0  0  0  0  0  0  0  0  0  0  0
   10.4859    4.0901   20.9730 C   0  0  0  0  0  0  0  0  0  0  0  0
   11.0962    9.3293   23.5072 C   0  0  0  0  0  0  0  0  0  0  0  0
    5.1273    7.8529   23.6208 N   0  0  0  0  0  0  0  0  0  0  0  0
    9.7552    9.2338   23.0171 N   0  0  0  0  0  0  0  0  0  0  0  0
   11.1797    6.7591   21.3326 N   0  0  0  0  0  0  0  0  0  0  0  0
   11.7728    8.0337   23.7267 C   0  0  0  0  0  0  0  0  0  0  0  0
    7.1194    8.3344   24.6775 C   0  0  0  0  0  0  0  0  0  0  0  0
    8.4311    4.7963   22.0500 C   0  0  0  0  0  0  0  0  0  0  0  0
    8.7393   10.8706   24.1871 O   0  0  0  0  0  0  0  0  0  0  0  0
    9.3093    3.8166   21.6712 C   0  0  0  0  0  0  0  0  0  0  0  0
  1  5  1  0
  1 15  4  0
  1 22  4  0
  2 20  1  0
  2 24  1  0
  3  6  4  0
  3 27  4  0
  4 22  4  0
  4 26  4  0
  6  7  4  0
  6 13  1  0
  7 19  4  0
  8 18  1  0
  8 23  1  0
  8 28  2  0
  9 17  1  0
  9 24  1  0
 10 11  1  0
 10 24  1  0
 11 23  1  0
 12 14  4  0
 12 16  4  0
 14 19  4  0
 15 18  4  0
 16 20  4  0
 17 25  1  0
 18 26  4  0
 19 29  4  0
 20 29  4  0
 21 23  1  0
 21 25  1  0
 27 29  4  0
M  END
$$$$

 Created by Python create_sdf_string function

 29 32  0  0  0  0  0  0  0  0999 V2000
    5.4450    8.7154   22.6662 C   0  0  0  0  0  0  0  0  0  0  0  0
   10.9154    5.4574   20.5483 C   0  0  0  0  0  0  0  0  0  0  0  0
    7.2709    4.5089   22.7542 C   0  0  0  0  0  0  0  0  0  0  0  0
    5.9698    7.6329   24.6581 C   0  0  0  0  0  0  0  0  0  0  0  0
    4.5542    8.9057   21.7104 O   0  0  0  0  0  0  0  0  0  0  0  0
    6.9895    3.2085   23.0690 C   0  0  0  0  0  0  0  0  0  0  0  0
    7.8391    2.2253   22.7260 N   0  0  0  0  0  0  0  0  0  0  0  0
    8.6968    9.8373   23.6359 C   0  0  0  0  0  0  0  0  0  0  0  0
   12.5135    6.5957   21.8396 C   0  0  0  0  0  0  0  0  0  0  0  0
   10.9406    8.2330   21.1350 C   0  0  0  0  0  0  0  0  0  0  0  0
    9.6648    8.5956   21.7310 C   0  0  0  0  0  0  0  0  0  0  0  0
   10.8829    1.7153   20.9865 C   0  0  0  0  0  0  0  0  0  0  0  0
    5.7768    2.8533   23.7910 C   0  0  0  0  0  0  0  0  0  0  0  0
    9.7977    1.4791   21.6912 N   0  0  0  0  0  0  0  0  0  0  0  0
    6.5976    9.3401   22.6478 N   0  0  0  0  0  0  0  0  0  0  0  0
   11.2031    3.0042   20.6246 C   0  0  0  0  0  0  0  0  0  0  0  0
   12.8688    7.7370   22.7287 C   0  0  0  0  0  0  0  0  0  0  0  0
    7.4487    9.1361   23.6506 C   0  0  0  0  0  0  0  0  0  0  0  0
    8.9772    2.5025   22.0273 C   0  0  0  0  0  0  0  0  0  0  0  0
   10.4859    4.0901   20.9730 C   0  0  0  0  0  0  0  0  0  0  0  0
   11.0962    9.3293   23.5072 C   0  0  0  0  0  0  0  0  0  0  0  0
    5.1273    7.8529   23.6208 N   0  0  0  0  0  0  0  0  0  0  0  0
    9.7552    9.2338   23.0171 N   0  0  0  0  0  0  0  0  0  0  0  0
   11.1797    6.7591   21.3326 N   0  0  0  0  0  0  0  0  0  0  0  0
   11.7728    8.0337   23.7267 C   0  0  0  0  0  0  0  0  0  0  0  0
    7.1194    8.3344   24.6775 C   0  0  0  0  0  0  0  0  0  0  0  0
    8.4311    4.7963   22.0500 C   0  0  0  0  0  0  0  0  0  0  0  0
    8.7393   10.8706   24.1871 O   0  0  0  0  0  0  0  0  0  0  0  0
    9.3093    3.8166   21.6712 C   0  0  0  0  0  0  0  0  0  0  0  0
  1  5  1  0
  1 15  4  0
  1 22  4  0
  2 20  1  0
  2 24  1  0
  3  6  4  0
  3 27  4  0
  4 22  4  0
  4 26  4  0
  6  7  4  0
  6 13  1  0
  7 19  4  0
  8 18  1  0
  8 23  1  0
  8 28  2  0
  9 17  1  0
  9 24  1  0
 10 11  1  0
 10 24  1  0
 11 23  1  0
 12 14  4  0
 12 16  4  0
 14 19  4  0
 15 18  4  0
 16 20  4  0
 17 25  1  0
 18 26  4  0
 19 29  4  0
 20 29  4  0
 21 23  1  0
 21 25  1  0
 27 29  4  0
M  END
$$$$

 Created by Python create_sdf_string function

 29 32  0  0  0  0  0  0  0  0999 V2000
    5.4450    8.7154   22.6662 C   0  0  0  0  0  0  0  0  0  0  0  0
   10.9154    5.4574   20.5483 C   0  0  0  0  0  0  0  0  0  0  0  0
    7.2709    4.5089   22.7542 C   0  0  0  0  0  0  0  0  0  0  0  0
    5.9698    7.6329   24.6581 C   0  0  0  0  0  0  0  0  0  0  0  0
    4.5542    8.9057   21.7104 O   0  0  0  0  0  0  0  0  0  0  0  0
    6.9895    3.2085   23.0690 C   0  0  0  0  0  0  0  0  0  0  0  0
    7.8391    2.2253   22.7260 N   0  0  0  0  0  0  0  0  0  0  0  0
    8.6968    9.8373   23.6359 C   0  0  0  0  0  0  0  0  0  0  0  0
   12.5135    6.5957   21.8396 C   0  0  0  0  0  0  0  0  0  0  0  0
   10.9406    8.2330   21.1350 C   0  0  0  0  0  0  0  0  0  0  0  0
    9.6648    8.5956   21.7310 C   0  0  0  0  0  0  0  0  0  0  0  0
   10.8829    1.7153   20.9865 C   0  0  0  0  0  0  0  0  0  0  0  0
    5.7768    2.8533   23.7910 C   0  0  0  0  0  0  0  0  0  0  0  0
    9.7977    1.4791   21.6912 N   0  0  0  0  0  0  0  0  0  0  0  0
    6.5976    9.3401   22.6478 N   0  0  0  0  0  0  0  0  0  0  0  0
   11.2031    3.0042   20.6246 C   0  0  0  0  0  0  0  0  0  0  0  0
   12.8688    7.7370   22.7287 C   0  0  0  0  0  0  0  0  0  0  0  0
    7.4487    9.1361   23.6506 C   0  0  0  0  0  0  0  0  0  0  0  0
    8.9772    2.5025   22.0273 C   0  0  0  0  0  0  0  0  0  0  0  0
   10.4859    4.0901   20.9730 C   0  0  0  0  0  0  0  0  0  0  0  0
   11.0962    9.3293   23.5072 C   0  0  0  0  0  0  0  0  0  0  0  0
    5.1273    7.8529   23.6208 N   0  0  0  0  0  0  0  0  0  0  0  0
    9.7552    9.2338   23.0171 N   0  0  0  0  0  0  0  0  0  0  0  0
   11.1797    6.7591   21.3326 N   0  0  0  0  0  0  0  0  0  0  0  0
   11.7728    8.0337   23.7267 C   0  0  0  0  0  0  0  0  0  0  0  0
    7.1194    8.3344   24.6775 C   0  0  0  0  0  0  0  0  0  0  0  0
    8.4311    4.7963   22.0500 C   0  0  0  0  0  0  0  0  0  0  0  0
    8.7393   10.8706   24.1871 O   0  0  0  0  0  0  0  0  0  0  0  0
    9.3093    3.8166   21.6712 C   0  0  0  0  0  0  0  0  0  0  0  0
  1  5  1  0
  1 15  4  0
  1 22  4  0
  2 20  1  0
  2 24  1  0
  3  6  4  0
  3 27  4  0
  4 22  4  0
  4 26  4  0
  6  7  4  0
  6 13  1  0
  7 19  4  0
  8 18  1  0
  8 23  1  0
  8 28  2  0
  9 17  1  0
  9 24  1  0
 10 11  1  0
 10 24  1  0
 11 23  1  0
 12 14  4  0
 12 16  4  0
 14 19  4  0
 15 18  4  0
 16 20  4  0
 17 25  1  0
 18 26  4  0
 19 29  4  0
 20 29  4  0
 21 23  1  0
 21 25  1  0
 27 29  4  0
M  END
$$$$

 Created by Python create_sdf_string function

 29 32  0  0  0  0  0  0  0  0999 V2000
    5.4450    8.7154   22.6662 C   0  0  0  0  0  0  0  0  0  0  0  0
   10.9154    5.4574   20.5483 C   0  0  0  0  0  0  0  0  0  0  0  0
    7.2709    4.5089   22.7542 C   0  0  0  0  0  0  0  0  0  0  0  0
    5.9698    7.6329   24.6581 C   0  0  0  0  0  0  0  0  0  0  0  0
    4.5542    8.9057   21.7104 O   0  0  0  0  0  0  0  0  0  0  0  0
    6.9895    3.2085   23.0690 C   0  0  0  0  0  0  0  0  0  0  0  0
    7.8391    2.2253   22.7260 N   0  0  0  0  0  0  0  0  0  0  0  0
    8.6968    9.8373   23.6359 C   0  0  0  0  0  0  0  0  0  0  0  0
   12.5135    6.5957   21.8396 C   0  0  0  0  0  0  0  0  0  0  0  0
   10.9406    8.2330   21.1350 C   0  0  0  0  0  0  0  0  0  0  0  0
    9.6648    8.5956   21.7310 C   0  0  0  0  0  0  0  0  0  0  0  0
   10.8829    1.7153   20.9865 C   0  0  0  0  0  0  0  0  0  0  0  0
    5.7768    2.8533   23.7910 C   0  0  0  0  0  0  0  0  0  0  0  0
    9.7977    1.4791   21.6912 N   0  0  0  0  0  0  0  0  0  0  0  0
    6.5976    9.3401   22.6478 N   0  0  0  0  0  0  0  0  0  0  0  0
   11.2031    3.0042   20.6246 C   0  0  0  0  0  0  0  0  0  0  0  0
   12.8688    7.7370   22.7287 C   0  0  0  0  0  0  0  0  0  0  0  0
    7.4487    9.1361   23.6506 C   0  0  0  0  0  0  0  0  0  0  0  0
    8.9772    2.5025   22.0273 C   0  0  0  0  0  0  0  0  0  0  0  0
   10.4859    4.0901   20.9730 C   0  0  0  0  0  0  0  0  0  0  0  0
   11.0962    9.3293   23.5072 C   0  0  0  0  0  0  0  0  0  0  0  0
    5.1273    7.8529   23.6208 N   0  0  0  0  0  0  0  0  0  0  0  0
    9.7552    9.2338   23.0171 N   0  0  0  0  0  0  0  0  0  0  0  0
   11.1797    6.7591   21.3326 N   0  0  0  0  0  0  0  0  0  0  0  0
   11.7728    8.0337   23.7267 C   0  0  0  0  0  0  0  0  0  0  0  0
    7.1194    8.3344   24.6775 C   0  0  0  0  0  0  0  0  0  0  0  0
    8.4311    4.7963   22.0500 C   0  0  0  0  0  0  0  0  0  0  0  0
    8.7393   10.8706   24.1871 O   0  0  0  0  0  0  0  0  0  0  0  0
    9.3093    3.8166   21.6712 C   0  0  0  0  0  0  0  0  0  0  0  0
  1  5  1  0
  1 15  4  0
  1 22  4  0
  2 20  1  0
  2 24  1  0
  3  6  4  0
  3 27  4  0
  4 22  4  0
  4 26  4  0
  6  7  4  0
  6 13  1  0
  7 19  4  0
  8 18  1  0
  8 23  1  0
  8 28  2  0
  9 17  1  0
  9 24  1  0
 10 11  1  0
 10 24  1  0
 11 23  1  0
 12 14  4  0
 12 16  4  0
 14 19  4  0
 15 18  4  0
 16 20  4  0
 17 25  1  0
 18 26  4  0
 19 29  4  0
 20 29  4  0
 21 23  1  0
 21 25  1  0
 27 29  4  0
M  END
$$$$

 Created by Python create_sdf_string function

 29 32  0  0  0  0  0  0  0  0999 V2000
    5.4450    8.7154   22.6662 C   0  0  0  0  0  0  0  0  0  0  0  0
   10.9154    5.4574   20.5483 C   0  0  0  0  0  0  0  0  0  0  0  0
    7.2709    4.5089   22.7542 C   0  0  0  0  0  0  0  0  0  0  0  0
    5.9698    7.6329   24.6581 C   0  0  0  0  0  0  0  0  0  0  0  0
    4.5542    8.9057   21.7104 O   0  0  0  0  0  0  0  0  0  0  0  0
    6.9895    3.2085   23.0690 C   0  0  0  0  0  0  0  0  0  0  0  0
    7.8391    2.2253   22.7260 N   0  0  0  0  0  0  0  0  0  0  0  0
    8.6968    9.8373   23.6359 C   0  0  0  0  0  0  0  0  0  0  0  0
   12.5135    6.5957   21.8396 C   0  0  0  0  0  0  0  0  0  0  0  0
   10.9406    8.2330   21.1350 C   0  0  0  0  0  0  0  0  0  0  0  0
    9.6648    8.5956   21.7310 C   0  0  0  0  0  0  0  0  0  0  0  0
   10.8829    1.7153   20.9865 C   0  0  0  0  0  0  0  0  0  0  0  0
    5.7768    2.8533   23.7910 C   0  0  0  0  0  0  0  0  0  0  0  0
    9.7977    1.4791   21.6912 N   0  0  0  0  0  0  0  0  0  0  0  0
    6.5976    9.3401   22.6478 N   0  0  0  0  0  0  0  0  0  0  0  0
   11.2031    3.0042   20.6246 C   0  0  0  0  0  0  0  0  0  0  0  0
   12.8688    7.7370   22.7287 C   0  0  0  0  0  0  0  0  0  0  0  0
    7.4487    9.1361   23.6506 C   0  0  0  0  0  0  0  0  0  0  0  0
    8.9772    2.5025   22.0273 C   0  0  0  0  0  0  0  0  0  0  0  0
   10.4859    4.0901   20.9730 C   0  0  0  0  0  0  0  0  0  0  0  0
   11.0962    9.3293   23.5072 C   0  0  0  0  0  0  0  0  0  0  0  0
    5.1273    7.8529   23.6208 N   0  0  0  0  0  0  0  0  0  0  0  0
    9.7552    9.2338   23.0171 N   0  0  0  0  0  0  0  0  0  0  0  0
   11.1797    6.7591   21.3326 N   0  0  0  0  0  0  0  0  0  0  0  0
   11.7728    8.0337   23.7267 C   0  0  0  0  0  0  0  0  0  0  0  0
    7.1194    8.3344   24.6775 C   0  0  0  0  0  0  0  0  0  0  0  0
    8.4311    4.7963   22.0500 C   0  0  0  0  0  0  0  0  0  0  0  0
    8.7393   10.8706   24.1871 O   0  0  0  0  0  0  0  0  0  0  0  0
    9.3093    3.8166   21.6712 C   0  0  0  0  0  0  0  0  0  0  0  0
  1  5  1  0
  1 15  4  0
  1 22  4  0
  2 20  1  0
  2 24  1  0
  3  6  4  0
  3 27  4  0
  4 22  4  0
  4 26  4  0
  6  7  4  0
  6 13  1  0
  7 19  4  0
  8 18  1  0
  8 23  1  0
  8 28  2  0
  9 17  1  0
  9 24  1  0
 10 11  1  0
 10 24  1  0
 11 23  1  0
 12 14  4  0
 12 16  4  0
 14 19  4  0
 15 18  4  0
 16 20  4  0
 17 25  1  0
 18 26  4  0
 19 29  4  0
 20 29  4  0
 21 23  1  0
 21 25  1  0
 27 29  4  0
M  END
$$$$

 Created by Python create_sdf_string function

 29 32  0  0  0  0  0  0  0  0999 V2000
    5.4450    8.7154   22.6662 C   0  0  0  0  0  0  0  0  0  0  0  0
   10.9154    5.4574   20.5483 C   0  0  0  0  0  0  0  0  0  0  0  0
    7.2709    4.5089   22.7542 C   0  0  0  0  0  0  0  0  0  0  0  0
    5.9698    7.6329   24.6581 C   0  0  0  0  0  0  0  0  0  0  0  0
    4.5542    8.9057   21.7104 O   0  0  0  0  0  0  0  0  0  0  0  0
    6.9895    3.2085   23.0690 C   0  0  0  0  0  0  0  0  0  0  0  0
    7.8391    2.2253   22.7260 N   0  0  0  0  0  0  0  0  0  0  0  0
    8.6968    9.8373   23.6359 C   0  0  0  0  0  0  0  0  0  0  0  0
   12.5135    6.5957   21.8396 C   0  0  0  0  0  0  0  0  0  0  0  0
   10.9406    8.2330   21.1350 C   0  0  0  0  0  0  0  0  0  0  0  0
    9.6648    8.5956   21.7310 C   0  0  0  0  0  0  0  0  0  0  0  0
   10.8829    1.7153   20.9865 C   0  0  0  0  0  0  0  0  0  0  0  0
    5.7768    2.8533   23.7910 C   0  0  0  0  0  0  0  0  0  0  0  0
    9.7977    1.4791   21.6912 N   0  0  0  0  0  0  0  0  0  0  0  0
    6.5976    9.3401   22.6478 N   0  0  0  0  0  0  0  0  0  0  0  0
   11.2031    3.0042   20.6246 C   0  0  0  0  0  0  0  0  0  0  0  0
   12.8688    7.7370   22.7287 C   0  0  0  0  0  0  0  0  0  0  0  0
    7.4487    9.1361   23.6506 C   0  0  0  0  0  0  0  0  0  0  0  0
    8.9772    2.5025   22.0273 C   0  0  0  0  0  0  0  0  0  0  0  0
   10.4859    4.0901   20.9730 C   0  0  0  0  0  0  0  0  0  0  0  0
   11.0962    9.3293   23.5072 C   0  0  0  0  0  0  0  0  0  0  0  0
    5.1273    7.8529   23.6208 N   0  0  0  0  0  0  0  0  0  0  0  0
    9.7552    9.2338   23.0171 N   0  0  0  0  0  0  0  0  0  0  0  0
   11.1797    6.7591   21.3326 N   0  0  0  0  0  0  0  0  0  0  0  0
   11.7728    8.0337   23.7267 C   0  0  0  0  0  0  0  0  0  0  0  0
    7.1194    8.3344   24.6775 C   0  0  0  0  0  0  0  0  0  0  0  0
    8.4311    4.7963   22.0500 C   0  0  0  0  0  0  0  0  0  0  0  0
    8.7393   10.8706   24.1871 O   0  0  0  0  0  0  0  0  0  0  0  0
    9.3093    3.8166   21.6712 C   0  0  0  0  0  0  0  0  0  0  0  0
  1  5  1  0
  1 15  4  0
  1 22  4  0
  2 20  1  0
  2 24  1  0
  3  6  4  0
  3 27  4  0
  4 22  4  0
  4 26  4  0
  6  7  4  0
  6 13  1  0
  7 19  4  0
  8 18  1  0
  8 23  1  0
  8 28  2  0
  9 17  1  0
  9 24  1  0
 10 11  1  0
 10 24  1  0
 11 23  1  0
 12 14  4  0
 12 16  4  0
 14 19  4  0
 15 18  4  0
 16 20  4  0
 17 25  1  0
 18 26  4  0
 19 29  4  0
 20 29  4  0
 21 23  1  0
 21 25  1  0
 27 29  4  0
M  END
$$$$

 Created by Python create_sdf_string function

 29 32  0  0  0  0  0  0  0  0999 V2000
    5.4450    8.7154   22.6662 C   0  0  0  0  0  0  0  0  0  0  0  0
   10.9154    5.4574   20.5483 C   0  0  0  0  0  0  0  0  0  0  0  0
    7.2709    4.5089   22.7542 C   0  0  0  0  0  0  0  0  0  0  0  0
    5.9698    7.6329   24.6581 C   0  0  0  0  0  0  0  0  0  0  0  0
    4.5542    8.9057   21.7104 O   0  0  0  0  0  0  0  0  0  0  0  0
    6.9895    3.2085   23.0690 C   0  0  0  0  0  0  0  0  0  0  0  0
    7.8391    2.2253   22.7260 N   0  0  0  0  0  0  0  0  0  0  0  0
    8.6968    9.8373   23.6359 C   0  0  0  0  0  0  0  0  0  0  0  0
   12.5135    6.5957   21.8396 C   0  0  0  0  0  0  0  0  0  0  0  0
   10.9406    8.2330   21.1350 C   0  0  0  0  0  0  0  0  0  0  0  0
    9.6648    8.5956   21.7310 C   0  0  0  0  0  0  0  0  0  0  0  0
   10.8829    1.7153   20.9865 C   0  0  0  0  0  0  0  0  0  0  0  0
    5.7768    2.8533   23.7910 C   0  0  0  0  0  0  0  0  0  0  0  0
    9.7977    1.4791   21.6912 N   0  0  0  0  0  0  0  0  0  0  0  0
    6.5976    9.3401   22.6478 N   0  0  0  0  0  0  0  0  0  0  0  0
   11.2031    3.0042   20.6246 C   0  0  0  0  0  0  0  0  0  0  0  0
   12.8688    7.7370   22.7287 C   0  0  0  0  0  0  0  0  0  0  0  0
    7.4487    9.1361   23.6506 C   0  0  0  0  0  0  0  0  0  0  0  0
    8.9772    2.5025   22.0273 C   0  0  0  0  0  0  0  0  0  0  0  0
   10.4859    4.0901   20.9730 C   0  0  0  0  0  0  0  0  0  0  0  0
   11.0962    9.3293   23.5072 C   0  0  0  0  0  0  0  0  0  0  0  0
    5.1273    7.8529   23.6208 N   0  0  0  0  0  0  0  0  0  0  0  0
    9.7552    9.2338   23.0171 N   0  0  0  0  0  0  0  0  0  0  0  0
   11.1797    6.7591   21.3326 N   0  0  0  0  0  0  0  0  0  0  0  0
   11.7728    8.0337   23.7267 C   0  0  0  0  0  0  0  0  0  0  0  0
    7.1194    8.3344   24.6775 C   0  0  0  0  0  0  0  0  0  0  0  0
    8.4311    4.7963   22.0500 C   0  0  0  0  0  0  0  0  0  0  0  0
    8.7393   10.8706   24.1871 O   0  0  0  0  0  0  0  0  0  0  0  0
    9.3093    3.8166   21.6712 C   0  0  0  0  0  0  0  0  0  0  0  0
  1  5  1  0
  1 15  4  0
  1 22  4  0
  2 20  1  0
  2 24  1  0
  3  6  4  0
  3 27  4  0
  4 22  4  0
  4 26  4  0
  6  7  4  0
  6 13  1  0
  7 19  4  0
  8 18  1  0
  8 23  1  0
  8 28  2  0
  9 17  1  0
  9 24  1  0
 10 11  1  0
 10 24  1  0
 11 23  1  0
 12 14  4  0
 12 16  4  0
 14 19  4  0
 15 18  4  0
 16 20  4  0
 17 25  1  0
 18 26  4  0
 19 29  4  0
 20 29  4  0
 21 23  1  0
 21 25  1  0
 27 29  4  0
M  END
$$$$

 Created by Python create_sdf_string function

 29 32  0  0  0  0  0  0  0  0999 V2000
    5.4450    8.7154   22.6662 C   0  0  0  0  0  0  0  0  0  0  0  0
   10.9154    5.4574   20.5483 C   0  0  0  0  0  0  0  0  0  0  0  0
    7.2709    4.5089   22.7542 C   0  0  0  0  0  0  0  0  0  0  0  0
    5.9698    7.6329   24.6581 C   0  0  0  0  0  0  0  0  0  0  0  0
    4.5542    8.9057   21.7104 O   0  0  0  0  0  0  0  0  0  0  0  0
    6.9895    3.2085   23.0690 C   0  0  0  0  0  0  0  0  0  0  0  0
    7.8391    2.2253   22.7260 N   0  0  0  0  0  0  0  0  0  0  0  0
    8.6968    9.8373   23.6359 C   0  0  0  0  0  0  0  0  0  0  0  0
   12.5135    6.5957   21.8396 C   0  0  0  0  0  0  0  0  0  0  0  0
   10.9406    8.2330   21.1350 C   0  0  0  0  0  0  0  0  0  0  0  0
    9.6648    8.5956   21.7310 C   0  0  0  0  0  0  0  0  0  0  0  0
   10.8829    1.7153   20.9865 C   0  0  0  0  0  0  0  0  0  0  0  0
    5.7768    2.8533   23.7910 C   0  0  0  0  0  0  0  0  0  0  0  0
    9.7977    1.4791   21.6912 N   0  0  0  0  0  0  0  0  0  0  0  0
    6.5976    9.3401   22.6478 N   0  0  0  0  0  0  0  0  0  0  0  0
   11.2031    3.0042   20.6246 C   0  0  0  0  0  0  0  0  0  0  0  0
   12.8688    7.7370   22.7287 C   0  0  0  0  0  0  0  0  0  0  0  0
    7.4487    9.1361   23.6506 C   0  0  0  0  0  0  0  0  0  0  0  0
    8.9772    2.5025   22.0273 C   0  0  0  0  0  0  0  0  0  0  0  0
   10.4859    4.0901   20.9730 C   0  0  0  0  0  0  0  0  0  0  0  0
   11.0962    9.3293   23.5072 C   0  0  0  0  0  0  0  0  0  0  0  0
    5.1273    7.8529   23.6208 N   0  0  0  0  0  0  0  0  0  0  0  0
    9.7552    9.2338   23.0171 N   0  0  0  0  0  0  0  0  0  0  0  0
   11.1797    6.7591   21.3326 N   0  0  0  0  0  0  0  0  0  0  0  0
   11.7728    8.0337   23.7267 C   0  0  0  0  0  0  0  0  0  0  0  0
    7.1194    8.3344   24.6775 C   0  0  0  0  0  0  0  0  0  0  0  0
    8.4311    4.7963   22.0500 C   0  0  0  0  0  0  0  0  0  0  0  0
    8.7393   10.8706   24.1871 O   0  0  0  0  0  0  0  0  0  0  0  0
    9.3093    3.8166   21.6712 C   0  0  0  0  0  0  0  0  0  0  0  0
  1  5  1  0
  1 15  4  0
  1 22  4  0
  2 20  1  0
  2 24  1  0
  3  6  4  0
  3 27  4  0
  4 22  4  0
  4 26  4  0
  6  7  4  0
  6 13  1  0
  7 19  4  0
  8 18  1  0
  8 23  1  0
  8 28  2  0
  9 17  1  0
  9 24  1  0
 10 11  1  0
 10 24  1  0
 11 23  1  0
 12 14  4  0
 12 16  4  0
 14 19  4  0
 15 18  4  0
 16 20  4  0
 17 25  1  0
 18 26  4  0
 19 29  4  0
 20 29  4  0
 21 23  1  0
 21 25  1  0
 27 29  4  0
M  END
$$$$

 Created by Python create_sdf_string function

 29 32  0  0  0  0  0  0  0  0999 V2000
    5.4450    8.7154   22.6662 C   0  0  0  0  0  0  0  0  0  0  0  0
   10.9154    5.4574   20.5483 C   0  0  0  0  0  0  0  0  0  0  0  0
    7.2709    4.5089   22.7542 C   0  0  0  0  0  0  0  0  0  0  0  0
    5.9698    7.6329   24.6581 C   0  0  0  0  0  0  0  0  0  0  0  0
    4.5542    8.9057   21.7104 O   0  0  0  0  0  0  0  0  0  0  0  0
    6.9895    3.2085   23.0690 C   0  0  0  0  0  0  0  0  0  0  0  0
    7.8391    2.2253   22.7260 N   0  0  0  0  0  0  0  0  0  0  0  0
    8.6968    9.8373   23.6359 C   0  0  0  0  0  0  0  0  0  0  0  0
   12.5135    6.5957   21.8396 C   0  0  0  0  0  0  0  0  0  0  0  0
   10.9406    8.2330   21.1350 C   0  0  0  0  0  0  0  0  0  0  0  0
    9.6648    8.5956   21.7310 C   0  0  0  0  0  0  0  0  0  0  0  0
   10.8829    1.7153   20.9865 C   0  0  0  0  0  0  0  0  0  0  0  0
    5.7768    2.8533   23.7910 C   0  0  0  0  0  0  0  0  0  0  0  0
    9.7977    1.4791   21.6912 N   0  0  0  0  0  0  0  0  0  0  0  0
    6.5976    9.3401   22.6478 N   0  0  0  0  0  0  0  0  0  0  0  0
   11.2031    3.0042   20.6246 C   0  0  0  0  0  0  0  0  0  0  0  0
   12.8688    7.7370   22.7287 C   0  0  0  0  0  0  0  0  0  0  0  0
    7.4487    9.1361   23.6506 C   0  0  0  0  0  0  0  0  0  0  0  0
    8.9772    2.5025   22.0273 C   0  0  0  0  0  0  0  0  0  0  0  0
   10.4859    4.0901   20.9730 C   0  0  0  0  0  0  0  0  0  0  0  0
   11.0962    9.3293   23.5072 C   0  0  0  0  0  0  0  0  0  0  0  0
    5.1273    7.8529   23.6208 N   0  0  0  0  0  0  0  0  0  0  0  0
    9.7552    9.2338   23.0171 N   0  0  0  0  0  0  0  0  0  0  0  0
   11.1797    6.7591   21.3326 N   0  0  0  0  0  0  0  0  0  0  0  0
   11.7728    8.0337   23.7267 C   0  0  0  0  0  0  0  0  0  0  0  0
    7.1194    8.3344   24.6775 C   0  0  0  0  0  0  0  0  0  0  0  0
    8.4311    4.7963   22.0500 C   0  0  0  0  0  0  0  0  0  0  0  0
    8.7393   10.8706   24.1871 O   0  0  0  0  0  0  0  0  0  0  0  0
    9.3093    3.8166   21.6712 C   0  0  0  0  0  0  0  0  0  0  0  0
  1  5  1  0
  1 15  4  0
  1 22  4  0
  2 20  1  0
  2 24  1  0
  3  6  4  0
  3 27  4  0
  4 22  4  0
  4 26  4  0
  6  7  4  0
  6 13  1  0
  7 19  4  0
  8 18  1  0
  8 23  1  0
  8 28  2  0
  9 17  1  0
  9 24  1  0
 10 11  1  0
 10 24  1  0
 11 23  1  0
 12 14  4  0
 12 16  4  0
 14 19  4  0
 15 18  4  0
 16 20  4  0
 17 25  1  0
 18 26  4  0
 19 29  4  0
 20 29  4  0
 21 23  1  0
 21 25  1  0
 27 29  4  0
M  END
$$$$

 Created by Python create_sdf_string function

 29 32  0  0  0  0  0  0  0  0999 V2000
    5.4450    8.7154   22.6662 C   0  0  0  0  0  0  0  0  0  0  0  0
   10.9154    5.4574   20.5483 C   0  0  0  0  0  0  0  0  0  0  0  0
    7.2709    4.5089   22.7542 C   0  0  0  0  0  0  0  0  0  0  0  0
    5.9698    7.6329   24.6581 C   0  0  0  0  0  0  0  0  0  0  0  0
    4.5542    8.9057   21.7104 O   0  0  0  0  0  0  0  0  0  0  0  0
    6.9895    3.2085   23.0690 C   0  0  0  0  0  0  0  0  0  0  0  0
    7.8391    2.2253   22.7260 N   0  0  0  0  0  0  0  0  0  0  0  0
    8.6968    9.8373   23.6359 C   0  0  0  0  0  0  0  0  0  0  0  0
   12.5135    6.5957   21.8396 C   0  0  0  0  0  0  0  0  0  0  0  0
   10.9406    8.2330   21.1350 C   0  0  0  0  0  0  0  0  0  0  0  0
    9.6648    8.5956   21.7310 C   0  0  0  0  0  0  0  0  0  0  0  0
   10.8829    1.7153   20.9865 C   0  0  0  0  0  0  0  0  0  0  0  0
    5.7768    2.8533   23.7910 C   0  0  0  0  0  0  0  0  0  0  0  0
    9.7977    1.4791   21.6912 N   0  0  0  0  0  0  0  0  0  0  0  0
    6.5976    9.3401   22.6478 N   0  0  0  0  0  0  0  0  0  0  0  0
   11.2031    3.0042   20.6246 C   0  0  0  0  0  0  0  0  0  0  0  0
   12.8688    7.7370   22.7287 C   0  0  0  0  0  0  0  0  0  0  0  0
    7.4487    9.1361   23.6506 C   0  0  0  0  0  0  0  0  0  0  0  0
    8.9772    2.5025   22.0273 C   0  0  0  0  0  0  0  0  0  0  0  0
   10.4859    4.0901   20.9730 C   0  0  0  0  0  0  0  0  0  0  0  0
   11.0962    9.3293   23.5072 C   0  0  0  0  0  0  0  0  0  0  0  0
    5.1273    7.8529   23.6208 N   0  0  0  0  0  0  0  0  0  0  0  0
    9.7552    9.2338   23.0171 N   0  0  0  0  0  0  0  0  0  0  0  0
   11.1797    6.7591   21.3326 N   0  0  0  0  0  0  0  0  0  0  0  0
   11.7728    8.0337   23.7267 C   0  0  0  0  0  0  0  0  0  0  0  0
    7.1194    8.3344   24.6775 C   0  0  0  0  0  0  0  0  0  0  0  0
    8.4311    4.7963   22.0500 C   0  0  0  0  0  0  0  0  0  0  0  0
    8.7393   10.8706   24.1871 O   0  0  0  0  0  0  0  0  0  0  0  0
    9.3093    3.8166   21.6712 C   0  0  0  0  0  0  0  0  0  0  0  0
  1  5  1  0
  1 15  4  0
  1 22  4  0
  2 20  1  0
  2 24  1  0
  3  6  4  0
  3 27  4  0
  4 22  4  0
  4 26  4  0
  6  7  4  0
  6 13  1  0
  7 19  4  0
  8 18  1  0
  8 23  1  0
  8 28  2  0
  9 17  1  0
  9 24  1  0
 10 11  1  0
 10 24  1  0
 11 23  1  0
 12 14  4  0
 12 16  4  0
 14 19  4  0
 15 18  4  0
 16 20  4  0
 17 25  1  0
 18 26  4  0
 19 29  4  0
 20 29  4  0
 21 23  1  0
 21 25  1  0
 27 29  4  0
M  END
$$$$

 Created by Python create_sdf_string function

 29 32  0  0  0  0  0  0  0  0999 V2000
    5.4450    8.7154   22.6662 C   0  0  0  0  0  0  0  0  0  0  0  0
   10.9154    5.4574   20.5483 C   0  0  0  0  0  0  0  0  0  0  0  0
    7.2709    4.5089   22.7542 C   0  0  0  0  0  0  0  0  0  0  0  0
    5.9698    7.6329   24.6581 C   0  0  0  0  0  0  0  0  0  0  0  0
    4.5542    8.9057   21.7104 O   0  0  0  0  0  0  0  0  0  0  0  0
    6.9895    3.2085   23.0690 C   0  0  0  0  0  0  0  0  0  0  0  0
    7.8391    2.2253   22.7260 N   0  0  0  0  0  0  0  0  0  0  0  0
    8.6968    9.8373   23.6359 C   0  0  0  0  0  0  0  0  0  0  0  0
   12.5135    6.5957   21.8396 C   0  0  0  0  0  0  0  0  0  0  0  0
   10.9406    8.2330   21.1350 C   0  0  0  0  0  0  0  0  0  0  0  0
    9.6648    8.5956   21.7310 C   0  0  0  0  0  0  0  0  0  0  0  0
   10.8829    1.7153   20.9865 C   0  0  0  0  0  0  0  0  0  0  0  0
    5.7768    2.8533   23.7910 C   0  0  0  0  0  0  0  0  0  0  0  0
    9.7977    1.4791   21.6912 N   0  0  0  0  0  0  0  0  0  0  0  0
    6.5976    9.3401   22.6478 N   0  0  0  0  0  0  0  0  0  0  0  0
   11.2031    3.0042   20.6246 C   0  0  0  0  0  0  0  0  0  0  0  0
   12.8688    7.7370   22.7287 C   0  0  0  0  0  0  0  0  0  0  0  0
    7.4487    9.1361   23.6506 C   0  0  0  0  0  0  0  0  0  0  0  0
    8.9772    2.5025   22.0273 C   0  0  0  0  0  0  0  0  0  0  0  0
   10.4859    4.0901   20.9730 C   0  0  0  0  0  0  0  0  0  0  0  0
   11.0962    9.3293   23.5072 C   0  0  0  0  0  0  0  0  0  0  0  0
    5.1273    7.8529   23.6208 N   0  0  0  0  0  0  0  0  0  0  0  0
    9.7552    9.2338   23.0171 N   0  0  0  0  0  0  0  0  0  0  0  0
   11.1797    6.7591   21.3326 N   0  0  0  0  0  0  0  0  0  0  0  0
   11.7728    8.0337   23.7267 C   0  0  0  0  0  0  0  0  0  0  0  0
    7.1194    8.3344   24.6775 C   0  0  0  0  0  0  0  0  0  0  0  0
    8.4311    4.7963   22.0500 C   0  0  0  0  0  0  0  0  0  0  0  0
    8.7393   10.8706   24.1871 O   0  0  0  0  0  0  0  0  0  0  0  0
    9.3093    3.8166   21.6712 C   0  0  0  0  0  0  0  0  0  0  0  0
  1  5  1  0
  1 15  4  0
  1 22  4  0
  2 20  1  0
  2 24  1  0
  3  6  4  0
  3 27  4  0
  4 22  4  0
  4 26  4  0
  6  7  4  0
  6 13  1  0
  7 19  4  0
  8 18  1  0
  8 23  1  0
  8 28  2  0
  9 17  1  0
  9 24  1  0
 10 11  1  0
 10 24  1  0
 11 23  1  0
 12 14  4  0
 12 16  4  0
 14 19  4  0
 15 18  4  0
 16 20  4  0
 17 25  1  0
 18 26  4  0
 19 29  4  0
 20 29  4  0
 21 23  1  0
 21 25  1  0
 27 29  4  0
M  END
$$$$

 Created by Python create_sdf_string function

 29 32  0  0  0  0  0  0  0  0999 V2000
    5.4450    8.7154   22.6662 C   0  0  0  0  0  0  0  0  0  0  0  0
   10.9154    5.4574   20.5483 C   0  0  0  0  0  0  0  0  0  0  0  0
    7.2709    4.5089   22.7542 C   0  0  0  0  0  0  0  0  0  0  0  0
    5.9698    7.6329   24.6581 C   0  0  0  0  0  0  0  0  0  0  0  0
    4.5542    8.9057   21.7104 O   0  0  0  0  0  0  0  0  0  0  0  0
    6.9895    3.2085   23.0690 C   0  0  0  0  0  0  0  0  0  0  0  0
    7.8391    2.2253   22.7260 N   0  0  0  0  0  0  0  0  0  0  0  0
    8.6968    9.8373   23.6359 C   0  0  0  0  0  0  0  0  0  0  0  0
   12.5135    6.5957   21.8396 C   0  0  0  0  0  0  0  0  0  0  0  0
   10.9406    8.2330   21.1350 C   0  0  0  0  0  0  0  0  0  0  0  0
    9.6648    8.5956   21.7310 C   0  0  0  0  0  0  0  0  0  0  0  0
   10.8829    1.7153   20.9865 C   0  0  0  0  0  0  0  0  0  0  0  0
    5.7768    2.8533   23.7910 C   0  0  0  0  0  0  0  0  0  0  0  0
    9.7977    1.4791   21.6912 N   0  0  0  0  0  0  0  0  0  0  0  0
    6.5976    9.3401   22.6478 N   0  0  0  0  0  0  0  0  0  0  0  0
   11.2031    3.0042   20.6246 C   0  0  0  0  0  0  0  0  0  0  0  0
   12.8688    7.7370   22.7287 C   0  0  0  0  0  0  0  0  0  0  0  0
    7.4487    9.1361   23.6506 C   0  0  0  0  0  0  0  0  0  0  0  0
    8.9772    2.5025   22.0273 C   0  0  0  0  0  0  0  0  0  0  0  0
   10.4859    4.0901   20.9730 C   0  0  0  0  0  0  0  0  0  0  0  0
   11.0962    9.3293   23.5072 C   0  0  0  0  0  0  0  0  0  0  0  0
    5.1273    7.8529   23.6208 N   0  0  0  0  0  0  0  0  0  0  0  0
    9.7552    9.2338   23.0171 N   0  0  0  0  0  0  0  0  0  0  0  0
   11.1797    6.7591   21.3326 N   0  0  0  0  0  0  0  0  0  0  0  0
   11.7728    8.0337   23.7267 C   0  0  0  0  0  0  0  0  0  0  0  0
    7.1194    8.3344   24.6775 C   0  0  0  0  0  0  0  0  0  0  0  0
    8.4311    4.7963   22.0500 C   0  0  0  0  0  0  0  0  0  0  0  0
    8.7393   10.8706   24.1871 O   0  0  0  0  0  0  0  0  0  0  0  0
    9.3093    3.8166   21.6712 C   0  0  0  0  0  0  0  0  0  0  0  0
  1  5  1  0
  1 15  4  0
  1 22  4  0
  2 20  1  0
  2 24  1  0
  3  6  4  0
  3 27  4  0
  4 22  4  0
  4 26  4  0
  6  7  4  0
  6 13  1  0
  7 19  4  0
  8 18  1  0
  8 23  1  0
  8 28  2  0
  9 17  1  0
  9 24  1  0
 10 11  1  0
 10 24  1  0
 11 23  1  0
 12 14  4  0
 12 16  4  0
 14 19  4  0
 15 18  4  0
 16 20  4  0
 17 25  1  0
 18 26  4  0
 19 29  4  0
 20 29  4  0
 21 23  1  0
 21 25  1  0
 27 29  4  0
M  END
$$$$

 Created by Python create_sdf_string function

 29 32  0  0  0  0  0  0  0  0999 V2000
    5.4450    8.7154   22.6662 C   0  0  0  0  0  0  0  0  0  0  0  0
   10.9154    5.4574   20.5483 C   0  0  0  0  0  0  0  0  0  0  0  0
    7.2709    4.5089   22.7542 C   0  0  0  0  0  0  0  0  0  0  0  0
    5.9698    7.6329   24.6581 C   0  0  0  0  0  0  0  0  0  0  0  0
    4.5542    8.9057   21.7104 O   0  0  0  0  0  0  0  0  0  0  0  0
    6.9895    3.2085   23.0690 C   0  0  0  0  0  0  0  0  0  0  0  0
    7.8391    2.2253   22.7260 N   0  0  0  0  0  0  0  0  0  0  0  0
    8.6968    9.8373   23.6359 C   0  0  0  0  0  0  0  0  0  0  0  0
   12.5135    6.5957   21.8396 C   0  0  0  0  0  0  0  0  0  0  0  0
   10.9406    8.2330   21.1350 C   0  0  0  0  0  0  0  0  0  0  0  0
    9.6648    8.5956   21.7310 C   0  0  0  0  0  0  0  0  0  0  0  0
   10.8829    1.7153   20.9865 C   0  0  0  0  0  0  0  0  0  0  0  0
    5.7768    2.8533   23.7910 C   0  0  0  0  0  0  0  0  0  0  0  0
    9.7977    1.4791   21.6912 N   0  0  0  0  0  0  0  0  0  0  0  0
    6.5976    9.3401   22.6478 N   0  0  0  0  0  0  0  0  0  0  0  0
   11.2031    3.0042   20.6246 C   0  0  0  0  0  0  0  0  0  0  0  0
   12.8688    7.7370   22.7287 C   0  0  0  0  0  0  0  0  0  0  0  0
    7.4487    9.1361   23.6506 C   0  0  0  0  0  0  0  0  0  0  0  0
    8.9772    2.5025   22.0273 C   0  0  0  0  0  0  0  0  0  0  0  0
   10.4859    4.0901   20.9730 C   0  0  0  0  0  0  0  0  0  0  0  0
   11.0962    9.3293   23.5072 C   0  0  0  0  0  0  0  0  0  0  0  0
    5.1273    7.8529   23.6208 N   0  0  0  0  0  0  0  0  0  0  0  0
    9.7552    9.2338   23.0171 N   0  0  0  0  0  0  0  0  0  0  0  0
   11.1797    6.7591   21.3326 N   0  0  0  0  0  0  0  0  0  0  0  0
   11.7728    8.0337   23.7267 C   0  0  0  0  0  0  0  0  0  0  0  0
    7.1194    8.3344   24.6775 C   0  0  0  0  0  0  0  0  0  0  0  0
    8.4311    4.7963   22.0500 C   0  0  0  0  0  0  0  0  0  0  0  0
    8.7393   10.8706   24.1871 O   0  0  0  0  0  0  0  0  0  0  0  0
    9.3093    3.8166   21.6712 C   0  0  0  0  0  0  0  0  0  0  0  0
  1  5  1  0
  1 15  4  0
  1 22  4  0
  2 20  1  0
  2 24  1  0
  3  6  4  0
  3 27  4  0
  4 22  4  0
  4 26  4  0
  6  7  4  0
  6 13  1  0
  7 19  4  0
  8 18  1  0
  8 23  1  0
  8 28  2  0
  9 17  1  0
  9 24  1  0
 10 11  1  0
 10 24  1  0
 11 23  1  0
 12 14  4  0
 12 16  4  0
 14 19  4  0
 15 18  4  0
 16 20  4  0
 17 25  1  0
 18 26  4  0
 19 29  4  0
 20 29  4  0
 21 23  1  0
 21 25  1  0
 27 29  4  0
M  END
$$$$

 Created by Python create_sdf_string function

 29 32  0  0  0  0  0  0  0  0999 V2000
    5.4450    8.7154   22.6662 C   0  0  0  0  0  0  0  0  0  0  0  0
   10.9154    5.4574   20.5483 C   0  0  0  0  0  0  0  0  0  0  0  0
    7.2709    4.5089   22.7542 C   0  0  0  0  0  0  0  0  0  0  0  0
    5.9698    7.6329   24.6581 C   0  0  0  0  0  0  0  0  0  0  0  0
    4.5542    8.9057   21.7104 O   0  0  0  0  0  0  0  0  0  0  0  0
    6.9895    3.2085   23.0690 C   0  0  0  0  0  0  0  0  0  0  0  0
    7.8391    2.2253   22.7260 N   0  0  0  0  0  0  0  0  0  0  0  0
    8.6968    9.8373   23.6359 C   0  0  0  0  0  0  0  0  0  0  0  0
   12.5135    6.5957   21.8396 C   0  0  0  0  0  0  0  0  0  0  0  0
   10.9406    8.2330   21.1350 C   0  0  0  0  0  0  0  0  0  0  0  0
    9.6648    8.5956   21.7310 C   0  0  0  0  0  0  0  0  0  0  0  0
   10.8829    1.7153   20.9865 C   0  0  0  0  0  0  0  0  0  0  0  0
    5.7768    2.8533   23.7910 C   0  0  0  0  0  0  0  0  0  0  0  0
    9.7977    1.4791   21.6912 N   0  0  0  0  0  0  0  0  0  0  0  0
    6.5976    9.3401   22.6478 N   0  0  0  0  0  0  0  0  0  0  0  0
   11.2031    3.0042   20.6246 C   0  0  0  0  0  0  0  0  0  0  0  0
   12.8688    7.7370   22.7287 C   0  0  0  0  0  0  0  0  0  0  0  0
    7.4487    9.1361   23.6506 C   0  0  0  0  0  0  0  0  0  0  0  0
    8.9772    2.5025   22.0273 C   0  0  0  0  0  0  0  0  0  0  0  0
   10.4859    4.0901   20.9730 C   0  0  0  0  0  0  0  0  0  0  0  0
   11.0962    9.3293   23.5072 C   0  0  0  0  0  0  0  0  0  0  0  0
    5.1273    7.8529   23.6208 N   0  0  0  0  0  0  0  0  0  0  0  0
    9.7552    9.2338   23.0171 N   0  0  0  0  0  0  0  0  0  0  0  0
   11.1797    6.7591   21.3326 N   0  0  0  0  0  0  0  0  0  0  0  0
   11.7728    8.0337   23.7267 C   0  0  0  0  0  0  0  0  0  0  0  0
    7.1194    8.3344   24.6775 C   0  0  0  0  0  0  0  0  0  0  0  0
    8.4311    4.7963   22.0500 C   0  0  0  0  0  0  0  0  0  0  0  0
    8.7393   10.8706   24.1871 O   0  0  0  0  0  0  0  0  0  0  0  0
    9.3093    3.8166   21.6712 C   0  0  0  0  0  0  0  0  0  0  0  0
  1  5  1  0
  1 15  4  0
  1 22  4  0
  2 20  1  0
  2 24  1  0
  3  6  4  0
  3 27  4  0
  4 22  4  0
  4 26  4  0
  6  7  4  0
  6 13  1  0
  7 19  4  0
  8 18  1  0
  8 23  1  0
  8 28  2  0
  9 17  1  0
  9 24  1  0
 10 11  1  0
 10 24  1  0
 11 23  1  0
 12 14  4  0
 12 16  4  0
 14 19  4  0
 15 18  4  0
 16 20  4  0
 17 25  1  0
 18 26  4  0
 19 29  4  0
 20 29  4  0
 21 23  1  0
 21 25  1  0
 27 29  4  0
M  END
$$$$

 Created by Python create_sdf_string function

 29 32  0  0  0  0  0  0  0  0999 V2000
    5.4450    8.7154   22.6662 C   0  0  0  0  0  0  0  0  0  0  0  0
   10.9154    5.4574   20.5483 C   0  0  0  0  0  0  0  0  0  0  0  0
    7.2709    4.5089   22.7542 C   0  0  0  0  0  0  0  0  0  0  0  0
    5.9698    7.6329   24.6581 C   0  0  0  0  0  0  0  0  0  0  0  0
    4.5542    8.9057   21.7104 O   0  0  0  0  0  0  0  0  0  0  0  0
    6.9895    3.2085   23.0690 C   0  0  0  0  0  0  0  0  0  0  0  0
    7.8391    2.2253   22.7260 N   0  0  0  0  0  0  0  0  0  0  0  0
    8.6968    9.8373   23.6359 C   0  0  0  0  0  0  0  0  0  0  0  0
   12.5135    6.5957   21.8396 C   0  0  0  0  0  0  0  0  0  0  0  0
   10.9406    8.2330   21.1350 C   0  0  0  0  0  0  0  0  0  0  0  0
    9.6648    8.5956   21.7310 C   0  0  0  0  0  0  0  0  0  0  0  0
   10.8829    1.7153   20.9865 C   0  0  0  0  0  0  0  0  0  0  0  0
    5.7768    2.8533   23.7910 C   0  0  0  0  0  0  0  0  0  0  0  0
    9.7977    1.4791   21.6912 N   0  0  0  0  0  0  0  0  0  0  0  0
    6.5976    9.3401   22.6478 N   0  0  0  0  0  0  0  0  0  0  0  0
   11.2031    3.0042   20.6246 C   0  0  0  0  0  0  0  0  0  0  0  0
   12.8688    7.7370   22.7287 C   0  0  0  0  0  0  0  0  0  0  0  0
    7.4487    9.1361   23.6506 C   0  0  0  0  0  0  0  0  0  0  0  0
    8.9772    2.5025   22.0273 C   0  0  0  0  0  0  0  0  0  0  0  0
   10.4859    4.0901   20.9730 C   0  0  0  0  0  0  0  0  0  0  0  0
   11.0962    9.3293   23.5072 C   0  0  0  0  0  0  0  0  0  0  0  0
    5.1273    7.8529   23.6208 N   0  0  0  0  0  0  0  0  0  0  0  0
    9.7552    9.2338   23.0171 N   0  0  0  0  0  0  0  0  0  0  0  0
   11.1797    6.7591   21.3326 N   0  0  0  0  0  0  0  0  0  0  0  0
   11.7728    8.0337   23.7267 C   0  0  0  0  0  0  0  0  0  0  0  0
    7.1194    8.3344   24.6775 C   0  0  0  0  0  0  0  0  0  0  0  0
    8.4311    4.7963   22.0500 C   0  0  0  0  0  0  0  0  0  0  0  0
    8.7393   10.8706   24.1871 O   0  0  0  0  0  0  0  0  0  0  0  0
    9.3093    3.8166   21.6712 C   0  0  0  0  0  0  0  0  0  0  0  0
  1  5  1  0
  1 15  4  0
  1 22  4  0
  2 20  1  0
  2 24  1  0
  3  6  4  0
  3 27  4  0
  4 22  4  0
  4 26  4  0
  6  7  4  0
  6 13  1  0
  7 19  4  0
  8 18  1  0
  8 23  1  0
  8 28  2  0
  9 17  1  0
  9 24  1  0
 10 11  1  0
 10 24  1  0
 11 23  1  0
 12 14  4  0
 12 16  4  0
 14 19  4  0
 15 18  4  0
 16 20  4  0
 17 25  1  0
 18 26  4  0
 19 29  4  0
 20 29  4  0
 21 23  1  0
 21 25  1  0
 27 29  4  0
M  END
$$$$

 Created by Python create_sdf_string function

 29 32  0  0  0  0  0  0  0  0999 V2000
    5.4450    8.7154   22.6662 C   0  0  0  0  0  0  0  0  0  0  0  0
   10.9154    5.4574   20.5483 C   0  0  0  0  0  0  0  0  0  0  0  0
    7.2709    4.5089   22.7542 C   0  0  0  0  0  0  0  0  0  0  0  0
    5.9698    7.6329   24.6581 C   0  0  0  0  0  0  0  0  0  0  0  0
    4.5542    8.9057   21.7104 O   0  0  0  0  0  0  0  0  0  0  0  0
    6.9895    3.2085   23.0690 C   0  0  0  0  0  0  0  0  0  0  0  0
    7.8391    2.2253   22.7260 N   0  0  0  0  0  0  0  0  0  0  0  0
    8.6968    9.8373   23.6359 C   0  0  0  0  0  0  0  0  0  0  0  0
   12.5135    6.5957   21.8396 C   0  0  0  0  0  0  0  0  0  0  0  0
   10.9406    8.2330   21.1350 C   0  0  0  0  0  0  0  0  0  0  0  0
    9.6648    8.5956   21.7310 C   0  0  0  0  0  0  0  0  0  0  0  0
   10.8829    1.7153   20.9865 C   0  0  0  0  0  0  0  0  0  0  0  0
    5.7768    2.8533   23.7910 C   0  0  0  0  0  0  0  0  0  0  0  0
    9.7977    1.4791   21.6912 N   0  0  0  0  0  0  0  0  0  0  0  0
    6.5976    9.3401   22.6478 N   0  0  0  0  0  0  0  0  0  0  0  0
   11.2031    3.0042   20.6246 C   0  0  0  0  0  0  0  0  0  0  0  0
   12.8688    7.7370   22.7287 C   0  0  0  0  0  0  0  0  0  0  0  0
    7.4487    9.1361   23.6506 C   0  0  0  0  0  0  0  0  0  0  0  0
    8.9772    2.5025   22.0273 C   0  0  0  0  0  0  0  0  0  0  0  0
   10.4859    4.0901   20.9730 C   0  0  0  0  0  0  0  0  0  0  0  0
   11.0962    9.3293   23.5072 C   0  0  0  0  0  0  0  0  0  0  0  0
    5.1273    7.8529   23.6208 N   0  0  0  0  0  0  0  0  0  0  0  0
    9.7552    9.2338   23.0171 N   0  0  0  0  0  0  0  0  0  0  0  0
   11.1797    6.7591   21.3326 N   0  0  0  0  0  0  0  0  0  0  0  0
   11.7728    8.0337   23.7267 C   0  0  0  0  0  0  0  0  0  0  0  0
    7.1194    8.3344   24.6775 C   0  0  0  0  0  0  0  0  0  0  0  0
    8.4311    4.7963   22.0500 C   0  0  0  0  0  0  0  0  0  0  0  0
    8.7393   10.8706   24.1871 O   0  0  0  0  0  0  0  0  0  0  0  0
    9.3093    3.8166   21.6712 C   0  0  0  0  0  0  0  0  0  0  0  0
  1  5  1  0
  1 15  4  0
  1 22  4  0
  2 20  1  0
  2 24  1  0
  3  6  4  0
  3 27  4  0
  4 22  4  0
  4 26  4  0
  6  7  4  0
  6 13  1  0
  7 19  4  0
  8 18  1  0
  8 23  1  0
  8 28  2  0
  9 17  1  0
  9 24  1  0
 10 11  1  0
 10 24  1  0
 11 23  1  0
 12 14  4  0
 12 16  4  0
 14 19  4  0
 15 18  4  0
 16 20  4  0
 17 25  1  0
 18 26  4  0
 19 29  4  0
 20 29  4  0
 21 23  1  0
 21 25  1  0
 27 29  4  0
M  END
$$$$

 Created by Python create_sdf_string function

 29 32  0  0  0  0  0  0  0  0999 V2000
    5.4450    8.7154   22.6662 C   0  0  0  0  0  0  0  0  0  0  0  0
   10.9154    5.4574   20.5483 C   0  0  0  0  0  0  0  0  0  0  0  0
    7.2709    4.5089   22.7542 C   0  0  0  0  0  0  0  0  0  0  0  0
    5.9698    7.6329   24.6581 C   0  0  0  0  0  0  0  0  0  0  0  0
    4.5542    8.9057   21.7104 O   0  0  0  0  0  0  0  0  0  0  0  0
    6.9895    3.2085   23.0690 C   0  0  0  0  0  0  0  0  0  0  0  0
    7.8391    2.2253   22.7260 N   0  0  0  0  0  0  0  0  0  0  0  0
    8.6968    9.8373   23.6359 C   0  0  0  0  0  0  0  0  0  0  0  0
   12.5135    6.5957   21.8396 C   0  0  0  0  0  0  0  0  0  0  0  0
   10.9406    8.2330   21.1350 C   0  0  0  0  0  0  0  0  0  0  0  0
    9.6648    8.5956   21.7310 C   0  0  0  0  0  0  0  0  0  0  0  0
   10.8829    1.7153   20.9865 C   0  0  0  0  0  0  0  0  0  0  0  0
    5.7768    2.8533   23.7910 C   0  0  0  0  0  0  0  0  0  0  0  0
    9.7977    1.4791   21.6912 N   0  0  0  0  0  0  0  0  0  0  0  0
    6.5976    9.3401   22.6478 N   0  0  0  0  0  0  0  0  0  0  0  0
   11.2031    3.0042   20.6246 C   0  0  0  0  0  0  0  0  0  0  0  0
   12.8688    7.7370   22.7287 C   0  0  0  0  0  0  0  0  0  0  0  0
    7.4487    9.1361   23.6506 C   0  0  0  0  0  0  0  0  0  0  0  0
    8.9772    2.5025   22.0273 C   0  0  0  0  0  0  0  0  0  0  0  0
   10.4859    4.0901   20.9730 C   0  0  0  0  0  0  0  0  0  0  0  0
   11.0962    9.3293   23.5072 C   0  0  0  0  0  0  0  0  0  0  0  0
    5.1273    7.8529   23.6208 N   0  0  0  0  0  0  0  0  0  0  0  0
    9.7552    9.2338   23.0171 N   0  0  0  0  0  0  0  0  0  0  0  0
   11.1797    6.7591   21.3326 N   0  0  0  0  0  0  0  0  0  0  0  0
   11.7728    8.0337   23.7267 C   0  0  0  0  0  0  0  0  0  0  0  0
    7.1194    8.3344   24.6775 C   0  0  0  0  0  0  0  0  0  0  0  0
    8.4311    4.7963   22.0500 C   0  0  0  0  0  0  0  0  0  0  0  0
    8.7393   10.8706   24.1871 O   0  0  0  0  0  0  0  0  0  0  0  0
    9.3093    3.8166   21.6712 C   0  0  0  0  0  0  0  0  0  0  0  0
  1  5  1  0
  1 15  4  0
  1 22  4  0
  2 20  1  0
  2 24  1  0
  3  6  4  0
  3 27  4  0
  4 22  4  0
  4 26  4  0
  6  7  4  0
  6 13  1  0
  7 19  4  0
  8 18  1  0
  8 23  1  0
  8 28  2  0
  9 17  1  0
  9 24  1  0
 10 11  1  0
 10 24  1  0
 11 23  1  0
 12 14  4  0
 12 16  4  0
 14 19  4  0
 15 18  4  0
 16 20  4  0
 17 25  1  0
 18 26  4  0
 19 29  4  0
 20 29  4  0
 21 23  1  0
 21 25  1  0
 27 29  4  0
M  END
$$$$

 Created by Python create_sdf_string function

 29 32  0  0  0  0  0  0  0  0999 V2000
    5.4450    8.7154   22.6662 C   0  0  0  0  0  0  0  0  0  0  0  0
   10.9154    5.4574   20.5483 C   0  0  0  0  0  0  0  0  0  0  0  0
    7.2709    4.5089   22.7542 C   0  0  0  0  0  0  0  0  0  0  0  0
    5.9698    7.6329   24.6581 C   0  0  0  0  0  0  0  0  0  0  0  0
    4.5542    8.9057   21.7104 O   0  0  0  0  0  0  0  0  0  0  0  0
    6.9895    3.2085   23.0690 C   0  0  0  0  0  0  0  0  0  0  0  0
    7.8391    2.2253   22.7260 N   0  0  0  0  0  0  0  0  0  0  0  0
    8.6968    9.8373   23.6359 C   0  0  0  0  0  0  0  0  0  0  0  0
   12.5135    6.5957   21.8396 C   0  0  0  0  0  0  0  0  0  0  0  0
   10.9406    8.2330   21.1350 C   0  0  0  0  0  0  0  0  0  0  0  0
    9.6648    8.5956   21.7310 C   0  0  0  0  0  0  0  0  0  0  0  0
   10.8829    1.7153   20.9865 C   0  0  0  0  0  0  0  0  0  0  0  0
    5.7768    2.8533   23.7910 C   0  0  0  0  0  0  0  0  0  0  0  0
    9.7977    1.4791   21.6912 N   0  0  0  0  0  0  0  0  0  0  0  0
    6.5976    9.3401   22.6478 N   0  0  0  0  0  0  0  0  0  0  0  0
   11.2031    3.0042   20.6246 C   0  0  0  0  0  0  0  0  0  0  0  0
   12.8688    7.7370   22.7287 C   0  0  0  0  0  0  0  0  0  0  0  0
    7.4487    9.1361   23.6506 C   0  0  0  0  0  0  0  0  0  0  0  0
    8.9772    2.5025   22.0273 C   0  0  0  0  0  0  0  0  0  0  0  0
   10.4859    4.0901   20.9730 C   0  0  0  0  0  0  0  0  0  0  0  0
   11.0962    9.3293   23.5072 C   0  0  0  0  0  0  0  0  0  0  0  0
    5.1273    7.8529   23.6208 N   0  0  0  0  0  0  0  0  0  0  0  0
    9.7552    9.2338   23.0171 N   0  0  0  0  0  0  0  0  0  0  0  0
   11.1797    6.7591   21.3326 N   0  0  0  0  0  0  0  0  0  0  0  0
   11.7728    8.0337   23.7267 C   0  0  0  0  0  0  0  0  0  0  0  0
    7.1194    8.3344   24.6775 C   0  0  0  0  0  0  0  0  0  0  0  0
    8.4311    4.7963   22.0500 C   0  0  0  0  0  0  0  0  0  0  0  0
    8.7393   10.8706   24.1871 O   0  0  0  0  0  0  0  0  0  0  0  0
    9.3093    3.8166   21.6712 C   0  0  0  0  0  0  0  0  0  0  0  0
  1  5  1  0
  1 15  4  0
  1 22  4  0
  2 20  1  0
  2 24  1  0
  3  6  4  0
  3 27  4  0
  4 22  4  0
  4 26  4  0
  6  7  4  0
  6 13  1  0
  7 19  4  0
  8 18  1  0
  8 23  1  0
  8 28  2  0
  9 17  1  0
  9 24  1  0
 10 11  1  0
 10 24  1  0
 11 23  1  0
 12 14  4  0
 12 16  4  0
 14 19  4  0
 15 18  4  0
 16 20  4  0
 17 25  1  0
 18 26  4  0
 19 29  4  0
 20 29  4  0
 21 23  1  0
 21 25  1  0
 27 29  4  0
M  END
$$$$

 Created by Python create_sdf_string function

 29 32  0  0  0  0  0  0  0  0999 V2000
    5.4450    8.7154   22.6662 C   0  0  0  0  0  0  0  0  0  0  0  0
   10.9154    5.4574   20.5483 C   0  0  0  0  0  0  0  0  0  0  0  0
    7.2709    4.5089   22.7542 C   0  0  0  0  0  0  0  0  0  0  0  0
    5.9698    7.6329   24.6581 C   0  0  0  0  0  0  0  0  0  0  0  0
    4.5542    8.9057   21.7104 O   0  0  0  0  0  0  0  0  0  0  0  0
    6.9895    3.2085   23.0690 C   0  0  0  0  0  0  0  0  0  0  0  0
    7.8391    2.2253   22.7260 N   0  0  0  0  0  0  0  0  0  0  0  0
    8.6968    9.8373   23.6359 C   0  0  0  0  0  0  0  0  0  0  0  0
   12.5135    6.5957   21.8396 C   0  0  0  0  0  0  0  0  0  0  0  0
   10.9406    8.2330   21.1350 C   0  0  0  0  0  0  0  0  0  0  0  0
    9.6648    8.5956   21.7310 C   0  0  0  0  0  0  0  0  0  0  0  0
   10.8829    1.7153   20.9865 C   0  0  0  0  0  0  0  0  0  0  0  0
    5.7768    2.8533   23.7910 C   0  0  0  0  0  0  0  0  0  0  0  0
    9.7977    1.4791   21.6912 N   0  0  0  0  0  0  0  0  0  0  0  0
    6.5976    9.3401   22.6478 N   0  0  0  0  0  0  0  0  0  0  0  0
   11.2031    3.0042   20.6246 C   0  0  0  0  0  0  0  0  0  0  0  0
   12.8688    7.7370   22.7287 C   0  0  0  0  0  0  0  0  0  0  0  0
    7.4487    9.1361   23.6506 C   0  0  0  0  0  0  0  0  0  0  0  0
    8.9772    2.5025   22.0273 C   0  0  0  0  0  0  0  0  0  0  0  0
   10.4859    4.0901   20.9730 C   0  0  0  0  0  0  0  0  0  0  0  0
   11.0962    9.3293   23.5072 C   0  0  0  0  0  0  0  0  0  0  0  0
    5.1273    7.8529   23.6208 N   0  0  0  0  0  0  0  0  0  0  0  0
    9.7552    9.2338   23.0171 N   0  0  0  0  0  0  0  0  0  0  0  0
   11.1797    6.7591   21.3326 N   0  0  0  0  0  0  0  0  0  0  0  0
   11.7728    8.0337   23.7267 C   0  0  0  0  0  0  0  0  0  0  0  0
    7.1194    8.3344   24.6775 C   0  0  0  0  0  0  0  0  0  0  0  0
    8.4311    4.7963   22.0500 C   0  0  0  0  0  0  0  0  0  0  0  0
    8.7393   10.8706   24.1871 O   0  0  0  0  0  0  0  0  0  0  0  0
    9.3093    3.8166   21.6712 C   0  0  0  0  0  0  0  0  0  0  0  0
  1  5  1  0
  1 15  4  0
  1 22  4  0
  2 20  1  0
  2 24  1  0
  3  6  4  0
  3 27  4  0
  4 22  4  0
  4 26  4  0
  6  7  4  0
  6 13  1  0
  7 19  4  0
  8 18  1  0
  8 23  1  0
  8 28  2  0
  9 17  1  0
  9 24  1  0
 10 11  1  0
 10 24  1  0
 11 23  1  0
 12 14  4  0
 12 16  4  0
 14 19  4  0
 15 18  4  0
 16 20  4  0
 17 25  1  0
 18 26  4  0
 19 29  4  0
 20 29  4  0
 21 23  1  0
 21 25  1  0
 27 29  4  0
M  END
$$$$

 Created by Python create_sdf_string function

 29 32  0  0  0  0  0  0  0  0999 V2000
    5.4450    8.7154   22.6662 C   0  0  0  0  0  0  0  0  0  0  0  0
   10.9154    5.4574   20.5483 C   0  0  0  0  0  0  0  0  0  0  0  0
    7.2709    4.5089   22.7542 C   0  0  0  0  0  0  0  0  0  0  0  0
    5.9698    7.6329   24.6581 C   0  0  0  0  0  0  0  0  0  0  0  0
    4.5542    8.9057   21.7104 O   0  0  0  0  0  0  0  0  0  0  0  0
    6.9895    3.2085   23.0690 C   0  0  0  0  0  0  0  0  0  0  0  0
    7.8391    2.2253   22.7260 N   0  0  0  0  0  0  0  0  0  0  0  0
    8.6968    9.8373   23.6359 C   0  0  0  0  0  0  0  0  0  0  0  0
   12.5135    6.5957   21.8396 C   0  0  0  0  0  0  0  0  0  0  0  0
   10.9406    8.2330   21.1350 C   0  0  0  0  0  0  0  0  0  0  0  0
    9.6648    8.5956   21.7310 C   0  0  0  0  0  0  0  0  0  0  0  0
   10.8829    1.7153   20.9865 C   0  0  0  0  0  0  0  0  0  0  0  0
    5.7768    2.8533   23.7910 C   0  0  0  0  0  0  0  0  0  0  0  0
    9.7977    1.4791   21.6912 N   0  0  0  0  0  0  0  0  0  0  0  0
    6.5976    9.3401   22.6478 N   0  0  0  0  0  0  0  0  0  0  0  0
   11.2031    3.0042   20.6246 C   0  0  0  0  0  0  0  0  0  0  0  0
   12.8688    7.7370   22.7287 C   0  0  0  0  0  0  0  0  0  0  0  0
    7.4487    9.1361   23.6506 C   0  0  0  0  0  0  0  0  0  0  0  0
    8.9772    2.5025   22.0273 C   0  0  0  0  0  0  0  0  0  0  0  0
   10.4859    4.0901   20.9730 C   0  0  0  0  0  0  0  0  0  0  0  0
   11.0962    9.3293   23.5072 C   0  0  0  0  0  0  0  0  0  0  0  0
    5.1273    7.8529   23.6208 N   0  0  0  0  0  0  0  0  0  0  0  0
    9.7552    9.2338   23.0171 N   0  0  0  0  0  0  0  0  0  0  0  0
   11.1797    6.7591   21.3326 N   0  0  0  0  0  0  0  0  0  0  0  0
   11.7728    8.0337   23.7267 C   0  0  0  0  0  0  0  0  0  0  0  0
    7.1194    8.3344   24.6775 C   0  0  0  0  0  0  0  0  0  0  0  0
    8.4311    4.7963   22.0500 C   0  0  0  0  0  0  0  0  0  0  0  0
    8.7393   10.8706   24.1871 O   0  0  0  0  0  0  0  0  0  0  0  0
    9.3093    3.8166   21.6712 C   0  0  0  0  0  0  0  0  0  0  0  0
  1  5  1  0
  1 15  4  0
  1 22  4  0
  2 20  1  0
  2 24  1  0
  3  6  4  0
  3 27  4  0
  4 22  4  0
  4 26  4  0
  6  7  4  0
  6 13  1  0
  7 19  4  0
  8 18  1  0
  8 23  1  0
  8 28  2  0
  9 17  1  0
  9 24  1  0
 10 11  1  0
 10 24  1  0
 11 23  1  0
 12 14  4  0
 12 16  4  0
 14 19  4  0
 15 18  4  0
 16 20  4  0
 17 25  1  0
 18 26  4  0
 19 29  4  0
 20 29  4  0
 21 23  1  0
 21 25  1  0
 27 29  4  0
M  END
$$$$

 Created by Python create_sdf_string function

 29 32  0  0  0  0  0  0  0  0999 V2000
    5.4450    8.7154   22.6662 C   0  0  0  0  0  0  0  0  0  0  0  0
   10.9154    5.4574   20.5483 C   0  0  0  0  0  0  0  0  0  0  0  0
    7.2709    4.5089   22.7542 C   0  0  0  0  0  0  0  0  0  0  0  0
    5.9698    7.6329   24.6581 C   0  0  0  0  0  0  0  0  0  0  0  0
    4.5542    8.9057   21.7104 O   0  0  0  0  0  0  0  0  0  0  0  0
    6.9895    3.2085   23.0690 C   0  0  0  0  0  0  0  0  0  0  0  0
    7.8391    2.2253   22.7260 N   0  0  0  0  0  0  0  0  0  0  0  0
    8.6968    9.8373   23.6359 C   0  0  0  0  0  0  0  0  0  0  0  0
   12.5135    6.5957   21.8396 C   0  0  0  0  0  0  0  0  0  0  0  0
   10.9406    8.2330   21.1350 C   0  0  0  0  0  0  0  0  0  0  0  0
    9.6648    8.5956   21.7310 C   0  0  0  0  0  0  0  0  0  0  0  0
   10.8829    1.7153   20.9865 C   0  0  0  0  0  0  0  0  0  0  0  0
    5.7768    2.8533   23.7910 C   0  0  0  0  0  0  0  0  0  0  0  0
    9.7977    1.4791   21.6912 N   0  0  0  0  0  0  0  0  0  0  0  0
    6.5976    9.3401   22.6478 N   0  0  0  0  0  0  0  0  0  0  0  0
   11.2031    3.0042   20.6246 C   0  0  0  0  0  0  0  0  0  0  0  0
   12.8688    7.7370   22.7287 C   0  0  0  0  0  0  0  0  0  0  0  0
    7.4487    9.1361   23.6506 C   0  0  0  0  0  0  0  0  0  0  0  0
    8.9772    2.5025   22.0273 C   0  0  0  0  0  0  0  0  0  0  0  0
   10.4859    4.0901   20.9730 C   0  0  0  0  0  0  0  0  0  0  0  0
   11.0962    9.3293   23.5072 C   0  0  0  0  0  0  0  0  0  0  0  0
    5.1273    7.8529   23.6208 N   0  0  0  0  0  0  0  0  0  0  0  0
    9.7552    9.2338   23.0171 N   0  0  0  0  0  0  0  0  0  0  0  0
   11.1797    6.7591   21.3326 N   0  0  0  0  0  0  0  0  0  0  0  0
   11.7728    8.0337   23.7267 C   0  0  0  0  0  0  0  0  0  0  0  0
    7.1194    8.3344   24.6775 C   0  0  0  0  0  0  0  0  0  0  0  0
    8.4311    4.7963   22.0500 C   0  0  0  0  0  0  0  0  0  0  0  0
    8.7393   10.8706   24.1871 O   0  0  0  0  0  0  0  0  0  0  0  0
    9.3093    3.8166   21.6712 C   0  0  0  0  0  0  0  0  0  0  0  0
  1  5  1  0
  1 15  4  0
  1 22  4  0
  2 20  1  0
  2 24  1  0
  3  6  4  0
  3 27  4  0
  4 22  4  0
  4 26  4  0
  6  7  4  0
  6 13  1  0
  7 19  4  0
  8 18  1  0
  8 23  1  0
  8 28  2  0
  9 17  1  0
  9 24  1  0
 10 11  1  0
 10 24  1  0
 11 23  1  0
 12 14  4  0
 12 16  4  0
 14 19  4  0
 15 18  4  0
 16 20  4  0
 17 25  1  0
 18 26  4  0
 19 29  4  0
 20 29  4  0
 21 23  1  0
 21 25  1  0
 27 29  4  0
M  END
$$$$

 Created by Python create_sdf_string function

 29 32  0  0  0  0  0  0  0  0999 V2000
    5.4450    8.7154   22.6662 C   0  0  0  0  0  0  0  0  0  0  0  0
   10.9154    5.4574   20.5483 C   0  0  0  0  0  0  0  0  0  0  0  0
    7.2709    4.5089   22.7542 C   0  0  0  0  0  0  0  0  0  0  0  0
    5.9698    7.6329   24.6581 C   0  0  0  0  0  0  0  0  0  0  0  0
    4.5542    8.9057   21.7104 O   0  0  0  0  0  0  0  0  0  0  0  0
    6.9895    3.2085   23.0690 C   0  0  0  0  0  0  0  0  0  0  0  0
    7.8391    2.2253   22.7260 N   0  0  0  0  0  0  0  0  0  0  0  0
    8.6968    9.8373   23.6359 C   0  0  0  0  0  0  0  0  0  0  0  0
   12.5135    6.5957   21.8396 C   0  0  0  0  0  0  0  0  0  0  0  0
   10.9406    8.2330   21.1350 C   0  0  0  0  0  0  0  0  0  0  0  0
    9.6648    8.5956   21.7310 C   0  0  0  0  0  0  0  0  0  0  0  0
   10.8829    1.7153   20.9865 C   0  0  0  0  0  0  0  0  0  0  0  0
    5.7768    2.8533   23.7910 C   0  0  0  0  0  0  0  0  0  0  0  0
    9.7977    1.4791   21.6912 N   0  0  0  0  0  0  0  0  0  0  0  0
    6.5976    9.3401   22.6478 N   0  0  0  0  0  0  0  0  0  0  0  0
   11.2031    3.0042   20.6246 C   0  0  0  0  0  0  0  0  0  0  0  0
   12.8688    7.7370   22.7287 C   0  0  0  0  0  0  0  0  0  0  0  0
    7.4487    9.1361   23.6506 C   0  0  0  0  0  0  0  0  0  0  0  0
    8.9772    2.5025   22.0273 C   0  0  0  0  0  0  0  0  0  0  0  0
   10.4859    4.0901   20.9730 C   0  0  0  0  0  0  0  0  0  0  0  0
   11.0962    9.3293   23.5072 C   0  0  0  0  0  0  0  0  0  0  0  0
    5.1273    7.8529   23.6208 N   0  0  0  0  0  0  0  0  0  0  0  0
    9.7552    9.2338   23.0171 N   0  0  0  0  0  0  0  0  0  0  0  0
   11.1797    6.7591   21.3326 N   0  0  0  0  0  0  0  0  0  0  0  0
   11.7728    8.0337   23.7267 C   0  0  0  0  0  0  0  0  0  0  0  0
    7.1194    8.3344   24.6775 C   0  0  0  0  0  0  0  0  0  0  0  0
    8.4311    4.7963   22.0500 C   0  0  0  0  0  0  0  0  0  0  0  0
    8.7393   10.8706   24.1871 O   0  0  0  0  0  0  0  0  0  0  0  0
    9.3093    3.8166   21.6712 C   0  0  0  0  0  0  0  0  0  0  0  0
  1  5  1  0
  1 15  4  0
  1 22  4  0
  2 20  1  0
  2 24  1  0
  3  6  4  0
  3 27  4  0
  4 22  4  0
  4 26  4  0
  6  7  4  0
  6 13  1  0
  7 19  4  0
  8 18  1  0
  8 23  1  0
  8 28  2  0
  9 17  1  0
  9 24  1  0
 10 11  1  0
 10 24  1  0
 11 23  1  0
 12 14  4  0
 12 16  4  0
 14 19  4  0
 15 18  4  0
 16 20  4  0
 17 25  1  0
 18 26  4  0
 19 29  4  0
 20 29  4  0
 21 23  1  0
 21 25  1  0
 27 29  4  0
M  END
$$$$

 Created by Python create_sdf_string function

 29 32  0  0  0  0  0  0  0  0999 V2000
    5.4450    8.7154   22.6662 C   0  0  0  0  0  0  0  0  0  0  0  0
   10.9154    5.4574   20.5483 C   0  0  0  0  0  0  0  0  0  0  0  0
    7.2709    4.5089   22.7542 C   0  0  0  0  0  0  0  0  0  0  0  0
    5.9698    7.6329   24.6581 C   0  0  0  0  0  0  0  0  0  0  0  0
    4.5542    8.9057   21.7104 O   0  0  0  0  0  0  0  0  0  0  0  0
    6.9895    3.2085   23.0690 C   0  0  0  0  0  0  0  0  0  0  0  0
    7.8391    2.2253   22.7260 N   0  0  0  0  0  0  0  0  0  0  0  0
    8.6968    9.8373   23.6359 C   0  0  0  0  0  0  0  0  0  0  0  0
   12.5135    6.5957   21.8396 C   0  0  0  0  0  0  0  0  0  0  0  0
   10.9406    8.2330   21.1350 C   0  0  0  0  0  0  0  0  0  0  0  0
    9.6648    8.5956   21.7310 C   0  0  0  0  0  0  0  0  0  0  0  0
   10.8829    1.7153   20.9865 C   0  0  0  0  0  0  0  0  0  0  0  0
    5.7768    2.8533   23.7910 C   0  0  0  0  0  0  0  0  0  0  0  0
    9.7977    1.4791   21.6912 N   0  0  0  0  0  0  0  0  0  0  0  0
    6.5976    9.3401   22.6478 N   0  0  0  0  0  0  0  0  0  0  0  0
   11.2031    3.0042   20.6246 C   0  0  0  0  0  0  0  0  0  0  0  0
   12.8688    7.7370   22.7287 C   0  0  0  0  0  0  0  0  0  0  0  0
    7.4487    9.1361   23.6506 C   0  0  0  0  0  0  0  0  0  0  0  0
    8.9772    2.5025   22.0273 C   0  0  0  0  0  0  0  0  0  0  0  0
   10.4859    4.0901   20.9730 C   0  0  0  0  0  0  0  0  0  0  0  0
   11.0962    9.3293   23.5072 C   0  0  0  0  0  0  0  0  0  0  0  0
    5.1273    7.8529   23.6208 N   0  0  0  0  0  0  0  0  0  0  0  0
    9.7552    9.2338   23.0171 N   0  0  0  0  0  0  0  0  0  0  0  0
   11.1797    6.7591   21.3326 N   0  0  0  0  0  0  0  0  0  0  0  0
   11.7728    8.0337   23.7267 C   0  0  0  0  0  0  0  0  0  0  0  0
    7.1194    8.3344   24.6775 C   0  0  0  0  0  0  0  0  0  0  0  0
    8.4311    4.7963   22.0500 C   0  0  0  0  0  0  0  0  0  0  0  0
    8.7393   10.8706   24.1871 O   0  0  0  0  0  0  0  0  0  0  0  0
    9.3093    3.8166   21.6712 C   0  0  0  0  0  0  0  0  0  0  0  0
  1  5  1  0
  1 15  4  0
  1 22  4  0
  2 20  1  0
  2 24  1  0
  3  6  4  0
  3 27  4  0
  4 22  4  0
  4 26  4  0
  6  7  4  0
  6 13  1  0
  7 19  4  0
  8 18  1  0
  8 23  1  0
  8 28  2  0
  9 17  1  0
  9 24  1  0
 10 11  1  0
 10 24  1  0
 11 23  1  0
 12 14  4  0
 12 16  4  0
 14 19  4  0
 15 18  4  0
 16 20  4  0
 17 25  1  0
 18 26  4  0
 19 29  4  0
 20 29  4  0
 21 23  1  0
 21 25  1  0
 27 29  4  0
M  END
$$$$

 Created by Python create_sdf_string function

 29 32  0  0  0  0  0  0  0  0999 V2000
    5.4450    8.7154   22.6662 C   0  0  0  0  0  0  0  0  0  0  0  0
   10.9154    5.4574   20.5483 C   0  0  0  0  0  0  0  0  0  0  0  0
    7.2709    4.5089   22.7542 C   0  0  0  0  0  0  0  0  0  0  0  0
    5.9698    7.6329   24.6581 C   0  0  0  0  0  0  0  0  0  0  0  0
    4.5542    8.9057   21.7104 O   0  0  0  0  0  0  0  0  0  0  0  0
    6.9895    3.2085   23.0690 C   0  0  0  0  0  0  0  0  0  0  0  0
    7.8391    2.2253   22.7260 N   0  0  0  0  0  0  0  0  0  0  0  0
    8.6968    9.8373   23.6359 C   0  0  0  0  0  0  0  0  0  0  0  0
   12.5135    6.5957   21.8396 C   0  0  0  0  0  0  0  0  0  0  0  0
   10.9406    8.2330   21.1350 C   0  0  0  0  0  0  0  0  0  0  0  0
    9.6648    8.5956   21.7310 C   0  0  0  0  0  0  0  0  0  0  0  0
   10.8829    1.7153   20.9865 C   0  0  0  0  0  0  0  0  0  0  0  0
    5.7768    2.8533   23.7910 C   0  0  0  0  0  0  0  0  0  0  0  0
    9.7977    1.4791   21.6912 N   0  0  0  0  0  0  0  0  0  0  0  0
    6.5976    9.3401   22.6478 N   0  0  0  0  0  0  0  0  0  0  0  0
   11.2031    3.0042   20.6246 C   0  0  0  0  0  0  0  0  0  0  0  0
   12.8688    7.7370   22.7287 C   0  0  0  0  0  0  0  0  0  0  0  0
    7.4487    9.1361   23.6506 C   0  0  0  0  0  0  0  0  0  0  0  0
    8.9772    2.5025   22.0273 C   0  0  0  0  0  0  0  0  0  0  0  0
   10.4859    4.0901   20.9730 C   0  0  0  0  0  0  0  0  0  0  0  0
   11.0962    9.3293   23.5072 C   0  0  0  0  0  0  0  0  0  0  0  0
    5.1273    7.8529   23.6208 N   0  0  0  0  0  0  0  0  0  0  0  0
    9.7552    9.2338   23.0171 N   0  0  0  0  0  0  0  0  0  0  0  0
   11.1797    6.7591   21.3326 N   0  0  0  0  0  0  0  0  0  0  0  0
   11.7728    8.0337   23.7267 C   0  0  0  0  0  0  0  0  0  0  0  0
    7.1194    8.3344   24.6775 C   0  0  0  0  0  0  0  0  0  0  0  0
    8.4311    4.7963   22.0500 C   0  0  0  0  0  0  0  0  0  0  0  0
    8.7393   10.8706   24.1871 O   0  0  0  0  0  0  0  0  0  0  0  0
    9.3093    3.8166   21.6712 C   0  0  0  0  0  0  0  0  0  0  0  0
  1  5  1  0
  1 15  4  0
  1 22  4  0
  2 20  1  0
  2 24  1  0
  3  6  4  0
  3 27  4  0
  4 22  4  0
  4 26  4  0
  6  7  4  0
  6 13  1  0
  7 19  4  0
  8 18  1  0
  8 23  1  0
  8 28  2  0
  9 17  1  0
  9 24  1  0
 10 11  1  0
 10 24  1  0
 11 23  1  0
 12 14  4  0
 12 16  4  0
 14 19  4  0
 15 18  4  0
 16 20  4  0
 17 25  1  0
 18 26  4  0
 19 29  4  0
 20 29  4  0
 21 23  1  0
 21 25  1  0
 27 29  4  0
M  END
$$$$

 Created by Python create_sdf_string function

 29 32  0  0  0  0  0  0  0  0999 V2000
    5.4450    8.7154   22.6662 C   0  0  0  0  0  0  0  0  0  0  0  0
   10.9154    5.4574   20.5483 C   0  0  0  0  0  0  0  0  0  0  0  0
    7.2709    4.5089   22.7542 C   0  0  0  0  0  0  0  0  0  0  0  0
    5.9698    7.6329   24.6581 C   0  0  0  0  0  0  0  0  0  0  0  0
    4.5542    8.9057   21.7104 O   0  0  0  0  0  0  0  0  0  0  0  0
    6.9895    3.2085   23.0690 C   0  0  0  0  0  0  0  0  0  0  0  0
    7.8391    2.2253   22.7260 N   0  0  0  0  0  0  0  0  0  0  0  0
    8.6968    9.8373   23.6359 C   0  0  0  0  0  0  0  0  0  0  0  0
   12.5135    6.5957   21.8396 C   0  0  0  0  0  0  0  0  0  0  0  0
   10.9406    8.2330   21.1350 C   0  0  0  0  0  0  0  0  0  0  0  0
    9.6648    8.5956   21.7310 C   0  0  0  0  0  0  0  0  0  0  0  0
   10.8829    1.7153   20.9865 C   0  0  0  0  0  0  0  0  0  0  0  0
    5.7768    2.8533   23.7910 C   0  0  0  0  0  0  0  0  0  0  0  0
    9.7977    1.4791   21.6912 N   0  0  0  0  0  0  0  0  0  0  0  0
    6.5976    9.3401   22.6478 N   0  0  0  0  0  0  0  0  0  0  0  0
   11.2031    3.0042   20.6246 C   0  0  0  0  0  0  0  0  0  0  0  0
   12.8688    7.7370   22.7287 C   0  0  0  0  0  0  0  0  0  0  0  0
    7.4487    9.1361   23.6506 C   0  0  0  0  0  0  0  0  0  0  0  0
    8.9772    2.5025   22.0273 C   0  0  0  0  0  0  0  0  0  0  0  0
   10.4859    4.0901   20.9730 C   0  0  0  0  0  0  0  0  0  0  0  0
   11.0962    9.3293   23.5072 C   0  0  0  0  0  0  0  0  0  0  0  0
    5.1273    7.8529   23.6208 N   0  0  0  0  0  0  0  0  0  0  0  0
    9.7552    9.2338   23.0171 N   0  0  0  0  0  0  0  0  0  0  0  0
   11.1797    6.7591   21.3326 N   0  0  0  0  0  0  0  0  0  0  0  0
   11.7728    8.0337   23.7267 C   0  0  0  0  0  0  0  0  0  0  0  0
    7.1194    8.3344   24.6775 C   0  0  0  0  0  0  0  0  0  0  0  0
    8.4311    4.7963   22.0500 C   0  0  0  0  0  0  0  0  0  0  0  0
    8.7393   10.8706   24.1871 O   0  0  0  0  0  0  0  0  0  0  0  0
    9.3093    3.8166   21.6712 C   0  0  0  0  0  0  0  0  0  0  0  0
  1  5  1  0
  1 15  4  0
  1 22  4  0
  2 20  1  0
  2 24  1  0
  3  6  4  0
  3 27  4  0
  4 22  4  0
  4 26  4  0
  6  7  4  0
  6 13  1  0
  7 19  4  0
  8 18  1  0
  8 23  1  0
  8 28  2  0
  9 17  1  0
  9 24  1  0
 10 11  1  0
 10 24  1  0
 11 23  1  0
 12 14  4  0
 12 16  4  0
 14 19  4  0
 15 18  4  0
 16 20  4  0
 17 25  1  0
 18 26  4  0
 19 29  4  0
 20 29  4  0
 21 23  1  0
 21 25  1  0
 27 29  4  0
M  END
$$$$

 Created by Python create_sdf_string function

 29 32  0  0  0  0  0  0  0  0999 V2000
    5.4450    8.7154   22.6662 C   0  0  0  0  0  0  0  0  0  0  0  0
   10.9154    5.4574   20.5483 C   0  0  0  0  0  0  0  0  0  0  0  0
    7.2709    4.5089   22.7542 C   0  0  0  0  0  0  0  0  0  0  0  0
    5.9698    7.6329   24.6581 C   0  0  0  0  0  0  0  0  0  0  0  0
    4.5542    8.9057   21.7104 O   0  0  0  0  0  0  0  0  0  0  0  0
    6.9895    3.2085   23.0690 C   0  0  0  0  0  0  0  0  0  0  0  0
    7.8391    2.2253   22.7260 N   0  0  0  0  0  0  0  0  0  0  0  0
    8.6968    9.8373   23.6359 C   0  0  0  0  0  0  0  0  0  0  0  0
   12.5135    6.5957   21.8396 C   0  0  0  0  0  0  0  0  0  0  0  0
   10.9406    8.2330   21.1350 C   0  0  0  0  0  0  0  0  0  0  0  0
    9.6648    8.5956   21.7310 C   0  0  0  0  0  0  0  0  0  0  0  0
   10.8829    1.7153   20.9865 C   0  0  0  0  0  0  0  0  0  0  0  0
    5.7768    2.8533   23.7910 C   0  0  0  0  0  0  0  0  0  0  0  0
    9.7977    1.4791   21.6912 N   0  0  0  0  0  0  0  0  0  0  0  0
    6.5976    9.3401   22.6478 N   0  0  0  0  0  0  0  0  0  0  0  0
   11.2031    3.0042   20.6246 C   0  0  0  0  0  0  0  0  0  0  0  0
   12.8688    7.7370   22.7287 C   0  0  0  0  0  0  0  0  0  0  0  0
    7.4487    9.1361   23.6506 C   0  0  0  0  0  0  0  0  0  0  0  0
    8.9772    2.5025   22.0273 C   0  0  0  0  0  0  0  0  0  0  0  0
   10.4859    4.0901   20.9730 C   0  0  0  0  0  0  0  0  0  0  0  0
   11.0962    9.3293   23.5072 C   0  0  0  0  0  0  0  0  0  0  0  0
    5.1273    7.8529   23.6208 N   0  0  0  0  0  0  0  0  0  0  0  0
    9.7552    9.2338   23.0171 N   0  0  0  0  0  0  0  0  0  0  0  0
   11.1797    6.7591   21.3326 N   0  0  0  0  0  0  0  0  0  0  0  0
   11.7728    8.0337   23.7267 C   0  0  0  0  0  0  0  0  0  0  0  0
    7.1194    8.3344   24.6775 C   0  0  0  0  0  0  0  0  0  0  0  0
    8.4311    4.7963   22.0500 C   0  0  0  0  0  0  0  0  0  0  0  0
    8.7393   10.8706   24.1871 O   0  0  0  0  0  0  0  0  0  0  0  0
    9.3093    3.8166   21.6712 C   0  0  0  0  0  0  0  0  0  0  0  0
  1  5  1  0
  1 15  4  0
  1 22  4  0
  2 20  1  0
  2 24  1  0
  3  6  4  0
  3 27  4  0
  4 22  4  0
  4 26  4  0
  6  7  4  0
  6 13  1  0
  7 19  4  0
  8 18  1  0
  8 23  1  0
  8 28  2  0
  9 17  1  0
  9 24  1  0
 10 11  1  0
 10 24  1  0
 11 23  1  0
 12 14  4  0
 12 16  4  0
 14 19  4  0
 15 18  4  0
 16 20  4  0
 17 25  1  0
 18 26  4  0
 19 29  4  0
 20 29  4  0
 21 23  1  0
 21 25  1  0
 27 29  4  0
M  END
$$$$

 Created by Python create_sdf_string function

 29 32  0  0  0  0  0  0  0  0999 V2000
    5.4450    8.7154   22.6662 C   0  0  0  0  0  0  0  0  0  0  0  0
   10.9154    5.4574   20.5483 C   0  0  0  0  0  0  0  0  0  0  0  0
    7.2709    4.5089   22.7542 C   0  0  0  0  0  0  0  0  0  0  0  0
    5.9698    7.6329   24.6581 C   0  0  0  0  0  0  0  0  0  0  0  0
    4.5542    8.9057   21.7104 O   0  0  0  0  0  0  0  0  0  0  0  0
    6.9895    3.2085   23.0690 C   0  0  0  0  0  0  0  0  0  0  0  0
    7.8391    2.2253   22.7260 N   0  0  0  0  0  0  0  0  0  0  0  0
    8.6968    9.8373   23.6359 C   0  0  0  0  0  0  0  0  0  0  0  0
   12.5135    6.5957   21.8396 C   0  0  0  0  0  0  0  0  0  0  0  0
   10.9406    8.2330   21.1350 C   0  0  0  0  0  0  0  0  0  0  0  0
    9.6648    8.5956   21.7310 C   0  0  0  0  0  0  0  0  0  0  0  0
   10.8829    1.7153   20.9865 C   0  0  0  0  0  0  0  0  0  0  0  0
    5.7768    2.8533   23.7910 C   0  0  0  0  0  0  0  0  0  0  0  0
    9.7977    1.4791   21.6912 N   0  0  0  0  0  0  0  0  0  0  0  0
    6.5976    9.3401   22.6478 N   0  0  0  0  0  0  0  0  0  0  0  0
   11.2031    3.0042   20.6246 C   0  0  0  0  0  0  0  0  0  0  0  0
   12.8688    7.7370   22.7287 C   0  0  0  0  0  0  0  0  0  0  0  0
    7.4487    9.1361   23.6506 C   0  0  0  0  0  0  0  0  0  0  0  0
    8.9772    2.5025   22.0273 C   0  0  0  0  0  0  0  0  0  0  0  0
   10.4859    4.0901   20.9730 C   0  0  0  0  0  0  0  0  0  0  0  0
   11.0962    9.3293   23.5072 C   0  0  0  0  0  0  0  0  0  0  0  0
    5.1273    7.8529   23.6208 N   0  0  0  0  0  0  0  0  0  0  0  0
    9.7552    9.2338   23.0171 N   0  0  0  0  0  0  0  0  0  0  0  0
   11.1797    6.7591   21.3326 N   0  0  0  0  0  0  0  0  0  0  0  0
   11.7728    8.0337   23.7267 C   0  0  0  0  0  0  0  0  0  0  0  0
    7.1194    8.3344   24.6775 C   0  0  0  0  0  0  0  0  0  0  0  0
    8.4311    4.7963   22.0500 C   0  0  0  0  0  0  0  0  0  0  0  0
    8.7393   10.8706   24.1871 O   0  0  0  0  0  0  0  0  0  0  0  0
    9.3093    3.8166   21.6712 C   0  0  0  0  0  0  0  0  0  0  0  0
  1  5  1  0
  1 15  4  0
  1 22  4  0
  2 20  1  0
  2 24  1  0
  3  6  4  0
  3 27  4  0
  4 22  4  0
  4 26  4  0
  6  7  4  0
  6 13  1  0
  7 19  4  0
  8 18  1  0
  8 23  1  0
  8 28  2  0
  9 17  1  0
  9 24  1  0
 10 11  1  0
 10 24  1  0
 11 23  1  0
 12 14  4  0
 12 16  4  0
 14 19  4  0
 15 18  4  0
 16 20  4  0
 17 25  1  0
 18 26  4  0
 19 29  4  0
 20 29  4  0
 21 23  1  0
 21 25  1  0
 27 29  4  0
M  END
$$$$

 Created by Python create_sdf_string function

 29 32  0  0  0  0  0  0  0  0999 V2000
    5.4450    8.7154   22.6662 C   0  0  0  0  0  0  0  0  0  0  0  0
   10.9154    5.4574   20.5483 C   0  0  0  0  0  0  0  0  0  0  0  0
    7.2709    4.5089   22.7542 C   0  0  0  0  0  0  0  0  0  0  0  0
    5.9698    7.6329   24.6581 C   0  0  0  0  0  0  0  0  0  0  0  0
    4.5542    8.9057   21.7104 O   0  0  0  0  0  0  0  0  0  0  0  0
    6.9895    3.2085   23.0690 C   0  0  0  0  0  0  0  0  0  0  0  0
    7.8391    2.2253   22.7260 N   0  0  0  0  0  0  0  0  0  0  0  0
    8.6968    9.8373   23.6359 C   0  0  0  0  0  0  0  0  0  0  0  0
   12.5135    6.5957   21.8396 C   0  0  0  0  0  0  0  0  0  0  0  0
   10.9406    8.2330   21.1350 C   0  0  0  0  0  0  0  0  0  0  0  0
    9.6648    8.5956   21.7310 C   0  0  0  0  0  0  0  0  0  0  0  0
   10.8829    1.7153   20.9865 C   0  0  0  0  0  0  0  0  0  0  0  0
    5.7768    2.8533   23.7910 C   0  0  0  0  0  0  0  0  0  0  0  0
    9.7977    1.4791   21.6912 N   0  0  0  0  0  0  0  0  0  0  0  0
    6.5976    9.3401   22.6478 N   0  0  0  0  0  0  0  0  0  0  0  0
   11.2031    3.0042   20.6246 C   0  0  0  0  0  0  0  0  0  0  0  0
   12.8688    7.7370   22.7287 C   0  0  0  0  0  0  0  0  0  0  0  0
    7.4487    9.1361   23.6506 C   0  0  0  0  0  0  0  0  0  0  0  0
    8.9772    2.5025   22.0273 C   0  0  0  0  0  0  0  0  0  0  0  0
   10.4859    4.0901   20.9730 C   0  0  0  0  0  0  0  0  0  0  0  0
   11.0962    9.3293   23.5072 C   0  0  0  0  0  0  0  0  0  0  0  0
    5.1273    7.8529   23.6208 N   0  0  0  0  0  0  0  0  0  0  0  0
    9.7552    9.2338   23.0171 N   0  0  0  0  0  0  0  0  0  0  0  0
   11.1797    6.7591   21.3326 N   0  0  0  0  0  0  0  0  0  0  0  0
   11.7728    8.0337   23.7267 C   0  0  0  0  0  0  0  0  0  0  0  0
    7.1194    8.3344   24.6775 C   0  0  0  0  0  0  0  0  0  0  0  0
    8.4311    4.7963   22.0500 C   0  0  0  0  0  0  0  0  0  0  0  0
    8.7393   10.8706   24.1871 O   0  0  0  0  0  0  0  0  0  0  0  0
    9.3093    3.8166   21.6712 C   0  0  0  0  0  0  0  0  0  0  0  0
  1  5  1  0
  1 15  4  0
  1 22  4  0
  2 20  1  0
  2 24  1  0
  3  6  4  0
  3 27  4  0
  4 22  4  0
  4 26  4  0
  6  7  4  0
  6 13  1  0
  7 19  4  0
  8 18  1  0
  8 23  1  0
  8 28  2  0
  9 17  1  0
  9 24  1  0
 10 11  1  0
 10 24  1  0
 11 23  1  0
 12 14  4  0
 12 16  4  0
 14 19  4  0
 15 18  4  0
 16 20  4  0
 17 25  1  0
 18 26  4  0
 19 29  4  0
 20 29  4  0
 21 23  1  0
 21 25  1  0
 27 29  4  0
M  END
$$$$

 Created by Python create_sdf_string function

 29 32  0  0  0  0  0  0  0  0999 V2000
    5.4450    8.7154   22.6662 C   0  0  0  0  0  0  0  0  0  0  0  0
   10.9154    5.4574   20.5483 C   0  0  0  0  0  0  0  0  0  0  0  0
    7.2709    4.5089   22.7542 C   0  0  0  0  0  0  0  0  0  0  0  0
    5.9698    7.6329   24.6581 C   0  0  0  0  0  0  0  0  0  0  0  0
    4.5542    8.9057   21.7104 O   0  0  0  0  0  0  0  0  0  0  0  0
    6.9895    3.2085   23.0690 C   0  0  0  0  0  0  0  0  0  0  0  0
    7.8391    2.2253   22.7260 N   0  0  0  0  0  0  0  0  0  0  0  0
    8.6968    9.8373   23.6359 C   0  0  0  0  0  0  0  0  0  0  0  0
   12.5135    6.5957   21.8396 C   0  0  0  0  0  0  0  0  0  0  0  0
   10.9406    8.2330   21.1350 C   0  0  0  0  0  0  0  0  0  0  0  0
    9.6648    8.5956   21.7310 C   0  0  0  0  0  0  0  0  0  0  0  0
   10.8829    1.7153   20.9865 C   0  0  0  0  0  0  0  0  0  0  0  0
    5.7768    2.8533   23.7910 C   0  0  0  0  0  0  0  0  0  0  0  0
    9.7977    1.4791   21.6912 N   0  0  0  0  0  0  0  0  0  0  0  0
    6.5976    9.3401   22.6478 N   0  0  0  0  0  0  0  0  0  0  0  0
   11.2031    3.0042   20.6246 C   0  0  0  0  0  0  0  0  0  0  0  0
   12.8688    7.7370   22.7287 C   0  0  0  0  0  0  0  0  0  0  0  0
    7.4487    9.1361   23.6506 C   0  0  0  0  0  0  0  0  0  0  0  0
    8.9772    2.5025   22.0273 C   0  0  0  0  0  0  0  0  0  0  0  0
   10.4859    4.0901   20.9730 C   0  0  0  0  0  0  0  0  0  0  0  0
   11.0962    9.3293   23.5072 C   0  0  0  0  0  0  0  0  0  0  0  0
    5.1273    7.8529   23.6208 N   0  0  0  0  0  0  0  0  0  0  0  0
    9.7552    9.2338   23.0171 N   0  0  0  0  0  0  0  0  0  0  0  0
   11.1797    6.7591   21.3326 N   0  0  0  0  0  0  0  0  0  0  0  0
   11.7728    8.0337   23.7267 C   0  0  0  0  0  0  0  0  0  0  0  0
    7.1194    8.3344   24.6775 C   0  0  0  0  0  0  0  0  0  0  0  0
    8.4311    4.7963   22.0500 C   0  0  0  0  0  0  0  0  0  0  0  0
    8.7393   10.8706   24.1871 O   0  0  0  0  0  0  0  0  0  0  0  0
    9.3093    3.8166   21.6712 C   0  0  0  0  0  0  0  0  0  0  0  0
  1  5  1  0
  1 15  4  0
  1 22  4  0
  2 20  1  0
  2 24  1  0
  3  6  4  0
  3 27  4  0
  4 22  4  0
  4 26  4  0
  6  7  4  0
  6 13  1  0
  7 19  4  0
  8 18  1  0
  8 23  1  0
  8 28  2  0
  9 17  1  0
  9 24  1  0
 10 11  1  0
 10 24  1  0
 11 23  1  0
 12 14  4  0
 12 16  4  0
 14 19  4  0
 15 18  4  0
 16 20  4  0
 17 25  1  0
 18 26  4  0
 19 29  4  0
 20 29  4  0
 21 23  1  0
 21 25  1  0
 27 29  4  0
M  END
$$$$

 Created by Python create_sdf_string function

 29 32  0  0  0  0  0  0  0  0999 V2000
    5.4450    8.7154   22.6662 C   0  0  0  0  0  0  0  0  0  0  0  0
   10.9154    5.4574   20.5483 C   0  0  0  0  0  0  0  0  0  0  0  0
    7.2709    4.5089   22.7542 C   0  0  0  0  0  0  0  0  0  0  0  0
    5.9698    7.6329   24.6581 C   0  0  0  0  0  0  0  0  0  0  0  0
    4.5542    8.9057   21.7104 O   0  0  0  0  0  0  0  0  0  0  0  0
    6.9895    3.2085   23.0690 C   0  0  0  0  0  0  0  0  0  0  0  0
    7.8391    2.2253   22.7260 N   0  0  0  0  0  0  0  0  0  0  0  0
    8.6968    9.8373   23.6359 C   0  0  0  0  0  0  0  0  0  0  0  0
   12.5135    6.5957   21.8396 C   0  0  0  0  0  0  0  0  0  0  0  0
   10.9406    8.2330   21.1350 C   0  0  0  0  0  0  0  0  0  0  0  0
    9.6648    8.5956   21.7310 C   0  0  0  0  0  0  0  0  0  0  0  0
   10.8829    1.7153   20.9865 C   0  0  0  0  0  0  0  0  0  0  0  0
    5.7768    2.8533   23.7910 C   0  0  0  0  0  0  0  0  0  0  0  0
    9.7977    1.4791   21.6912 N   0  0  0  0  0  0  0  0  0  0  0  0
    6.5976    9.3401   22.6478 N   0  0  0  0  0  0  0  0  0  0  0  0
   11.2031    3.0042   20.6246 C   0  0  0  0  0  0  0  0  0  0  0  0
   12.8688    7.7370   22.7287 C   0  0  0  0  0  0  0  0  0  0  0  0
    7.4487    9.1361   23.6506 C   0  0  0  0  0  0  0  0  0  0  0  0
    8.9772    2.5025   22.0273 C   0  0  0  0  0  0  0  0  0  0  0  0
   10.4859    4.0901   20.9730 C   0  0  0  0  0  0  0  0  0  0  0  0
   11.0962    9.3293   23.5072 C   0  0  0  0  0  0  0  0  0  0  0  0
    5.1273    7.8529   23.6208 N   0  0  0  0  0  0  0  0  0  0  0  0
    9.7552    9.2338   23.0171 N   0  0  0  0  0  0  0  0  0  0  0  0
   11.1797    6.7591   21.3326 N   0  0  0  0  0  0  0  0  0  0  0  0
   11.7728    8.0337   23.7267 C   0  0  0  0  0  0  0  0  0  0  0  0
    7.1194    8.3344   24.6775 C   0  0  0  0  0  0  0  0  0  0  0  0
    8.4311    4.7963   22.0500 C   0  0  0  0  0  0  0  0  0  0  0  0
    8.7393   10.8706   24.1871 O   0  0  0  0  0  0  0  0  0  0  0  0
    9.3093    3.8166   21.6712 C   0  0  0  0  0  0  0  0  0  0  0  0
  1  5  1  0
  1 15  4  0
  1 22  4  0
  2 20  1  0
  2 24  1  0
  3  6  4  0
  3 27  4  0
  4 22  4  0
  4 26  4  0
  6  7  4  0
  6 13  1  0
  7 19  4  0
  8 18  1  0
  8 23  1  0
  8 28  2  0
  9 17  1  0
  9 24  1  0
 10 11  1  0
 10 24  1  0
 11 23  1  0
 12 14  4  0
 12 16  4  0
 14 19  4  0
 15 18  4  0
 16 20  4  0
 17 25  1  0
 18 26  4  0
 19 29  4  0
 20 29  4  0
 21 23  1  0
 21 25  1  0
 27 29  4  0
M  END
$$$$

 Created by Python create_sdf_string function

 29 32  0  0  0  0  0  0  0  0999 V2000
    5.4450    8.7154   22.6662 C   0  0  0  0  0  0  0  0  0  0  0  0
   10.9154    5.4574   20.5483 C   0  0  0  0  0  0  0  0  0  0  0  0
    7.2709    4.5089   22.7542 C   0  0  0  0  0  0  0  0  0  0  0  0
    5.9698    7.6329   24.6581 C   0  0  0  0  0  0  0  0  0  0  0  0
    4.5542    8.9057   21.7104 O   0  0  0  0  0  0  0  0  0  0  0  0
    6.9895    3.2085   23.0690 C   0  0  0  0  0  0  0  0  0  0  0  0
    7.8391    2.2253   22.7260 N   0  0  0  0  0  0  0  0  0  0  0  0
    8.6968    9.8373   23.6359 C   0  0  0  0  0  0  0  0  0  0  0  0
   12.5135    6.5957   21.8396 C   0  0  0  0  0  0  0  0  0  0  0  0
   10.9406    8.2330   21.1350 C   0  0  0  0  0  0  0  0  0  0  0  0
    9.6648    8.5956   21.7310 C   0  0  0  0  0  0  0  0  0  0  0  0
   10.8829    1.7153   20.9865 C   0  0  0  0  0  0  0  0  0  0  0  0
    5.7768    2.8533   23.7910 C   0  0  0  0  0  0  0  0  0  0  0  0
    9.7977    1.4791   21.6912 N   0  0  0  0  0  0  0  0  0  0  0  0
    6.5976    9.3401   22.6478 N   0  0  0  0  0  0  0  0  0  0  0  0
   11.2031    3.0042   20.6246 C   0  0  0  0  0  0  0  0  0  0  0  0
   12.8688    7.7370   22.7287 C   0  0  0  0  0  0  0  0  0  0  0  0
    7.4487    9.1361   23.6506 C   0  0  0  0  0  0  0  0  0  0  0  0
    8.9772    2.5025   22.0273 C   0  0  0  0  0  0  0  0  0  0  0  0
   10.4859    4.0901   20.9730 C   0  0  0  0  0  0  0  0  0  0  0  0
   11.0962    9.3293   23.5072 C   0  0  0  0  0  0  0  0  0  0  0  0
    5.1273    7.8529   23.6208 N   0  0  0  0  0  0  0  0  0  0  0  0
    9.7552    9.2338   23.0171 N   0  0  0  0  0  0  0  0  0  0  0  0
   11.1797    6.7591   21.3326 N   0  0  0  0  0  0  0  0  0  0  0  0
   11.7728    8.0337   23.7267 C   0  0  0  0  0  0  0  0  0  0  0  0
    7.1194    8.3344   24.6775 C   0  0  0  0  0  0  0  0  0  0  0  0
    8.4311    4.7963   22.0500 C   0  0  0  0  0  0  0  0  0  0  0  0
    8.7393   10.8706   24.1871 O   0  0  0  0  0  0  0  0  0  0  0  0
    9.3093    3.8166   21.6712 C   0  0  0  0  0  0  0  0  0  0  0  0
  1  5  1  0
  1 15  4  0
  1 22  4  0
  2 20  1  0
  2 24  1  0
  3  6  4  0
  3 27  4  0
  4 22  4  0
  4 26  4  0
  6  7  4  0
  6 13  1  0
  7 19  4  0
  8 18  1  0
  8 23  1  0
  8 28  2  0
  9 17  1  0
  9 24  1  0
 10 11  1  0
 10 24  1  0
 11 23  1  0
 12 14  4  0
 12 16  4  0
 14 19  4  0
 15 18  4  0
 16 20  4  0
 17 25  1  0
 18 26  4  0
 19 29  4  0
 20 29  4  0
 21 23  1  0
 21 25  1  0
 27 29  4  0
M  END
$$$$

 Created by Python create_sdf_string function

 29 32  0  0  0  0  0  0  0  0999 V2000
    5.4450    8.7154   22.6662 C   0  0  0  0  0  0  0  0  0  0  0  0
   10.9154    5.4574   20.5483 C   0  0  0  0  0  0  0  0  0  0  0  0
    7.2709    4.5089   22.7542 C   0  0  0  0  0  0  0  0  0  0  0  0
    5.9698    7.6329   24.6581 C   0  0  0  0  0  0  0  0  0  0  0  0
    4.5542    8.9057   21.7104 O   0  0  0  0  0  0  0  0  0  0  0  0
    6.9895    3.2085   23.0690 C   0  0  0  0  0  0  0  0  0  0  0  0
    7.8391    2.2253   22.7260 N   0  0  0  0  0  0  0  0  0  0  0  0
    8.6968    9.8373   23.6359 C   0  0  0  0  0  0  0  0  0  0  0  0
   12.5135    6.5957   21.8396 C   0  0  0  0  0  0  0  0  0  0  0  0
   10.9406    8.2330   21.1350 C   0  0  0  0  0  0  0  0  0  0  0  0
    9.6648    8.5956   21.7310 C   0  0  0  0  0  0  0  0  0  0  0  0
   10.8829    1.7153   20.9865 C   0  0  0  0  0  0  0  0  0  0  0  0
    5.7768    2.8533   23.7910 C   0  0  0  0  0  0  0  0  0  0  0  0
    9.7977    1.4791   21.6912 N   0  0  0  0  0  0  0  0  0  0  0  0
    6.5976    9.3401   22.6478 N   0  0  0  0  0  0  0  0  0  0  0  0
   11.2031    3.0042   20.6246 C   0  0  0  0  0  0  0  0  0  0  0  0
   12.8688    7.7370   22.7287 C   0  0  0  0  0  0  0  0  0  0  0  0
    7.4487    9.1361   23.6506 C   0  0  0  0  0  0  0  0  0  0  0  0
    8.9772    2.5025   22.0273 C   0  0  0  0  0  0  0  0  0  0  0  0
   10.4859    4.0901   20.9730 C   0  0  0  0  0  0  0  0  0  0  0  0
   11.0962    9.3293   23.5072 C   0  0  0  0  0  0  0  0  0  0  0  0
    5.1273    7.8529   23.6208 N   0  0  0  0  0  0  0  0  0  0  0  0
    9.7552    9.2338   23.0171 N   0  0  0  0  0  0  0  0  0  0  0  0
   11.1797    6.7591   21.3326 N   0  0  0  0  0  0  0  0  0  0  0  0
   11.7728    8.0337   23.7267 C   0  0  0  0  0  0  0  0  0  0  0  0
    7.1194    8.3344   24.6775 C   0  0  0  0  0  0  0  0  0  0  0  0
    8.4311    4.7963   22.0500 C   0  0  0  0  0  0  0  0  0  0  0  0
    8.7393   10.8706   24.1871 O   0  0  0  0  0  0  0  0  0  0  0  0
    9.3093    3.8166   21.6712 C   0  0  0  0  0  0  0  0  0  0  0  0
  1  5  1  0
  1 15  4  0
  1 22  4  0
  2 20  1  0
  2 24  1  0
  3  6  4  0
  3 27  4  0
  4 22  4  0
  4 26  4  0
  6  7  4  0
  6 13  1  0
  7 19  4  0
  8 18  1  0
  8 23  1  0
  8 28  2  0
  9 17  1  0
  9 24  1  0
 10 11  1  0
 10 24  1  0
 11 23  1  0
 12 14  4  0
 12 16  4  0
 14 19  4  0
 15 18  4  0
 16 20  4  0
 17 25  1  0
 18 26  4  0
 19 29  4  0
 20 29  4  0
 21 23  1  0
 21 25  1  0
 27 29  4  0
M  END
$$$$

 Created by Python create_sdf_string function

 29 32  0  0  0  0  0  0  0  0999 V2000
    5.4450    8.7154   22.6662 C   0  0  0  0  0  0  0  0  0  0  0  0
   10.9154    5.4574   20.5483 C   0  0  0  0  0  0  0  0  0  0  0  0
    7.2709    4.5089   22.7542 C   0  0  0  0  0  0  0  0  0  0  0  0
    5.9698    7.6329   24.6581 C   0  0  0  0  0  0  0  0  0  0  0  0
    4.5542    8.9057   21.7104 O   0  0  0  0  0  0  0  0  0  0  0  0
    6.9895    3.2085   23.0690 C   0  0  0  0  0  0  0  0  0  0  0  0
    7.8391    2.2253   22.7260 N   0  0  0  0  0  0  0  0  0  0  0  0
    8.6968    9.8373   23.6359 C   0  0  0  0  0  0  0  0  0  0  0  0
   12.5135    6.5957   21.8396 C   0  0  0  0  0  0  0  0  0  0  0  0
   10.9406    8.2330   21.1350 C   0  0  0  0  0  0  0  0  0  0  0  0
    9.6648    8.5956   21.7310 C   0  0  0  0  0  0  0  0  0  0  0  0
   10.8829    1.7153   20.9865 C   0  0  0  0  0  0  0  0  0  0  0  0
    5.7768    2.8533   23.7910 C   0  0  0  0  0  0  0  0  0  0  0  0
    9.7977    1.4791   21.6912 N   0  0  0  0  0  0  0  0  0  0  0  0
    6.5976    9.3401   22.6478 N   0  0  0  0  0  0  0  0  0  0  0  0
   11.2031    3.0042   20.6246 C   0  0  0  0  0  0  0  0  0  0  0  0
   12.8688    7.7370   22.7287 C   0  0  0  0  0  0  0  0  0  0  0  0
    7.4487    9.1361   23.6506 C   0  0  0  0  0  0  0  0  0  0  0  0
    8.9772    2.5025   22.0273 C   0  0  0  0  0  0  0  0  0  0  0  0
   10.4859    4.0901   20.9730 C   0  0  0  0  0  0  0  0  0  0  0  0
   11.0962    9.3293   23.5072 C   0  0  0  0  0  0  0  0  0  0  0  0
    5.1273    7.8529   23.6208 N   0  0  0  0  0  0  0  0  0  0  0  0
    9.7552    9.2338   23.0171 N   0  0  0  0  0  0  0  0  0  0  0  0
   11.1797    6.7591   21.3326 N   0  0  0  0  0  0  0  0  0  0  0  0
   11.7728    8.0337   23.7267 C   0  0  0  0  0  0  0  0  0  0  0  0
    7.1194    8.3344   24.6775 C   0  0  0  0  0  0  0  0  0  0  0  0
    8.4311    4.7963   22.0500 C   0  0  0  0  0  0  0  0  0  0  0  0
    8.7393   10.8706   24.1871 O   0  0  0  0  0  0  0  0  0  0  0  0
    9.3093    3.8166   21.6712 C   0  0  0  0  0  0  0  0  0  0  0  0
  1  5  1  0
  1 15  4  0
  1 22  4  0
  2 20  1  0
  2 24  1  0
  3  6  4  0
  3 27  4  0
  4 22  4  0
  4 26  4  0
  6  7  4  0
  6 13  1  0
  7 19  4  0
  8 18  1  0
  8 23  1  0
  8 28  2  0
  9 17  1  0
  9 24  1  0
 10 11  1  0
 10 24  1  0
 11 23  1  0
 12 14  4  0
 12 16  4  0
 14 19  4  0
 15 18  4  0
 16 20  4  0
 17 25  1  0
 18 26  4  0
 19 29  4  0
 20 29  4  0
 21 23  1  0
 21 25  1  0
 27 29  4  0
M  END
$$$$

 Created by Python create_sdf_string function

 29 32  0  0  0  0  0  0  0  0999 V2000
    5.4450    8.7154   22.6662 C   0  0  0  0  0  0  0  0  0  0  0  0
   10.9154    5.4574   20.5483 C   0  0  0  0  0  0  0  0  0  0  0  0
    7.2709    4.5089   22.7542 C   0  0  0  0  0  0  0  0  0  0  0  0
    5.9698    7.6329   24.6581 C   0  0  0  0  0  0  0  0  0  0  0  0
    4.5542    8.9057   21.7104 O   0  0  0  0  0  0  0  0  0  0  0  0
    6.9895    3.2085   23.0690 C   0  0  0  0  0  0  0  0  0  0  0  0
    7.8391    2.2253   22.7260 N   0  0  0  0  0  0  0  0  0  0  0  0
    8.6968    9.8373   23.6359 C   0  0  0  0  0  0  0  0  0  0  0  0
   12.5135    6.5957   21.8396 C   0  0  0  0  0  0  0  0  0  0  0  0
   10.9406    8.2330   21.1350 C   0  0  0  0  0  0  0  0  0  0  0  0
    9.6648    8.5956   21.7310 C   0  0  0  0  0  0  0  0  0  0  0  0
   10.8829    1.7153   20.9865 C   0  0  0  0  0  0  0  0  0  0  0  0
    5.7768    2.8533   23.7910 C   0  0  0  0  0  0  0  0  0  0  0  0
    9.7977    1.4791   21.6912 N   0  0  0  0  0  0  0  0  0  0  0  0
    6.5976    9.3401   22.6478 N   0  0  0  0  0  0  0  0  0  0  0  0
   11.2031    3.0042   20.6246 C   0  0  0  0  0  0  0  0  0  0  0  0
   12.8688    7.7370   22.7287 C   0  0  0  0  0  0  0  0  0  0  0  0
    7.4487    9.1361   23.6506 C   0  0  0  0  0  0  0  0  0  0  0  0
    8.9772    2.5025   22.0273 C   0  0  0  0  0  0  0  0  0  0  0  0
   10.4859    4.0901   20.9730 C   0  0  0  0  0  0  0  0  0  0  0  0
   11.0962    9.3293   23.5072 C   0  0  0  0  0  0  0  0  0  0  0  0
    5.1273    7.8529   23.6208 N   0  0  0  0  0  0  0  0  0  0  0  0
    9.7552    9.2338   23.0171 N   0  0  0  0  0  0  0  0  0  0  0  0
   11.1797    6.7591   21.3326 N   0  0  0  0  0  0  0  0  0  0  0  0
   11.7728    8.0337   23.7267 C   0  0  0  0  0  0  0  0  0  0  0  0
    7.1194    8.3344   24.6775 C   0  0  0  0  0  0  0  0  0  0  0  0
    8.4311    4.7963   22.0500 C   0  0  0  0  0  0  0  0  0  0  0  0
    8.7393   10.8706   24.1871 O   0  0  0  0  0  0  0  0  0  0  0  0
    9.3093    3.8166   21.6712 C   0  0  0  0  0  0  0  0  0  0  0  0
  1  5  1  0
  1 15  4  0
  1 22  4  0
  2 20  1  0
  2 24  1  0
  3  6  4  0
  3 27  4  0
  4 22  4  0
  4 26  4  0
  6  7  4  0
  6 13  1  0
  7 19  4  0
  8 18  1  0
  8 23  1  0
  8 28  2  0
  9 17  1  0
  9 24  1  0
 10 11  1  0
 10 24  1  0
 11 23  1  0
 12 14  4  0
 12 16  4  0
 14 19  4  0
 15 18  4  0
 16 20  4  0
 17 25  1  0
 18 26  4  0
 19 29  4  0
 20 29  4  0
 21 23  1  0
 21 25  1  0
 27 29  4  0
M  END
$$$$

 Created by Python create_sdf_string function

 29 32  0  0  0  0  0  0  0  0999 V2000
    5.4450    8.7154   22.6662 C   0  0  0  0  0  0  0  0  0  0  0  0
   10.9154    5.4574   20.5483 C   0  0  0  0  0  0  0  0  0  0  0  0
    7.2709    4.5089   22.7542 C   0  0  0  0  0  0  0  0  0  0  0  0
    5.9698    7.6329   24.6581 C   0  0  0  0  0  0  0  0  0  0  0  0
    4.5542    8.9057   21.7104 O   0  0  0  0  0  0  0  0  0  0  0  0
    6.9895    3.2085   23.0690 C   0  0  0  0  0  0  0  0  0  0  0  0
    7.8391    2.2253   22.7260 N   0  0  0  0  0  0  0  0  0  0  0  0
    8.6968    9.8373   23.6359 C   0  0  0  0  0  0  0  0  0  0  0  0
   12.5135    6.5957   21.8396 C   0  0  0  0  0  0  0  0  0  0  0  0
   10.9406    8.2330   21.1350 C   0  0  0  0  0  0  0  0  0  0  0  0
    9.6648    8.5956   21.7310 C   0  0  0  0  0  0  0  0  0  0  0  0
   10.8829    1.7153   20.9865 C   0  0  0  0  0  0  0  0  0  0  0  0
    5.7768    2.8533   23.7910 C   0  0  0  0  0  0  0  0  0  0  0  0
    9.7977    1.4791   21.6912 N   0  0  0  0  0  0  0  0  0  0  0  0
    6.5976    9.3401   22.6478 N   0  0  0  0  0  0  0  0  0  0  0  0
   11.2031    3.0042   20.6246 C   0  0  0  0  0  0  0  0  0  0  0  0
   12.8688    7.7370   22.7287 C   0  0  0  0  0  0  0  0  0  0  0  0
    7.4487    9.1361   23.6506 C   0  0  0  0  0  0  0  0  0  0  0  0
    8.9772    2.5025   22.0273 C   0  0  0  0  0  0  0  0  0  0  0  0
   10.4859    4.0901   20.9730 C   0  0  0  0  0  0  0  0  0  0  0  0
   11.0962    9.3293   23.5072 C   0  0  0  0  0  0  0  0  0  0  0  0
    5.1273    7.8529   23.6208 N   0  0  0  0  0  0  0  0  0  0  0  0
    9.7552    9.2338   23.0171 N   0  0  0  0  0  0  0  0  0  0  0  0
   11.1797    6.7591   21.3326 N   0  0  0  0  0  0  0  0  0  0  0  0
   11.7728    8.0337   23.7267 C   0  0  0  0  0  0  0  0  0  0  0  0
    7.1194    8.3344   24.6775 C   0  0  0  0  0  0  0  0  0  0  0  0
    8.4311    4.7963   22.0500 C   0  0  0  0  0  0  0  0  0  0  0  0
    8.7393   10.8706   24.1871 O   0  0  0  0  0  0  0  0  0  0  0  0
    9.3093    3.8166   21.6712 C   0  0  0  0  0  0  0  0  0  0  0  0
  1  5  1  0
  1 15  4  0
  1 22  4  0
  2 20  1  0
  2 24  1  0
  3  6  4  0
  3 27  4  0
  4 22  4  0
  4 26  4  0
  6  7  4  0
  6 13  1  0
  7 19  4  0
  8 18  1  0
  8 23  1  0
  8 28  2  0
  9 17  1  0
  9 24  1  0
 10 11  1  0
 10 24  1  0
 11 23  1  0
 12 14  4  0
 12 16  4  0
 14 19  4  0
 15 18  4  0
 16 20  4  0
 17 25  1  0
 18 26  4  0
 19 29  4  0
 20 29  4  0
 21 23  1  0
 21 25  1  0
 27 29  4  0
M  END
$$$$

 Created by Python create_sdf_string function

 29 32  0  0  0  0  0  0  0  0999 V2000
    5.4450    8.7154   22.6662 C   0  0  0  0  0  0  0  0  0  0  0  0
   10.9154    5.4574   20.5483 C   0  0  0  0  0  0  0  0  0  0  0  0
    7.2709    4.5089   22.7542 C   0  0  0  0  0  0  0  0  0  0  0  0
    5.9698    7.6329   24.6581 C   0  0  0  0  0  0  0  0  0  0  0  0
    4.5542    8.9057   21.7104 O   0  0  0  0  0  0  0  0  0  0  0  0
    6.9895    3.2085   23.0690 C   0  0  0  0  0  0  0  0  0  0  0  0
    7.8391    2.2253   22.7260 N   0  0  0  0  0  0  0  0  0  0  0  0
    8.6968    9.8373   23.6359 C   0  0  0  0  0  0  0  0  0  0  0  0
   12.5135    6.5957   21.8396 C   0  0  0  0  0  0  0  0  0  0  0  0
   10.9406    8.2330   21.1350 C   0  0  0  0  0  0  0  0  0  0  0  0
    9.6648    8.5956   21.7310 C   0  0  0  0  0  0  0  0  0  0  0  0
   10.8829    1.7153   20.9865 C   0  0  0  0  0  0  0  0  0  0  0  0
    5.7768    2.8533   23.7910 C   0  0  0  0  0  0  0  0  0  0  0  0
    9.7977    1.4791   21.6912 N   0  0  0  0  0  0  0  0  0  0  0  0
    6.5976    9.3401   22.6478 N   0  0  0  0  0  0  0  0  0  0  0  0
   11.2031    3.0042   20.6246 C   0  0  0  0  0  0  0  0  0  0  0  0
   12.8688    7.7370   22.7287 C   0  0  0  0  0  0  0  0  0  0  0  0
    7.4487    9.1361   23.6506 C   0  0  0  0  0  0  0  0  0  0  0  0
    8.9772    2.5025   22.0273 C   0  0  0  0  0  0  0  0  0  0  0  0
   10.4859    4.0901   20.9730 C   0  0  0  0  0  0  0  0  0  0  0  0
   11.0962    9.3293   23.5072 C   0  0  0  0  0  0  0  0  0  0  0  0
    5.1273    7.8529   23.6208 N   0  0  0  0  0  0  0  0  0  0  0  0
    9.7552    9.2338   23.0171 N   0  0  0  0  0  0  0  0  0  0  0  0
   11.1797    6.7591   21.3326 N   0  0  0  0  0  0  0  0  0  0  0  0
   11.7728    8.0337   23.7267 C   0  0  0  0  0  0  0  0  0  0  0  0
    7.1194    8.3344   24.6775 C   0  0  0  0  0  0  0  0  0  0  0  0
    8.4311    4.7963   22.0500 C   0  0  0  0  0  0  0  0  0  0  0  0
    8.7393   10.8706   24.1871 O   0  0  0  0  0  0  0  0  0  0  0  0
    9.3093    3.8166   21.6712 C   0  0  0  0  0  0  0  0  0  0  0  0
  1  5  1  0
  1 15  4  0
  1 22  4  0
  2 20  1  0
  2 24  1  0
  3  6  4  0
  3 27  4  0
  4 22  4  0
  4 26  4  0
  6  7  4  0
  6 13  1  0
  7 19  4  0
  8 18  1  0
  8 23  1  0
  8 28  2  0
  9 17  1  0
  9 24  1  0
 10 11  1  0
 10 24  1  0
 11 23  1  0
 12 14  4  0
 12 16  4  0
 14 19  4  0
 15 18  4  0
 16 20  4  0
 17 25  1  0
 18 26  4  0
 19 29  4  0
 20 29  4  0
 21 23  1  0
 21 25  1  0
 27 29  4  0
M  END
$$$$

 Created by Python create_sdf_string function

 29 32  0  0  0  0  0  0  0  0999 V2000
    5.4450    8.7154   22.6662 C   0  0  0  0  0  0  0  0  0  0  0  0
   10.9154    5.4574   20.5483 C   0  0  0  0  0  0  0  0  0  0  0  0
    7.2709    4.5089   22.7542 C   0  0  0  0  0  0  0  0  0  0  0  0
    5.9698    7.6329   24.6581 C   0  0  0  0  0  0  0  0  0  0  0  0
    4.5542    8.9057   21.7104 O   0  0  0  0  0  0  0  0  0  0  0  0
    6.9895    3.2085   23.0690 C   0  0  0  0  0  0  0  0  0  0  0  0
    7.8391    2.2253   22.7260 N   0  0  0  0  0  0  0  0  0  0  0  0
    8.6968    9.8373   23.6359 C   0  0  0  0  0  0  0  0  0  0  0  0
   12.5135    6.5957   21.8396 C   0  0  0  0  0  0  0  0  0  0  0  0
   10.9406    8.2330   21.1350 C   0  0  0  0  0  0  0  0  0  0  0  0
    9.6648    8.5956   21.7310 C   0  0  0  0  0  0  0  0  0  0  0  0
   10.8829    1.7153   20.9865 C   0  0  0  0  0  0  0  0  0  0  0  0
    5.7768    2.8533   23.7910 C   0  0  0  0  0  0  0  0  0  0  0  0
    9.7977    1.4791   21.6912 N   0  0  0  0  0  0  0  0  0  0  0  0
    6.5976    9.3401   22.6478 N   0  0  0  0  0  0  0  0  0  0  0  0
   11.2031    3.0042   20.6246 C   0  0  0  0  0  0  0  0  0  0  0  0
   12.8688    7.7370   22.7287 C   0  0  0  0  0  0  0  0  0  0  0  0
    7.4487    9.1361   23.6506 C   0  0  0  0  0  0  0  0  0  0  0  0
    8.9772    2.5025   22.0273 C   0  0  0  0  0  0  0  0  0  0  0  0
   10.4859    4.0901   20.9730 C   0  0  0  0  0  0  0  0  0  0  0  0
   11.0962    9.3293   23.5072 C   0  0  0  0  0  0  0  0  0  0  0  0
    5.1273    7.8529   23.6208 N   0  0  0  0  0  0  0  0  0  0  0  0
    9.7552    9.2338   23.0171 N   0  0  0  0  0  0  0  0  0  0  0  0
   11.1797    6.7591   21.3326 N   0  0  0  0  0  0  0  0  0  0  0  0
   11.7728    8.0337   23.7267 C   0  0  0  0  0  0  0  0  0  0  0  0
    7.1194    8.3344   24.6775 C   0  0  0  0  0  0  0  0  0  0  0  0
    8.4311    4.7963   22.0500 C   0  0  0  0  0  0  0  0  0  0  0  0
    8.7393   10.8706   24.1871 O   0  0  0  0  0  0  0  0  0  0  0  0
    9.3093    3.8166   21.6712 C   0  0  0  0  0  0  0  0  0  0  0  0
  1  5  1  0
  1 15  4  0
  1 22  4  0
  2 20  1  0
  2 24  1  0
  3  6  4  0
  3 27  4  0
  4 22  4  0
  4 26  4  0
  6  7  4  0
  6 13  1  0
  7 19  4  0
  8 18  1  0
  8 23  1  0
  8 28  2  0
  9 17  1  0
  9 24  1  0
 10 11  1  0
 10 24  1  0
 11 23  1  0
 12 14  4  0
 12 16  4  0
 14 19  4  0
 15 18  4  0
 16 20  4  0
 17 25  1  0
 18 26  4  0
 19 29  4  0
 20 29  4  0
 21 23  1  0
 21 25  1  0
 27 29  4  0
M  END
$$$$

 Created by Python create_sdf_string function

 29 32  0  0  0  0  0  0  0  0999 V2000
    5.4450    8.7154   22.6662 C   0  0  0  0  0  0  0  0  0  0  0  0
   10.9154    5.4574   20.5483 C   0  0  0  0  0  0  0  0  0  0  0  0
    7.2709    4.5089   22.7542 C   0  0  0  0  0  0  0  0  0  0  0  0
    5.9698    7.6329   24.6581 C   0  0  0  0  0  0  0  0  0  0  0  0
    4.5542    8.9057   21.7104 O   0  0  0  0  0  0  0  0  0  0  0  0
    6.9895    3.2085   23.0690 C   0  0  0  0  0  0  0  0  0  0  0  0
    7.8391    2.2253   22.7260 N   0  0  0  0  0  0  0  0  0  0  0  0
    8.6968    9.8373   23.6359 C   0  0  0  0  0  0  0  0  0  0  0  0
   12.5135    6.5957   21.8396 C   0  0  0  0  0  0  0  0  0  0  0  0
   10.9406    8.2330   21.1350 C   0  0  0  0  0  0  0  0  0  0  0  0
    9.6648    8.5956   21.7310 C   0  0  0  0  0  0  0  0  0  0  0  0
   10.8829    1.7153   20.9865 C   0  0  0  0  0  0  0  0  0  0  0  0
    5.7768    2.8533   23.7910 C   0  0  0  0  0  0  0  0  0  0  0  0
    9.7977    1.4791   21.6912 N   0  0  0  0  0  0  0  0  0  0  0  0
    6.5976    9.3401   22.6478 N   0  0  0  0  0  0  0  0  0  0  0  0
   11.2031    3.0042   20.6246 C   0  0  0  0  0  0  0  0  0  0  0  0
   12.8688    7.7370   22.7287 C   0  0  0  0  0  0  0  0  0  0  0  0
    7.4487    9.1361   23.6506 C   0  0  0  0  0  0  0  0  0  0  0  0
    8.9772    2.5025   22.0273 C   0  0  0  0  0  0  0  0  0  0  0  0
   10.4859    4.0901   20.9730 C   0  0  0  0  0  0  0  0  0  0  0  0
   11.0962    9.3293   23.5072 C   0  0  0  0  0  0  0  0  0  0  0  0
    5.1273    7.8529   23.6208 N   0  0  0  0  0  0  0  0  0  0  0  0
    9.7552    9.2338   23.0171 N   0  0  0  0  0  0  0  0  0  0  0  0
   11.1797    6.7591   21.3326 N   0  0  0  0  0  0  0  0  0  0  0  0
   11.7728    8.0337   23.7267 C   0  0  0  0  0  0  0  0  0  0  0  0
    7.1194    8.3344   24.6775 C   0  0  0  0  0  0  0  0  0  0  0  0
    8.4311    4.7963   22.0500 C   0  0  0  0  0  0  0  0  0  0  0  0
    8.7393   10.8706   24.1871 O   0  0  0  0  0  0  0  0  0  0  0  0
    9.3093    3.8166   21.6712 C   0  0  0  0  0  0  0  0  0  0  0  0
  1  5  1  0
  1 15  4  0
  1 22  4  0
  2 20  1  0
  2 24  1  0
  3  6  4  0
  3 27  4  0
  4 22  4  0
  4 26  4  0
  6  7  4  0
  6 13  1  0
  7 19  4  0
  8 18  1  0
  8 23  1  0
  8 28  2  0
  9 17  1  0
  9 24  1  0
 10 11  1  0
 10 24  1  0
 11 23  1  0
 12 14  4  0
 12 16  4  0
 14 19  4  0
 15 18  4  0
 16 20  4  0
 17 25  1  0
 18 26  4  0
 19 29  4  0
 20 29  4  0
 21 23  1  0
 21 25  1  0
 27 29  4  0
M  END
$$$$

 Created by Python create_sdf_string function

 29 32  0  0  0  0  0  0  0  0999 V2000
    5.4450    8.7154   22.6662 C   0  0  0  0  0  0  0  0  0  0  0  0
   10.9154    5.4574   20.5483 C   0  0  0  0  0  0  0  0  0  0  0  0
    7.2709    4.5089   22.7542 C   0  0  0  0  0  0  0  0  0  0  0  0
    5.9698    7.6329   24.6581 C   0  0  0  0  0  0  0  0  0  0  0  0
    4.5542    8.9057   21.7104 O   0  0  0  0  0  0  0  0  0  0  0  0
    6.9895    3.2085   23.0690 C   0  0  0  0  0  0  0  0  0  0  0  0
    7.8391    2.2253   22.7260 N   0  0  0  0  0  0  0  0  0  0  0  0
    8.6968    9.8373   23.6359 C   0  0  0  0  0  0  0  0  0  0  0  0
   12.5135    6.5957   21.8396 C   0  0  0  0  0  0  0  0  0  0  0  0
   10.9406    8.2330   21.1350 C   0  0  0  0  0  0  0  0  0  0  0  0
    9.6648    8.5956   21.7310 C   0  0  0  0  0  0  0  0  0  0  0  0
   10.8829    1.7153   20.9865 C   0  0  0  0  0  0  0  0  0  0  0  0
    5.7768    2.8533   23.7910 C   0  0  0  0  0  0  0  0  0  0  0  0
    9.7977    1.4791   21.6912 N   0  0  0  0  0  0  0  0  0  0  0  0
    6.5976    9.3401   22.6478 N   0  0  0  0  0  0  0  0  0  0  0  0
   11.2031    3.0042   20.6246 C   0  0  0  0  0  0  0  0  0  0  0  0
   12.8688    7.7370   22.7287 C   0  0  0  0  0  0  0  0  0  0  0  0
    7.4487    9.1361   23.6506 C   0  0  0  0  0  0  0  0  0  0  0  0
    8.9772    2.5025   22.0273 C   0  0  0  0  0  0  0  0  0  0  0  0
   10.4859    4.0901   20.9730 C   0  0  0  0  0  0  0  0  0  0  0  0
   11.0962    9.3293   23.5072 C   0  0  0  0  0  0  0  0  0  0  0  0
    5.1273    7.8529   23.6208 N   0  0  0  0  0  0  0  0  0  0  0  0
    9.7552    9.2338   23.0171 N   0  0  0  0  0  0  0  0  0  0  0  0
   11.1797    6.7591   21.3326 N   0  0  0  0  0  0  0  0  0  0  0  0
   11.7728    8.0337   23.7267 C   0  0  0  0  0  0  0  0  0  0  0  0
    7.1194    8.3344   24.6775 C   0  0  0  0  0  0  0  0  0  0  0  0
    8.4311    4.7963   22.0500 C   0  0  0  0  0  0  0  0  0  0  0  0
    8.7393   10.8706   24.1871 O   0  0  0  0  0  0  0  0  0  0  0  0
    9.3093    3.8166   21.6712 C   0  0  0  0  0  0  0  0  0  0  0  0
  1  5  1  0
  1 15  4  0
  1 22  4  0
  2 20  1  0
  2 24  1  0
  3  6  4  0
  3 27  4  0
  4 22  4  0
  4 26  4  0
  6  7  4  0
  6 13  1  0
  7 19  4  0
  8 18  1  0
  8 23  1  0
  8 28  2  0
  9 17  1  0
  9 24  1  0
 10 11  1  0
 10 24  1  0
 11 23  1  0
 12 14  4  0
 12 16  4  0
 14 19  4  0
 15 18  4  0
 16 20  4  0
 17 25  1  0
 18 26  4  0
 19 29  4  0
 20 29  4  0
 21 23  1  0
 21 25  1  0
 27 29  4  0
M  END
$$$$

 Created by Python create_sdf_string function

 29 32  0  0  0  0  0  0  0  0999 V2000
    5.4450    8.7154   22.6662 C   0  0  0  0  0  0  0  0  0  0  0  0
   10.9154    5.4574   20.5483 C   0  0  0  0  0  0  0  0  0  0  0  0
    7.2709    4.5089   22.7542 C   0  0  0  0  0  0  0  0  0  0  0  0
    5.9698    7.6329   24.6581 C   0  0  0  0  0  0  0  0  0  0  0  0
    4.5542    8.9057   21.7104 O   0  0  0  0  0  0  0  0  0  0  0  0
    6.9895    3.2085   23.0690 C   0  0  0  0  0  0  0  0  0  0  0  0
    7.8391    2.2253   22.7260 N   0  0  0  0  0  0  0  0  0  0  0  0
    8.6968    9.8373   23.6359 C   0  0  0  0  0  0  0  0  0  0  0  0
   12.5135    6.5957   21.8396 C   0  0  0  0  0  0  0  0  0  0  0  0
   10.9406    8.2330   21.1350 C   0  0  0  0  0  0  0  0  0  0  0  0
    9.6648    8.5956   21.7310 C   0  0  0  0  0  0  0  0  0  0  0  0
   10.8829    1.7153   20.9865 C   0  0  0  0  0  0  0  0  0  0  0  0
    5.7768    2.8533   23.7910 C   0  0  0  0  0  0  0  0  0  0  0  0
    9.7977    1.4791   21.6912 N   0  0  0  0  0  0  0  0  0  0  0  0
    6.5976    9.3401   22.6478 N   0  0  0  0  0  0  0  0  0  0  0  0
   11.2031    3.0042   20.6246 C   0  0  0  0  0  0  0  0  0  0  0  0
   12.8688    7.7370   22.7287 C   0  0  0  0  0  0  0  0  0  0  0  0
    7.4487    9.1361   23.6506 C   0  0  0  0  0  0  0  0  0  0  0  0
    8.9772    2.5025   22.0273 C   0  0  0  0  0  0  0  0  0  0  0  0
   10.4859    4.0901   20.9730 C   0  0  0  0  0  0  0  0  0  0  0  0
   11.0962    9.3293   23.5072 C   0  0  0  0  0  0  0  0  0  0  0  0
    5.1273    7.8529   23.6208 N   0  0  0  0  0  0  0  0  0  0  0  0
    9.7552    9.2338   23.0171 N   0  0  0  0  0  0  0  0  0  0  0  0
   11.1797    6.7591   21.3326 N   0  0  0  0  0  0  0  0  0  0  0  0
   11.7728    8.0337   23.7267 C   0  0  0  0  0  0  0  0  0  0  0  0
    7.1194    8.3344   24.6775 C   0  0  0  0  0  0  0  0  0  0  0  0
    8.4311    4.7963   22.0500 C   0  0  0  0  0  0  0  0  0  0  0  0
    8.7393   10.8706   24.1871 O   0  0  0  0  0  0  0  0  0  0  0  0
    9.3093    3.8166   21.6712 C   0  0  0  0  0  0  0  0  0  0  0  0
  1  5  1  0
  1 15  4  0
  1 22  4  0
  2 20  1  0
  2 24  1  0
  3  6  4  0
  3 27  4  0
  4 22  4  0
  4 26  4  0
  6  7  4  0
  6 13  1  0
  7 19  4  0
  8 18  1  0
  8 23  1  0
  8 28  2  0
  9 17  1  0
  9 24  1  0
 10 11  1  0
 10 24  1  0
 11 23  1  0
 12 14  4  0
 12 16  4  0
 14 19  4  0
 15 18  4  0
 16 20  4  0
 17 25  1  0
 18 26  4  0
 19 29  4  0
 20 29  4  0
 21 23  1  0
 21 25  1  0
 27 29  4  0
M  END
$$$$

 Created by Python create_sdf_string function

 29 32  0  0  0  0  0  0  0  0999 V2000
    5.4450    8.7154   22.6662 C   0  0  0  0  0  0  0  0  0  0  0  0
   10.9154    5.4574   20.5483 C   0  0  0  0  0  0  0  0  0  0  0  0
    7.2709    4.5089   22.7542 C   0  0  0  0  0  0  0  0  0  0  0  0
    5.9698    7.6329   24.6581 C   0  0  0  0  0  0  0  0  0  0  0  0
    4.5542    8.9057   21.7104 O   0  0  0  0  0  0  0  0  0  0  0  0
    6.9895    3.2085   23.0690 C   0  0  0  0  0  0  0  0  0  0  0  0
    7.8391    2.2253   22.7260 N   0  0  0  0  0  0  0  0  0  0  0  0
    8.6968    9.8373   23.6359 C   0  0  0  0  0  0  0  0  0  0  0  0
   12.5135    6.5957   21.8396 C   0  0  0  0  0  0  0  0  0  0  0  0
   10.9406    8.2330   21.1350 C   0  0  0  0  0  0  0  0  0  0  0  0
    9.6648    8.5956   21.7310 C   0  0  0  0  0  0  0  0  0  0  0  0
   10.8829    1.7153   20.9865 C   0  0  0  0  0  0  0  0  0  0  0  0
    5.7768    2.8533   23.7910 C   0  0  0  0  0  0  0  0  0  0  0  0
    9.7977    1.4791   21.6912 N   0  0  0  0  0  0  0  0  0  0  0  0
    6.5976    9.3401   22.6478 N   0  0  0  0  0  0  0  0  0  0  0  0
   11.2031    3.0042   20.6246 C   0  0  0  0  0  0  0  0  0  0  0  0
   12.8688    7.7370   22.7287 C   0  0  0  0  0  0  0  0  0  0  0  0
    7.4487    9.1361   23.6506 C   0  0  0  0  0  0  0  0  0  0  0  0
    8.9772    2.5025   22.0273 C   0  0  0  0  0  0  0  0  0  0  0  0
   10.4859    4.0901   20.9730 C   0  0  0  0  0  0  0  0  0  0  0  0
   11.0962    9.3293   23.5072 C   0  0  0  0  0  0  0  0  0  0  0  0
    5.1273    7.8529   23.6208 N   0  0  0  0  0  0  0  0  0  0  0  0
    9.7552    9.2338   23.0171 N   0  0  0  0  0  0  0  0  0  0  0  0
   11.1797    6.7591   21.3326 N   0  0  0  0  0  0  0  0  0  0  0  0
   11.7728    8.0337   23.7267 C   0  0  0  0  0  0  0  0  0  0  0  0
    7.1194    8.3344   24.6775 C   0  0  0  0  0  0  0  0  0  0  0  0
    8.4311    4.7963   22.0500 C   0  0  0  0  0  0  0  0  0  0  0  0
    8.7393   10.8706   24.1871 O   0  0  0  0  0  0  0  0  0  0  0  0
    9.3093    3.8166   21.6712 C   0  0  0  0  0  0  0  0  0  0  0  0
  1  5  1  0
  1 15  4  0
  1 22  4  0
  2 20  1  0
  2 24  1  0
  3  6  4  0
  3 27  4  0
  4 22  4  0
  4 26  4  0
  6  7  4  0
  6 13  1  0
  7 19  4  0
  8 18  1  0
  8 23  1  0
  8 28  2  0
  9 17  1  0
  9 24  1  0
 10 11  1  0
 10 24  1  0
 11 23  1  0
 12 14  4  0
 12 16  4  0
 14 19  4  0
 15 18  4  0
 16 20  4  0
 17 25  1  0
 18 26  4  0
 19 29  4  0
 20 29  4  0
 21 23  1  0
 21 25  1  0
 27 29  4  0
M  END
$$$$

 Created by Python create_sdf_string function

 29 32  0  0  0  0  0  0  0  0999 V2000
    5.4450    8.7154   22.6662 C   0  0  0  0  0  0  0  0  0  0  0  0
   10.9154    5.4574   20.5483 C   0  0  0  0  0  0  0  0  0  0  0  0
    7.2709    4.5089   22.7542 C   0  0  0  0  0  0  0  0  0  0  0  0
    5.9698    7.6329   24.6581 C   0  0  0  0  0  0  0  0  0  0  0  0
    4.5542    8.9057   21.7104 O   0  0  0  0  0  0  0  0  0  0  0  0
    6.9895    3.2085   23.0690 C   0  0  0  0  0  0  0  0  0  0  0  0
    7.8391    2.2253   22.7260 N   0  0  0  0  0  0  0  0  0  0  0  0
    8.6968    9.8373   23.6359 C   0  0  0  0  0  0  0  0  0  0  0  0
   12.5135    6.5957   21.8396 C   0  0  0  0  0  0  0  0  0  0  0  0
   10.9406    8.2330   21.1350 C   0  0  0  0  0  0  0  0  0  0  0  0
    9.6648    8.5956   21.7310 C   0  0  0  0  0  0  0  0  0  0  0  0
   10.8829    1.7153   20.9865 C   0  0  0  0  0  0  0  0  0  0  0  0
    5.7768    2.8533   23.7910 C   0  0  0  0  0  0  0  0  0  0  0  0
    9.7977    1.4791   21.6912 N   0  0  0  0  0  0  0  0  0  0  0  0
    6.5976    9.3401   22.6478 N   0  0  0  0  0  0  0  0  0  0  0  0
   11.2031    3.0042   20.6246 C   0  0  0  0  0  0  0  0  0  0  0  0
   12.8688    7.7370   22.7287 C   0  0  0  0  0  0  0  0  0  0  0  0
    7.4487    9.1361   23.6506 C   0  0  0  0  0  0  0  0  0  0  0  0
    8.9772    2.5025   22.0273 C   0  0  0  0  0  0  0  0  0  0  0  0
   10.4859    4.0901   20.9730 C   0  0  0  0  0  0  0  0  0  0  0  0
   11.0962    9.3293   23.5072 C   0  0  0  0  0  0  0  0  0  0  0  0
    5.1273    7.8529   23.6208 N   0  0  0  0  0  0  0  0  0  0  0  0
    9.7552    9.2338   23.0171 N   0  0  0  0  0  0  0  0  0  0  0  0
   11.1797    6.7591   21.3326 N   0  0  0  0  0  0  0  0  0  0  0  0
   11.7728    8.0337   23.7267 C   0  0  0  0  0  0  0  0  0  0  0  0
    7.1194    8.3344   24.6775 C   0  0  0  0  0  0  0  0  0  0  0  0
    8.4311    4.7963   22.0500 C   0  0  0  0  0  0  0  0  0  0  0  0
    8.7393   10.8706   24.1871 O   0  0  0  0  0  0  0  0  0  0  0  0
    9.3093    3.8166   21.6712 C   0  0  0  0  0  0  0  0  0  0  0  0
  1  5  1  0
  1 15  4  0
  1 22  4  0
  2 20  1  0
  2 24  1  0
  3  6  4  0
  3 27  4  0
  4 22  4  0
  4 26  4  0
  6  7  4  0
  6 13  1  0
  7 19  4  0
  8 18  1  0
  8 23  1  0
  8 28  2  0
  9 17  1  0
  9 24  1  0
 10 11  1  0
 10 24  1  0
 11 23  1  0
 12 14  4  0
 12 16  4  0
 14 19  4  0
 15 18  4  0
 16 20  4  0
 17 25  1  0
 18 26  4  0
 19 29  4  0
 20 29  4  0
 21 23  1  0
 21 25  1  0
 27 29  4  0
M  END
$$$$

 Created by Python create_sdf_string function

 29 32  0  0  0  0  0  0  0  0999 V2000
    5.4450    8.7154   22.6662 C   0  0  0  0  0  0  0  0  0  0  0  0
   10.9154    5.4574   20.5483 C   0  0  0  0  0  0  0  0  0  0  0  0
    7.2709    4.5089   22.7542 C   0  0  0  0  0  0  0  0  0  0  0  0
    5.9698    7.6329   24.6581 C   0  0  0  0  0  0  0  0  0  0  0  0
    4.5542    8.9057   21.7104 O   0  0  0  0  0  0  0  0  0  0  0  0
    6.9895    3.2085   23.0690 C   0  0  0  0  0  0  0  0  0  0  0  0
    7.8391    2.2253   22.7260 N   0  0  0  0  0  0  0  0  0  0  0  0
    8.6968    9.8373   23.6359 C   0  0  0  0  0  0  0  0  0  0  0  0
   12.5135    6.5957   21.8396 C   0  0  0  0  0  0  0  0  0  0  0  0
   10.9406    8.2330   21.1350 C   0  0  0  0  0  0  0  0  0  0  0  0
    9.6648    8.5956   21.7310 C   0  0  0  0  0  0  0  0  0  0  0  0
   10.8829    1.7153   20.9865 C   0  0  0  0  0  0  0  0  0  0  0  0
    5.7768    2.8533   23.7910 C   0  0  0  0  0  0  0  0  0  0  0  0
    9.7977    1.4791   21.6912 N   0  0  0  0  0  0  0  0  0  0  0  0
    6.5976    9.3401   22.6478 N   0  0  0  0  0  0  0  0  0  0  0  0
   11.2031    3.0042   20.6246 C   0  0  0  0  0  0  0  0  0  0  0  0
   12.8688    7.7370   22.7287 C   0  0  0  0  0  0  0  0  0  0  0  0
    7.4487    9.1361   23.6506 C   0  0  0  0  0  0  0  0  0  0  0  0
    8.9772    2.5025   22.0273 C   0  0  0  0  0  0  0  0  0  0  0  0
   10.4859    4.0901   20.9730 C   0  0  0  0  0  0  0  0  0  0  0  0
   11.0962    9.3293   23.5072 C   0  0  0  0  0  0  0  0  0  0  0  0
    5.1273    7.8529   23.6208 N   0  0  0  0  0  0  0  0  0  0  0  0
    9.7552    9.2338   23.0171 N   0  0  0  0  0  0  0  0  0  0  0  0
   11.1797    6.7591   21.3326 N   0  0  0  0  0  0  0  0  0  0  0  0
   11.7728    8.0337   23.7267 C   0  0  0  0  0  0  0  0  0  0  0  0
    7.1194    8.3344   24.6775 C   0  0  0  0  0  0  0  0  0  0  0  0
    8.4311    4.7963   22.0500 C   0  0  0  0  0  0  0  0  0  0  0  0
    8.7393   10.8706   24.1871 O   0  0  0  0  0  0  0  0  0  0  0  0
    9.3093    3.8166   21.6712 C   0  0  0  0  0  0  0  0  0  0  0  0
  1  5  1  0
  1 15  4  0
  1 22  4  0
  2 20  1  0
  2 24  1  0
  3  6  4  0
  3 27  4  0
  4 22  4  0
  4 26  4  0
  6  7  4  0
  6 13  1  0
  7 19  4  0
  8 18  1  0
  8 23  1  0
  8 28  2  0
  9 17  1  0
  9 24  1  0
 10 11  1  0
 10 24  1  0
 11 23  1  0
 12 14  4  0
 12 16  4  0
 14 19  4  0
 15 18  4  0
 16 20  4  0
 17 25  1  0
 18 26  4  0
 19 29  4  0
 20 29  4  0
 21 23  1  0
 21 25  1  0
 27 29  4  0
M  END
$$$$

 Created by Python create_sdf_string function

 29 32  0  0  0  0  0  0  0  0999 V2000
    5.4450    8.7154   22.6662 C   0  0  0  0  0  0  0  0  0  0  0  0
   10.9154    5.4574   20.5483 C   0  0  0  0  0  0  0  0  0  0  0  0
    7.2709    4.5089   22.7542 C   0  0  0  0  0  0  0  0  0  0  0  0
    5.9698    7.6329   24.6581 C   0  0  0  0  0  0  0  0  0  0  0  0
    4.5542    8.9057   21.7104 O   0  0  0  0  0  0  0  0  0  0  0  0
    6.9895    3.2085   23.0690 C   0  0  0  0  0  0  0  0  0  0  0  0
    7.8391    2.2253   22.7260 N   0  0  0  0  0  0  0  0  0  0  0  0
    8.6968    9.8373   23.6359 C   0  0  0  0  0  0  0  0  0  0  0  0
   12.5135    6.5957   21.8396 C   0  0  0  0  0  0  0  0  0  0  0  0
   10.9406    8.2330   21.1350 C   0  0  0  0  0  0  0  0  0  0  0  0
    9.6648    8.5956   21.7310 C   0  0  0  0  0  0  0  0  0  0  0  0
   10.8829    1.7153   20.9865 C   0  0  0  0  0  0  0  0  0  0  0  0
    5.7768    2.8533   23.7910 C   0  0  0  0  0  0  0  0  0  0  0  0
    9.7977    1.4791   21.6912 N   0  0  0  0  0  0  0  0  0  0  0  0
    6.5976    9.3401   22.6478 N   0  0  0  0  0  0  0  0  0  0  0  0
   11.2031    3.0042   20.6246 C   0  0  0  0  0  0  0  0  0  0  0  0
   12.8688    7.7370   22.7287 C   0  0  0  0  0  0  0  0  0  0  0  0
    7.4487    9.1361   23.6506 C   0  0  0  0  0  0  0  0  0  0  0  0
    8.9772    2.5025   22.0273 C   0  0  0  0  0  0  0  0  0  0  0  0
   10.4859    4.0901   20.9730 C   0  0  0  0  0  0  0  0  0  0  0  0
   11.0962    9.3293   23.5072 C   0  0  0  0  0  0  0  0  0  0  0  0
    5.1273    7.8529   23.6208 N   0  0  0  0  0  0  0  0  0  0  0  0
    9.7552    9.2338   23.0171 N   0  0  0  0  0  0  0  0  0  0  0  0
   11.1797    6.7591   21.3326 N   0  0  0  0  0  0  0  0  0  0  0  0
   11.7728    8.0337   23.7267 C   0  0  0  0  0  0  0  0  0  0  0  0
    7.1194    8.3344   24.6775 C   0  0  0  0  0  0  0  0  0  0  0  0
    8.4311    4.7963   22.0500 C   0  0  0  0  0  0  0  0  0  0  0  0
    8.7393   10.8706   24.1871 O   0  0  0  0  0  0  0  0  0  0  0  0
    9.3093    3.8166   21.6712 C   0  0  0  0  0  0  0  0  0  0  0  0
  1  5  1  0
  1 15  4  0
  1 22  4  0
  2 20  1  0
  2 24  1  0
  3  6  4  0
  3 27  4  0
  4 22  4  0
  4 26  4  0
  6  7  4  0
  6 13  1  0
  7 19  4  0
  8 18  1  0
  8 23  1  0
  8 28  2  0
  9 17  1  0
  9 24  1  0
 10 11  1  0
 10 24  1  0
 11 23  1  0
 12 14  4  0
 12 16  4  0
 14 19  4  0
 15 18  4  0
 16 20  4  0
 17 25  1  0
 18 26  4  0
 19 29  4  0
 20 29  4  0
 21 23  1  0
 21 25  1  0
 27 29  4  0
M  END
$$$$

 Created by Python create_sdf_string function

 29 32  0  0  0  0  0  0  0  0999 V2000
    5.4450    8.7154   22.6662 C   0  0  0  0  0  0  0  0  0  0  0  0
   10.9154    5.4574   20.5483 C   0  0  0  0  0  0  0  0  0  0  0  0
    7.2709    4.5089   22.7542 C   0  0  0  0  0  0  0  0  0  0  0  0
    5.9698    7.6329   24.6581 C   0  0  0  0  0  0  0  0  0  0  0  0
    4.5542    8.9057   21.7104 O   0  0  0  0  0  0  0  0  0  0  0  0
    6.9895    3.2085   23.0690 C   0  0  0  0  0  0  0  0  0  0  0  0
    7.8391    2.2253   22.7260 N   0  0  0  0  0  0  0  0  0  0  0  0
    8.6968    9.8373   23.6359 C   0  0  0  0  0  0  0  0  0  0  0  0
   12.5135    6.5957   21.8396 C   0  0  0  0  0  0  0  0  0  0  0  0
   10.9406    8.2330   21.1350 C   0  0  0  0  0  0  0  0  0  0  0  0
    9.6648    8.5956   21.7310 C   0  0  0  0  0  0  0  0  0  0  0  0
   10.8829    1.7153   20.9865 C   0  0  0  0  0  0  0  0  0  0  0  0
    5.7768    2.8533   23.7910 C   0  0  0  0  0  0  0  0  0  0  0  0
    9.7977    1.4791   21.6912 N   0  0  0  0  0  0  0  0  0  0  0  0
    6.5976    9.3401   22.6478 N   0  0  0  0  0  0  0  0  0  0  0  0
   11.2031    3.0042   20.6246 C   0  0  0  0  0  0  0  0  0  0  0  0
   12.8688    7.7370   22.7287 C   0  0  0  0  0  0  0  0  0  0  0  0
    7.4487    9.1361   23.6506 C   0  0  0  0  0  0  0  0  0  0  0  0
    8.9772    2.5025   22.0273 C   0  0  0  0  0  0  0  0  0  0  0  0
   10.4859    4.0901   20.9730 C   0  0  0  0  0  0  0  0  0  0  0  0
   11.0962    9.3293   23.5072 C   0  0  0  0  0  0  0  0  0  0  0  0
    5.1273    7.8529   23.6208 N   0  0  0  0  0  0  0  0  0  0  0  0
    9.7552    9.2338   23.0171 N   0  0  0  0  0  0  0  0  0  0  0  0
   11.1797    6.7591   21.3326 N   0  0  0  0  0  0  0  0  0  0  0  0
   11.7728    8.0337   23.7267 C   0  0  0  0  0  0  0  0  0  0  0  0
    7.1194    8.3344   24.6775 C   0  0  0  0  0  0  0  0  0  0  0  0
    8.4311    4.7963   22.0500 C   0  0  0  0  0  0  0  0  0  0  0  0
    8.7393   10.8706   24.1871 O   0  0  0  0  0  0  0  0  0  0  0  0
    9.3093    3.8166   21.6712 C   0  0  0  0  0  0  0  0  0  0  0  0
  1  5  1  0
  1 15  4  0
  1 22  4  0
  2 20  1  0
  2 24  1  0
  3  6  4  0
  3 27  4  0
  4 22  4  0
  4 26  4  0
  6  7  4  0
  6 13  1  0
  7 19  4  0
  8 18  1  0
  8 23  1  0
  8 28  2  0
  9 17  1  0
  9 24  1  0
 10 11  1  0
 10 24  1  0
 11 23  1  0
 12 14  4  0
 12 16  4  0
 14 19  4  0
 15 18  4  0
 16 20  4  0
 17 25  1  0
 18 26  4  0
 19 29  4  0
 20 29  4  0
 21 23  1  0
 21 25  1  0
 27 29  4  0
M  END
$$$$

 Created by Python create_sdf_string function

 29 32  0  0  0  0  0  0  0  0999 V2000
    5.4450    8.7154   22.6662 C   0  0  0  0  0  0  0  0  0  0  0  0
   10.9154    5.4574   20.5483 C   0  0  0  0  0  0  0  0  0  0  0  0
    7.2709    4.5089   22.7542 C   0  0  0  0  0  0  0  0  0  0  0  0
    5.9698    7.6329   24.6581 C   0  0  0  0  0  0  0  0  0  0  0  0
    4.5542    8.9057   21.7104 O   0  0  0  0  0  0  0  0  0  0  0  0
    6.9895    3.2085   23.0690 C   0  0  0  0  0  0  0  0  0  0  0  0
    7.8391    2.2253   22.7260 N   0  0  0  0  0  0  0  0  0  0  0  0
    8.6968    9.8373   23.6359 C   0  0  0  0  0  0  0  0  0  0  0  0
   12.5135    6.5957   21.8396 C   0  0  0  0  0  0  0  0  0  0  0  0
   10.9406    8.2330   21.1350 C   0  0  0  0  0  0  0  0  0  0  0  0
    9.6648    8.5956   21.7310 C   0  0  0  0  0  0  0  0  0  0  0  0
   10.8829    1.7153   20.9865 C   0  0  0  0  0  0  0  0  0  0  0  0
    5.7768    2.8533   23.7910 C   0  0  0  0  0  0  0  0  0  0  0  0
    9.7977    1.4791   21.6912 N   0  0  0  0  0  0  0  0  0  0  0  0
    6.5976    9.3401   22.6478 N   0  0  0  0  0  0  0  0  0  0  0  0
   11.2031    3.0042   20.6246 C   0  0  0  0  0  0  0  0  0  0  0  0
   12.8688    7.7370   22.7287 C   0  0  0  0  0  0  0  0  0  0  0  0
    7.4487    9.1361   23.6506 C   0  0  0  0  0  0  0  0  0  0  0  0
    8.9772    2.5025   22.0273 C   0  0  0  0  0  0  0  0  0  0  0  0
   10.4859    4.0901   20.9730 C   0  0  0  0  0  0  0  0  0  0  0  0
   11.0962    9.3293   23.5072 C   0  0  0  0  0  0  0  0  0  0  0  0
    5.1273    7.8529   23.6208 N   0  0  0  0  0  0  0  0  0  0  0  0
    9.7552    9.2338   23.0171 N   0  0  0  0  0  0  0  0  0  0  0  0
   11.1797    6.7591   21.3326 N   0  0  0  0  0  0  0  0  0  0  0  0
   11.7728    8.0337   23.7267 C   0  0  0  0  0  0  0  0  0  0  0  0
    7.1194    8.3344   24.6775 C   0  0  0  0  0  0  0  0  0  0  0  0
    8.4311    4.7963   22.0500 C   0  0  0  0  0  0  0  0  0  0  0  0
    8.7393   10.8706   24.1871 O   0  0  0  0  0  0  0  0  0  0  0  0
    9.3093    3.8166   21.6712 C   0  0  0  0  0  0  0  0  0  0  0  0
  1  5  1  0
  1 15  4  0
  1 22  4  0
  2 20  1  0
  2 24  1  0
  3  6  4  0
  3 27  4  0
  4 22  4  0
  4 26  4  0
  6  7  4  0
  6 13  1  0
  7 19  4  0
  8 18  1  0
  8 23  1  0
  8 28  2  0
  9 17  1  0
  9 24  1  0
 10 11  1  0
 10 24  1  0
 11 23  1  0
 12 14  4  0
 12 16  4  0
 14 19  4  0
 15 18  4  0
 16 20  4  0
 17 25  1  0
 18 26  4  0
 19 29  4  0
 20 29  4  0
 21 23  1  0
 21 25  1  0
 27 29  4  0
M  END
$$$$

 Created by Python create_sdf_string function

 29 32  0  0  0  0  0  0  0  0999 V2000
    5.4450    8.7154   22.6662 C   0  0  0  0  0  0  0  0  0  0  0  0
   10.9154    5.4574   20.5483 C   0  0  0  0  0  0  0  0  0  0  0  0
    7.2709    4.5089   22.7542 C   0  0  0  0  0  0  0  0  0  0  0  0
    5.9698    7.6329   24.6581 C   0  0  0  0  0  0  0  0  0  0  0  0
    4.5542    8.9057   21.7104 O   0  0  0  0  0  0  0  0  0  0  0  0
    6.9895    3.2085   23.0690 C   0  0  0  0  0  0  0  0  0  0  0  0
    7.8391    2.2253   22.7260 N   0  0  0  0  0  0  0  0  0  0  0  0
    8.6968    9.8373   23.6359 C   0  0  0  0  0  0  0  0  0  0  0  0
   12.5135    6.5957   21.8396 C   0  0  0  0  0  0  0  0  0  0  0  0
   10.9406    8.2330   21.1350 C   0  0  0  0  0  0  0  0  0  0  0  0
    9.6648    8.5956   21.7310 C   0  0  0  0  0  0  0  0  0  0  0  0
   10.8829    1.7153   20.9865 C   0  0  0  0  0  0  0  0  0  0  0  0
    5.7768    2.8533   23.7910 C   0  0  0  0  0  0  0  0  0  0  0  0
    9.7977    1.4791   21.6912 N   0  0  0  0  0  0  0  0  0  0  0  0
    6.5976    9.3401   22.6478 N   0  0  0  0  0  0  0  0  0  0  0  0
   11.2031    3.0042   20.6246 C   0  0  0  0  0  0  0  0  0  0  0  0
   12.8688    7.7370   22.7287 C   0  0  0  0  0  0  0  0  0  0  0  0
    7.4487    9.1361   23.6506 C   0  0  0  0  0  0  0  0  0  0  0  0
    8.9772    2.5025   22.0273 C   0  0  0  0  0  0  0  0  0  0  0  0
   10.4859    4.0901   20.9730 C   0  0  0  0  0  0  0  0  0  0  0  0
   11.0962    9.3293   23.5072 C   0  0  0  0  0  0  0  0  0  0  0  0
    5.1273    7.8529   23.6208 N   0  0  0  0  0  0  0  0  0  0  0  0
    9.7552    9.2338   23.0171 N   0  0  0  0  0  0  0  0  0  0  0  0
   11.1797    6.7591   21.3326 N   0  0  0  0  0  0  0  0  0  0  0  0
   11.7728    8.0337   23.7267 C   0  0  0  0  0  0  0  0  0  0  0  0
    7.1194    8.3344   24.6775 C   0  0  0  0  0  0  0  0  0  0  0  0
    8.4311    4.7963   22.0500 C   0  0  0  0  0  0  0  0  0  0  0  0
    8.7393   10.8706   24.1871 O   0  0  0  0  0  0  0  0  0  0  0  0
    9.3093    3.8166   21.6712 C   0  0  0  0  0  0  0  0  0  0  0  0
  1  5  1  0
  1 15  4  0
  1 22  4  0
  2 20  1  0
  2 24  1  0
  3  6  4  0
  3 27  4  0
  4 22  4  0
  4 26  4  0
  6  7  4  0
  6 13  1  0
  7 19  4  0
  8 18  1  0
  8 23  1  0
  8 28  2  0
  9 17  1  0
  9 24  1  0
 10 11  1  0
 10 24  1  0
 11 23  1  0
 12 14  4  0
 12 16  4  0
 14 19  4  0
 15 18  4  0
 16 20  4  0
 17 25  1  0
 18 26  4  0
 19 29  4  0
 20 29  4  0
 21 23  1  0
 21 25  1  0
 27 29  4  0
M  END
$$$$

 Created by Python create_sdf_string function

 29 32  0  0  0  0  0  0  0  0999 V2000
    5.4450    8.7154   22.6662 C   0  0  0  0  0  0  0  0  0  0  0  0
   10.9154    5.4574   20.5483 C   0  0  0  0  0  0  0  0  0  0  0  0
    7.2709    4.5089   22.7542 C   0  0  0  0  0  0  0  0  0  0  0  0
    5.9698    7.6329   24.6581 C   0  0  0  0  0  0  0  0  0  0  0  0
    4.5542    8.9057   21.7104 O   0  0  0  0  0  0  0  0  0  0  0  0
    6.9895    3.2085   23.0690 C   0  0  0  0  0  0  0  0  0  0  0  0
    7.8391    2.2253   22.7260 N   0  0  0  0  0  0  0  0  0  0  0  0
    8.6968    9.8373   23.6359 C   0  0  0  0  0  0  0  0  0  0  0  0
   12.5135    6.5957   21.8396 C   0  0  0  0  0  0  0  0  0  0  0  0
   10.9406    8.2330   21.1350 C   0  0  0  0  0  0  0  0  0  0  0  0
    9.6648    8.5956   21.7310 C   0  0  0  0  0  0  0  0  0  0  0  0
   10.8829    1.7153   20.9865 C   0  0  0  0  0  0  0  0  0  0  0  0
    5.7768    2.8533   23.7910 C   0  0  0  0  0  0  0  0  0  0  0  0
    9.7977    1.4791   21.6912 N   0  0  0  0  0  0  0  0  0  0  0  0
    6.5976    9.3401   22.6478 N   0  0  0  0  0  0  0  0  0  0  0  0
   11.2031    3.0042   20.6246 C   0  0  0  0  0  0  0  0  0  0  0  0
   12.8688    7.7370   22.7287 C   0  0  0  0  0  0  0  0  0  0  0  0
    7.4487    9.1361   23.6506 C   0  0  0  0  0  0  0  0  0  0  0  0
    8.9772    2.5025   22.0273 C   0  0  0  0  0  0  0  0  0  0  0  0
   10.4859    4.0901   20.9730 C   0  0  0  0  0  0  0  0  0  0  0  0
   11.0962    9.3293   23.5072 C   0  0  0  0  0  0  0  0  0  0  0  0
    5.1273    7.8529   23.6208 N   0  0  0  0  0  0  0  0  0  0  0  0
    9.7552    9.2338   23.0171 N   0  0  0  0  0  0  0  0  0  0  0  0
   11.1797    6.7591   21.3326 N   0  0  0  0  0  0  0  0  0  0  0  0
   11.7728    8.0337   23.7267 C   0  0  0  0  0  0  0  0  0  0  0  0
    7.1194    8.3344   24.6775 C   0  0  0  0  0  0  0  0  0  0  0  0
    8.4311    4.7963   22.0500 C   0  0  0  0  0  0  0  0  0  0  0  0
    8.7393   10.8706   24.1871 O   0  0  0  0  0  0  0  0  0  0  0  0
    9.3093    3.8166   21.6712 C   0  0  0  0  0  0  0  0  0  0  0  0
  1  5  1  0
  1 15  4  0
  1 22  4  0
  2 20  1  0
  2 24  1  0
  3  6  4  0
  3 27  4  0
  4 22  4  0
  4 26  4  0
  6  7  4  0
  6 13  1  0
  7 19  4  0
  8 18  1  0
  8 23  1  0
  8 28  2  0
  9 17  1  0
  9 24  1  0
 10 11  1  0
 10 24  1  0
 11 23  1  0
 12 14  4  0
 12 16  4  0
 14 19  4  0
 15 18  4  0
 16 20  4  0
 17 25  1  0
 18 26  4  0
 19 29  4  0
 20 29  4  0
 21 23  1  0
 21 25  1  0
 27 29  4  0
M  END
$$$$

 Created by Python create_sdf_string function

 29 32  0  0  0  0  0  0  0  0999 V2000
    5.4450    8.7154   22.6662 C   0  0  0  0  0  0  0  0  0  0  0  0
   10.9154    5.4574   20.5483 C   0  0  0  0  0  0  0  0  0  0  0  0
    7.2709    4.5089   22.7542 C   0  0  0  0  0  0  0  0  0  0  0  0
    5.9698    7.6329   24.6581 C   0  0  0  0  0  0  0  0  0  0  0  0
    4.5542    8.9057   21.7104 O   0  0  0  0  0  0  0  0  0  0  0  0
    6.9895    3.2085   23.0690 C   0  0  0  0  0  0  0  0  0  0  0  0
    7.8391    2.2253   22.7260 N   0  0  0  0  0  0  0  0  0  0  0  0
    8.6968    9.8373   23.6359 C   0  0  0  0  0  0  0  0  0  0  0  0
   12.5135    6.5957   21.8396 C   0  0  0  0  0  0  0  0  0  0  0  0
   10.9406    8.2330   21.1350 C   0  0  0  0  0  0  0  0  0  0  0  0
    9.6648    8.5956   21.7310 C   0  0  0  0  0  0  0  0  0  0  0  0
   10.8829    1.7153   20.9865 C   0  0  0  0  0  0  0  0  0  0  0  0
    5.7768    2.8533   23.7910 C   0  0  0  0  0  0  0  0  0  0  0  0
    9.7977    1.4791   21.6912 N   0  0  0  0  0  0  0  0  0  0  0  0
    6.5976    9.3401   22.6478 N   0  0  0  0  0  0  0  0  0  0  0  0
   11.2031    3.0042   20.6246 C   0  0  0  0  0  0  0  0  0  0  0  0
   12.8688    7.7370   22.7287 C   0  0  0  0  0  0  0  0  0  0  0  0
    7.4487    9.1361   23.6506 C   0  0  0  0  0  0  0  0  0  0  0  0
    8.9772    2.5025   22.0273 C   0  0  0  0  0  0  0  0  0  0  0  0
   10.4859    4.0901   20.9730 C   0  0  0  0  0  0  0  0  0  0  0  0
   11.0962    9.3293   23.5072 C   0  0  0  0  0  0  0  0  0  0  0  0
    5.1273    7.8529   23.6208 N   0  0  0  0  0  0  0  0  0  0  0  0
    9.7552    9.2338   23.0171 N   0  0  0  0  0  0  0  0  0  0  0  0
   11.1797    6.7591   21.3326 N   0  0  0  0  0  0  0  0  0  0  0  0
   11.7728    8.0337   23.7267 C   0  0  0  0  0  0  0  0  0  0  0  0
    7.1194    8.3344   24.6775 C   0  0  0  0  0  0  0  0  0  0  0  0
    8.4311    4.7963   22.0500 C   0  0  0  0  0  0  0  0  0  0  0  0
    8.7393   10.8706   24.1871 O   0  0  0  0  0  0  0  0  0  0  0  0
    9.3093    3.8166   21.6712 C   0  0  0  0  0  0  0  0  0  0  0  0
  1  5  1  0
  1 15  4  0
  1 22  4  0
  2 20  1  0
  2 24  1  0
  3  6  4  0
  3 27  4  0
  4 22  4  0
  4 26  4  0
  6  7  4  0
  6 13  1  0
  7 19  4  0
  8 18  1  0
  8 23  1  0
  8 28  2  0
  9 17  1  0
  9 24  1  0
 10 11  1  0
 10 24  1  0
 11 23  1  0
 12 14  4  0
 12 16  4  0
 14 19  4  0
 15 18  4  0
 16 20  4  0
 17 25  1  0
 18 26  4  0
 19 29  4  0
 20 29  4  0
 21 23  1  0
 21 25  1  0
 27 29  4  0
M  END
$$$$

 Created by Python create_sdf_string function

 29 32  0  0  0  0  0  0  0  0999 V2000
    5.4450    8.7154   22.6662 C   0  0  0  0  0  0  0  0  0  0  0  0
   10.9154    5.4574   20.5483 C   0  0  0  0  0  0  0  0  0  0  0  0
    7.2709    4.5089   22.7542 C   0  0  0  0  0  0  0  0  0  0  0  0
    5.9698    7.6329   24.6581 C   0  0  0  0  0  0  0  0  0  0  0  0
    4.5542    8.9057   21.7104 O   0  0  0  0  0  0  0  0  0  0  0  0
    6.9895    3.2085   23.0690 C   0  0  0  0  0  0  0  0  0  0  0  0
    7.8391    2.2253   22.7260 N   0  0  0  0  0  0  0  0  0  0  0  0
    8.6968    9.8373   23.6359 C   0  0  0  0  0  0  0  0  0  0  0  0
   12.5135    6.5957   21.8396 C   0  0  0  0  0  0  0  0  0  0  0  0
   10.9406    8.2330   21.1350 C   0  0  0  0  0  0  0  0  0  0  0  0
    9.6648    8.5956   21.7310 C   0  0  0  0  0  0  0  0  0  0  0  0
   10.8829    1.7153   20.9865 C   0  0  0  0  0  0  0  0  0  0  0  0
    5.7768    2.8533   23.7910 C   0  0  0  0  0  0  0  0  0  0  0  0
    9.7977    1.4791   21.6912 N   0  0  0  0  0  0  0  0  0  0  0  0
    6.5976    9.3401   22.6478 N   0  0  0  0  0  0  0  0  0  0  0  0
   11.2031    3.0042   20.6246 C   0  0  0  0  0  0  0  0  0  0  0  0
   12.8688    7.7370   22.7287 C   0  0  0  0  0  0  0  0  0  0  0  0
    7.4487    9.1361   23.6506 C   0  0  0  0  0  0  0  0  0  0  0  0
    8.9772    2.5025   22.0273 C   0  0  0  0  0  0  0  0  0  0  0  0
   10.4859    4.0901   20.9730 C   0  0  0  0  0  0  0  0  0  0  0  0
   11.0962    9.3293   23.5072 C   0  0  0  0  0  0  0  0  0  0  0  0
    5.1273    7.8529   23.6208 N   0  0  0  0  0  0  0  0  0  0  0  0
    9.7552    9.2338   23.0171 N   0  0  0  0  0  0  0  0  0  0  0  0
   11.1797    6.7591   21.3326 N   0  0  0  0  0  0  0  0  0  0  0  0
   11.7728    8.0337   23.7267 C   0  0  0  0  0  0  0  0  0  0  0  0
    7.1194    8.3344   24.6775 C   0  0  0  0  0  0  0  0  0  0  0  0
    8.4311    4.7963   22.0500 C   0  0  0  0  0  0  0  0  0  0  0  0
    8.7393   10.8706   24.1871 O   0  0  0  0  0  0  0  0  0  0  0  0
    9.3093    3.8166   21.6712 C   0  0  0  0  0  0  0  0  0  0  0  0
  1  5  1  0
  1 15  4  0
  1 22  4  0
  2 20  1  0
  2 24  1  0
  3  6  4  0
  3 27  4  0
  4 22  4  0
  4 26  4  0
  6  7  4  0
  6 13  1  0
  7 19  4  0
  8 18  1  0
  8 23  1  0
  8 28  2  0
  9 17  1  0
  9 24  1  0
 10 11  1  0
 10 24  1  0
 11 23  1  0
 12 14  4  0
 12 16  4  0
 14 19  4  0
 15 18  4  0
 16 20  4  0
 17 25  1  0
 18 26  4  0
 19 29  4  0
 20 29  4  0
 21 23  1  0
 21 25  1  0
 27 29  4  0
M  END
$$$$

 Created by Python create_sdf_string function

 29 32  0  0  0  0  0  0  0  0999 V2000
    5.4450    8.7154   22.6662 C   0  0  0  0  0  0  0  0  0  0  0  0
   10.9154    5.4574   20.5483 C   0  0  0  0  0  0  0  0  0  0  0  0
    7.2709    4.5089   22.7542 C   0  0  0  0  0  0  0  0  0  0  0  0
    5.9698    7.6329   24.6581 C   0  0  0  0  0  0  0  0  0  0  0  0
    4.5542    8.9057   21.7104 O   0  0  0  0  0  0  0  0  0  0  0  0
    6.9895    3.2085   23.0690 C   0  0  0  0  0  0  0  0  0  0  0  0
    7.8391    2.2253   22.7260 N   0  0  0  0  0  0  0  0  0  0  0  0
    8.6968    9.8373   23.6359 C   0  0  0  0  0  0  0  0  0  0  0  0
   12.5135    6.5957   21.8396 C   0  0  0  0  0  0  0  0  0  0  0  0
   10.9406    8.2330   21.1350 C   0  0  0  0  0  0  0  0  0  0  0  0
    9.6648    8.5956   21.7310 C   0  0  0  0  0  0  0  0  0  0  0  0
   10.8829    1.7153   20.9865 C   0  0  0  0  0  0  0  0  0  0  0  0
    5.7768    2.8533   23.7910 C   0  0  0  0  0  0  0  0  0  0  0  0
    9.7977    1.4791   21.6912 N   0  0  0  0  0  0  0  0  0  0  0  0
    6.5976    9.3401   22.6478 N   0  0  0  0  0  0  0  0  0  0  0  0
   11.2031    3.0042   20.6246 C   0  0  0  0  0  0  0  0  0  0  0  0
   12.8688    7.7370   22.7287 C   0  0  0  0  0  0  0  0  0  0  0  0
    7.4487    9.1361   23.6506 C   0  0  0  0  0  0  0  0  0  0  0  0
    8.9772    2.5025   22.0273 C   0  0  0  0  0  0  0  0  0  0  0  0
   10.4859    4.0901   20.9730 C   0  0  0  0  0  0  0  0  0  0  0  0
   11.0962    9.3293   23.5072 C   0  0  0  0  0  0  0  0  0  0  0  0
    5.1273    7.8529   23.6208 N   0  0  0  0  0  0  0  0  0  0  0  0
    9.7552    9.2338   23.0171 N   0  0  0  0  0  0  0  0  0  0  0  0
   11.1797    6.7591   21.3326 N   0  0  0  0  0  0  0  0  0  0  0  0
   11.7728    8.0337   23.7267 C   0  0  0  0  0  0  0  0  0  0  0  0
    7.1194    8.3344   24.6775 C   0  0  0  0  0  0  0  0  0  0  0  0
    8.4311    4.7963   22.0500 C   0  0  0  0  0  0  0  0  0  0  0  0
    8.7393   10.8706   24.1871 O   0  0  0  0  0  0  0  0  0  0  0  0
    9.3093    3.8166   21.6712 C   0  0  0  0  0  0  0  0  0  0  0  0
  1  5  1  0
  1 15  4  0
  1 22  4  0
  2 20  1  0
  2 24  1  0
  3  6  4  0
  3 27  4  0
  4 22  4  0
  4 26  4  0
  6  7  4  0
  6 13  1  0
  7 19  4  0
  8 18  1  0
  8 23  1  0
  8 28  2  0
  9 17  1  0
  9 24  1  0
 10 11  1  0
 10 24  1  0
 11 23  1  0
 12 14  4  0
 12 16  4  0
 14 19  4  0
 15 18  4  0
 16 20  4  0
 17 25  1  0
 18 26  4  0
 19 29  4  0
 20 29  4  0
 21 23  1  0
 21 25  1  0
 27 29  4  0
M  END
$$$$

 Created by Python create_sdf_string function

 29 32  0  0  0  0  0  0  0  0999 V2000
    5.4450    8.7154   22.6662 C   0  0  0  0  0  0  0  0  0  0  0  0
   10.9154    5.4574   20.5483 C   0  0  0  0  0  0  0  0  0  0  0  0
    7.2709    4.5089   22.7542 C   0  0  0  0  0  0  0  0  0  0  0  0
    5.9698    7.6329   24.6581 C   0  0  0  0  0  0  0  0  0  0  0  0
    4.5542    8.9057   21.7104 O   0  0  0  0  0  0  0  0  0  0  0  0
    6.9895    3.2085   23.0690 C   0  0  0  0  0  0  0  0  0  0  0  0
    7.8391    2.2253   22.7260 N   0  0  0  0  0  0  0  0  0  0  0  0
    8.6968    9.8373   23.6359 C   0  0  0  0  0  0  0  0  0  0  0  0
   12.5135    6.5957   21.8396 C   0  0  0  0  0  0  0  0  0  0  0  0
   10.9406    8.2330   21.1350 C   0  0  0  0  0  0  0  0  0  0  0  0
    9.6648    8.5956   21.7310 C   0  0  0  0  0  0  0  0  0  0  0  0
   10.8829    1.7153   20.9865 C   0  0  0  0  0  0  0  0  0  0  0  0
    5.7768    2.8533   23.7910 C   0  0  0  0  0  0  0  0  0  0  0  0
    9.7977    1.4791   21.6912 N   0  0  0  0  0  0  0  0  0  0  0  0
    6.5976    9.3401   22.6478 N   0  0  0  0  0  0  0  0  0  0  0  0
   11.2031    3.0042   20.6246 C   0  0  0  0  0  0  0  0  0  0  0  0
   12.8688    7.7370   22.7287 C   0  0  0  0  0  0  0  0  0  0  0  0
    7.4487    9.1361   23.6506 C   0  0  0  0  0  0  0  0  0  0  0  0
    8.9772    2.5025   22.0273 C   0  0  0  0  0  0  0  0  0  0  0  0
   10.4859    4.0901   20.9730 C   0  0  0  0  0  0  0  0  0  0  0  0
   11.0962    9.3293   23.5072 C   0  0  0  0  0  0  0  0  0  0  0  0
    5.1273    7.8529   23.6208 N   0  0  0  0  0  0  0  0  0  0  0  0
    9.7552    9.2338   23.0171 N   0  0  0  0  0  0  0  0  0  0  0  0
   11.1797    6.7591   21.3326 N   0  0  0  0  0  0  0  0  0  0  0  0
   11.7728    8.0337   23.7267 C   0  0  0  0  0  0  0  0  0  0  0  0
    7.1194    8.3344   24.6775 C   0  0  0  0  0  0  0  0  0  0  0  0
    8.4311    4.7963   22.0500 C   0  0  0  0  0  0  0  0  0  0  0  0
    8.7393   10.8706   24.1871 O   0  0  0  0  0  0  0  0  0  0  0  0
    9.3093    3.8166   21.6712 C   0  0  0  0  0  0  0  0  0  0  0  0
  1  5  1  0
  1 15  4  0
  1 22  4  0
  2 20  1  0
  2 24  1  0
  3  6  4  0
  3 27  4  0
  4 22  4  0
  4 26  4  0
  6  7  4  0
  6 13  1  0
  7 19  4  0
  8 18  1  0
  8 23  1  0
  8 28  2  0
  9 17  1  0
  9 24  1  0
 10 11  1  0
 10 24  1  0
 11 23  1  0
 12 14  4  0
 12 16  4  0
 14 19  4  0
 15 18  4  0
 16 20  4  0
 17 25  1  0
 18 26  4  0
 19 29  4  0
 20 29  4  0
 21 23  1  0
 21 25  1  0
 27 29  4  0
M  END
$$$$

 Created by Python create_sdf_string function

 29 32  0  0  0  0  0  0  0  0999 V2000
    5.4450    8.7154   22.6662 C   0  0  0  0  0  0  0  0  0  0  0  0
   10.9154    5.4574   20.5483 C   0  0  0  0  0  0  0  0  0  0  0  0
    7.2709    4.5089   22.7542 C   0  0  0  0  0  0  0  0  0  0  0  0
    5.9698    7.6329   24.6581 C   0  0  0  0  0  0  0  0  0  0  0  0
    4.5542    8.9057   21.7104 O   0  0  0  0  0  0  0  0  0  0  0  0
    6.9895    3.2085   23.0690 C   0  0  0  0  0  0  0  0  0  0  0  0
    7.8391    2.2253   22.7260 N   0  0  0  0  0  0  0  0  0  0  0  0
    8.6968    9.8373   23.6359 C   0  0  0  0  0  0  0  0  0  0  0  0
   12.5135    6.5957   21.8396 C   0  0  0  0  0  0  0  0  0  0  0  0
   10.9406    8.2330   21.1350 C   0  0  0  0  0  0  0  0  0  0  0  0
    9.6648    8.5956   21.7310 C   0  0  0  0  0  0  0  0  0  0  0  0
   10.8829    1.7153   20.9865 C   0  0  0  0  0  0  0  0  0  0  0  0
    5.7768    2.8533   23.7910 C   0  0  0  0  0  0  0  0  0  0  0  0
    9.7977    1.4791   21.6912 N   0  0  0  0  0  0  0  0  0  0  0  0
    6.5976    9.3401   22.6478 N   0  0  0  0  0  0  0  0  0  0  0  0
   11.2031    3.0042   20.6246 C   0  0  0  0  0  0  0  0  0  0  0  0
   12.8688    7.7370   22.7287 C   0  0  0  0  0  0  0  0  0  0  0  0
    7.4487    9.1361   23.6506 C   0  0  0  0  0  0  0  0  0  0  0  0
    8.9772    2.5025   22.0273 C   0  0  0  0  0  0  0  0  0  0  0  0
   10.4859    4.0901   20.9730 C   0  0  0  0  0  0  0  0  0  0  0  0
   11.0962    9.3293   23.5072 C   0  0  0  0  0  0  0  0  0  0  0  0
    5.1273    7.8529   23.6208 N   0  0  0  0  0  0  0  0  0  0  0  0
    9.7552    9.2338   23.0171 N   0  0  0  0  0  0  0  0  0  0  0  0
   11.1797    6.7591   21.3326 N   0  0  0  0  0  0  0  0  0  0  0  0
   11.7728    8.0337   23.7267 C   0  0  0  0  0  0  0  0  0  0  0  0
    7.1194    8.3344   24.6775 C   0  0  0  0  0  0  0  0  0  0  0  0
    8.4311    4.7963   22.0500 C   0  0  0  0  0  0  0  0  0  0  0  0
    8.7393   10.8706   24.1871 O   0  0  0  0  0  0  0  0  0  0  0  0
    9.3093    3.8166   21.6712 C   0  0  0  0  0  0  0  0  0  0  0  0
  1  5  1  0
  1 15  4  0
  1 22  4  0
  2 20  1  0
  2 24  1  0
  3  6  4  0
  3 27  4  0
  4 22  4  0
  4 26  4  0
  6  7  4  0
  6 13  1  0
  7 19  4  0
  8 18  1  0
  8 23  1  0
  8 28  2  0
  9 17  1  0
  9 24  1  0
 10 11  1  0
 10 24  1  0
 11 23  1  0
 12 14  4  0
 12 16  4  0
 14 19  4  0
 15 18  4  0
 16 20  4  0
 17 25  1  0
 18 26  4  0
 19 29  4  0
 20 29  4  0
 21 23  1  0
 21 25  1  0
 27 29  4  0
M  END
$$$$

 Created by Python create_sdf_string function

 29 32  0  0  0  0  0  0  0  0999 V2000
    5.4450    8.7154   22.6662 C   0  0  0  0  0  0  0  0  0  0  0  0
   10.9154    5.4574   20.5483 C   0  0  0  0  0  0  0  0  0  0  0  0
    7.2709    4.5089   22.7542 C   0  0  0  0  0  0  0  0  0  0  0  0
    5.9698    7.6329   24.6581 C   0  0  0  0  0  0  0  0  0  0  0  0
    4.5542    8.9057   21.7104 O   0  0  0  0  0  0  0  0  0  0  0  0
    6.9895    3.2085   23.0690 C   0  0  0  0  0  0  0  0  0  0  0  0
    7.8391    2.2253   22.7260 N   0  0  0  0  0  0  0  0  0  0  0  0
    8.6968    9.8373   23.6359 C   0  0  0  0  0  0  0  0  0  0  0  0
   12.5135    6.5957   21.8396 C   0  0  0  0  0  0  0  0  0  0  0  0
   10.9406    8.2330   21.1350 C   0  0  0  0  0  0  0  0  0  0  0  0
    9.6648    8.5956   21.7310 C   0  0  0  0  0  0  0  0  0  0  0  0
   10.8829    1.7153   20.9865 C   0  0  0  0  0  0  0  0  0  0  0  0
    5.7768    2.8533   23.7910 C   0  0  0  0  0  0  0  0  0  0  0  0
    9.7977    1.4791   21.6912 N   0  0  0  0  0  0  0  0  0  0  0  0
    6.5976    9.3401   22.6478 N   0  0  0  0  0  0  0  0  0  0  0  0
   11.2031    3.0042   20.6246 C   0  0  0  0  0  0  0  0  0  0  0  0
   12.8688    7.7370   22.7287 C   0  0  0  0  0  0  0  0  0  0  0  0
    7.4487    9.1361   23.6506 C   0  0  0  0  0  0  0  0  0  0  0  0
    8.9772    2.5025   22.0273 C   0  0  0  0  0  0  0  0  0  0  0  0
   10.4859    4.0901   20.9730 C   0  0  0  0  0  0  0  0  0  0  0  0
   11.0962    9.3293   23.5072 C   0  0  0  0  0  0  0  0  0  0  0  0
    5.1273    7.8529   23.6208 N   0  0  0  0  0  0  0  0  0  0  0  0
    9.7552    9.2338   23.0171 N   0  0  0  0  0  0  0  0  0  0  0  0
   11.1797    6.7591   21.3326 N   0  0  0  0  0  0  0  0  0  0  0  0
   11.7728    8.0337   23.7267 C   0  0  0  0  0  0  0  0  0  0  0  0
    7.1194    8.3344   24.6775 C   0  0  0  0  0  0  0  0  0  0  0  0
    8.4311    4.7963   22.0500 C   0  0  0  0  0  0  0  0  0  0  0  0
    8.7393   10.8706   24.1871 O   0  0  0  0  0  0  0  0  0  0  0  0
    9.3093    3.8166   21.6712 C   0  0  0  0  0  0  0  0  0  0  0  0
  1  5  1  0
  1 15  4  0
  1 22  4  0
  2 20  1  0
  2 24  1  0
  3  6  4  0
  3 27  4  0
  4 22  4  0
  4 26  4  0
  6  7  4  0
  6 13  1  0
  7 19  4  0
  8 18  1  0
  8 23  1  0
  8 28  2  0
  9 17  1  0
  9 24  1  0
 10 11  1  0
 10 24  1  0
 11 23  1  0
 12 14  4  0
 12 16  4  0
 14 19  4  0
 15 18  4  0
 16 20  4  0
 17 25  1  0
 18 26  4  0
 19 29  4  0
 20 29  4  0
 21 23  1  0
 21 25  1  0
 27 29  4  0
M  END
$$$$

 Created by Python create_sdf_string function

 29 32  0  0  0  0  0  0  0  0999 V2000
    5.4450    8.7154   22.6662 C   0  0  0  0  0  0  0  0  0  0  0  0
   10.9154    5.4574   20.5483 C   0  0  0  0  0  0  0  0  0  0  0  0
    7.2709    4.5089   22.7542 C   0  0  0  0  0  0  0  0  0  0  0  0
    5.9698    7.6329   24.6581 C   0  0  0  0  0  0  0  0  0  0  0  0
    4.5542    8.9057   21.7104 O   0  0  0  0  0  0  0  0  0  0  0  0
    6.9895    3.2085   23.0690 C   0  0  0  0  0  0  0  0  0  0  0  0
    7.8391    2.2253   22.7260 N   0  0  0  0  0  0  0  0  0  0  0  0
    8.6968    9.8373   23.6359 C   0  0  0  0  0  0  0  0  0  0  0  0
   12.5135    6.5957   21.8396 C   0  0  0  0  0  0  0  0  0  0  0  0
   10.9406    8.2330   21.1350 C   0  0  0  0  0  0  0  0  0  0  0  0
    9.6648    8.5956   21.7310 C   0  0  0  0  0  0  0  0  0  0  0  0
   10.8829    1.7153   20.9865 C   0  0  0  0  0  0  0  0  0  0  0  0
    5.7768    2.8533   23.7910 C   0  0  0  0  0  0  0  0  0  0  0  0
    9.7977    1.4791   21.6912 N   0  0  0  0  0  0  0  0  0  0  0  0
    6.5976    9.3401   22.6478 N   0  0  0  0  0  0  0  0  0  0  0  0
   11.2031    3.0042   20.6246 C   0  0  0  0  0  0  0  0  0  0  0  0
   12.8688    7.7370   22.7287 C   0  0  0  0  0  0  0  0  0  0  0  0
    7.4487    9.1361   23.6506 C   0  0  0  0  0  0  0  0  0  0  0  0
    8.9772    2.5025   22.0273 C   0  0  0  0  0  0  0  0  0  0  0  0
   10.4859    4.0901   20.9730 C   0  0  0  0  0  0  0  0  0  0  0  0
   11.0962    9.3293   23.5072 C   0  0  0  0  0  0  0  0  0  0  0  0
    5.1273    7.8529   23.6208 N   0  0  0  0  0  0  0  0  0  0  0  0
    9.7552    9.2338   23.0171 N   0  0  0  0  0  0  0  0  0  0  0  0
   11.1797    6.7591   21.3326 N   0  0  0  0  0  0  0  0  0  0  0  0
   11.7728    8.0337   23.7267 C   0  0  0  0  0  0  0  0  0  0  0  0
    7.1194    8.3344   24.6775 C   0  0  0  0  0  0  0  0  0  0  0  0
    8.4311    4.7963   22.0500 C   0  0  0  0  0  0  0  0  0  0  0  0
    8.7393   10.8706   24.1871 O   0  0  0  0  0  0  0  0  0  0  0  0
    9.3093    3.8166   21.6712 C   0  0  0  0  0  0  0  0  0  0  0  0
  1  5  1  0
  1 15  4  0
  1 22  4  0
  2 20  1  0
  2 24  1  0
  3  6  4  0
  3 27  4  0
  4 22  4  0
  4 26  4  0
  6  7  4  0
  6 13  1  0
  7 19  4  0
  8 18  1  0
  8 23  1  0
  8 28  2  0
  9 17  1  0
  9 24  1  0
 10 11  1  0
 10 24  1  0
 11 23  1  0
 12 14  4  0
 12 16  4  0
 14 19  4  0
 15 18  4  0
 16 20  4  0
 17 25  1  0
 18 26  4  0
 19 29  4  0
 20 29  4  0
 21 23  1  0
 21 25  1  0
 27 29  4  0
M  END
$$$$

 Created by Python create_sdf_string function

 29 32  0  0  0  0  0  0  0  0999 V2000
    5.4450    8.7154   22.6662 C   0  0  0  0  0  0  0  0  0  0  0  0
   10.9154    5.4574   20.5483 C   0  0  0  0  0  0  0  0  0  0  0  0
    7.2709    4.5089   22.7542 C   0  0  0  0  0  0  0  0  0  0  0  0
    5.9698    7.6329   24.6581 C   0  0  0  0  0  0  0  0  0  0  0  0
    4.5542    8.9057   21.7104 O   0  0  0  0  0  0  0  0  0  0  0  0
    6.9895    3.2085   23.0690 C   0  0  0  0  0  0  0  0  0  0  0  0
    7.8391    2.2253   22.7260 N   0  0  0  0  0  0  0  0  0  0  0  0
    8.6968    9.8373   23.6359 C   0  0  0  0  0  0  0  0  0  0  0  0
   12.5135    6.5957   21.8396 C   0  0  0  0  0  0  0  0  0  0  0  0
   10.9406    8.2330   21.1350 C   0  0  0  0  0  0  0  0  0  0  0  0
    9.6648    8.5956   21.7310 C   0  0  0  0  0  0  0  0  0  0  0  0
   10.8829    1.7153   20.9865 C   0  0  0  0  0  0  0  0  0  0  0  0
    5.7768    2.8533   23.7910 C   0  0  0  0  0  0  0  0  0  0  0  0
    9.7977    1.4791   21.6912 N   0  0  0  0  0  0  0  0  0  0  0  0
    6.5976    9.3401   22.6478 N   0  0  0  0  0  0  0  0  0  0  0  0
   11.2031    3.0042   20.6246 C   0  0  0  0  0  0  0  0  0  0  0  0
   12.8688    7.7370   22.7287 C   0  0  0  0  0  0  0  0  0  0  0  0
    7.4487    9.1361   23.6506 C   0  0  0  0  0  0  0  0  0  0  0  0
    8.9772    2.5025   22.0273 C   0  0  0  0  0  0  0  0  0  0  0  0
   10.4859    4.0901   20.9730 C   0  0  0  0  0  0  0  0  0  0  0  0
   11.0962    9.3293   23.5072 C   0  0  0  0  0  0  0  0  0  0  0  0
    5.1273    7.8529   23.6208 N   0  0  0  0  0  0  0  0  0  0  0  0
    9.7552    9.2338   23.0171 N   0  0  0  0  0  0  0  0  0  0  0  0
   11.1797    6.7591   21.3326 N   0  0  0  0  0  0  0  0  0  0  0  0
   11.7728    8.0337   23.7267 C   0  0  0  0  0  0  0  0  0  0  0  0
    7.1194    8.3344   24.6775 C   0  0  0  0  0  0  0  0  0  0  0  0
    8.4311    4.7963   22.0500 C   0  0  0  0  0  0  0  0  0  0  0  0
    8.7393   10.8706   24.1871 O   0  0  0  0  0  0  0  0  0  0  0  0
    9.3093    3.8166   21.6712 C   0  0  0  0  0  0  0  0  0  0  0  0
  1  5  1  0
  1 15  4  0
  1 22  4  0
  2 20  1  0
  2 24  1  0
  3  6  4  0
  3 27  4  0
  4 22  4  0
  4 26  4  0
  6  7  4  0
  6 13  1  0
  7 19  4  0
  8 18  1  0
  8 23  1  0
  8 28  2  0
  9 17  1  0
  9 24  1  0
 10 11  1  0
 10 24  1  0
 11 23  1  0
 12 14  4  0
 12 16  4  0
 14 19  4  0
 15 18  4  0
 16 20  4  0
 17 25  1  0
 18 26  4  0
 19 29  4  0
 20 29  4  0
 21 23  1  0
 21 25  1  0
 27 29  4  0
M  END
$$$$

 Created by Python create_sdf_string function

 29 32  0  0  0  0  0  0  0  0999 V2000
    5.4450    8.7154   22.6662 C   0  0  0  0  0  0  0  0  0  0  0  0
   10.9154    5.4574   20.5483 C   0  0  0  0  0  0  0  0  0  0  0  0
    7.2709    4.5089   22.7542 C   0  0  0  0  0  0  0  0  0  0  0  0
    5.9698    7.6329   24.6581 C   0  0  0  0  0  0  0  0  0  0  0  0
    4.5542    8.9057   21.7104 O   0  0  0  0  0  0  0  0  0  0  0  0
    6.9895    3.2085   23.0690 C   0  0  0  0  0  0  0  0  0  0  0  0
    7.8391    2.2253   22.7260 N   0  0  0  0  0  0  0  0  0  0  0  0
    8.6968    9.8373   23.6359 C   0  0  0  0  0  0  0  0  0  0  0  0
   12.5135    6.5957   21.8396 C   0  0  0  0  0  0  0  0  0  0  0  0
   10.9406    8.2330   21.1350 C   0  0  0  0  0  0  0  0  0  0  0  0
    9.6648    8.5956   21.7310 C   0  0  0  0  0  0  0  0  0  0  0  0
   10.8829    1.7153   20.9865 C   0  0  0  0  0  0  0  0  0  0  0  0
    5.7768    2.8533   23.7910 C   0  0  0  0  0  0  0  0  0  0  0  0
    9.7977    1.4791   21.6912 N   0  0  0  0  0  0  0  0  0  0  0  0
    6.5976    9.3401   22.6478 N   0  0  0  0  0  0  0  0  0  0  0  0
   11.2031    3.0042   20.6246 C   0  0  0  0  0  0  0  0  0  0  0  0
   12.8688    7.7370   22.7287 C   0  0  0  0  0  0  0  0  0  0  0  0
    7.4487    9.1361   23.6506 C   0  0  0  0  0  0  0  0  0  0  0  0
    8.9772    2.5025   22.0273 C   0  0  0  0  0  0  0  0  0  0  0  0
   10.4859    4.0901   20.9730 C   0  0  0  0  0  0  0  0  0  0  0  0
   11.0962    9.3293   23.5072 C   0  0  0  0  0  0  0  0  0  0  0  0
    5.1273    7.8529   23.6208 N   0  0  0  0  0  0  0  0  0  0  0  0
    9.7552    9.2338   23.0171 N   0  0  0  0  0  0  0  0  0  0  0  0
   11.1797    6.7591   21.3326 N   0  0  0  0  0  0  0  0  0  0  0  0
   11.7728    8.0337   23.7267 C   0  0  0  0  0  0  0  0  0  0  0  0
    7.1194    8.3344   24.6775 C   0  0  0  0  0  0  0  0  0  0  0  0
    8.4311    4.7963   22.0500 C   0  0  0  0  0  0  0  0  0  0  0  0
    8.7393   10.8706   24.1871 O   0  0  0  0  0  0  0  0  0  0  0  0
    9.3093    3.8166   21.6712 C   0  0  0  0  0  0  0  0  0  0  0  0
  1  5  1  0
  1 15  4  0
  1 22  4  0
  2 20  1  0
  2 24  1  0
  3  6  4  0
  3 27  4  0
  4 22  4  0
  4 26  4  0
  6  7  4  0
  6 13  1  0
  7 19  4  0
  8 18  1  0
  8 23  1  0
  8 28  2  0
  9 17  1  0
  9 24  1  0
 10 11  1  0
 10 24  1  0
 11 23  1  0
 12 14  4  0
 12 16  4  0
 14 19  4  0
 15 18  4  0
 16 20  4  0
 17 25  1  0
 18 26  4  0
 19 29  4  0
 20 29  4  0
 21 23  1  0
 21 25  1  0
 27 29  4  0
M  END
$$$$

 Created by Python create_sdf_string function

 29 32  0  0  0  0  0  0  0  0999 V2000
    5.4450    8.7154   22.6662 C   0  0  0  0  0  0  0  0  0  0  0  0
   10.9154    5.4574   20.5483 C   0  0  0  0  0  0  0  0  0  0  0  0
    7.2709    4.5089   22.7542 C   0  0  0  0  0  0  0  0  0  0  0  0
    5.9698    7.6329   24.6581 C   0  0  0  0  0  0  0  0  0  0  0  0
    4.5542    8.9057   21.7104 O   0  0  0  0  0  0  0  0  0  0  0  0
    6.9895    3.2085   23.0690 C   0  0  0  0  0  0  0  0  0  0  0  0
    7.8391    2.2253   22.7260 N   0  0  0  0  0  0  0  0  0  0  0  0
    8.6968    9.8373   23.6359 C   0  0  0  0  0  0  0  0  0  0  0  0
   12.5135    6.5957   21.8396 C   0  0  0  0  0  0  0  0  0  0  0  0
   10.9406    8.2330   21.1350 C   0  0  0  0  0  0  0  0  0  0  0  0
    9.6648    8.5956   21.7310 C   0  0  0  0  0  0  0  0  0  0  0  0
   10.8829    1.7153   20.9865 C   0  0  0  0  0  0  0  0  0  0  0  0
    5.7768    2.8533   23.7910 C   0  0  0  0  0  0  0  0  0  0  0  0
    9.7977    1.4791   21.6912 N   0  0  0  0  0  0  0  0  0  0  0  0
    6.5976    9.3401   22.6478 N   0  0  0  0  0  0  0  0  0  0  0  0
   11.2031    3.0042   20.6246 C   0  0  0  0  0  0  0  0  0  0  0  0
   12.8688    7.7370   22.7287 C   0  0  0  0  0  0  0  0  0  0  0  0
    7.4487    9.1361   23.6506 C   0  0  0  0  0  0  0  0  0  0  0  0
    8.9772    2.5025   22.0273 C   0  0  0  0  0  0  0  0  0  0  0  0
   10.4859    4.0901   20.9730 C   0  0  0  0  0  0  0  0  0  0  0  0
   11.0962    9.3293   23.5072 C   0  0  0  0  0  0  0  0  0  0  0  0
    5.1273    7.8529   23.6208 N   0  0  0  0  0  0  0  0  0  0  0  0
    9.7552    9.2338   23.0171 N   0  0  0  0  0  0  0  0  0  0  0  0
   11.1797    6.7591   21.3326 N   0  0  0  0  0  0  0  0  0  0  0  0
   11.7728    8.0337   23.7267 C   0  0  0  0  0  0  0  0  0  0  0  0
    7.1194    8.3344   24.6775 C   0  0  0  0  0  0  0  0  0  0  0  0
    8.4311    4.7963   22.0500 C   0  0  0  0  0  0  0  0  0  0  0  0
    8.7393   10.8706   24.1871 O   0  0  0  0  0  0  0  0  0  0  0  0
    9.3093    3.8166   21.6712 C   0  0  0  0  0  0  0  0  0  0  0  0
  1  5  1  0
  1 15  4  0
  1 22  4  0
  2 20  1  0
  2 24  1  0
  3  6  4  0
  3 27  4  0
  4 22  4  0
  4 26  4  0
  6  7  4  0
  6 13  1  0
  7 19  4  0
  8 18  1  0
  8 23  1  0
  8 28  2  0
  9 17  1  0
  9 24  1  0
 10 11  1  0
 10 24  1  0
 11 23  1  0
 12 14  4  0
 12 16  4  0
 14 19  4  0
 15 18  4  0
 16 20  4  0
 17 25  1  0
 18 26  4  0
 19 29  4  0
 20 29  4  0
 21 23  1  0
 21 25  1  0
 27 29  4  0
M  END
$$$$

 Created by Python create_sdf_string function

 29 32  0  0  0  0  0  0  0  0999 V2000
    5.4450    8.7154   22.6662 C   0  0  0  0  0  0  0  0  0  0  0  0
   10.9154    5.4574   20.5483 C   0  0  0  0  0  0  0  0  0  0  0  0
    7.2709    4.5089   22.7542 C   0  0  0  0  0  0  0  0  0  0  0  0
    5.9698    7.6329   24.6581 C   0  0  0  0  0  0  0  0  0  0  0  0
    4.5542    8.9057   21.7104 O   0  0  0  0  0  0  0  0  0  0  0  0
    6.9895    3.2085   23.0690 C   0  0  0  0  0  0  0  0  0  0  0  0
    7.8391    2.2253   22.7260 N   0  0  0  0  0  0  0  0  0  0  0  0
    8.6968    9.8373   23.6359 C   0  0  0  0  0  0  0  0  0  0  0  0
   12.5135    6.5957   21.8396 C   0  0  0  0  0  0  0  0  0  0  0  0
   10.9406    8.2330   21.1350 C   0  0  0  0  0  0  0  0  0  0  0  0
    9.6648    8.5956   21.7310 C   0  0  0  0  0  0  0  0  0  0  0  0
   10.8829    1.7153   20.9865 C   0  0  0  0  0  0  0  0  0  0  0  0
    5.7768    2.8533   23.7910 C   0  0  0  0  0  0  0  0  0  0  0  0
    9.7977    1.4791   21.6912 N   0  0  0  0  0  0  0  0  0  0  0  0
    6.5976    9.3401   22.6478 N   0  0  0  0  0  0  0  0  0  0  0  0
   11.2031    3.0042   20.6246 C   0  0  0  0  0  0  0  0  0  0  0  0
   12.8688    7.7370   22.7287 C   0  0  0  0  0  0  0  0  0  0  0  0
    7.4487    9.1361   23.6506 C   0  0  0  0  0  0  0  0  0  0  0  0
    8.9772    2.5025   22.0273 C   0  0  0  0  0  0  0  0  0  0  0  0
   10.4859    4.0901   20.9730 C   0  0  0  0  0  0  0  0  0  0  0  0
   11.0962    9.3293   23.5072 C   0  0  0  0  0  0  0  0  0  0  0  0
    5.1273    7.8529   23.6208 N   0  0  0  0  0  0  0  0  0  0  0  0
    9.7552    9.2338   23.0171 N   0  0  0  0  0  0  0  0  0  0  0  0
   11.1797    6.7591   21.3326 N   0  0  0  0  0  0  0  0  0  0  0  0
   11.7728    8.0337   23.7267 C   0  0  0  0  0  0  0  0  0  0  0  0
    7.1194    8.3344   24.6775 C   0  0  0  0  0  0  0  0  0  0  0  0
    8.4311    4.7963   22.0500 C   0  0  0  0  0  0  0  0  0  0  0  0
    8.7393   10.8706   24.1871 O   0  0  0  0  0  0  0  0  0  0  0  0
    9.3093    3.8166   21.6712 C   0  0  0  0  0  0  0  0  0  0  0  0
  1  5  1  0
  1 15  4  0
  1 22  4  0
  2 20  1  0
  2 24  1  0
  3  6  4  0
  3 27  4  0
  4 22  4  0
  4 26  4  0
  6  7  4  0
  6 13  1  0
  7 19  4  0
  8 18  1  0
  8 23  1  0
  8 28  2  0
  9 17  1  0
  9 24  1  0
 10 11  1  0
 10 24  1  0
 11 23  1  0
 12 14  4  0
 12 16  4  0
 14 19  4  0
 15 18  4  0
 16 20  4  0
 17 25  1  0
 18 26  4  0
 19 29  4  0
 20 29  4  0
 21 23  1  0
 21 25  1  0
 27 29  4  0
M  END
$$$$

 Created by Python create_sdf_string function

 29 32  0  0  0  0  0  0  0  0999 V2000
    5.4450    8.7154   22.6662 C   0  0  0  0  0  0  0  0  0  0  0  0
   10.9154    5.4574   20.5483 C   0  0  0  0  0  0  0  0  0  0  0  0
    7.2709    4.5089   22.7542 C   0  0  0  0  0  0  0  0  0  0  0  0
    5.9698    7.6329   24.6581 C   0  0  0  0  0  0  0  0  0  0  0  0
    4.5542    8.9057   21.7104 O   0  0  0  0  0  0  0  0  0  0  0  0
    6.9895    3.2085   23.0690 C   0  0  0  0  0  0  0  0  0  0  0  0
    7.8391    2.2253   22.7260 N   0  0  0  0  0  0  0  0  0  0  0  0
    8.6968    9.8373   23.6359 C   0  0  0  0  0  0  0  0  0  0  0  0
   12.5135    6.5957   21.8396 C   0  0  0  0  0  0  0  0  0  0  0  0
   10.9406    8.2330   21.1350 C   0  0  0  0  0  0  0  0  0  0  0  0
    9.6648    8.5956   21.7310 C   0  0  0  0  0  0  0  0  0  0  0  0
   10.8829    1.7153   20.9865 C   0  0  0  0  0  0  0  0  0  0  0  0
    5.7768    2.8533   23.7910 C   0  0  0  0  0  0  0  0  0  0  0  0
    9.7977    1.4791   21.6912 N   0  0  0  0  0  0  0  0  0  0  0  0
    6.5976    9.3401   22.6478 N   0  0  0  0  0  0  0  0  0  0  0  0
   11.2031    3.0042   20.6246 C   0  0  0  0  0  0  0  0  0  0  0  0
   12.8688    7.7370   22.7287 C   0  0  0  0  0  0  0  0  0  0  0  0
    7.4487    9.1361   23.6506 C   0  0  0  0  0  0  0  0  0  0  0  0
    8.9772    2.5025   22.0273 C   0  0  0  0  0  0  0  0  0  0  0  0
   10.4859    4.0901   20.9730 C   0  0  0  0  0  0  0  0  0  0  0  0
   11.0962    9.3293   23.5072 C   0  0  0  0  0  0  0  0  0  0  0  0
    5.1273    7.8529   23.6208 N   0  0  0  0  0  0  0  0  0  0  0  0
    9.7552    9.2338   23.0171 N   0  0  0  0  0  0  0  0  0  0  0  0
   11.1797    6.7591   21.3326 N   0  0  0  0  0  0  0  0  0  0  0  0
   11.7728    8.0337   23.7267 C   0  0  0  0  0  0  0  0  0  0  0  0
    7.1194    8.3344   24.6775 C   0  0  0  0  0  0  0  0  0  0  0  0
    8.4311    4.7963   22.0500 C   0  0  0  0  0  0  0  0  0  0  0  0
    8.7393   10.8706   24.1871 O   0  0  0  0  0  0  0  0  0  0  0  0
    9.3093    3.8166   21.6712 C   0  0  0  0  0  0  0  0  0  0  0  0
  1  5  1  0
  1 15  4  0
  1 22  4  0
  2 20  1  0
  2 24  1  0
  3  6  4  0
  3 27  4  0
  4 22  4  0
  4 26  4  0
  6  7  4  0
  6 13  1  0
  7 19  4  0
  8 18  1  0
  8 23  1  0
  8 28  2  0
  9 17  1  0
  9 24  1  0
 10 11  1  0
 10 24  1  0
 11 23  1  0
 12 14  4  0
 12 16  4  0
 14 19  4  0
 15 18  4  0
 16 20  4  0
 17 25  1  0
 18 26  4  0
 19 29  4  0
 20 29  4  0
 21 23  1  0
 21 25  1  0
 27 29  4  0
M  END
$$$$

 Created by Python create_sdf_string function

 29 32  0  0  0  0  0  0  0  0999 V2000
    5.4450    8.7154   22.6662 C   0  0  0  0  0  0  0  0  0  0  0  0
   10.9154    5.4574   20.5483 C   0  0  0  0  0  0  0  0  0  0  0  0
    7.2709    4.5089   22.7542 C   0  0  0  0  0  0  0  0  0  0  0  0
    5.9698    7.6329   24.6581 C   0  0  0  0  0  0  0  0  0  0  0  0
    4.5542    8.9057   21.7104 O   0  0  0  0  0  0  0  0  0  0  0  0
    6.9895    3.2085   23.0690 C   0  0  0  0  0  0  0  0  0  0  0  0
    7.8391    2.2253   22.7260 N   0  0  0  0  0  0  0  0  0  0  0  0
    8.6968    9.8373   23.6359 C   0  0  0  0  0  0  0  0  0  0  0  0
   12.5135    6.5957   21.8396 C   0  0  0  0  0  0  0  0  0  0  0  0
   10.9406    8.2330   21.1350 C   0  0  0  0  0  0  0  0  0  0  0  0
    9.6648    8.5956   21.7310 C   0  0  0  0  0  0  0  0  0  0  0  0
   10.8829    1.7153   20.9865 C   0  0  0  0  0  0  0  0  0  0  0  0
    5.7768    2.8533   23.7910 C   0  0  0  0  0  0  0  0  0  0  0  0
    9.7977    1.4791   21.6912 N   0  0  0  0  0  0  0  0  0  0  0  0
    6.5976    9.3401   22.6478 N   0  0  0  0  0  0  0  0  0  0  0  0
   11.2031    3.0042   20.6246 C   0  0  0  0  0  0  0  0  0  0  0  0
   12.8688    7.7370   22.7287 C   0  0  0  0  0  0  0  0  0  0  0  0
    7.4487    9.1361   23.6506 C   0  0  0  0  0  0  0  0  0  0  0  0
    8.9772    2.5025   22.0273 C   0  0  0  0  0  0  0  0  0  0  0  0
   10.4859    4.0901   20.9730 C   0  0  0  0  0  0  0  0  0  0  0  0
   11.0962    9.3293   23.5072 C   0  0  0  0  0  0  0  0  0  0  0  0
    5.1273    7.8529   23.6208 N   0  0  0  0  0  0  0  0  0  0  0  0
    9.7552    9.2338   23.0171 N   0  0  0  0  0  0  0  0  0  0  0  0
   11.1797    6.7591   21.3326 N   0  0  0  0  0  0  0  0  0  0  0  0
   11.7728    8.0337   23.7267 C   0  0  0  0  0  0  0  0  0  0  0  0
    7.1194    8.3344   24.6775 C   0  0  0  0  0  0  0  0  0  0  0  0
    8.4311    4.7963   22.0500 C   0  0  0  0  0  0  0  0  0  0  0  0
    8.7393   10.8706   24.1871 O   0  0  0  0  0  0  0  0  0  0  0  0
    9.3093    3.8166   21.6712 C   0  0  0  0  0  0  0  0  0  0  0  0
  1  5  1  0
  1 15  4  0
  1 22  4  0
  2 20  1  0
  2 24  1  0
  3  6  4  0
  3 27  4  0
  4 22  4  0
  4 26  4  0
  6  7  4  0
  6 13  1  0
  7 19  4  0
  8 18  1  0
  8 23  1  0
  8 28  2  0
  9 17  1  0
  9 24  1  0
 10 11  1  0
 10 24  1  0
 11 23  1  0
 12 14  4  0
 12 16  4  0
 14 19  4  0
 15 18  4  0
 16 20  4  0
 17 25  1  0
 18 26  4  0
 19 29  4  0
 20 29  4  0
 21 23  1  0
 21 25  1  0
 27 29  4  0
M  END
$$$$

 Created by Python create_sdf_string function

 29 32  0  0  0  0  0  0  0  0999 V2000
    5.4450    8.7154   22.6662 C   0  0  0  0  0  0  0  0  0  0  0  0
   10.9154    5.4574   20.5483 C   0  0  0  0  0  0  0  0  0  0  0  0
    7.2709    4.5089   22.7542 C   0  0  0  0  0  0  0  0  0  0  0  0
    5.9698    7.6329   24.6581 C   0  0  0  0  0  0  0  0  0  0  0  0
    4.5542    8.9057   21.7104 O   0  0  0  0  0  0  0  0  0  0  0  0
    6.9895    3.2085   23.0690 C   0  0  0  0  0  0  0  0  0  0  0  0
    7.8391    2.2253   22.7260 N   0  0  0  0  0  0  0  0  0  0  0  0
    8.6968    9.8373   23.6359 C   0  0  0  0  0  0  0  0  0  0  0  0
   12.5135    6.5957   21.8396 C   0  0  0  0  0  0  0  0  0  0  0  0
   10.9406    8.2330   21.1350 C   0  0  0  0  0  0  0  0  0  0  0  0
    9.6648    8.5956   21.7310 C   0  0  0  0  0  0  0  0  0  0  0  0
   10.8829    1.7153   20.9865 C   0  0  0  0  0  0  0  0  0  0  0  0
    5.7768    2.8533   23.7910 C   0  0  0  0  0  0  0  0  0  0  0  0
    9.7977    1.4791   21.6912 N   0  0  0  0  0  0  0  0  0  0  0  0
    6.5976    9.3401   22.6478 N   0  0  0  0  0  0  0  0  0  0  0  0
   11.2031    3.0042   20.6246 C   0  0  0  0  0  0  0  0  0  0  0  0
   12.8688    7.7370   22.7287 C   0  0  0  0  0  0  0  0  0  0  0  0
    7.4487    9.1361   23.6506 C   0  0  0  0  0  0  0  0  0  0  0  0
    8.9772    2.5025   22.0273 C   0  0  0  0  0  0  0  0  0  0  0  0
   10.4859    4.0901   20.9730 C   0  0  0  0  0  0  0  0  0  0  0  0
   11.0962    9.3293   23.5072 C   0  0  0  0  0  0  0  0  0  0  0  0
    5.1273    7.8529   23.6208 N   0  0  0  0  0  0  0  0  0  0  0  0
    9.7552    9.2338   23.0171 N   0  0  0  0  0  0  0  0  0  0  0  0
   11.1797    6.7591   21.3326 N   0  0  0  0  0  0  0  0  0  0  0  0
   11.7728    8.0337   23.7267 C   0  0  0  0  0  0  0  0  0  0  0  0
    7.1194    8.3344   24.6775 C   0  0  0  0  0  0  0  0  0  0  0  0
    8.4311    4.7963   22.0500 C   0  0  0  0  0  0  0  0  0  0  0  0
    8.7393   10.8706   24.1871 O   0  0  0  0  0  0  0  0  0  0  0  0
    9.3093    3.8166   21.6712 C   0  0  0  0  0  0  0  0  0  0  0  0
  1  5  1  0
  1 15  4  0
  1 22  4  0
  2 20  1  0
  2 24  1  0
  3  6  4  0
  3 27  4  0
  4 22  4  0
  4 26  4  0
  6  7  4  0
  6 13  1  0
  7 19  4  0
  8 18  1  0
  8 23  1  0
  8 28  2  0
  9 17  1  0
  9 24  1  0
 10 11  1  0
 10 24  1  0
 11 23  1  0
 12 14  4  0
 12 16  4  0
 14 19  4  0
 15 18  4  0
 16 20  4  0
 17 25  1  0
 18 26  4  0
 19 29  4  0
 20 29  4  0
 21 23  1  0
 21 25  1  0
 27 29  4  0
M  END
$$$$

 Created by Python create_sdf_string function

 29 32  0  0  0  0  0  0  0  0999 V2000
    5.4450    8.7154   22.6662 C   0  0  0  0  0  0  0  0  0  0  0  0
   10.9154    5.4574   20.5483 C   0  0  0  0  0  0  0  0  0  0  0  0
    7.2709    4.5089   22.7542 C   0  0  0  0  0  0  0  0  0  0  0  0
    5.9698    7.6329   24.6581 C   0  0  0  0  0  0  0  0  0  0  0  0
    4.5542    8.9057   21.7104 O   0  0  0  0  0  0  0  0  0  0  0  0
    6.9895    3.2085   23.0690 C   0  0  0  0  0  0  0  0  0  0  0  0
    7.8391    2.2253   22.7260 N   0  0  0  0  0  0  0  0  0  0  0  0
    8.6968    9.8373   23.6359 C   0  0  0  0  0  0  0  0  0  0  0  0
   12.5135    6.5957   21.8396 C   0  0  0  0  0  0  0  0  0  0  0  0
   10.9406    8.2330   21.1350 C   0  0  0  0  0  0  0  0  0  0  0  0
    9.6648    8.5956   21.7310 C   0  0  0  0  0  0  0  0  0  0  0  0
   10.8829    1.7153   20.9865 C   0  0  0  0  0  0  0  0  0  0  0  0
    5.7768    2.8533   23.7910 C   0  0  0  0  0  0  0  0  0  0  0  0
    9.7977    1.4791   21.6912 N   0  0  0  0  0  0  0  0  0  0  0  0
    6.5976    9.3401   22.6478 N   0  0  0  0  0  0  0  0  0  0  0  0
   11.2031    3.0042   20.6246 C   0  0  0  0  0  0  0  0  0  0  0  0
   12.8688    7.7370   22.7287 C   0  0  0  0  0  0  0  0  0  0  0  0
    7.4487    9.1361   23.6506 C   0  0  0  0  0  0  0  0  0  0  0  0
    8.9772    2.5025   22.0273 C   0  0  0  0  0  0  0  0  0  0  0  0
   10.4859    4.0901   20.9730 C   0  0  0  0  0  0  0  0  0  0  0  0
   11.0962    9.3293   23.5072 C   0  0  0  0  0  0  0  0  0  0  0  0
    5.1273    7.8529   23.6208 N   0  0  0  0  0  0  0  0  0  0  0  0
    9.7552    9.2338   23.0171 N   0  0  0  0  0  0  0  0  0  0  0  0
   11.1797    6.7591   21.3326 N   0  0  0  0  0  0  0  0  0  0  0  0
   11.7728    8.0337   23.7267 C   0  0  0  0  0  0  0  0  0  0  0  0
    7.1194    8.3344   24.6775 C   0  0  0  0  0  0  0  0  0  0  0  0
    8.4311    4.7963   22.0500 C   0  0  0  0  0  0  0  0  0  0  0  0
    8.7393   10.8706   24.1871 O   0  0  0  0  0  0  0  0  0  0  0  0
    9.3093    3.8166   21.6712 C   0  0  0  0  0  0  0  0  0  0  0  0
  1  5  1  0
  1 15  4  0
  1 22  4  0
  2 20  1  0
  2 24  1  0
  3  6  4  0
  3 27  4  0
  4 22  4  0
  4 26  4  0
  6  7  4  0
  6 13  1  0
  7 19  4  0
  8 18  1  0
  8 23  1  0
  8 28  2  0
  9 17  1  0
  9 24  1  0
 10 11  1  0
 10 24  1  0
 11 23  1  0
 12 14  4  0
 12 16  4  0
 14 19  4  0
 15 18  4  0
 16 20  4  0
 17 25  1  0
 18 26  4  0
 19 29  4  0
 20 29  4  0
 21 23  1  0
 21 25  1  0
 27 29  4  0
M  END
$$$$

 Created by Python create_sdf_string function

 29 32  0  0  0  0  0  0  0  0999 V2000
    5.4450    8.7154   22.6662 C   0  0  0  0  0  0  0  0  0  0  0  0
   10.9154    5.4574   20.5483 C   0  0  0  0  0  0  0  0  0  0  0  0
    7.2709    4.5089   22.7542 C   0  0  0  0  0  0  0  0  0  0  0  0
    5.9698    7.6329   24.6581 C   0  0  0  0  0  0  0  0  0  0  0  0
    4.5542    8.9057   21.7104 O   0  0  0  0  0  0  0  0  0  0  0  0
    6.9895    3.2085   23.0690 C   0  0  0  0  0  0  0  0  0  0  0  0
    7.8391    2.2253   22.7260 N   0  0  0  0  0  0  0  0  0  0  0  0
    8.6968    9.8373   23.6359 C   0  0  0  0  0  0  0  0  0  0  0  0
   12.5135    6.5957   21.8396 C   0  0  0  0  0  0  0  0  0  0  0  0
   10.9406    8.2330   21.1350 C   0  0  0  0  0  0  0  0  0  0  0  0
    9.6648    8.5956   21.7310 C   0  0  0  0  0  0  0  0  0  0  0  0
   10.8829    1.7153   20.9865 C   0  0  0  0  0  0  0  0  0  0  0  0
    5.7768    2.8533   23.7910 C   0  0  0  0  0  0  0  0  0  0  0  0
    9.7977    1.4791   21.6912 N   0  0  0  0  0  0  0  0  0  0  0  0
    6.5976    9.3401   22.6478 N   0  0  0  0  0  0  0  0  0  0  0  0
   11.2031    3.0042   20.6246 C   0  0  0  0  0  0  0  0  0  0  0  0
   12.8688    7.7370   22.7287 C   0  0  0  0  0  0  0  0  0  0  0  0
    7.4487    9.1361   23.6506 C   0  0  0  0  0  0  0  0  0  0  0  0
    8.9772    2.5025   22.0273 C   0  0  0  0  0  0  0  0  0  0  0  0
   10.4859    4.0901   20.9730 C   0  0  0  0  0  0  0  0  0  0  0  0
   11.0962    9.3293   23.5072 C   0  0  0  0  0  0  0  0  0  0  0  0
    5.1273    7.8529   23.6208 N   0  0  0  0  0  0  0  0  0  0  0  0
    9.7552    9.2338   23.0171 N   0  0  0  0  0  0  0  0  0  0  0  0
   11.1797    6.7591   21.3326 N   0  0  0  0  0  0  0  0  0  0  0  0
   11.7728    8.0337   23.7267 C   0  0  0  0  0  0  0  0  0  0  0  0
    7.1194    8.3344   24.6775 C   0  0  0  0  0  0  0  0  0  0  0  0
    8.4311    4.7963   22.0500 C   0  0  0  0  0  0  0  0  0  0  0  0
    8.7393   10.8706   24.1871 O   0  0  0  0  0  0  0  0  0  0  0  0
    9.3093    3.8166   21.6712 C   0  0  0  0  0  0  0  0  0  0  0  0
  1  5  1  0
  1 15  4  0
  1 22  4  0
  2 20  1  0
  2 24  1  0
  3  6  4  0
  3 27  4  0
  4 22  4  0
  4 26  4  0
  6  7  4  0
  6 13  1  0
  7 19  4  0
  8 18  1  0
  8 23  1  0
  8 28  2  0
  9 17  1  0
  9 24  1  0
 10 11  1  0
 10 24  1  0
 11 23  1  0
 12 14  4  0
 12 16  4  0
 14 19  4  0
 15 18  4  0
 16 20  4  0
 17 25  1  0
 18 26  4  0
 19 29  4  0
 20 29  4  0
 21 23  1  0
 21 25  1  0
 27 29  4  0
M  END
$$$$

 Created by Python create_sdf_string function

 29 32  0  0  0  0  0  0  0  0999 V2000
    5.4450    8.7154   22.6662 C   0  0  0  0  0  0  0  0  0  0  0  0
   10.9154    5.4574   20.5483 C   0  0  0  0  0  0  0  0  0  0  0  0
    7.2709    4.5089   22.7542 C   0  0  0  0  0  0  0  0  0  0  0  0
    5.9698    7.6329   24.6581 C   0  0  0  0  0  0  0  0  0  0  0  0
    4.5542    8.9057   21.7104 O   0  0  0  0  0  0  0  0  0  0  0  0
    6.9895    3.2085   23.0690 C   0  0  0  0  0  0  0  0  0  0  0  0
    7.8391    2.2253   22.7260 N   0  0  0  0  0  0  0  0  0  0  0  0
    8.6968    9.8373   23.6359 C   0  0  0  0  0  0  0  0  0  0  0  0
   12.5135    6.5957   21.8396 C   0  0  0  0  0  0  0  0  0  0  0  0
   10.9406    8.2330   21.1350 C   0  0  0  0  0  0  0  0  0  0  0  0
    9.6648    8.5956   21.7310 C   0  0  0  0  0  0  0  0  0  0  0  0
   10.8829    1.7153   20.9865 C   0  0  0  0  0  0  0  0  0  0  0  0
    5.7768    2.8533   23.7910 C   0  0  0  0  0  0  0  0  0  0  0  0
    9.7977    1.4791   21.6912 N   0  0  0  0  0  0  0  0  0  0  0  0
    6.5976    9.3401   22.6478 N   0  0  0  0  0  0  0  0  0  0  0  0
   11.2031    3.0042   20.6246 C   0  0  0  0  0  0  0  0  0  0  0  0
   12.8688    7.7370   22.7287 C   0  0  0  0  0  0  0  0  0  0  0  0
    7.4487    9.1361   23.6506 C   0  0  0  0  0  0  0  0  0  0  0  0
    8.9772    2.5025   22.0273 C   0  0  0  0  0  0  0  0  0  0  0  0
   10.4859    4.0901   20.9730 C   0  0  0  0  0  0  0  0  0  0  0  0
   11.0962    9.3293   23.5072 C   0  0  0  0  0  0  0  0  0  0  0  0
    5.1273    7.8529   23.6208 N   0  0  0  0  0  0  0  0  0  0  0  0
    9.7552    9.2338   23.0171 N   0  0  0  0  0  0  0  0  0  0  0  0
   11.1797    6.7591   21.3326 N   0  0  0  0  0  0  0  0  0  0  0  0
   11.7728    8.0337   23.7267 C   0  0  0  0  0  0  0  0  0  0  0  0
    7.1194    8.3344   24.6775 C   0  0  0  0  0  0  0  0  0  0  0  0
    8.4311    4.7963   22.0500 C   0  0  0  0  0  0  0  0  0  0  0  0
    8.7393   10.8706   24.1871 O   0  0  0  0  0  0  0  0  0  0  0  0
    9.3093    3.8166   21.6712 C   0  0  0  0  0  0  0  0  0  0  0  0
  1  5  1  0
  1 15  4  0
  1 22  4  0
  2 20  1  0
  2 24  1  0
  3  6  4  0
  3 27  4  0
  4 22  4  0
  4 26  4  0
  6  7  4  0
  6 13  1  0
  7 19  4  0
  8 18  1  0
  8 23  1  0
  8 28  2  0
  9 17  1  0
  9 24  1  0
 10 11  1  0
 10 24  1  0
 11 23  1  0
 12 14  4  0
 12 16  4  0
 14 19  4  0
 15 18  4  0
 16 20  4  0
 17 25  1  0
 18 26  4  0
 19 29  4  0
 20 29  4  0
 21 23  1  0
 21 25  1  0
 27 29  4  0
M  END
$$$$

 Created by Python create_sdf_string function

 29 32  0  0  0  0  0  0  0  0999 V2000
    5.4450    8.7154   22.6662 C   0  0  0  0  0  0  0  0  0  0  0  0
   10.9154    5.4574   20.5483 C   0  0  0  0  0  0  0  0  0  0  0  0
    7.2709    4.5089   22.7542 C   0  0  0  0  0  0  0  0  0  0  0  0
    5.9698    7.6329   24.6581 C   0  0  0  0  0  0  0  0  0  0  0  0
    4.5542    8.9057   21.7104 O   0  0  0  0  0  0  0  0  0  0  0  0
    6.9895    3.2085   23.0690 C   0  0  0  0  0  0  0  0  0  0  0  0
    7.8391    2.2253   22.7260 N   0  0  0  0  0  0  0  0  0  0  0  0
    8.6968    9.8373   23.6359 C   0  0  0  0  0  0  0  0  0  0  0  0
   12.5135    6.5957   21.8396 C   0  0  0  0  0  0  0  0  0  0  0  0
   10.9406    8.2330   21.1350 C   0  0  0  0  0  0  0  0  0  0  0  0
    9.6648    8.5956   21.7310 C   0  0  0  0  0  0  0  0  0  0  0  0
   10.8829    1.7153   20.9865 C   0  0  0  0  0  0  0  0  0  0  0  0
    5.7768    2.8533   23.7910 C   0  0  0  0  0  0  0  0  0  0  0  0
    9.7977    1.4791   21.6912 N   0  0  0  0  0  0  0  0  0  0  0  0
    6.5976    9.3401   22.6478 N   0  0  0  0  0  0  0  0  0  0  0  0
   11.2031    3.0042   20.6246 C   0  0  0  0  0  0  0  0  0  0  0  0
   12.8688    7.7370   22.7287 C   0  0  0  0  0  0  0  0  0  0  0  0
    7.4487    9.1361   23.6506 C   0  0  0  0  0  0  0  0  0  0  0  0
    8.9772    2.5025   22.0273 C   0  0  0  0  0  0  0  0  0  0  0  0
   10.4859    4.0901   20.9730 C   0  0  0  0  0  0  0  0  0  0  0  0
   11.0962    9.3293   23.5072 C   0  0  0  0  0  0  0  0  0  0  0  0
    5.1273    7.8529   23.6208 N   0  0  0  0  0  0  0  0  0  0  0  0
    9.7552    9.2338   23.0171 N   0  0  0  0  0  0  0  0  0  0  0  0
   11.1797    6.7591   21.3326 N   0  0  0  0  0  0  0  0  0  0  0  0
   11.7728    8.0337   23.7267 C   0  0  0  0  0  0  0  0  0  0  0  0
    7.1194    8.3344   24.6775 C   0  0  0  0  0  0  0  0  0  0  0  0
    8.4311    4.7963   22.0500 C   0  0  0  0  0  0  0  0  0  0  0  0
    8.7393   10.8706   24.1871 O   0  0  0  0  0  0  0  0  0  0  0  0
    9.3093    3.8166   21.6712 C   0  0  0  0  0  0  0  0  0  0  0  0
  1  5  1  0
  1 15  4  0
  1 22  4  0
  2 20  1  0
  2 24  1  0
  3  6  4  0
  3 27  4  0
  4 22  4  0
  4 26  4  0
  6  7  4  0
  6 13  1  0
  7 19  4  0
  8 18  1  0
  8 23  1  0
  8 28  2  0
  9 17  1  0
  9 24  1  0
 10 11  1  0
 10 24  1  0
 11 23  1  0
 12 14  4  0
 12 16  4  0
 14 19  4  0
 15 18  4  0
 16 20  4  0
 17 25  1  0
 18 26  4  0
 19 29  4  0
 20 29  4  0
 21 23  1  0
 21 25  1  0
 27 29  4  0
M  END
$$$$

 Created by Python create_sdf_string function

 29 32  0  0  0  0  0  0  0  0999 V2000
    5.4450    8.7154   22.6662 C   0  0  0  0  0  0  0  0  0  0  0  0
   10.9154    5.4574   20.5483 C   0  0  0  0  0  0  0  0  0  0  0  0
    7.2709    4.5089   22.7542 C   0  0  0  0  0  0  0  0  0  0  0  0
    5.9698    7.6329   24.6581 C   0  0  0  0  0  0  0  0  0  0  0  0
    4.5542    8.9057   21.7104 O   0  0  0  0  0  0  0  0  0  0  0  0
    6.9895    3.2085   23.0690 C   0  0  0  0  0  0  0  0  0  0  0  0
    7.8391    2.2253   22.7260 N   0  0  0  0  0  0  0  0  0  0  0  0
    8.6968    9.8373   23.6359 C   0  0  0  0  0  0  0  0  0  0  0  0
   12.5135    6.5957   21.8396 C   0  0  0  0  0  0  0  0  0  0  0  0
   10.9406    8.2330   21.1350 C   0  0  0  0  0  0  0  0  0  0  0  0
    9.6648    8.5956   21.7310 C   0  0  0  0  0  0  0  0  0  0  0  0
   10.8829    1.7153   20.9865 C   0  0  0  0  0  0  0  0  0  0  0  0
    5.7768    2.8533   23.7910 C   0  0  0  0  0  0  0  0  0  0  0  0
    9.7977    1.4791   21.6912 N   0  0  0  0  0  0  0  0  0  0  0  0
    6.5976    9.3401   22.6478 N   0  0  0  0  0  0  0  0  0  0  0  0
   11.2031    3.0042   20.6246 C   0  0  0  0  0  0  0  0  0  0  0  0
   12.8688    7.7370   22.7287 C   0  0  0  0  0  0  0  0  0  0  0  0
    7.4487    9.1361   23.6506 C   0  0  0  0  0  0  0  0  0  0  0  0
    8.9772    2.5025   22.0273 C   0  0  0  0  0  0  0  0  0  0  0  0
   10.4859    4.0901   20.9730 C   0  0  0  0  0  0  0  0  0  0  0  0
   11.0962    9.3293   23.5072 C   0  0  0  0  0  0  0  0  0  0  0  0
    5.1273    7.8529   23.6208 N   0  0  0  0  0  0  0  0  0  0  0  0
    9.7552    9.2338   23.0171 N   0  0  0  0  0  0  0  0  0  0  0  0
   11.1797    6.7591   21.3326 N   0  0  0  0  0  0  0  0  0  0  0  0
   11.7728    8.0337   23.7267 C   0  0  0  0  0  0  0  0  0  0  0  0
    7.1194    8.3344   24.6775 C   0  0  0  0  0  0  0  0  0  0  0  0
    8.4311    4.7963   22.0500 C   0  0  0  0  0  0  0  0  0  0  0  0
    8.7393   10.8706   24.1871 O   0  0  0  0  0  0  0  0  0  0  0  0
    9.3093    3.8166   21.6712 C   0  0  0  0  0  0  0  0  0  0  0  0
  1  5  1  0
  1 15  4  0
  1 22  4  0
  2 20  1  0
  2 24  1  0
  3  6  4  0
  3 27  4  0
  4 22  4  0
  4 26  4  0
  6  7  4  0
  6 13  1  0
  7 19  4  0
  8 18  1  0
  8 23  1  0
  8 28  2  0
  9 17  1  0
  9 24  1  0
 10 11  1  0
 10 24  1  0
 11 23  1  0
 12 14  4  0
 12 16  4  0
 14 19  4  0
 15 18  4  0
 16 20  4  0
 17 25  1  0
 18 26  4  0
 19 29  4  0
 20 29  4  0
 21 23  1  0
 21 25  1  0
 27 29  4  0
M  END
$$$$

 Created by Python create_sdf_string function

 29 32  0  0  0  0  0  0  0  0999 V2000
    5.4450    8.7154   22.6662 C   0  0  0  0  0  0  0  0  0  0  0  0
   10.9154    5.4574   20.5483 C   0  0  0  0  0  0  0  0  0  0  0  0
    7.2709    4.5089   22.7542 C   0  0  0  0  0  0  0  0  0  0  0  0
    5.9698    7.6329   24.6581 C   0  0  0  0  0  0  0  0  0  0  0  0
    4.5542    8.9057   21.7104 O   0  0  0  0  0  0  0  0  0  0  0  0
    6.9895    3.2085   23.0690 C   0  0  0  0  0  0  0  0  0  0  0  0
    7.8391    2.2253   22.7260 N   0  0  0  0  0  0  0  0  0  0  0  0
    8.6968    9.8373   23.6359 C   0  0  0  0  0  0  0  0  0  0  0  0
   12.5135    6.5957   21.8396 C   0  0  0  0  0  0  0  0  0  0  0  0
   10.9406    8.2330   21.1350 C   0  0  0  0  0  0  0  0  0  0  0  0
    9.6648    8.5956   21.7310 C   0  0  0  0  0  0  0  0  0  0  0  0
   10.8829    1.7153   20.9865 C   0  0  0  0  0  0  0  0  0  0  0  0
    5.7768    2.8533   23.7910 C   0  0  0  0  0  0  0  0  0  0  0  0
    9.7977    1.4791   21.6912 N   0  0  0  0  0  0  0  0  0  0  0  0
    6.5976    9.3401   22.6478 N   0  0  0  0  0  0  0  0  0  0  0  0
   11.2031    3.0042   20.6246 C   0  0  0  0  0  0  0  0  0  0  0  0
   12.8688    7.7370   22.7287 C   0  0  0  0  0  0  0  0  0  0  0  0
    7.4487    9.1361   23.6506 C   0  0  0  0  0  0  0  0  0  0  0  0
    8.9772    2.5025   22.0273 C   0  0  0  0  0  0  0  0  0  0  0  0
   10.4859    4.0901   20.9730 C   0  0  0  0  0  0  0  0  0  0  0  0
   11.0962    9.3293   23.5072 C   0  0  0  0  0  0  0  0  0  0  0  0
    5.1273    7.8529   23.6208 N   0  0  0  0  0  0  0  0  0  0  0  0
    9.7552    9.2338   23.0171 N   0  0  0  0  0  0  0  0  0  0  0  0
   11.1797    6.7591   21.3326 N   0  0  0  0  0  0  0  0  0  0  0  0
   11.7728    8.0337   23.7267 C   0  0  0  0  0  0  0  0  0  0  0  0
    7.1194    8.3344   24.6775 C   0  0  0  0  0  0  0  0  0  0  0  0
    8.4311    4.7963   22.0500 C   0  0  0  0  0  0  0  0  0  0  0  0
    8.7393   10.8706   24.1871 O   0  0  0  0  0  0  0  0  0  0  0  0
    9.3093    3.8166   21.6712 C   0  0  0  0  0  0  0  0  0  0  0  0
  1  5  1  0
  1 15  4  0
  1 22  4  0
  2 20  1  0
  2 24  1  0
  3  6  4  0
  3 27  4  0
  4 22  4  0
  4 26  4  0
  6  7  4  0
  6 13  1  0
  7 19  4  0
  8 18  1  0
  8 23  1  0
  8 28  2  0
  9 17  1  0
  9 24  1  0
 10 11  1  0
 10 24  1  0
 11 23  1  0
 12 14  4  0
 12 16  4  0
 14 19  4  0
 15 18  4  0
 16 20  4  0
 17 25  1  0
 18 26  4  0
 19 29  4  0
 20 29  4  0
 21 23  1  0
 21 25  1  0
 27 29  4  0
M  END
$$$$

 Created by Python create_sdf_string function

 29 32  0  0  0  0  0  0  0  0999 V2000
    5.4450    8.7154   22.6662 C   0  0  0  0  0  0  0  0  0  0  0  0
   10.9154    5.4574   20.5483 C   0  0  0  0  0  0  0  0  0  0  0  0
    7.2709    4.5089   22.7542 C   0  0  0  0  0  0  0  0  0  0  0  0
    5.9698    7.6329   24.6581 C   0  0  0  0  0  0  0  0  0  0  0  0
    4.5542    8.9057   21.7104 O   0  0  0  0  0  0  0  0  0  0  0  0
    6.9895    3.2085   23.0690 C   0  0  0  0  0  0  0  0  0  0  0  0
    7.8391    2.2253   22.7260 N   0  0  0  0  0  0  0  0  0  0  0  0
    8.6968    9.8373   23.6359 C   0  0  0  0  0  0  0  0  0  0  0  0
   12.5135    6.5957   21.8396 C   0  0  0  0  0  0  0  0  0  0  0  0
   10.9406    8.2330   21.1350 C   0  0  0  0  0  0  0  0  0  0  0  0
    9.6648    8.5956   21.7310 C   0  0  0  0  0  0  0  0  0  0  0  0
   10.8829    1.7153   20.9865 C   0  0  0  0  0  0  0  0  0  0  0  0
    5.7768    2.8533   23.7910 C   0  0  0  0  0  0  0  0  0  0  0  0
    9.7977    1.4791   21.6912 N   0  0  0  0  0  0  0  0  0  0  0  0
    6.5976    9.3401   22.6478 N   0  0  0  0  0  0  0  0  0  0  0  0
   11.2031    3.0042   20.6246 C   0  0  0  0  0  0  0  0  0  0  0  0
   12.8688    7.7370   22.7287 C   0  0  0  0  0  0  0  0  0  0  0  0
    7.4487    9.1361   23.6506 C   0  0  0  0  0  0  0  0  0  0  0  0
    8.9772    2.5025   22.0273 C   0  0  0  0  0  0  0  0  0  0  0  0
   10.4859    4.0901   20.9730 C   0  0  0  0  0  0  0  0  0  0  0  0
   11.0962    9.3293   23.5072 C   0  0  0  0  0  0  0  0  0  0  0  0
    5.1273    7.8529   23.6208 N   0  0  0  0  0  0  0  0  0  0  0  0
    9.7552    9.2338   23.0171 N   0  0  0  0  0  0  0  0  0  0  0  0
   11.1797    6.7591   21.3326 N   0  0  0  0  0  0  0  0  0  0  0  0
   11.7728    8.0337   23.7267 C   0  0  0  0  0  0  0  0  0  0  0  0
    7.1194    8.3344   24.6775 C   0  0  0  0  0  0  0  0  0  0  0  0
    8.4311    4.7963   22.0500 C   0  0  0  0  0  0  0  0  0  0  0  0
    8.7393   10.8706   24.1871 O   0  0  0  0  0  0  0  0  0  0  0  0
    9.3093    3.8166   21.6712 C   0  0  0  0  0  0  0  0  0  0  0  0
  1  5  1  0
  1 15  4  0
  1 22  4  0
  2 20  1  0
  2 24  1  0
  3  6  4  0
  3 27  4  0
  4 22  4  0
  4 26  4  0
  6  7  4  0
  6 13  1  0
  7 19  4  0
  8 18  1  0
  8 23  1  0
  8 28  2  0
  9 17  1  0
  9 24  1  0
 10 11  1  0
 10 24  1  0
 11 23  1  0
 12 14  4  0
 12 16  4  0
 14 19  4  0
 15 18  4  0
 16 20  4  0
 17 25  1  0
 18 26  4  0
 19 29  4  0
 20 29  4  0
 21 23  1  0
 21 25  1  0
 27 29  4  0
M  END
$$$$

 Created by Python create_sdf_string function

 29 32  0  0  0  0  0  0  0  0999 V2000
    5.4450    8.7154   22.6662 C   0  0  0  0  0  0  0  0  0  0  0  0
   10.9154    5.4574   20.5483 C   0  0  0  0  0  0  0  0  0  0  0  0
    7.2709    4.5089   22.7542 C   0  0  0  0  0  0  0  0  0  0  0  0
    5.9698    7.6329   24.6581 C   0  0  0  0  0  0  0  0  0  0  0  0
    4.5542    8.9057   21.7104 O   0  0  0  0  0  0  0  0  0  0  0  0
    6.9895    3.2085   23.0690 C   0  0  0  0  0  0  0  0  0  0  0  0
    7.8391    2.2253   22.7260 N   0  0  0  0  0  0  0  0  0  0  0  0
    8.6968    9.8373   23.6359 C   0  0  0  0  0  0  0  0  0  0  0  0
   12.5135    6.5957   21.8396 C   0  0  0  0  0  0  0  0  0  0  0  0
   10.9406    8.2330   21.1350 C   0  0  0  0  0  0  0  0  0  0  0  0
    9.6648    8.5956   21.7310 C   0  0  0  0  0  0  0  0  0  0  0  0
   10.8829    1.7153   20.9865 C   0  0  0  0  0  0  0  0  0  0  0  0
    5.7768    2.8533   23.7910 C   0  0  0  0  0  0  0  0  0  0  0  0
    9.7977    1.4791   21.6912 N   0  0  0  0  0  0  0  0  0  0  0  0
    6.5976    9.3401   22.6478 N   0  0  0  0  0  0  0  0  0  0  0  0
   11.2031    3.0042   20.6246 C   0  0  0  0  0  0  0  0  0  0  0  0
   12.8688    7.7370   22.7287 C   0  0  0  0  0  0  0  0  0  0  0  0
    7.4487    9.1361   23.6506 C   0  0  0  0  0  0  0  0  0  0  0  0
    8.9772    2.5025   22.0273 C   0  0  0  0  0  0  0  0  0  0  0  0
   10.4859    4.0901   20.9730 C   0  0  0  0  0  0  0  0  0  0  0  0
   11.0962    9.3293   23.5072 C   0  0  0  0  0  0  0  0  0  0  0  0
    5.1273    7.8529   23.6208 N   0  0  0  0  0  0  0  0  0  0  0  0
    9.7552    9.2338   23.0171 N   0  0  0  0  0  0  0  0  0  0  0  0
   11.1797    6.7591   21.3326 N   0  0  0  0  0  0  0  0  0  0  0  0
   11.7728    8.0337   23.7267 C   0  0  0  0  0  0  0  0  0  0  0  0
    7.1194    8.3344   24.6775 C   0  0  0  0  0  0  0  0  0  0  0  0
    8.4311    4.7963   22.0500 C   0  0  0  0  0  0  0  0  0  0  0  0
    8.7393   10.8706   24.1871 O   0  0  0  0  0  0  0  0  0  0  0  0
    9.3093    3.8166   21.6712 C   0  0  0  0  0  0  0  0  0  0  0  0
  1  5  1  0
  1 15  4  0
  1 22  4  0
  2 20  1  0
  2 24  1  0
  3  6  4  0
  3 27  4  0
  4 22  4  0
  4 26  4  0
  6  7  4  0
  6 13  1  0
  7 19  4  0
  8 18  1  0
  8 23  1  0
  8 28  2  0
  9 17  1  0
  9 24  1  0
 10 11  1  0
 10 24  1  0
 11 23  1  0
 12 14  4  0
 12 16  4  0
 14 19  4  0
 15 18  4  0
 16 20  4  0
 17 25  1  0
 18 26  4  0
 19 29  4  0
 20 29  4  0
 21 23  1  0
 21 25  1  0
 27 29  4  0
M  END
$$$$

 Created by Python create_sdf_string function

 29 32  0  0  0  0  0  0  0  0999 V2000
    5.4450    8.7154   22.6662 C   0  0  0  0  0  0  0  0  0  0  0  0
   10.9154    5.4574   20.5483 C   0  0  0  0  0  0  0  0  0  0  0  0
    7.2709    4.5089   22.7542 C   0  0  0  0  0  0  0  0  0  0  0  0
    5.9698    7.6329   24.6581 C   0  0  0  0  0  0  0  0  0  0  0  0
    4.5542    8.9057   21.7104 O   0  0  0  0  0  0  0  0  0  0  0  0
    6.9895    3.2085   23.0690 C   0  0  0  0  0  0  0  0  0  0  0  0
    7.8391    2.2253   22.7260 N   0  0  0  0  0  0  0  0  0  0  0  0
    8.6968    9.8373   23.6359 C   0  0  0  0  0  0  0  0  0  0  0  0
   12.5135    6.5957   21.8396 C   0  0  0  0  0  0  0  0  0  0  0  0
   10.9406    8.2330   21.1350 C   0  0  0  0  0  0  0  0  0  0  0  0
    9.6648    8.5956   21.7310 C   0  0  0  0  0  0  0  0  0  0  0  0
   10.8829    1.7153   20.9865 C   0  0  0  0  0  0  0  0  0  0  0  0
    5.7768    2.8533   23.7910 C   0  0  0  0  0  0  0  0  0  0  0  0
    9.7977    1.4791   21.6912 N   0  0  0  0  0  0  0  0  0  0  0  0
    6.5976    9.3401   22.6478 N   0  0  0  0  0  0  0  0  0  0  0  0
   11.2031    3.0042   20.6246 C   0  0  0  0  0  0  0  0  0  0  0  0
   12.8688    7.7370   22.7287 C   0  0  0  0  0  0  0  0  0  0  0  0
    7.4487    9.1361   23.6506 C   0  0  0  0  0  0  0  0  0  0  0  0
    8.9772    2.5025   22.0273 C   0  0  0  0  0  0  0  0  0  0  0  0
   10.4859    4.0901   20.9730 C   0  0  0  0  0  0  0  0  0  0  0  0
   11.0962    9.3293   23.5072 C   0  0  0  0  0  0  0  0  0  0  0  0
    5.1273    7.8529   23.6208 N   0  0  0  0  0  0  0  0  0  0  0  0
    9.7552    9.2338   23.0171 N   0  0  0  0  0  0  0  0  0  0  0  0
   11.1797    6.7591   21.3326 N   0  0  0  0  0  0  0  0  0  0  0  0
   11.7728    8.0337   23.7267 C   0  0  0  0  0  0  0  0  0  0  0  0
    7.1194    8.3344   24.6775 C   0  0  0  0  0  0  0  0  0  0  0  0
    8.4311    4.7963   22.0500 C   0  0  0  0  0  0  0  0  0  0  0  0
    8.7393   10.8706   24.1871 O   0  0  0  0  0  0  0  0  0  0  0  0
    9.3093    3.8166   21.6712 C   0  0  0  0  0  0  0  0  0  0  0  0
  1  5  1  0
  1 15  4  0
  1 22  4  0
  2 20  1  0
  2 24  1  0
  3  6  4  0
  3 27  4  0
  4 22  4  0
  4 26  4  0
  6  7  4  0
  6 13  1  0
  7 19  4  0
  8 18  1  0
  8 23  1  0
  8 28  2  0
  9 17  1  0
  9 24  1  0
 10 11  1  0
 10 24  1  0
 11 23  1  0
 12 14  4  0
 12 16  4  0
 14 19  4  0
 15 18  4  0
 16 20  4  0
 17 25  1  0
 18 26  4  0
 19 29  4  0
 20 29  4  0
 21 23  1  0
 21 25  1  0
 27 29  4  0
M  END
$$$$

 Created by Python create_sdf_string function

 29 32  0  0  0  0  0  0  0  0999 V2000
    5.4450    8.7154   22.6662 C   0  0  0  0  0  0  0  0  0  0  0  0
   10.9154    5.4574   20.5483 C   0  0  0  0  0  0  0  0  0  0  0  0
    7.2709    4.5089   22.7542 C   0  0  0  0  0  0  0  0  0  0  0  0
    5.9698    7.6329   24.6581 C   0  0  0  0  0  0  0  0  0  0  0  0
    4.5542    8.9057   21.7104 O   0  0  0  0  0  0  0  0  0  0  0  0
    6.9895    3.2085   23.0690 C   0  0  0  0  0  0  0  0  0  0  0  0
    7.8391    2.2253   22.7260 N   0  0  0  0  0  0  0  0  0  0  0  0
    8.6968    9.8373   23.6359 C   0  0  0  0  0  0  0  0  0  0  0  0
   12.5135    6.5957   21.8396 C   0  0  0  0  0  0  0  0  0  0  0  0
   10.9406    8.2330   21.1350 C   0  0  0  0  0  0  0  0  0  0  0  0
    9.6648    8.5956   21.7310 C   0  0  0  0  0  0  0  0  0  0  0  0
   10.8829    1.7153   20.9865 C   0  0  0  0  0  0  0  0  0  0  0  0
    5.7768    2.8533   23.7910 C   0  0  0  0  0  0  0  0  0  0  0  0
    9.7977    1.4791   21.6912 N   0  0  0  0  0  0  0  0  0  0  0  0
    6.5976    9.3401   22.6478 N   0  0  0  0  0  0  0  0  0  0  0  0
   11.2031    3.0042   20.6246 C   0  0  0  0  0  0  0  0  0  0  0  0
   12.8688    7.7370   22.7287 C   0  0  0  0  0  0  0  0  0  0  0  0
    7.4487    9.1361   23.6506 C   0  0  0  0  0  0  0  0  0  0  0  0
    8.9772    2.5025   22.0273 C   0  0  0  0  0  0  0  0  0  0  0  0
   10.4859    4.0901   20.9730 C   0  0  0  0  0  0  0  0  0  0  0  0
   11.0962    9.3293   23.5072 C   0  0  0  0  0  0  0  0  0  0  0  0
    5.1273    7.8529   23.6208 N   0  0  0  0  0  0  0  0  0  0  0  0
    9.7552    9.2338   23.0171 N   0  0  0  0  0  0  0  0  0  0  0  0
   11.1797    6.7591   21.3326 N   0  0  0  0  0  0  0  0  0  0  0  0
   11.7728    8.0337   23.7267 C   0  0  0  0  0  0  0  0  0  0  0  0
    7.1194    8.3344   24.6775 C   0  0  0  0  0  0  0  0  0  0  0  0
    8.4311    4.7963   22.0500 C   0  0  0  0  0  0  0  0  0  0  0  0
    8.7393   10.8706   24.1871 O   0  0  0  0  0  0  0  0  0  0  0  0
    9.3093    3.8166   21.6712 C   0  0  0  0  0  0  0  0  0  0  0  0
  1  5  1  0
  1 15  4  0
  1 22  4  0
  2 20  1  0
  2 24  1  0
  3  6  4  0
  3 27  4  0
  4 22  4  0
  4 26  4  0
  6  7  4  0
  6 13  1  0
  7 19  4  0
  8 18  1  0
  8 23  1  0
  8 28  2  0
  9 17  1  0
  9 24  1  0
 10 11  1  0
 10 24  1  0
 11 23  1  0
 12 14  4  0
 12 16  4  0
 14 19  4  0
 15 18  4  0
 16 20  4  0
 17 25  1  0
 18 26  4  0
 19 29  4  0
 20 29  4  0
 21 23  1  0
 21 25  1  0
 27 29  4  0
M  END
$$$$

 Created by Python create_sdf_string function

 29 32  0  0  0  0  0  0  0  0999 V2000
    5.4450    8.7154   22.6662 C   0  0  0  0  0  0  0  0  0  0  0  0
   10.9154    5.4574   20.5483 C   0  0  0  0  0  0  0  0  0  0  0  0
    7.2709    4.5089   22.7542 C   0  0  0  0  0  0  0  0  0  0  0  0
    5.9698    7.6329   24.6581 C   0  0  0  0  0  0  0  0  0  0  0  0
    4.5542    8.9057   21.7104 O   0  0  0  0  0  0  0  0  0  0  0  0
    6.9895    3.2085   23.0690 C   0  0  0  0  0  0  0  0  0  0  0  0
    7.8391    2.2253   22.7260 N   0  0  0  0  0  0  0  0  0  0  0  0
    8.6968    9.8373   23.6359 C   0  0  0  0  0  0  0  0  0  0  0  0
   12.5135    6.5957   21.8396 C   0  0  0  0  0  0  0  0  0  0  0  0
   10.9406    8.2330   21.1350 C   0  0  0  0  0  0  0  0  0  0  0  0
    9.6648    8.5956   21.7310 C   0  0  0  0  0  0  0  0  0  0  0  0
   10.8829    1.7153   20.9865 C   0  0  0  0  0  0  0  0  0  0  0  0
    5.7768    2.8533   23.7910 C   0  0  0  0  0  0  0  0  0  0  0  0
    9.7977    1.4791   21.6912 N   0  0  0  0  0  0  0  0  0  0  0  0
    6.5976    9.3401   22.6478 N   0  0  0  0  0  0  0  0  0  0  0  0
   11.2031    3.0042   20.6246 C   0  0  0  0  0  0  0  0  0  0  0  0
   12.8688    7.7370   22.7287 C   0  0  0  0  0  0  0  0  0  0  0  0
    7.4487    9.1361   23.6506 C   0  0  0  0  0  0  0  0  0  0  0  0
    8.9772    2.5025   22.0273 C   0  0  0  0  0  0  0  0  0  0  0  0
   10.4859    4.0901   20.9730 C   0  0  0  0  0  0  0  0  0  0  0  0
   11.0962    9.3293   23.5072 C   0  0  0  0  0  0  0  0  0  0  0  0
    5.1273    7.8529   23.6208 N   0  0  0  0  0  0  0  0  0  0  0  0
    9.7552    9.2338   23.0171 N   0  0  0  0  0  0  0  0  0  0  0  0
   11.1797    6.7591   21.3326 N   0  0  0  0  0  0  0  0  0  0  0  0
   11.7728    8.0337   23.7267 C   0  0  0  0  0  0  0  0  0  0  0  0
    7.1194    8.3344   24.6775 C   0  0  0  0  0  0  0  0  0  0  0  0
    8.4311    4.7963   22.0500 C   0  0  0  0  0  0  0  0  0  0  0  0
    8.7393   10.8706   24.1871 O   0  0  0  0  0  0  0  0  0  0  0  0
    9.3093    3.8166   21.6712 C   0  0  0  0  0  0  0  0  0  0  0  0
  1  5  1  0
  1 15  4  0
  1 22  4  0
  2 20  1  0
  2 24  1  0
  3  6  4  0
  3 27  4  0
  4 22  4  0
  4 26  4  0
  6  7  4  0
  6 13  1  0
  7 19  4  0
  8 18  1  0
  8 23  1  0
  8 28  2  0
  9 17  1  0
  9 24  1  0
 10 11  1  0
 10 24  1  0
 11 23  1  0
 12 14  4  0
 12 16  4  0
 14 19  4  0
 15 18  4  0
 16 20  4  0
 17 25  1  0
 18 26  4  0
 19 29  4  0
 20 29  4  0
 21 23  1  0
 21 25  1  0
 27 29  4  0
M  END
$$$$

 Created by Python create_sdf_string function

 29 32  0  0  0  0  0  0  0  0999 V2000
    5.4450    8.7154   22.6662 C   0  0  0  0  0  0  0  0  0  0  0  0
   10.9154    5.4574   20.5483 C   0  0  0  0  0  0  0  0  0  0  0  0
    7.2709    4.5089   22.7542 C   0  0  0  0  0  0  0  0  0  0  0  0
    5.9698    7.6329   24.6581 C   0  0  0  0  0  0  0  0  0  0  0  0
    4.5542    8.9057   21.7104 O   0  0  0  0  0  0  0  0  0  0  0  0
    6.9895    3.2085   23.0690 C   0  0  0  0  0  0  0  0  0  0  0  0
    7.8391    2.2253   22.7260 N   0  0  0  0  0  0  0  0  0  0  0  0
    8.6968    9.8373   23.6359 C   0  0  0  0  0  0  0  0  0  0  0  0
   12.5135    6.5957   21.8396 C   0  0  0  0  0  0  0  0  0  0  0  0
   10.9406    8.2330   21.1350 C   0  0  0  0  0  0  0  0  0  0  0  0
    9.6648    8.5956   21.7310 C   0  0  0  0  0  0  0  0  0  0  0  0
   10.8829    1.7153   20.9865 C   0  0  0  0  0  0  0  0  0  0  0  0
    5.7768    2.8533   23.7910 C   0  0  0  0  0  0  0  0  0  0  0  0
    9.7977    1.4791   21.6912 N   0  0  0  0  0  0  0  0  0  0  0  0
    6.5976    9.3401   22.6478 N   0  0  0  0  0  0  0  0  0  0  0  0
   11.2031    3.0042   20.6246 C   0  0  0  0  0  0  0  0  0  0  0  0
   12.8688    7.7370   22.7287 C   0  0  0  0  0  0  0  0  0  0  0  0
    7.4487    9.1361   23.6506 C   0  0  0  0  0  0  0  0  0  0  0  0
    8.9772    2.5025   22.0273 C   0  0  0  0  0  0  0  0  0  0  0  0
   10.4859    4.0901   20.9730 C   0  0  0  0  0  0  0  0  0  0  0  0
   11.0962    9.3293   23.5072 C   0  0  0  0  0  0  0  0  0  0  0  0
    5.1273    7.8529   23.6208 N   0  0  0  0  0  0  0  0  0  0  0  0
    9.7552    9.2338   23.0171 N   0  0  0  0  0  0  0  0  0  0  0  0
   11.1797    6.7591   21.3326 N   0  0  0  0  0  0  0  0  0  0  0  0
   11.7728    8.0337   23.7267 C   0  0  0  0  0  0  0  0  0  0  0  0
    7.1194    8.3344   24.6775 C   0  0  0  0  0  0  0  0  0  0  0  0
    8.4311    4.7963   22.0500 C   0  0  0  0  0  0  0  0  0  0  0  0
    8.7393   10.8706   24.1871 O   0  0  0  0  0  0  0  0  0  0  0  0
    9.3093    3.8166   21.6712 C   0  0  0  0  0  0  0  0  0  0  0  0
  1  5  1  0
  1 15  4  0
  1 22  4  0
  2 20  1  0
  2 24  1  0
  3  6  4  0
  3 27  4  0
  4 22  4  0
  4 26  4  0
  6  7  4  0
  6 13  1  0
  7 19  4  0
  8 18  1  0
  8 23  1  0
  8 28  2  0
  9 17  1  0
  9 24  1  0
 10 11  1  0
 10 24  1  0
 11 23  1  0
 12 14  4  0
 12 16  4  0
 14 19  4  0
 15 18  4  0
 16 20  4  0
 17 25  1  0
 18 26  4  0
 19 29  4  0
 20 29  4  0
 21 23  1  0
 21 25  1  0
 27 29  4  0
M  END
$$$$

 Created by Python create_sdf_string function

 29 32  0  0  0  0  0  0  0  0999 V2000
    5.4450    8.7154   22.6662 C   0  0  0  0  0  0  0  0  0  0  0  0
   10.9154    5.4574   20.5483 C   0  0  0  0  0  0  0  0  0  0  0  0
    7.2709    4.5089   22.7542 C   0  0  0  0  0  0  0  0  0  0  0  0
    5.9698    7.6329   24.6581 C   0  0  0  0  0  0  0  0  0  0  0  0
    4.5542    8.9057   21.7104 O   0  0  0  0  0  0  0  0  0  0  0  0
    6.9895    3.2085   23.0690 C   0  0  0  0  0  0  0  0  0  0  0  0
    7.8391    2.2253   22.7260 N   0  0  0  0  0  0  0  0  0  0  0  0
    8.6968    9.8373   23.6359 C   0  0  0  0  0  0  0  0  0  0  0  0
   12.5135    6.5957   21.8396 C   0  0  0  0  0  0  0  0  0  0  0  0
   10.9406    8.2330   21.1350 C   0  0  0  0  0  0  0  0  0  0  0  0
    9.6648    8.5956   21.7310 C   0  0  0  0  0  0  0  0  0  0  0  0
   10.8829    1.7153   20.9865 C   0  0  0  0  0  0  0  0  0  0  0  0
    5.7768    2.8533   23.7910 C   0  0  0  0  0  0  0  0  0  0  0  0
    9.7977    1.4791   21.6912 N   0  0  0  0  0  0  0  0  0  0  0  0
    6.5976    9.3401   22.6478 N   0  0  0  0  0  0  0  0  0  0  0  0
   11.2031    3.0042   20.6246 C   0  0  0  0  0  0  0  0  0  0  0  0
   12.8688    7.7370   22.7287 C   0  0  0  0  0  0  0  0  0  0  0  0
    7.4487    9.1361   23.6506 C   0  0  0  0  0  0  0  0  0  0  0  0
    8.9772    2.5025   22.0273 C   0  0  0  0  0  0  0  0  0  0  0  0
   10.4859    4.0901   20.9730 C   0  0  0  0  0  0  0  0  0  0  0  0
   11.0962    9.3293   23.5072 C   0  0  0  0  0  0  0  0  0  0  0  0
    5.1273    7.8529   23.6208 N   0  0  0  0  0  0  0  0  0  0  0  0
    9.7552    9.2338   23.0171 N   0  0  0  0  0  0  0  0  0  0  0  0
   11.1797    6.7591   21.3326 N   0  0  0  0  0  0  0  0  0  0  0  0
   11.7728    8.0337   23.7267 C   0  0  0  0  0  0  0  0  0  0  0  0
    7.1194    8.3344   24.6775 C   0  0  0  0  0  0  0  0  0  0  0  0
    8.4311    4.7963   22.0500 C   0  0  0  0  0  0  0  0  0  0  0  0
    8.7393   10.8706   24.1871 O   0  0  0  0  0  0  0  0  0  0  0  0
    9.3093    3.8166   21.6712 C   0  0  0  0  0  0  0  0  0  0  0  0
  1  5  1  0
  1 15  4  0
  1 22  4  0
  2 20  1  0
  2 24  1  0
  3  6  4  0
  3 27  4  0
  4 22  4  0
  4 26  4  0
  6  7  4  0
  6 13  1  0
  7 19  4  0
  8 18  1  0
  8 23  1  0
  8 28  2  0
  9 17  1  0
  9 24  1  0
 10 11  1  0
 10 24  1  0
 11 23  1  0
 12 14  4  0
 12 16  4  0
 14 19  4  0
 15 18  4  0
 16 20  4  0
 17 25  1  0
 18 26  4  0
 19 29  4  0
 20 29  4  0
 21 23  1  0
 21 25  1  0
 27 29  4  0
M  END
$$$$

 Created by Python create_sdf_string function

 29 32  0  0  0  0  0  0  0  0999 V2000
    5.4450    8.7154   22.6662 C   0  0  0  0  0  0  0  0  0  0  0  0
   10.9154    5.4574   20.5483 C   0  0  0  0  0  0  0  0  0  0  0  0
    7.2709    4.5089   22.7542 C   0  0  0  0  0  0  0  0  0  0  0  0
    5.9698    7.6329   24.6581 C   0  0  0  0  0  0  0  0  0  0  0  0
    4.5542    8.9057   21.7104 O   0  0  0  0  0  0  0  0  0  0  0  0
    6.9895    3.2085   23.0690 C   0  0  0  0  0  0  0  0  0  0  0  0
    7.8391    2.2253   22.7260 N   0  0  0  0  0  0  0  0  0  0  0  0
    8.6968    9.8373   23.6359 C   0  0  0  0  0  0  0  0  0  0  0  0
   12.5135    6.5957   21.8396 C   0  0  0  0  0  0  0  0  0  0  0  0
   10.9406    8.2330   21.1350 C   0  0  0  0  0  0  0  0  0  0  0  0
    9.6648    8.5956   21.7310 C   0  0  0  0  0  0  0  0  0  0  0  0
   10.8829    1.7153   20.9865 C   0  0  0  0  0  0  0  0  0  0  0  0
    5.7768    2.8533   23.7910 C   0  0  0  0  0  0  0  0  0  0  0  0
    9.7977    1.4791   21.6912 N   0  0  0  0  0  0  0  0  0  0  0  0
    6.5976    9.3401   22.6478 N   0  0  0  0  0  0  0  0  0  0  0  0
   11.2031    3.0042   20.6246 C   0  0  0  0  0  0  0  0  0  0  0  0
   12.8688    7.7370   22.7287 C   0  0  0  0  0  0  0  0  0  0  0  0
    7.4487    9.1361   23.6506 C   0  0  0  0  0  0  0  0  0  0  0  0
    8.9772    2.5025   22.0273 C   0  0  0  0  0  0  0  0  0  0  0  0
   10.4859    4.0901   20.9730 C   0  0  0  0  0  0  0  0  0  0  0  0
   11.0962    9.3293   23.5072 C   0  0  0  0  0  0  0  0  0  0  0  0
    5.1273    7.8529   23.6208 N   0  0  0  0  0  0  0  0  0  0  0  0
    9.7552    9.2338   23.0171 N   0  0  0  0  0  0  0  0  0  0  0  0
   11.1797    6.7591   21.3326 N   0  0  0  0  0  0  0  0  0  0  0  0
   11.7728    8.0337   23.7267 C   0  0  0  0  0  0  0  0  0  0  0  0
    7.1194    8.3344   24.6775 C   0  0  0  0  0  0  0  0  0  0  0  0
    8.4311    4.7963   22.0500 C   0  0  0  0  0  0  0  0  0  0  0  0
    8.7393   10.8706   24.1871 O   0  0  0  0  0  0  0  0  0  0  0  0
    9.3093    3.8166   21.6712 C   0  0  0  0  0  0  0  0  0  0  0  0
  1  5  1  0
  1 15  4  0
  1 22  4  0
  2 20  1  0
  2 24  1  0
  3  6  4  0
  3 27  4  0
  4 22  4  0
  4 26  4  0
  6  7  4  0
  6 13  1  0
  7 19  4  0
  8 18  1  0
  8 23  1  0
  8 28  2  0
  9 17  1  0
  9 24  1  0
 10 11  1  0
 10 24  1  0
 11 23  1  0
 12 14  4  0
 12 16  4  0
 14 19  4  0
 15 18  4  0
 16 20  4  0
 17 25  1  0
 18 26  4  0
 19 29  4  0
 20 29  4  0
 21 23  1  0
 21 25  1  0
 27 29  4  0
M  END
$$$$

 Created by Python create_sdf_string function

 29 32  0  0  0  0  0  0  0  0999 V2000
    5.4450    8.7154   22.6662 C   0  0  0  0  0  0  0  0  0  0  0  0
   10.9154    5.4574   20.5483 C   0  0  0  0  0  0  0  0  0  0  0  0
    7.2709    4.5089   22.7542 C   0  0  0  0  0  0  0  0  0  0  0  0
    5.9698    7.6329   24.6581 C   0  0  0  0  0  0  0  0  0  0  0  0
    4.5542    8.9057   21.7104 O   0  0  0  0  0  0  0  0  0  0  0  0
    6.9895    3.2085   23.0690 C   0  0  0  0  0  0  0  0  0  0  0  0
    7.8391    2.2253   22.7260 N   0  0  0  0  0  0  0  0  0  0  0  0
    8.6968    9.8373   23.6359 C   0  0  0  0  0  0  0  0  0  0  0  0
   12.5135    6.5957   21.8396 C   0  0  0  0  0  0  0  0  0  0  0  0
   10.9406    8.2330   21.1350 C   0  0  0  0  0  0  0  0  0  0  0  0
    9.6648    8.5956   21.7310 C   0  0  0  0  0  0  0  0  0  0  0  0
   10.8829    1.7153   20.9865 C   0  0  0  0  0  0  0  0  0  0  0  0
    5.7768    2.8533   23.7910 C   0  0  0  0  0  0  0  0  0  0  0  0
    9.7977    1.4791   21.6912 N   0  0  0  0  0  0  0  0  0  0  0  0
    6.5976    9.3401   22.6478 N   0  0  0  0  0  0  0  0  0  0  0  0
   11.2031    3.0042   20.6246 C   0  0  0  0  0  0  0  0  0  0  0  0
   12.8688    7.7370   22.7287 C   0  0  0  0  0  0  0  0  0  0  0  0
    7.4487    9.1361   23.6506 C   0  0  0  0  0  0  0  0  0  0  0  0
    8.9772    2.5025   22.0273 C   0  0  0  0  0  0  0  0  0  0  0  0
   10.4859    4.0901   20.9730 C   0  0  0  0  0  0  0  0  0  0  0  0
   11.0962    9.3293   23.5072 C   0  0  0  0  0  0  0  0  0  0  0  0
    5.1273    7.8529   23.6208 N   0  0  0  0  0  0  0  0  0  0  0  0
    9.7552    9.2338   23.0171 N   0  0  0  0  0  0  0  0  0  0  0  0
   11.1797    6.7591   21.3326 N   0  0  0  0  0  0  0  0  0  0  0  0
   11.7728    8.0337   23.7267 C   0  0  0  0  0  0  0  0  0  0  0  0
    7.1194    8.3344   24.6775 C   0  0  0  0  0  0  0  0  0  0  0  0
    8.4311    4.7963   22.0500 C   0  0  0  0  0  0  0  0  0  0  0  0
    8.7393   10.8706   24.1871 O   0  0  0  0  0  0  0  0  0  0  0  0
    9.3093    3.8166   21.6712 C   0  0  0  0  0  0  0  0  0  0  0  0
  1  5  1  0
  1 15  4  0
  1 22  4  0
  2 20  1  0
  2 24  1  0
  3  6  4  0
  3 27  4  0
  4 22  4  0
  4 26  4  0
  6  7  4  0
  6 13  1  0
  7 19  4  0
  8 18  1  0
  8 23  1  0
  8 28  2  0
  9 17  1  0
  9 24  1  0
 10 11  1  0
 10 24  1  0
 11 23  1  0
 12 14  4  0
 12 16  4  0
 14 19  4  0
 15 18  4  0
 16 20  4  0
 17 25  1  0
 18 26  4  0
 19 29  4  0
 20 29  4  0
 21 23  1  0
 21 25  1  0
 27 29  4  0
M  END
$$$$

 Created by Python create_sdf_string function

 29 32  0  0  0  0  0  0  0  0999 V2000
    5.4450    8.7154   22.6662 C   0  0  0  0  0  0  0  0  0  0  0  0
   10.9154    5.4574   20.5483 C   0  0  0  0  0  0  0  0  0  0  0  0
    7.2709    4.5089   22.7542 C   0  0  0  0  0  0  0  0  0  0  0  0
    5.9698    7.6329   24.6581 C   0  0  0  0  0  0  0  0  0  0  0  0
    4.5542    8.9057   21.7104 O   0  0  0  0  0  0  0  0  0  0  0  0
    6.9895    3.2085   23.0690 C   0  0  0  0  0  0  0  0  0  0  0  0
    7.8391    2.2253   22.7260 N   0  0  0  0  0  0  0  0  0  0  0  0
    8.6968    9.8373   23.6359 C   0  0  0  0  0  0  0  0  0  0  0  0
   12.5135    6.5957   21.8396 C   0  0  0  0  0  0  0  0  0  0  0  0
   10.9406    8.2330   21.1350 C   0  0  0  0  0  0  0  0  0  0  0  0
    9.6648    8.5956   21.7310 C   0  0  0  0  0  0  0  0  0  0  0  0
   10.8829    1.7153   20.9865 C   0  0  0  0  0  0  0  0  0  0  0  0
    5.7768    2.8533   23.7910 C   0  0  0  0  0  0  0  0  0  0  0  0
    9.7977    1.4791   21.6912 N   0  0  0  0  0  0  0  0  0  0  0  0
    6.5976    9.3401   22.6478 N   0  0  0  0  0  0  0  0  0  0  0  0
   11.2031    3.0042   20.6246 C   0  0  0  0  0  0  0  0  0  0  0  0
   12.8688    7.7370   22.7287 C   0  0  0  0  0  0  0  0  0  0  0  0
    7.4487    9.1361   23.6506 C   0  0  0  0  0  0  0  0  0  0  0  0
    8.9772    2.5025   22.0273 C   0  0  0  0  0  0  0  0  0  0  0  0
   10.4859    4.0901   20.9730 C   0  0  0  0  0  0  0  0  0  0  0  0
   11.0962    9.3293   23.5072 C   0  0  0  0  0  0  0  0  0  0  0  0
    5.1273    7.8529   23.6208 N   0  0  0  0  0  0  0  0  0  0  0  0
    9.7552    9.2338   23.0171 N   0  0  0  0  0  0  0  0  0  0  0  0
   11.1797    6.7591   21.3326 N   0  0  0  0  0  0  0  0  0  0  0  0
   11.7728    8.0337   23.7267 C   0  0  0  0  0  0  0  0  0  0  0  0
    7.1194    8.3344   24.6775 C   0  0  0  0  0  0  0  0  0  0  0  0
    8.4311    4.7963   22.0500 C   0  0  0  0  0  0  0  0  0  0  0  0
    8.7393   10.8706   24.1871 O   0  0  0  0  0  0  0  0  0  0  0  0
    9.3093    3.8166   21.6712 C   0  0  0  0  0  0  0  0  0  0  0  0
  1  5  1  0
  1 15  4  0
  1 22  4  0
  2 20  1  0
  2 24  1  0
  3  6  4  0
  3 27  4  0
  4 22  4  0
  4 26  4  0
  6  7  4  0
  6 13  1  0
  7 19  4  0
  8 18  1  0
  8 23  1  0
  8 28  2  0
  9 17  1  0
  9 24  1  0
 10 11  1  0
 10 24  1  0
 11 23  1  0
 12 14  4  0
 12 16  4  0
 14 19  4  0
 15 18  4  0
 16 20  4  0
 17 25  1  0
 18 26  4  0
 19 29  4  0
 20 29  4  0
 21 23  1  0
 21 25  1  0
 27 29  4  0
M  END
$$$$

 Created by Python create_sdf_string function

 29 32  0  0  0  0  0  0  0  0999 V2000
    5.4450    8.7154   22.6662 C   0  0  0  0  0  0  0  0  0  0  0  0
   10.9154    5.4574   20.5483 C   0  0  0  0  0  0  0  0  0  0  0  0
    7.2709    4.5089   22.7542 C   0  0  0  0  0  0  0  0  0  0  0  0
    5.9698    7.6329   24.6581 C   0  0  0  0  0  0  0  0  0  0  0  0
    4.5542    8.9057   21.7104 O   0  0  0  0  0  0  0  0  0  0  0  0
    6.9895    3.2085   23.0690 C   0  0  0  0  0  0  0  0  0  0  0  0
    7.8391    2.2253   22.7260 N   0  0  0  0  0  0  0  0  0  0  0  0
    8.6968    9.8373   23.6359 C   0  0  0  0  0  0  0  0  0  0  0  0
   12.5135    6.5957   21.8396 C   0  0  0  0  0  0  0  0  0  0  0  0
   10.9406    8.2330   21.1350 C   0  0  0  0  0  0  0  0  0  0  0  0
    9.6648    8.5956   21.7310 C   0  0  0  0  0  0  0  0  0  0  0  0
   10.8829    1.7153   20.9865 C   0  0  0  0  0  0  0  0  0  0  0  0
    5.7768    2.8533   23.7910 C   0  0  0  0  0  0  0  0  0  0  0  0
    9.7977    1.4791   21.6912 N   0  0  0  0  0  0  0  0  0  0  0  0
    6.5976    9.3401   22.6478 N   0  0  0  0  0  0  0  0  0  0  0  0
   11.2031    3.0042   20.6246 C   0  0  0  0  0  0  0  0  0  0  0  0
   12.8688    7.7370   22.7287 C   0  0  0  0  0  0  0  0  0  0  0  0
    7.4487    9.1361   23.6506 C   0  0  0  0  0  0  0  0  0  0  0  0
    8.9772    2.5025   22.0273 C   0  0  0  0  0  0  0  0  0  0  0  0
   10.4859    4.0901   20.9730 C   0  0  0  0  0  0  0  0  0  0  0  0
   11.0962    9.3293   23.5072 C   0  0  0  0  0  0  0  0  0  0  0  0
    5.1273    7.8529   23.6208 N   0  0  0  0  0  0  0  0  0  0  0  0
    9.7552    9.2338   23.0171 N   0  0  0  0  0  0  0  0  0  0  0  0
   11.1797    6.7591   21.3326 N   0  0  0  0  0  0  0  0  0  0  0  0
   11.7728    8.0337   23.7267 C   0  0  0  0  0  0  0  0  0  0  0  0
    7.1194    8.3344   24.6775 C   0  0  0  0  0  0  0  0  0  0  0  0
    8.4311    4.7963   22.0500 C   0  0  0  0  0  0  0  0  0  0  0  0
    8.7393   10.8706   24.1871 O   0  0  0  0  0  0  0  0  0  0  0  0
    9.3093    3.8166   21.6712 C   0  0  0  0  0  0  0  0  0  0  0  0
  1  5  1  0
  1 15  4  0
  1 22  4  0
  2 20  1  0
  2 24  1  0
  3  6  4  0
  3 27  4  0
  4 22  4  0
  4 26  4  0
  6  7  4  0
  6 13  1  0
  7 19  4  0
  8 18  1  0
  8 23  1  0
  8 28  2  0
  9 17  1  0
  9 24  1  0
 10 11  1  0
 10 24  1  0
 11 23  1  0
 12 14  4  0
 12 16  4  0
 14 19  4  0
 15 18  4  0
 16 20  4  0
 17 25  1  0
 18 26  4  0
 19 29  4  0
 20 29  4  0
 21 23  1  0
 21 25  1  0
 27 29  4  0
M  END
$$$$

 Created by Python create_sdf_string function

 29 32  0  0  0  0  0  0  0  0999 V2000
    5.4450    8.7154   22.6662 C   0  0  0  0  0  0  0  0  0  0  0  0
   10.9154    5.4574   20.5483 C   0  0  0  0  0  0  0  0  0  0  0  0
    7.2709    4.5089   22.7542 C   0  0  0  0  0  0  0  0  0  0  0  0
    5.9698    7.6329   24.6581 C   0  0  0  0  0  0  0  0  0  0  0  0
    4.5542    8.9057   21.7104 O   0  0  0  0  0  0  0  0  0  0  0  0
    6.9895    3.2085   23.0690 C   0  0  0  0  0  0  0  0  0  0  0  0
    7.8391    2.2253   22.7260 N   0  0  0  0  0  0  0  0  0  0  0  0
    8.6968    9.8373   23.6359 C   0  0  0  0  0  0  0  0  0  0  0  0
   12.5135    6.5957   21.8396 C   0  0  0  0  0  0  0  0  0  0  0  0
   10.9406    8.2330   21.1350 C   0  0  0  0  0  0  0  0  0  0  0  0
    9.6648    8.5956   21.7310 C   0  0  0  0  0  0  0  0  0  0  0  0
   10.8829    1.7153   20.9865 C   0  0  0  0  0  0  0  0  0  0  0  0
    5.7768    2.8533   23.7910 C   0  0  0  0  0  0  0  0  0  0  0  0
    9.7977    1.4791   21.6912 N   0  0  0  0  0  0  0  0  0  0  0  0
    6.5976    9.3401   22.6478 N   0  0  0  0  0  0  0  0  0  0  0  0
   11.2031    3.0042   20.6246 C   0  0  0  0  0  0  0  0  0  0  0  0
   12.8688    7.7370   22.7287 C   0  0  0  0  0  0  0  0  0  0  0  0
    7.4487    9.1361   23.6506 C   0  0  0  0  0  0  0  0  0  0  0  0
    8.9772    2.5025   22.0273 C   0  0  0  0  0  0  0  0  0  0  0  0
   10.4859    4.0901   20.9730 C   0  0  0  0  0  0  0  0  0  0  0  0
   11.0962    9.3293   23.5072 C   0  0  0  0  0  0  0  0  0  0  0  0
    5.1273    7.8529   23.6208 N   0  0  0  0  0  0  0  0  0  0  0  0
    9.7552    9.2338   23.0171 N   0  0  0  0  0  0  0  0  0  0  0  0
   11.1797    6.7591   21.3326 N   0  0  0  0  0  0  0  0  0  0  0  0
   11.7728    8.0337   23.7267 C   0  0  0  0  0  0  0  0  0  0  0  0
    7.1194    8.3344   24.6775 C   0  0  0  0  0  0  0  0  0  0  0  0
    8.4311    4.7963   22.0500 C   0  0  0  0  0  0  0  0  0  0  0  0
    8.7393   10.8706   24.1871 O   0  0  0  0  0  0  0  0  0  0  0  0
    9.3093    3.8166   21.6712 C   0  0  0  0  0  0  0  0  0  0  0  0
  1  5  1  0
  1 15  4  0
  1 22  4  0
  2 20  1  0
  2 24  1  0
  3  6  4  0
  3 27  4  0
  4 22  4  0
  4 26  4  0
  6  7  4  0
  6 13  1  0
  7 19  4  0
  8 18  1  0
  8 23  1  0
  8 28  2  0
  9 17  1  0
  9 24  1  0
 10 11  1  0
 10 24  1  0
 11 23  1  0
 12 14  4  0
 12 16  4  0
 14 19  4  0
 15 18  4  0
 16 20  4  0
 17 25  1  0
 18 26  4  0
 19 29  4  0
 20 29  4  0
 21 23  1  0
 21 25  1  0
 27 29  4  0
M  END
$$$$

 Created by Python create_sdf_string function

 29 32  0  0  0  0  0  0  0  0999 V2000
    5.4450    8.7154   22.6662 C   0  0  0  0  0  0  0  0  0  0  0  0
   10.9154    5.4574   20.5483 C   0  0  0  0  0  0  0  0  0  0  0  0
    7.2709    4.5089   22.7542 C   0  0  0  0  0  0  0  0  0  0  0  0
    5.9698    7.6329   24.6581 C   0  0  0  0  0  0  0  0  0  0  0  0
    4.5542    8.9057   21.7104 O   0  0  0  0  0  0  0  0  0  0  0  0
    6.9895    3.2085   23.0690 C   0  0  0  0  0  0  0  0  0  0  0  0
    7.8391    2.2253   22.7260 N   0  0  0  0  0  0  0  0  0  0  0  0
    8.6968    9.8373   23.6359 C   0  0  0  0  0  0  0  0  0  0  0  0
   12.5135    6.5957   21.8396 C   0  0  0  0  0  0  0  0  0  0  0  0
   10.9406    8.2330   21.1350 C   0  0  0  0  0  0  0  0  0  0  0  0
    9.6648    8.5956   21.7310 C   0  0  0  0  0  0  0  0  0  0  0  0
   10.8829    1.7153   20.9865 C   0  0  0  0  0  0  0  0  0  0  0  0
    5.7768    2.8533   23.7910 C   0  0  0  0  0  0  0  0  0  0  0  0
    9.7977    1.4791   21.6912 N   0  0  0  0  0  0  0  0  0  0  0  0
    6.5976    9.3401   22.6478 N   0  0  0  0  0  0  0  0  0  0  0  0
   11.2031    3.0042   20.6246 C   0  0  0  0  0  0  0  0  0  0  0  0
   12.8688    7.7370   22.7287 C   0  0  0  0  0  0  0  0  0  0  0  0
    7.4487    9.1361   23.6506 C   0  0  0  0  0  0  0  0  0  0  0  0
    8.9772    2.5025   22.0273 C   0  0  0  0  0  0  0  0  0  0  0  0
   10.4859    4.0901   20.9730 C   0  0  0  0  0  0  0  0  0  0  0  0
   11.0962    9.3293   23.5072 C   0  0  0  0  0  0  0  0  0  0  0  0
    5.1273    7.8529   23.6208 N   0  0  0  0  0  0  0  0  0  0  0  0
    9.7552    9.2338   23.0171 N   0  0  0  0  0  0  0  0  0  0  0  0
   11.1797    6.7591   21.3326 N   0  0  0  0  0  0  0  0  0  0  0  0
   11.7728    8.0337   23.7267 C   0  0  0  0  0  0  0  0  0  0  0  0
    7.1194    8.3344   24.6775 C   0  0  0  0  0  0  0  0  0  0  0  0
    8.4311    4.7963   22.0500 C   0  0  0  0  0  0  0  0  0  0  0  0
    8.7393   10.8706   24.1871 O   0  0  0  0  0  0  0  0  0  0  0  0
    9.3093    3.8166   21.6712 C   0  0  0  0  0  0  0  0  0  0  0  0
  1  5  1  0
  1 15  4  0
  1 22  4  0
  2 20  1  0
  2 24  1  0
  3  6  4  0
  3 27  4  0
  4 22  4  0
  4 26  4  0
  6  7  4  0
  6 13  1  0
  7 19  4  0
  8 18  1  0
  8 23  1  0
  8 28  2  0
  9 17  1  0
  9 24  1  0
 10 11  1  0
 10 24  1  0
 11 23  1  0
 12 14  4  0
 12 16  4  0
 14 19  4  0
 15 18  4  0
 16 20  4  0
 17 25  1  0
 18 26  4  0
 19 29  4  0
 20 29  4  0
 21 23  1  0
 21 25  1  0
 27 29  4  0
M  END
$$$$

 Created by Python create_sdf_string function

 29 32  0  0  0  0  0  0  0  0999 V2000
    5.4450    8.7154   22.6662 C   0  0  0  0  0  0  0  0  0  0  0  0
   10.9154    5.4574   20.5483 C   0  0  0  0  0  0  0  0  0  0  0  0
    7.2709    4.5089   22.7542 C   0  0  0  0  0  0  0  0  0  0  0  0
    5.9698    7.6329   24.6581 C   0  0  0  0  0  0  0  0  0  0  0  0
    4.5542    8.9057   21.7104 O   0  0  0  0  0  0  0  0  0  0  0  0
    6.9895    3.2085   23.0690 C   0  0  0  0  0  0  0  0  0  0  0  0
    7.8391    2.2253   22.7260 N   0  0  0  0  0  0  0  0  0  0  0  0
    8.6968    9.8373   23.6359 C   0  0  0  0  0  0  0  0  0  0  0  0
   12.5135    6.5957   21.8396 C   0  0  0  0  0  0  0  0  0  0  0  0
   10.9406    8.2330   21.1350 C   0  0  0  0  0  0  0  0  0  0  0  0
    9.6648    8.5956   21.7310 C   0  0  0  0  0  0  0  0  0  0  0  0
   10.8829    1.7153   20.9865 C   0  0  0  0  0  0  0  0  0  0  0  0
    5.7768    2.8533   23.7910 C   0  0  0  0  0  0  0  0  0  0  0  0
    9.7977    1.4791   21.6912 N   0  0  0  0  0  0  0  0  0  0  0  0
    6.5976    9.3401   22.6478 N   0  0  0  0  0  0  0  0  0  0  0  0
   11.2031    3.0042   20.6246 C   0  0  0  0  0  0  0  0  0  0  0  0
   12.8688    7.7370   22.7287 C   0  0  0  0  0  0  0  0  0  0  0  0
    7.4487    9.1361   23.6506 C   0  0  0  0  0  0  0  0  0  0  0  0
    8.9772    2.5025   22.0273 C   0  0  0  0  0  0  0  0  0  0  0  0
   10.4859    4.0901   20.9730 C   0  0  0  0  0  0  0  0  0  0  0  0
   11.0962    9.3293   23.5072 C   0  0  0  0  0  0  0  0  0  0  0  0
    5.1273    7.8529   23.6208 N   0  0  0  0  0  0  0  0  0  0  0  0
    9.7552    9.2338   23.0171 N   0  0  0  0  0  0  0  0  0  0  0  0
   11.1797    6.7591   21.3326 N   0  0  0  0  0  0  0  0  0  0  0  0
   11.7728    8.0337   23.7267 C   0  0  0  0  0  0  0  0  0  0  0  0
    7.1194    8.3344   24.6775 C   0  0  0  0  0  0  0  0  0  0  0  0
    8.4311    4.7963   22.0500 C   0  0  0  0  0  0  0  0  0  0  0  0
    8.7393   10.8706   24.1871 O   0  0  0  0  0  0  0  0  0  0  0  0
    9.3093    3.8166   21.6712 C   0  0  0  0  0  0  0  0  0  0  0  0
  1  5  1  0
  1 15  4  0
  1 22  4  0
  2 20  1  0
  2 24  1  0
  3  6  4  0
  3 27  4  0
  4 22  4  0
  4 26  4  0
  6  7  4  0
  6 13  1  0
  7 19  4  0
  8 18  1  0
  8 23  1  0
  8 28  2  0
  9 17  1  0
  9 24  1  0
 10 11  1  0
 10 24  1  0
 11 23  1  0
 12 14  4  0
 12 16  4  0
 14 19  4  0
 15 18  4  0
 16 20  4  0
 17 25  1  0
 18 26  4  0
 19 29  4  0
 20 29  4  0
 21 23  1  0
 21 25  1  0
 27 29  4  0
M  END
$$$$

 Created by Python create_sdf_string function

 29 32  0  0  0  0  0  0  0  0999 V2000
    5.4450    8.7154   22.6662 C   0  0  0  0  0  0  0  0  0  0  0  0
   10.9154    5.4574   20.5483 C   0  0  0  0  0  0  0  0  0  0  0  0
    7.2709    4.5089   22.7542 C   0  0  0  0  0  0  0  0  0  0  0  0
    5.9698    7.6329   24.6581 C   0  0  0  0  0  0  0  0  0  0  0  0
    4.5542    8.9057   21.7104 O   0  0  0  0  0  0  0  0  0  0  0  0
    6.9895    3.2085   23.0690 C   0  0  0  0  0  0  0  0  0  0  0  0
    7.8391    2.2253   22.7260 N   0  0  0  0  0  0  0  0  0  0  0  0
    8.6968    9.8373   23.6359 C   0  0  0  0  0  0  0  0  0  0  0  0
   12.5135    6.5957   21.8396 C   0  0  0  0  0  0  0  0  0  0  0  0
   10.9406    8.2330   21.1350 C   0  0  0  0  0  0  0  0  0  0  0  0
    9.6648    8.5956   21.7310 C   0  0  0  0  0  0  0  0  0  0  0  0
   10.8829    1.7153   20.9865 C   0  0  0  0  0  0  0  0  0  0  0  0
    5.7768    2.8533   23.7910 C   0  0  0  0  0  0  0  0  0  0  0  0
    9.7977    1.4791   21.6912 N   0  0  0  0  0  0  0  0  0  0  0  0
    6.5976    9.3401   22.6478 N   0  0  0  0  0  0  0  0  0  0  0  0
   11.2031    3.0042   20.6246 C   0  0  0  0  0  0  0  0  0  0  0  0
   12.8688    7.7370   22.7287 C   0  0  0  0  0  0  0  0  0  0  0  0
    7.4487    9.1361   23.6506 C   0  0  0  0  0  0  0  0  0  0  0  0
    8.9772    2.5025   22.0273 C   0  0  0  0  0  0  0  0  0  0  0  0
   10.4859    4.0901   20.9730 C   0  0  0  0  0  0  0  0  0  0  0  0
   11.0962    9.3293   23.5072 C   0  0  0  0  0  0  0  0  0  0  0  0
    5.1273    7.8529   23.6208 N   0  0  0  0  0  0  0  0  0  0  0  0
    9.7552    9.2338   23.0171 N   0  0  0  0  0  0  0  0  0  0  0  0
   11.1797    6.7591   21.3326 N   0  0  0  0  0  0  0  0  0  0  0  0
   11.7728    8.0337   23.7267 C   0  0  0  0  0  0  0  0  0  0  0  0
    7.1194    8.3344   24.6775 C   0  0  0  0  0  0  0  0  0  0  0  0
    8.4311    4.7963   22.0500 C   0  0  0  0  0  0  0  0  0  0  0  0
    8.7393   10.8706   24.1871 O   0  0  0  0  0  0  0  0  0  0  0  0
    9.3093    3.8166   21.6712 C   0  0  0  0  0  0  0  0  0  0  0  0
  1  5  1  0
  1 15  4  0
  1 22  4  0
  2 20  1  0
  2 24  1  0
  3  6  4  0
  3 27  4  0
  4 22  4  0
  4 26  4  0
  6  7  4  0
  6 13  1  0
  7 19  4  0
  8 18  1  0
  8 23  1  0
  8 28  2  0
  9 17  1  0
  9 24  1  0
 10 11  1  0
 10 24  1  0
 11 23  1  0
 12 14  4  0
 12 16  4  0
 14 19  4  0
 15 18  4  0
 16 20  4  0
 17 25  1  0
 18 26  4  0
 19 29  4  0
 20 29  4  0
 21 23  1  0
 21 25  1  0
 27 29  4  0
M  END
$$$$

 Created by Python create_sdf_string function

 29 32  0  0  0  0  0  0  0  0999 V2000
    5.4450    8.7154   22.6662 C   0  0  0  0  0  0  0  0  0  0  0  0
   10.9154    5.4574   20.5483 C   0  0  0  0  0  0  0  0  0  0  0  0
    7.2709    4.5089   22.7542 C   0  0  0  0  0  0  0  0  0  0  0  0
    5.9698    7.6329   24.6581 C   0  0  0  0  0  0  0  0  0  0  0  0
    4.5542    8.9057   21.7104 O   0  0  0  0  0  0  0  0  0  0  0  0
    6.9895    3.2085   23.0690 C   0  0  0  0  0  0  0  0  0  0  0  0
    7.8391    2.2253   22.7260 N   0  0  0  0  0  0  0  0  0  0  0  0
    8.6968    9.8373   23.6359 C   0  0  0  0  0  0  0  0  0  0  0  0
   12.5135    6.5957   21.8396 C   0  0  0  0  0  0  0  0  0  0  0  0
   10.9406    8.2330   21.1350 C   0  0  0  0  0  0  0  0  0  0  0  0
    9.6648    8.5956   21.7310 C   0  0  0  0  0  0  0  0  0  0  0  0
   10.8829    1.7153   20.9865 C   0  0  0  0  0  0  0  0  0  0  0  0
    5.7768    2.8533   23.7910 C   0  0  0  0  0  0  0  0  0  0  0  0
    9.7977    1.4791   21.6912 N   0  0  0  0  0  0  0  0  0  0  0  0
    6.5976    9.3401   22.6478 N   0  0  0  0  0  0  0  0  0  0  0  0
   11.2031    3.0042   20.6246 C   0  0  0  0  0  0  0  0  0  0  0  0
   12.8688    7.7370   22.7287 C   0  0  0  0  0  0  0  0  0  0  0  0
    7.4487    9.1361   23.6506 C   0  0  0  0  0  0  0  0  0  0  0  0
    8.9772    2.5025   22.0273 C   0  0  0  0  0  0  0  0  0  0  0  0
   10.4859    4.0901   20.9730 C   0  0  0  0  0  0  0  0  0  0  0  0
   11.0962    9.3293   23.5072 C   0  0  0  0  0  0  0  0  0  0  0  0
    5.1273    7.8529   23.6208 N   0  0  0  0  0  0  0  0  0  0  0  0
    9.7552    9.2338   23.0171 N   0  0  0  0  0  0  0  0  0  0  0  0
   11.1797    6.7591   21.3326 N   0  0  0  0  0  0  0  0  0  0  0  0
   11.7728    8.0337   23.7267 C   0  0  0  0  0  0  0  0  0  0  0  0
    7.1194    8.3344   24.6775 C   0  0  0  0  0  0  0  0  0  0  0  0
    8.4311    4.7963   22.0500 C   0  0  0  0  0  0  0  0  0  0  0  0
    8.7393   10.8706   24.1871 O   0  0  0  0  0  0  0  0  0  0  0  0
    9.3093    3.8166   21.6712 C   0  0  0  0  0  0  0  0  0  0  0  0
  1  5  1  0
  1 15  4  0
  1 22  4  0
  2 20  1  0
  2 24  1  0
  3  6  4  0
  3 27  4  0
  4 22  4  0
  4 26  4  0
  6  7  4  0
  6 13  1  0
  7 19  4  0
  8 18  1  0
  8 23  1  0
  8 28  2  0
  9 17  1  0
  9 24  1  0
 10 11  1  0
 10 24  1  0
 11 23  1  0
 12 14  4  0
 12 16  4  0
 14 19  4  0
 15 18  4  0
 16 20  4  0
 17 25  1  0
 18 26  4  0
 19 29  4  0
 20 29  4  0
 21 23  1  0
 21 25  1  0
 27 29  4  0
M  END
$$$$

 Created by Python create_sdf_string function

 29 32  0  0  0  0  0  0  0  0999 V2000
    5.4450    8.7154   22.6662 C   0  0  0  0  0  0  0  0  0  0  0  0
   10.9154    5.4574   20.5483 C   0  0  0  0  0  0  0  0  0  0  0  0
    7.2709    4.5089   22.7542 C   0  0  0  0  0  0  0  0  0  0  0  0
    5.9698    7.6329   24.6581 C   0  0  0  0  0  0  0  0  0  0  0  0
    4.5542    8.9057   21.7104 O   0  0  0  0  0  0  0  0  0  0  0  0
    6.9895    3.2085   23.0690 C   0  0  0  0  0  0  0  0  0  0  0  0
    7.8391    2.2253   22.7260 N   0  0  0  0  0  0  0  0  0  0  0  0
    8.6968    9.8373   23.6359 C   0  0  0  0  0  0  0  0  0  0  0  0
   12.5135    6.5957   21.8396 C   0  0  0  0  0  0  0  0  0  0  0  0
   10.9406    8.2330   21.1350 C   0  0  0  0  0  0  0  0  0  0  0  0
    9.6648    8.5956   21.7310 C   0  0  0  0  0  0  0  0  0  0  0  0
   10.8829    1.7153   20.9865 C   0  0  0  0  0  0  0  0  0  0  0  0
    5.7768    2.8533   23.7910 C   0  0  0  0  0  0  0  0  0  0  0  0
    9.7977    1.4791   21.6912 N   0  0  0  0  0  0  0  0  0  0  0  0
    6.5976    9.3401   22.6478 N   0  0  0  0  0  0  0  0  0  0  0  0
   11.2031    3.0042   20.6246 C   0  0  0  0  0  0  0  0  0  0  0  0
   12.8688    7.7370   22.7287 C   0  0  0  0  0  0  0  0  0  0  0  0
    7.4487    9.1361   23.6506 C   0  0  0  0  0  0  0  0  0  0  0  0
    8.9772    2.5025   22.0273 C   0  0  0  0  0  0  0  0  0  0  0  0
   10.4859    4.0901   20.9730 C   0  0  0  0  0  0  0  0  0  0  0  0
   11.0962    9.3293   23.5072 C   0  0  0  0  0  0  0  0  0  0  0  0
    5.1273    7.8529   23.6208 N   0  0  0  0  0  0  0  0  0  0  0  0
    9.7552    9.2338   23.0171 N   0  0  0  0  0  0  0  0  0  0  0  0
   11.1797    6.7591   21.3326 N   0  0  0  0  0  0  0  0  0  0  0  0
   11.7728    8.0337   23.7267 C   0  0  0  0  0  0  0  0  0  0  0  0
    7.1194    8.3344   24.6775 C   0  0  0  0  0  0  0  0  0  0  0  0
    8.4311    4.7963   22.0500 C   0  0  0  0  0  0  0  0  0  0  0  0
    8.7393   10.8706   24.1871 O   0  0  0  0  0  0  0  0  0  0  0  0
    9.3093    3.8166   21.6712 C   0  0  0  0  0  0  0  0  0  0  0  0
  1  5  1  0
  1 15  4  0
  1 22  4  0
  2 20  1  0
  2 24  1  0
  3  6  4  0
  3 27  4  0
  4 22  4  0
  4 26  4  0
  6  7  4  0
  6 13  1  0
  7 19  4  0
  8 18  1  0
  8 23  1  0
  8 28  2  0
  9 17  1  0
  9 24  1  0
 10 11  1  0
 10 24  1  0
 11 23  1  0
 12 14  4  0
 12 16  4  0
 14 19  4  0
 15 18  4  0
 16 20  4  0
 17 25  1  0
 18 26  4  0
 19 29  4  0
 20 29  4  0
 21 23  1  0
 21 25  1  0
 27 29  4  0
M  END
$$$$

 Created by Python create_sdf_string function

 29 32  0  0  0  0  0  0  0  0999 V2000
    5.4450    8.7154   22.6662 C   0  0  0  0  0  0  0  0  0  0  0  0
   10.9154    5.4574   20.5483 C   0  0  0  0  0  0  0  0  0  0  0  0
    7.2709    4.5089   22.7542 C   0  0  0  0  0  0  0  0  0  0  0  0
    5.9698    7.6329   24.6581 C   0  0  0  0  0  0  0  0  0  0  0  0
    4.5542    8.9057   21.7104 O   0  0  0  0  0  0  0  0  0  0  0  0
    6.9895    3.2085   23.0690 C   0  0  0  0  0  0  0  0  0  0  0  0
    7.8391    2.2253   22.7260 N   0  0  0  0  0  0  0  0  0  0  0  0
    8.6968    9.8373   23.6359 C   0  0  0  0  0  0  0  0  0  0  0  0
   12.5135    6.5957   21.8396 C   0  0  0  0  0  0  0  0  0  0  0  0
   10.9406    8.2330   21.1350 C   0  0  0  0  0  0  0  0  0  0  0  0
    9.6648    8.5956   21.7310 C   0  0  0  0  0  0  0  0  0  0  0  0
   10.8829    1.7153   20.9865 C   0  0  0  0  0  0  0  0  0  0  0  0
    5.7768    2.8533   23.7910 C   0  0  0  0  0  0  0  0  0  0  0  0
    9.7977    1.4791   21.6912 N   0  0  0  0  0  0  0  0  0  0  0  0
    6.5976    9.3401   22.6478 N   0  0  0  0  0  0  0  0  0  0  0  0
   11.2031    3.0042   20.6246 C   0  0  0  0  0  0  0  0  0  0  0  0
   12.8688    7.7370   22.7287 C   0  0  0  0  0  0  0  0  0  0  0  0
    7.4487    9.1361   23.6506 C   0  0  0  0  0  0  0  0  0  0  0  0
    8.9772    2.5025   22.0273 C   0  0  0  0  0  0  0  0  0  0  0  0
   10.4859    4.0901   20.9730 C   0  0  0  0  0  0  0  0  0  0  0  0
   11.0962    9.3293   23.5072 C   0  0  0  0  0  0  0  0  0  0  0  0
    5.1273    7.8529   23.6208 N   0  0  0  0  0  0  0  0  0  0  0  0
    9.7552    9.2338   23.0171 N   0  0  0  0  0  0  0  0  0  0  0  0
   11.1797    6.7591   21.3326 N   0  0  0  0  0  0  0  0  0  0  0  0
   11.7728    8.0337   23.7267 C   0  0  0  0  0  0  0  0  0  0  0  0
    7.1194    8.3344   24.6775 C   0  0  0  0  0  0  0  0  0  0  0  0
    8.4311    4.7963   22.0500 C   0  0  0  0  0  0  0  0  0  0  0  0
    8.7393   10.8706   24.1871 O   0  0  0  0  0  0  0  0  0  0  0  0
    9.3093    3.8166   21.6712 C   0  0  0  0  0  0  0  0  0  0  0  0
  1  5  1  0
  1 15  4  0
  1 22  4  0
  2 20  1  0
  2 24  1  0
  3  6  4  0
  3 27  4  0
  4 22  4  0
  4 26  4  0
  6  7  4  0
  6 13  1  0
  7 19  4  0
  8 18  1  0
  8 23  1  0
  8 28  2  0
  9 17  1  0
  9 24  1  0
 10 11  1  0
 10 24  1  0
 11 23  1  0
 12 14  4  0
 12 16  4  0
 14 19  4  0
 15 18  4  0
 16 20  4  0
 17 25  1  0
 18 26  4  0
 19 29  4  0
 20 29  4  0
 21 23  1  0
 21 25  1  0
 27 29  4  0
M  END
$$$$

 Created by Python create_sdf_string function

 29 32  0  0  0  0  0  0  0  0999 V2000
    5.4450    8.7154   22.6662 C   0  0  0  0  0  0  0  0  0  0  0  0
   10.9154    5.4574   20.5483 C   0  0  0  0  0  0  0  0  0  0  0  0
    7.2709    4.5089   22.7542 C   0  0  0  0  0  0  0  0  0  0  0  0
    5.9698    7.6329   24.6581 C   0  0  0  0  0  0  0  0  0  0  0  0
    4.5542    8.9057   21.7104 O   0  0  0  0  0  0  0  0  0  0  0  0
    6.9895    3.2085   23.0690 C   0  0  0  0  0  0  0  0  0  0  0  0
    7.8391    2.2253   22.7260 N   0  0  0  0  0  0  0  0  0  0  0  0
    8.6968    9.8373   23.6359 C   0  0  0  0  0  0  0  0  0  0  0  0
   12.5135    6.5957   21.8396 C   0  0  0  0  0  0  0  0  0  0  0  0
   10.9406    8.2330   21.1350 C   0  0  0  0  0  0  0  0  0  0  0  0
    9.6648    8.5956   21.7310 C   0  0  0  0  0  0  0  0  0  0  0  0
   10.8829    1.7153   20.9865 C   0  0  0  0  0  0  0  0  0  0  0  0
    5.7768    2.8533   23.7910 C   0  0  0  0  0  0  0  0  0  0  0  0
    9.7977    1.4791   21.6912 N   0  0  0  0  0  0  0  0  0  0  0  0
    6.5976    9.3401   22.6478 N   0  0  0  0  0  0  0  0  0  0  0  0
   11.2031    3.0042   20.6246 C   0  0  0  0  0  0  0  0  0  0  0  0
   12.8688    7.7370   22.7287 C   0  0  0  0  0  0  0  0  0  0  0  0
    7.4487    9.1361   23.6506 C   0  0  0  0  0  0  0  0  0  0  0  0
    8.9772    2.5025   22.0273 C   0  0  0  0  0  0  0  0  0  0  0  0
   10.4859    4.0901   20.9730 C   0  0  0  0  0  0  0  0  0  0  0  0
   11.0962    9.3293   23.5072 C   0  0  0  0  0  0  0  0  0  0  0  0
    5.1273    7.8529   23.6208 N   0  0  0  0  0  0  0  0  0  0  0  0
    9.7552    9.2338   23.0171 N   0  0  0  0  0  0  0  0  0  0  0  0
   11.1797    6.7591   21.3326 N   0  0  0  0  0  0  0  0  0  0  0  0
   11.7728    8.0337   23.7267 C   0  0  0  0  0  0  0  0  0  0  0  0
    7.1194    8.3344   24.6775 C   0  0  0  0  0  0  0  0  0  0  0  0
    8.4311    4.7963   22.0500 C   0  0  0  0  0  0  0  0  0  0  0  0
    8.7393   10.8706   24.1871 O   0  0  0  0  0  0  0  0  0  0  0  0
    9.3093    3.8166   21.6712 C   0  0  0  0  0  0  0  0  0  0  0  0
  1  5  1  0
  1 15  4  0
  1 22  4  0
  2 20  1  0
  2 24  1  0
  3  6  4  0
  3 27  4  0
  4 22  4  0
  4 26  4  0
  6  7  4  0
  6 13  1  0
  7 19  4  0
  8 18  1  0
  8 23  1  0
  8 28  2  0
  9 17  1  0
  9 24  1  0
 10 11  1  0
 10 24  1  0
 11 23  1  0
 12 14  4  0
 12 16  4  0
 14 19  4  0
 15 18  4  0
 16 20  4  0
 17 25  1  0
 18 26  4  0
 19 29  4  0
 20 29  4  0
 21 23  1  0
 21 25  1  0
 27 29  4  0
M  END
$$$$

 Created by Python create_sdf_string function

 29 32  0  0  0  0  0  0  0  0999 V2000
    5.4450    8.7154   22.6662 C   0  0  0  0  0  0  0  0  0  0  0  0
   10.9154    5.4574   20.5483 C   0  0  0  0  0  0  0  0  0  0  0  0
    7.2709    4.5089   22.7542 C   0  0  0  0  0  0  0  0  0  0  0  0
    5.9698    7.6329   24.6581 C   0  0  0  0  0  0  0  0  0  0  0  0
    4.5542    8.9057   21.7104 O   0  0  0  0  0  0  0  0  0  0  0  0
    6.9895    3.2085   23.0690 C   0  0  0  0  0  0  0  0  0  0  0  0
    7.8391    2.2253   22.7260 N   0  0  0  0  0  0  0  0  0  0  0  0
    8.6968    9.8373   23.6359 C   0  0  0  0  0  0  0  0  0  0  0  0
   12.5135    6.5957   21.8396 C   0  0  0  0  0  0  0  0  0  0  0  0
   10.9406    8.2330   21.1350 C   0  0  0  0  0  0  0  0  0  0  0  0
    9.6648    8.5956   21.7310 C   0  0  0  0  0  0  0  0  0  0  0  0
   10.8829    1.7153   20.9865 C   0  0  0  0  0  0  0  0  0  0  0  0
    5.7768    2.8533   23.7910 C   0  0  0  0  0  0  0  0  0  0  0  0
    9.7977    1.4791   21.6912 N   0  0  0  0  0  0  0  0  0  0  0  0
    6.5976    9.3401   22.6478 N   0  0  0  0  0  0  0  0  0  0  0  0
   11.2031    3.0042   20.6246 C   0  0  0  0  0  0  0  0  0  0  0  0
   12.8688    7.7370   22.7287 C   0  0  0  0  0  0  0  0  0  0  0  0
    7.4487    9.1361   23.6506 C   0  0  0  0  0  0  0  0  0  0  0  0
    8.9772    2.5025   22.0273 C   0  0  0  0  0  0  0  0  0  0  0  0
   10.4859    4.0901   20.9730 C   0  0  0  0  0  0  0  0  0  0  0  0
   11.0962    9.3293   23.5072 C   0  0  0  0  0  0  0  0  0  0  0  0
    5.1273    7.8529   23.6208 N   0  0  0  0  0  0  0  0  0  0  0  0
    9.7552    9.2338   23.0171 N   0  0  0  0  0  0  0  0  0  0  0  0
   11.1797    6.7591   21.3326 N   0  0  0  0  0  0  0  0  0  0  0  0
   11.7728    8.0337   23.7267 C   0  0  0  0  0  0  0  0  0  0  0  0
    7.1194    8.3344   24.6775 C   0  0  0  0  0  0  0  0  0  0  0  0
    8.4311    4.7963   22.0500 C   0  0  0  0  0  0  0  0  0  0  0  0
    8.7393   10.8706   24.1871 O   0  0  0  0  0  0  0  0  0  0  0  0
    9.3093    3.8166   21.6712 C   0  0  0  0  0  0  0  0  0  0  0  0
  1  5  1  0
  1 15  4  0
  1 22  4  0
  2 20  1  0
  2 24  1  0
  3  6  4  0
  3 27  4  0
  4 22  4  0
  4 26  4  0
  6  7  4  0
  6 13  1  0
  7 19  4  0
  8 18  1  0
  8 23  1  0
  8 28  2  0
  9 17  1  0
  9 24  1  0
 10 11  1  0
 10 24  1  0
 11 23  1  0
 12 14  4  0
 12 16  4  0
 14 19  4  0
 15 18  4  0
 16 20  4  0
 17 25  1  0
 18 26  4  0
 19 29  4  0
 20 29  4  0
 21 23  1  0
 21 25  1  0
 27 29  4  0
M  END
$$$$

 Created by Python create_sdf_string function

 29 32  0  0  0  0  0  0  0  0999 V2000
    5.4450    8.7154   22.6662 C   0  0  0  0  0  0  0  0  0  0  0  0
   10.9154    5.4574   20.5483 C   0  0  0  0  0  0  0  0  0  0  0  0
    7.2709    4.5089   22.7542 C   0  0  0  0  0  0  0  0  0  0  0  0
    5.9698    7.6329   24.6581 C   0  0  0  0  0  0  0  0  0  0  0  0
    4.5542    8.9057   21.7104 O   0  0  0  0  0  0  0  0  0  0  0  0
    6.9895    3.2085   23.0690 C   0  0  0  0  0  0  0  0  0  0  0  0
    7.8391    2.2253   22.7260 N   0  0  0  0  0  0  0  0  0  0  0  0
    8.6968    9.8373   23.6359 C   0  0  0  0  0  0  0  0  0  0  0  0
   12.5135    6.5957   21.8396 C   0  0  0  0  0  0  0  0  0  0  0  0
   10.9406    8.2330   21.1350 C   0  0  0  0  0  0  0  0  0  0  0  0
    9.6648    8.5956   21.7310 C   0  0  0  0  0  0  0  0  0  0  0  0
   10.8829    1.7153   20.9865 C   0  0  0  0  0  0  0  0  0  0  0  0
    5.7768    2.8533   23.7910 C   0  0  0  0  0  0  0  0  0  0  0  0
    9.7977    1.4791   21.6912 N   0  0  0  0  0  0  0  0  0  0  0  0
    6.5976    9.3401   22.6478 N   0  0  0  0  0  0  0  0  0  0  0  0
   11.2031    3.0042   20.6246 C   0  0  0  0  0  0  0  0  0  0  0  0
   12.8688    7.7370   22.7287 C   0  0  0  0  0  0  0  0  0  0  0  0
    7.4487    9.1361   23.6506 C   0  0  0  0  0  0  0  0  0  0  0  0
    8.9772    2.5025   22.0273 C   0  0  0  0  0  0  0  0  0  0  0  0
   10.4859    4.0901   20.9730 C   0  0  0  0  0  0  0  0  0  0  0  0
   11.0962    9.3293   23.5072 C   0  0  0  0  0  0  0  0  0  0  0  0
    5.1273    7.8529   23.6208 N   0  0  0  0  0  0  0  0  0  0  0  0
    9.7552    9.2338   23.0171 N   0  0  0  0  0  0  0  0  0  0  0  0
   11.1797    6.7591   21.3326 N   0  0  0  0  0  0  0  0  0  0  0  0
   11.7728    8.0337   23.7267 C   0  0  0  0  0  0  0  0  0  0  0  0
    7.1194    8.3344   24.6775 C   0  0  0  0  0  0  0  0  0  0  0  0
    8.4311    4.7963   22.0500 C   0  0  0  0  0  0  0  0  0  0  0  0
    8.7393   10.8706   24.1871 O   0  0  0  0  0  0  0  0  0  0  0  0
    9.3093    3.8166   21.6712 C   0  0  0  0  0  0  0  0  0  0  0  0
  1  5  1  0
  1 15  4  0
  1 22  4  0
  2 20  1  0
  2 24  1  0
  3  6  4  0
  3 27  4  0
  4 22  4  0
  4 26  4  0
  6  7  4  0
  6 13  1  0
  7 19  4  0
  8 18  1  0
  8 23  1  0
  8 28  2  0
  9 17  1  0
  9 24  1  0
 10 11  1  0
 10 24  1  0
 11 23  1  0
 12 14  4  0
 12 16  4  0
 14 19  4  0
 15 18  4  0
 16 20  4  0
 17 25  1  0
 18 26  4  0
 19 29  4  0
 20 29  4  0
 21 23  1  0
 21 25  1  0
 27 29  4  0
M  END
$$$$

 Created by Python create_sdf_string function

 29 32  0  0  0  0  0  0  0  0999 V2000
    5.4450    8.7154   22.6662 C   0  0  0  0  0  0  0  0  0  0  0  0
   10.9154    5.4574   20.5483 C   0  0  0  0  0  0  0  0  0  0  0  0
    7.2709    4.5089   22.7542 C   0  0  0  0  0  0  0  0  0  0  0  0
    5.9698    7.6329   24.6581 C   0  0  0  0  0  0  0  0  0  0  0  0
    4.5542    8.9057   21.7104 O   0  0  0  0  0  0  0  0  0  0  0  0
    6.9895    3.2085   23.0690 C   0  0  0  0  0  0  0  0  0  0  0  0
    7.8391    2.2253   22.7260 N   0  0  0  0  0  0  0  0  0  0  0  0
    8.6968    9.8373   23.6359 C   0  0  0  0  0  0  0  0  0  0  0  0
   12.5135    6.5957   21.8396 C   0  0  0  0  0  0  0  0  0  0  0  0
   10.9406    8.2330   21.1350 C   0  0  0  0  0  0  0  0  0  0  0  0
    9.6648    8.5956   21.7310 C   0  0  0  0  0  0  0  0  0  0  0  0
   10.8829    1.7153   20.9865 C   0  0  0  0  0  0  0  0  0  0  0  0
    5.7768    2.8533   23.7910 C   0  0  0  0  0  0  0  0  0  0  0  0
    9.7977    1.4791   21.6912 N   0  0  0  0  0  0  0  0  0  0  0  0
    6.5976    9.3401   22.6478 N   0  0  0  0  0  0  0  0  0  0  0  0
   11.2031    3.0042   20.6246 C   0  0  0  0  0  0  0  0  0  0  0  0
   12.8688    7.7370   22.7287 C   0  0  0  0  0  0  0  0  0  0  0  0
    7.4487    9.1361   23.6506 C   0  0  0  0  0  0  0  0  0  0  0  0
    8.9772    2.5025   22.0273 C   0  0  0  0  0  0  0  0  0  0  0  0
   10.4859    4.0901   20.9730 C   0  0  0  0  0  0  0  0  0  0  0  0
   11.0962    9.3293   23.5072 C   0  0  0  0  0  0  0  0  0  0  0  0
    5.1273    7.8529   23.6208 N   0  0  0  0  0  0  0  0  0  0  0  0
    9.7552    9.2338   23.0171 N   0  0  0  0  0  0  0  0  0  0  0  0
   11.1797    6.7591   21.3326 N   0  0  0  0  0  0  0  0  0  0  0  0
   11.7728    8.0337   23.7267 C   0  0  0  0  0  0  0  0  0  0  0  0
    7.1194    8.3344   24.6775 C   0  0  0  0  0  0  0  0  0  0  0  0
    8.4311    4.7963   22.0500 C   0  0  0  0  0  0  0  0  0  0  0  0
    8.7393   10.8706   24.1871 O   0  0  0  0  0  0  0  0  0  0  0  0
    9.3093    3.8166   21.6712 C   0  0  0  0  0  0  0  0  0  0  0  0
  1  5  1  0
  1 15  4  0
  1 22  4  0
  2 20  1  0
  2 24  1  0
  3  6  4  0
  3 27  4  0
  4 22  4  0
  4 26  4  0
  6  7  4  0
  6 13  1  0
  7 19  4  0
  8 18  1  0
  8 23  1  0
  8 28  2  0
  9 17  1  0
  9 24  1  0
 10 11  1  0
 10 24  1  0
 11 23  1  0
 12 14  4  0
 12 16  4  0
 14 19  4  0
 15 18  4  0
 16 20  4  0
 17 25  1  0
 18 26  4  0
 19 29  4  0
 20 29  4  0
 21 23  1  0
 21 25  1  0
 27 29  4  0
M  END
$$$$

 Created by Python create_sdf_string function

 29 32  0  0  0  0  0  0  0  0999 V2000
    5.4450    8.7154   22.6662 C   0  0  0  0  0  0  0  0  0  0  0  0
   10.9154    5.4574   20.5483 C   0  0  0  0  0  0  0  0  0  0  0  0
    7.2709    4.5089   22.7542 C   0  0  0  0  0  0  0  0  0  0  0  0
    5.9698    7.6329   24.6581 C   0  0  0  0  0  0  0  0  0  0  0  0
    4.5542    8.9057   21.7104 O   0  0  0  0  0  0  0  0  0  0  0  0
    6.9895    3.2085   23.0690 C   0  0  0  0  0  0  0  0  0  0  0  0
    7.8391    2.2253   22.7260 N   0  0  0  0  0  0  0  0  0  0  0  0
    8.6968    9.8373   23.6359 C   0  0  0  0  0  0  0  0  0  0  0  0
   12.5135    6.5957   21.8396 C   0  0  0  0  0  0  0  0  0  0  0  0
   10.9406    8.2330   21.1350 C   0  0  0  0  0  0  0  0  0  0  0  0
    9.6648    8.5956   21.7310 C   0  0  0  0  0  0  0  0  0  0  0  0
   10.8829    1.7153   20.9865 C   0  0  0  0  0  0  0  0  0  0  0  0
    5.7768    2.8533   23.7910 C   0  0  0  0  0  0  0  0  0  0  0  0
    9.7977    1.4791   21.6912 N   0  0  0  0  0  0  0  0  0  0  0  0
    6.5976    9.3401   22.6478 N   0  0  0  0  0  0  0  0  0  0  0  0
   11.2031    3.0042   20.6246 C   0  0  0  0  0  0  0  0  0  0  0  0
   12.8688    7.7370   22.7287 C   0  0  0  0  0  0  0  0  0  0  0  0
    7.4487    9.1361   23.6506 C   0  0  0  0  0  0  0  0  0  0  0  0
    8.9772    2.5025   22.0273 C   0  0  0  0  0  0  0  0  0  0  0  0
   10.4859    4.0901   20.9730 C   0  0  0  0  0  0  0  0  0  0  0  0
   11.0962    9.3293   23.5072 C   0  0  0  0  0  0  0  0  0  0  0  0
    5.1273    7.8529   23.6208 N   0  0  0  0  0  0  0  0  0  0  0  0
    9.7552    9.2338   23.0171 N   0  0  0  0  0  0  0  0  0  0  0  0
   11.1797    6.7591   21.3326 N   0  0  0  0  0  0  0  0  0  0  0  0
   11.7728    8.0337   23.7267 C   0  0  0  0  0  0  0  0  0  0  0  0
    7.1194    8.3344   24.6775 C   0  0  0  0  0  0  0  0  0  0  0  0
    8.4311    4.7963   22.0500 C   0  0  0  0  0  0  0  0  0  0  0  0
    8.7393   10.8706   24.1871 O   0  0  0  0  0  0  0  0  0  0  0  0
    9.3093    3.8166   21.6712 C   0  0  0  0  0  0  0  0  0  0  0  0
  1  5  1  0
  1 15  4  0
  1 22  4  0
  2 20  1  0
  2 24  1  0
  3  6  4  0
  3 27  4  0
  4 22  4  0
  4 26  4  0
  6  7  4  0
  6 13  1  0
  7 19  4  0
  8 18  1  0
  8 23  1  0
  8 28  2  0
  9 17  1  0
  9 24  1  0
 10 11  1  0
 10 24  1  0
 11 23  1  0
 12 14  4  0
 12 16  4  0
 14 19  4  0
 15 18  4  0
 16 20  4  0
 17 25  1  0
 18 26  4  0
 19 29  4  0
 20 29  4  0
 21 23  1  0
 21 25  1  0
 27 29  4  0
M  END
$$$$

 Created by Python create_sdf_string function

 29 32  0  0  0  0  0  0  0  0999 V2000
    5.4450    8.7154   22.6662 C   0  0  0  0  0  0  0  0  0  0  0  0
   10.9154    5.4574   20.5483 C   0  0  0  0  0  0  0  0  0  0  0  0
    7.2709    4.5089   22.7542 C   0  0  0  0  0  0  0  0  0  0  0  0
    5.9698    7.6329   24.6581 C   0  0  0  0  0  0  0  0  0  0  0  0
    4.5542    8.9057   21.7104 O   0  0  0  0  0  0  0  0  0  0  0  0
    6.9895    3.2085   23.0690 C   0  0  0  0  0  0  0  0  0  0  0  0
    7.8391    2.2253   22.7260 N   0  0  0  0  0  0  0  0  0  0  0  0
    8.6968    9.8373   23.6359 C   0  0  0  0  0  0  0  0  0  0  0  0
   12.5135    6.5957   21.8396 C   0  0  0  0  0  0  0  0  0  0  0  0
   10.9406    8.2330   21.1350 C   0  0  0  0  0  0  0  0  0  0  0  0
    9.6648    8.5956   21.7310 C   0  0  0  0  0  0  0  0  0  0  0  0
   10.8829    1.7153   20.9865 C   0  0  0  0  0  0  0  0  0  0  0  0
    5.7768    2.8533   23.7910 C   0  0  0  0  0  0  0  0  0  0  0  0
    9.7977    1.4791   21.6912 N   0  0  0  0  0  0  0  0  0  0  0  0
    6.5976    9.3401   22.6478 N   0  0  0  0  0  0  0  0  0  0  0  0
   11.2031    3.0042   20.6246 C   0  0  0  0  0  0  0  0  0  0  0  0
   12.8688    7.7370   22.7287 C   0  0  0  0  0  0  0  0  0  0  0  0
    7.4487    9.1361   23.6506 C   0  0  0  0  0  0  0  0  0  0  0  0
    8.9772    2.5025   22.0273 C   0  0  0  0  0  0  0  0  0  0  0  0
   10.4859    4.0901   20.9730 C   0  0  0  0  0  0  0  0  0  0  0  0
   11.0962    9.3293   23.5072 C   0  0  0  0  0  0  0  0  0  0  0  0
    5.1273    7.8529   23.6208 N   0  0  0  0  0  0  0  0  0  0  0  0
    9.7552    9.2338   23.0171 N   0  0  0  0  0  0  0  0  0  0  0  0
   11.1797    6.7591   21.3326 N   0  0  0  0  0  0  0  0  0  0  0  0
   11.7728    8.0337   23.7267 C   0  0  0  0  0  0  0  0  0  0  0  0
    7.1194    8.3344   24.6775 C   0  0  0  0  0  0  0  0  0  0  0  0
    8.4311    4.7963   22.0500 C   0  0  0  0  0  0  0  0  0  0  0  0
    8.7393   10.8706   24.1871 O   0  0  0  0  0  0  0  0  0  0  0  0
    9.3093    3.8166   21.6712 C   0  0  0  0  0  0  0  0  0  0  0  0
  1  5  1  0
  1 15  4  0
  1 22  4  0
  2 20  1  0
  2 24  1  0
  3  6  4  0
  3 27  4  0
  4 22  4  0
  4 26  4  0
  6  7  4  0
  6 13  1  0
  7 19  4  0
  8 18  1  0
  8 23  1  0
  8 28  2  0
  9 17  1  0
  9 24  1  0
 10 11  1  0
 10 24  1  0
 11 23  1  0
 12 14  4  0
 12 16  4  0
 14 19  4  0
 15 18  4  0
 16 20  4  0
 17 25  1  0
 18 26  4  0
 19 29  4  0
 20 29  4  0
 21 23  1  0
 21 25  1  0
 27 29  4  0
M  END
$$$$

 Created by Python create_sdf_string function

 29 32  0  0  0  0  0  0  0  0999 V2000
    5.4450    8.7154   22.6662 C   0  0  0  0  0  0  0  0  0  0  0  0
   10.9154    5.4574   20.5483 C   0  0  0  0  0  0  0  0  0  0  0  0
    7.2709    4.5089   22.7542 C   0  0  0  0  0  0  0  0  0  0  0  0
    5.9698    7.6329   24.6581 C   0  0  0  0  0  0  0  0  0  0  0  0
    4.5542    8.9057   21.7104 O   0  0  0  0  0  0  0  0  0  0  0  0
    6.9895    3.2085   23.0690 C   0  0  0  0  0  0  0  0  0  0  0  0
    7.8391    2.2253   22.7260 N   0  0  0  0  0  0  0  0  0  0  0  0
    8.6968    9.8373   23.6359 C   0  0  0  0  0  0  0  0  0  0  0  0
   12.5135    6.5957   21.8396 C   0  0  0  0  0  0  0  0  0  0  0  0
   10.9406    8.2330   21.1350 C   0  0  0  0  0  0  0  0  0  0  0  0
    9.6648    8.5956   21.7310 C   0  0  0  0  0  0  0  0  0  0  0  0
   10.8829    1.7153   20.9865 C   0  0  0  0  0  0  0  0  0  0  0  0
    5.7768    2.8533   23.7910 C   0  0  0  0  0  0  0  0  0  0  0  0
    9.7977    1.4791   21.6912 N   0  0  0  0  0  0  0  0  0  0  0  0
    6.5976    9.3401   22.6478 N   0  0  0  0  0  0  0  0  0  0  0  0
   11.2031    3.0042   20.6246 C   0  0  0  0  0  0  0  0  0  0  0  0
   12.8688    7.7370   22.7287 C   0  0  0  0  0  0  0  0  0  0  0  0
    7.4487    9.1361   23.6506 C   0  0  0  0  0  0  0  0  0  0  0  0
    8.9772    2.5025   22.0273 C   0  0  0  0  0  0  0  0  0  0  0  0
   10.4859    4.0901   20.9730 C   0  0  0  0  0  0  0  0  0  0  0  0
   11.0962    9.3293   23.5072 C   0  0  0  0  0  0  0  0  0  0  0  0
    5.1273    7.8529   23.6208 N   0  0  0  0  0  0  0  0  0  0  0  0
    9.7552    9.2338   23.0171 N   0  0  0  0  0  0  0  0  0  0  0  0
   11.1797    6.7591   21.3326 N   0  0  0  0  0  0  0  0  0  0  0  0
   11.7728    8.0337   23.7267 C   0  0  0  0  0  0  0  0  0  0  0  0
    7.1194    8.3344   24.6775 C   0  0  0  0  0  0  0  0  0  0  0  0
    8.4311    4.7963   22.0500 C   0  0  0  0  0  0  0  0  0  0  0  0
    8.7393   10.8706   24.1871 O   0  0  0  0  0  0  0  0  0  0  0  0
    9.3093    3.8166   21.6712 C   0  0  0  0  0  0  0  0  0  0  0  0
  1  5  1  0
  1 15  4  0
  1 22  4  0
  2 20  1  0
  2 24  1  0
  3  6  4  0
  3 27  4  0
  4 22  4  0
  4 26  4  0
  6  7  4  0
  6 13  1  0
  7 19  4  0
  8 18  1  0
  8 23  1  0
  8 28  2  0
  9 17  1  0
  9 24  1  0
 10 11  1  0
 10 24  1  0
 11 23  1  0
 12 14  4  0
 12 16  4  0
 14 19  4  0
 15 18  4  0
 16 20  4  0
 17 25  1  0
 18 26  4  0
 19 29  4  0
 20 29  4  0
 21 23  1  0
 21 25  1  0
 27 29  4  0
M  END
$$$$

 Created by Python create_sdf_string function

 29 32  0  0  0  0  0  0  0  0999 V2000
    5.4450    8.7154   22.6662 C   0  0  0  0  0  0  0  0  0  0  0  0
   10.9154    5.4574   20.5483 C   0  0  0  0  0  0  0  0  0  0  0  0
    7.2709    4.5089   22.7542 C   0  0  0  0  0  0  0  0  0  0  0  0
    5.9698    7.6329   24.6581 C   0  0  0  0  0  0  0  0  0  0  0  0
    4.5542    8.9057   21.7104 O   0  0  0  0  0  0  0  0  0  0  0  0
    6.9895    3.2085   23.0690 C   0  0  0  0  0  0  0  0  0  0  0  0
    7.8391    2.2253   22.7260 N   0  0  0  0  0  0  0  0  0  0  0  0
    8.6968    9.8373   23.6359 C   0  0  0  0  0  0  0  0  0  0  0  0
   12.5135    6.5957   21.8396 C   0  0  0  0  0  0  0  0  0  0  0  0
   10.9406    8.2330   21.1350 C   0  0  0  0  0  0  0  0  0  0  0  0
    9.6648    8.5956   21.7310 C   0  0  0  0  0  0  0  0  0  0  0  0
   10.8829    1.7153   20.9865 C   0  0  0  0  0  0  0  0  0  0  0  0
    5.7768    2.8533   23.7910 C   0  0  0  0  0  0  0  0  0  0  0  0
    9.7977    1.4791   21.6912 N   0  0  0  0  0  0  0  0  0  0  0  0
    6.5976    9.3401   22.6478 N   0  0  0  0  0  0  0  0  0  0  0  0
   11.2031    3.0042   20.6246 C   0  0  0  0  0  0  0  0  0  0  0  0
   12.8688    7.7370   22.7287 C   0  0  0  0  0  0  0  0  0  0  0  0
    7.4487    9.1361   23.6506 C   0  0  0  0  0  0  0  0  0  0  0  0
    8.9772    2.5025   22.0273 C   0  0  0  0  0  0  0  0  0  0  0  0
   10.4859    4.0901   20.9730 C   0  0  0  0  0  0  0  0  0  0  0  0
   11.0962    9.3293   23.5072 C   0  0  0  0  0  0  0  0  0  0  0  0
    5.1273    7.8529   23.6208 N   0  0  0  0  0  0  0  0  0  0  0  0
    9.7552    9.2338   23.0171 N   0  0  0  0  0  0  0  0  0  0  0  0
   11.1797    6.7591   21.3326 N   0  0  0  0  0  0  0  0  0  0  0  0
   11.7728    8.0337   23.7267 C   0  0  0  0  0  0  0  0  0  0  0  0
    7.1194    8.3344   24.6775 C   0  0  0  0  0  0  0  0  0  0  0  0
    8.4311    4.7963   22.0500 C   0  0  0  0  0  0  0  0  0  0  0  0
    8.7393   10.8706   24.1871 O   0  0  0  0  0  0  0  0  0  0  0  0
    9.3093    3.8166   21.6712 C   0  0  0  0  0  0  0  0  0  0  0  0
  1  5  1  0
  1 15  4  0
  1 22  4  0
  2 20  1  0
  2 24  1  0
  3  6  4  0
  3 27  4  0
  4 22  4  0
  4 26  4  0
  6  7  4  0
  6 13  1  0
  7 19  4  0
  8 18  1  0
  8 23  1  0
  8 28  2  0
  9 17  1  0
  9 24  1  0
 10 11  1  0
 10 24  1  0
 11 23  1  0
 12 14  4  0
 12 16  4  0
 14 19  4  0
 15 18  4  0
 16 20  4  0
 17 25  1  0
 18 26  4  0
 19 29  4  0
 20 29  4  0
 21 23  1  0
 21 25  1  0
 27 29  4  0
M  END
$$$$

 Created by Python create_sdf_string function

 29 32  0  0  0  0  0  0  0  0999 V2000
    5.4450    8.7154   22.6662 C   0  0  0  0  0  0  0  0  0  0  0  0
   10.9154    5.4574   20.5483 C   0  0  0  0  0  0  0  0  0  0  0  0
    7.2709    4.5089   22.7542 C   0  0  0  0  0  0  0  0  0  0  0  0
    5.9698    7.6329   24.6581 C   0  0  0  0  0  0  0  0  0  0  0  0
    4.5542    8.9057   21.7104 O   0  0  0  0  0  0  0  0  0  0  0  0
    6.9895    3.2085   23.0690 C   0  0  0  0  0  0  0  0  0  0  0  0
    7.8391    2.2253   22.7260 N   0  0  0  0  0  0  0  0  0  0  0  0
    8.6968    9.8373   23.6359 C   0  0  0  0  0  0  0  0  0  0  0  0
   12.5135    6.5957   21.8396 C   0  0  0  0  0  0  0  0  0  0  0  0
   10.9406    8.2330   21.1350 C   0  0  0  0  0  0  0  0  0  0  0  0
    9.6648    8.5956   21.7310 C   0  0  0  0  0  0  0  0  0  0  0  0
   10.8829    1.7153   20.9865 C   0  0  0  0  0  0  0  0  0  0  0  0
    5.7768    2.8533   23.7910 C   0  0  0  0  0  0  0  0  0  0  0  0
    9.7977    1.4791   21.6912 N   0  0  0  0  0  0  0  0  0  0  0  0
    6.5976    9.3401   22.6478 N   0  0  0  0  0  0  0  0  0  0  0  0
   11.2031    3.0042   20.6246 C   0  0  0  0  0  0  0  0  0  0  0  0
   12.8688    7.7370   22.7287 C   0  0  0  0  0  0  0  0  0  0  0  0
    7.4487    9.1361   23.6506 C   0  0  0  0  0  0  0  0  0  0  0  0
    8.9772    2.5025   22.0273 C   0  0  0  0  0  0  0  0  0  0  0  0
   10.4859    4.0901   20.9730 C   0  0  0  0  0  0  0  0  0  0  0  0
   11.0962    9.3293   23.5072 C   0  0  0  0  0  0  0  0  0  0  0  0
    5.1273    7.8529   23.6208 N   0  0  0  0  0  0  0  0  0  0  0  0
    9.7552    9.2338   23.0171 N   0  0  0  0  0  0  0  0  0  0  0  0
   11.1797    6.7591   21.3326 N   0  0  0  0  0  0  0  0  0  0  0  0
   11.7728    8.0337   23.7267 C   0  0  0  0  0  0  0  0  0  0  0  0
    7.1194    8.3344   24.6775 C   0  0  0  0  0  0  0  0  0  0  0  0
    8.4311    4.7963   22.0500 C   0  0  0  0  0  0  0  0  0  0  0  0
    8.7393   10.8706   24.1871 O   0  0  0  0  0  0  0  0  0  0  0  0
    9.3093    3.8166   21.6712 C   0  0  0  0  0  0  0  0  0  0  0  0
  1  5  1  0
  1 15  4  0
  1 22  4  0
  2 20  1  0
  2 24  1  0
  3  6  4  0
  3 27  4  0
  4 22  4  0
  4 26  4  0
  6  7  4  0
  6 13  1  0
  7 19  4  0
  8 18  1  0
  8 23  1  0
  8 28  2  0
  9 17  1  0
  9 24  1  0
 10 11  1  0
 10 24  1  0
 11 23  1  0
 12 14  4  0
 12 16  4  0
 14 19  4  0
 15 18  4  0
 16 20  4  0
 17 25  1  0
 18 26  4  0
 19 29  4  0
 20 29  4  0
 21 23  1  0
 21 25  1  0
 27 29  4  0
M  END
$$$$

 Created by Python create_sdf_string function

 29 32  0  0  0  0  0  0  0  0999 V2000
    5.4450    8.7154   22.6662 C   0  0  0  0  0  0  0  0  0  0  0  0
   10.9154    5.4574   20.5483 C   0  0  0  0  0  0  0  0  0  0  0  0
    7.2709    4.5089   22.7542 C   0  0  0  0  0  0  0  0  0  0  0  0
    5.9698    7.6329   24.6581 C   0  0  0  0  0  0  0  0  0  0  0  0
    4.5542    8.9057   21.7104 O   0  0  0  0  0  0  0  0  0  0  0  0
    6.9895    3.2085   23.0690 C   0  0  0  0  0  0  0  0  0  0  0  0
    7.8391    2.2253   22.7260 N   0  0  0  0  0  0  0  0  0  0  0  0
    8.6968    9.8373   23.6359 C   0  0  0  0  0  0  0  0  0  0  0  0
   12.5135    6.5957   21.8396 C   0  0  0  0  0  0  0  0  0  0  0  0
   10.9406    8.2330   21.1350 C   0  0  0  0  0  0  0  0  0  0  0  0
    9.6648    8.5956   21.7310 C   0  0  0  0  0  0  0  0  0  0  0  0
   10.8829    1.7153   20.9865 C   0  0  0  0  0  0  0  0  0  0  0  0
    5.7768    2.8533   23.7910 C   0  0  0  0  0  0  0  0  0  0  0  0
    9.7977    1.4791   21.6912 N   0  0  0  0  0  0  0  0  0  0  0  0
    6.5976    9.3401   22.6478 N   0  0  0  0  0  0  0  0  0  0  0  0
   11.2031    3.0042   20.6246 C   0  0  0  0  0  0  0  0  0  0  0  0
   12.8688    7.7370   22.7287 C   0  0  0  0  0  0  0  0  0  0  0  0
    7.4487    9.1361   23.6506 C   0  0  0  0  0  0  0  0  0  0  0  0
    8.9772    2.5025   22.0273 C   0  0  0  0  0  0  0  0  0  0  0  0
   10.4859    4.0901   20.9730 C   0  0  0  0  0  0  0  0  0  0  0  0
   11.0962    9.3293   23.5072 C   0  0  0  0  0  0  0  0  0  0  0  0
    5.1273    7.8529   23.6208 N   0  0  0  0  0  0  0  0  0  0  0  0
    9.7552    9.2338   23.0171 N   0  0  0  0  0  0  0  0  0  0  0  0
   11.1797    6.7591   21.3326 N   0  0  0  0  0  0  0  0  0  0  0  0
   11.7728    8.0337   23.7267 C   0  0  0  0  0  0  0  0  0  0  0  0
    7.1194    8.3344   24.6775 C   0  0  0  0  0  0  0  0  0  0  0  0
    8.4311    4.7963   22.0500 C   0  0  0  0  0  0  0  0  0  0  0  0
    8.7393   10.8706   24.1871 O   0  0  0  0  0  0  0  0  0  0  0  0
    9.3093    3.8166   21.6712 C   0  0  0  0  0  0  0  0  0  0  0  0
  1  5  1  0
  1 15  4  0
  1 22  4  0
  2 20  1  0
  2 24  1  0
  3  6  4  0
  3 27  4  0
  4 22  4  0
  4 26  4  0
  6  7  4  0
  6 13  1  0
  7 19  4  0
  8 18  1  0
  8 23  1  0
  8 28  2  0
  9 17  1  0
  9 24  1  0
 10 11  1  0
 10 24  1  0
 11 23  1  0
 12 14  4  0
 12 16  4  0
 14 19  4  0
 15 18  4  0
 16 20  4  0
 17 25  1  0
 18 26  4  0
 19 29  4  0
 20 29  4  0
 21 23  1  0
 21 25  1  0
 27 29  4  0
M  END
$$$$

 Created by Python create_sdf_string function

 29 32  0  0  0  0  0  0  0  0999 V2000
    5.4450    8.7154   22.6662 C   0  0  0  0  0  0  0  0  0  0  0  0
   10.9154    5.4574   20.5483 C   0  0  0  0  0  0  0  0  0  0  0  0
    7.2709    4.5089   22.7542 C   0  0  0  0  0  0  0  0  0  0  0  0
    5.9698    7.6329   24.6581 C   0  0  0  0  0  0  0  0  0  0  0  0
    4.5542    8.9057   21.7104 O   0  0  0  0  0  0  0  0  0  0  0  0
    6.9895    3.2085   23.0690 C   0  0  0  0  0  0  0  0  0  0  0  0
    7.8391    2.2253   22.7260 N   0  0  0  0  0  0  0  0  0  0  0  0
    8.6968    9.8373   23.6359 C   0  0  0  0  0  0  0  0  0  0  0  0
   12.5135    6.5957   21.8396 C   0  0  0  0  0  0  0  0  0  0  0  0
   10.9406    8.2330   21.1350 C   0  0  0  0  0  0  0  0  0  0  0  0
    9.6648    8.5956   21.7310 C   0  0  0  0  0  0  0  0  0  0  0  0
   10.8829    1.7153   20.9865 C   0  0  0  0  0  0  0  0  0  0  0  0
    5.7768    2.8533   23.7910 C   0  0  0  0  0  0  0  0  0  0  0  0
    9.7977    1.4791   21.6912 N   0  0  0  0  0  0  0  0  0  0  0  0
    6.5976    9.3401   22.6478 N   0  0  0  0  0  0  0  0  0  0  0  0
   11.2031    3.0042   20.6246 C   0  0  0  0  0  0  0  0  0  0  0  0
   12.8688    7.7370   22.7287 C   0  0  0  0  0  0  0  0  0  0  0  0
    7.4487    9.1361   23.6506 C   0  0  0  0  0  0  0  0  0  0  0  0
    8.9772    2.5025   22.0273 C   0  0  0  0  0  0  0  0  0  0  0  0
   10.4859    4.0901   20.9730 C   0  0  0  0  0  0  0  0  0  0  0  0
   11.0962    9.3293   23.5072 C   0  0  0  0  0  0  0  0  0  0  0  0
    5.1273    7.8529   23.6208 N   0  0  0  0  0  0  0  0  0  0  0  0
    9.7552    9.2338   23.0171 N   0  0  0  0  0  0  0  0  0  0  0  0
   11.1797    6.7591   21.3326 N   0  0  0  0  0  0  0  0  0  0  0  0
   11.7728    8.0337   23.7267 C   0  0  0  0  0  0  0  0  0  0  0  0
    7.1194    8.3344   24.6775 C   0  0  0  0  0  0  0  0  0  0  0  0
    8.4311    4.7963   22.0500 C   0  0  0  0  0  0  0  0  0  0  0  0
    8.7393   10.8706   24.1871 O   0  0  0  0  0  0  0  0  0  0  0  0
    9.3093    3.8166   21.6712 C   0  0  0  0  0  0  0  0  0  0  0  0
  1  5  1  0
  1 15  4  0
  1 22  4  0
  2 20  1  0
  2 24  1  0
  3  6  4  0
  3 27  4  0
  4 22  4  0
  4 26  4  0
  6  7  4  0
  6 13  1  0
  7 19  4  0
  8 18  1  0
  8 23  1  0
  8 28  2  0
  9 17  1  0
  9 24  1  0
 10 11  1  0
 10 24  1  0
 11 23  1  0
 12 14  4  0
 12 16  4  0
 14 19  4  0
 15 18  4  0
 16 20  4  0
 17 25  1  0
 18 26  4  0
 19 29  4  0
 20 29  4  0
 21 23  1  0
 21 25  1  0
 27 29  4  0
M  END
$$$$

 Created by Python create_sdf_string function

 29 32  0  0  0  0  0  0  0  0999 V2000
    5.4450    8.7154   22.6662 C   0  0  0  0  0  0  0  0  0  0  0  0
   10.9154    5.4574   20.5483 C   0  0  0  0  0  0  0  0  0  0  0  0
    7.2709    4.5089   22.7542 C   0  0  0  0  0  0  0  0  0  0  0  0
    5.9698    7.6329   24.6581 C   0  0  0  0  0  0  0  0  0  0  0  0
    4.5542    8.9057   21.7104 O   0  0  0  0  0  0  0  0  0  0  0  0
    6.9895    3.2085   23.0690 C   0  0  0  0  0  0  0  0  0  0  0  0
    7.8391    2.2253   22.7260 N   0  0  0  0  0  0  0  0  0  0  0  0
    8.6968    9.8373   23.6359 C   0  0  0  0  0  0  0  0  0  0  0  0
   12.5135    6.5957   21.8396 C   0  0  0  0  0  0  0  0  0  0  0  0
   10.9406    8.2330   21.1350 C   0  0  0  0  0  0  0  0  0  0  0  0
    9.6648    8.5956   21.7310 C   0  0  0  0  0  0  0  0  0  0  0  0
   10.8829    1.7153   20.9865 C   0  0  0  0  0  0  0  0  0  0  0  0
    5.7768    2.8533   23.7910 C   0  0  0  0  0  0  0  0  0  0  0  0
    9.7977    1.4791   21.6912 N   0  0  0  0  0  0  0  0  0  0  0  0
    6.5976    9.3401   22.6478 N   0  0  0  0  0  0  0  0  0  0  0  0
   11.2031    3.0042   20.6246 C   0  0  0  0  0  0  0  0  0  0  0  0
   12.8688    7.7370   22.7287 C   0  0  0  0  0  0  0  0  0  0  0  0
    7.4487    9.1361   23.6506 C   0  0  0  0  0  0  0  0  0  0  0  0
    8.9772    2.5025   22.0273 C   0  0  0  0  0  0  0  0  0  0  0  0
   10.4859    4.0901   20.9730 C   0  0  0  0  0  0  0  0  0  0  0  0
   11.0962    9.3293   23.5072 C   0  0  0  0  0  0  0  0  0  0  0  0
    5.1273    7.8529   23.6208 N   0  0  0  0  0  0  0  0  0  0  0  0
    9.7552    9.2338   23.0171 N   0  0  0  0  0  0  0  0  0  0  0  0
   11.1797    6.7591   21.3326 N   0  0  0  0  0  0  0  0  0  0  0  0
   11.7728    8.0337   23.7267 C   0  0  0  0  0  0  0  0  0  0  0  0
    7.1194    8.3344   24.6775 C   0  0  0  0  0  0  0  0  0  0  0  0
    8.4311    4.7963   22.0500 C   0  0  0  0  0  0  0  0  0  0  0  0
    8.7393   10.8706   24.1871 O   0  0  0  0  0  0  0  0  0  0  0  0
    9.3093    3.8166   21.6712 C   0  0  0  0  0  0  0  0  0  0  0  0
  1  5  1  0
  1 15  4  0
  1 22  4  0
  2 20  1  0
  2 24  1  0
  3  6  4  0
  3 27  4  0
  4 22  4  0
  4 26  4  0
  6  7  4  0
  6 13  1  0
  7 19  4  0
  8 18  1  0
  8 23  1  0
  8 28  2  0
  9 17  1  0
  9 24  1  0
 10 11  1  0
 10 24  1  0
 11 23  1  0
 12 14  4  0
 12 16  4  0
 14 19  4  0
 15 18  4  0
 16 20  4  0
 17 25  1  0
 18 26  4  0
 19 29  4  0
 20 29  4  0
 21 23  1  0
 21 25  1  0
 27 29  4  0
M  END
$$$$

 Created by Python create_sdf_string function

 29 32  0  0  0  0  0  0  0  0999 V2000
    5.4450    8.7154   22.6662 C   0  0  0  0  0  0  0  0  0  0  0  0
   10.9154    5.4574   20.5483 C   0  0  0  0  0  0  0  0  0  0  0  0
    7.2709    4.5089   22.7542 C   0  0  0  0  0  0  0  0  0  0  0  0
    5.9698    7.6329   24.6581 C   0  0  0  0  0  0  0  0  0  0  0  0
    4.5542    8.9057   21.7104 O   0  0  0  0  0  0  0  0  0  0  0  0
    6.9895    3.2085   23.0690 C   0  0  0  0  0  0  0  0  0  0  0  0
    7.8391    2.2253   22.7260 N   0  0  0  0  0  0  0  0  0  0  0  0
    8.6968    9.8373   23.6359 C   0  0  0  0  0  0  0  0  0  0  0  0
   12.5135    6.5957   21.8396 C   0  0  0  0  0  0  0  0  0  0  0  0
   10.9406    8.2330   21.1350 C   0  0  0  0  0  0  0  0  0  0  0  0
    9.6648    8.5956   21.7310 C   0  0  0  0  0  0  0  0  0  0  0  0
   10.8829    1.7153   20.9865 C   0  0  0  0  0  0  0  0  0  0  0  0
    5.7768    2.8533   23.7910 C   0  0  0  0  0  0  0  0  0  0  0  0
    9.7977    1.4791   21.6912 N   0  0  0  0  0  0  0  0  0  0  0  0
    6.5976    9.3401   22.6478 N   0  0  0  0  0  0  0  0  0  0  0  0
   11.2031    3.0042   20.6246 C   0  0  0  0  0  0  0  0  0  0  0  0
   12.8688    7.7370   22.7287 C   0  0  0  0  0  0  0  0  0  0  0  0
    7.4487    9.1361   23.6506 C   0  0  0  0  0  0  0  0  0  0  0  0
    8.9772    2.5025   22.0273 C   0  0  0  0  0  0  0  0  0  0  0  0
   10.4859    4.0901   20.9730 C   0  0  0  0  0  0  0  0  0  0  0  0
   11.0962    9.3293   23.5072 C   0  0  0  0  0  0  0  0  0  0  0  0
    5.1273    7.8529   23.6208 N   0  0  0  0  0  0  0  0  0  0  0  0
    9.7552    9.2338   23.0171 N   0  0  0  0  0  0  0  0  0  0  0  0
   11.1797    6.7591   21.3326 N   0  0  0  0  0  0  0  0  0  0  0  0
   11.7728    8.0337   23.7267 C   0  0  0  0  0  0  0  0  0  0  0  0
    7.1194    8.3344   24.6775 C   0  0  0  0  0  0  0  0  0  0  0  0
    8.4311    4.7963   22.0500 C   0  0  0  0  0  0  0  0  0  0  0  0
    8.7393   10.8706   24.1871 O   0  0  0  0  0  0  0  0  0  0  0  0
    9.3093    3.8166   21.6712 C   0  0  0  0  0  0  0  0  0  0  0  0
  1  5  1  0
  1 15  4  0
  1 22  4  0
  2 20  1  0
  2 24  1  0
  3  6  4  0
  3 27  4  0
  4 22  4  0
  4 26  4  0
  6  7  4  0
  6 13  1  0
  7 19  4  0
  8 18  1  0
  8 23  1  0
  8 28  2  0
  9 17  1  0
  9 24  1  0
 10 11  1  0
 10 24  1  0
 11 23  1  0
 12 14  4  0
 12 16  4  0
 14 19  4  0
 15 18  4  0
 16 20  4  0
 17 25  1  0
 18 26  4  0
 19 29  4  0
 20 29  4  0
 21 23  1  0
 21 25  1  0
 27 29  4  0
M  END
$$$$

 Created by Python create_sdf_string function

 29 32  0  0  0  0  0  0  0  0999 V2000
    5.4450    8.7154   22.6662 C   0  0  0  0  0  0  0  0  0  0  0  0
   10.9154    5.4574   20.5483 C   0  0  0  0  0  0  0  0  0  0  0  0
    7.2709    4.5089   22.7542 C   0  0  0  0  0  0  0  0  0  0  0  0
    5.9698    7.6329   24.6581 C   0  0  0  0  0  0  0  0  0  0  0  0
    4.5542    8.9057   21.7104 O   0  0  0  0  0  0  0  0  0  0  0  0
    6.9895    3.2085   23.0690 C   0  0  0  0  0  0  0  0  0  0  0  0
    7.8391    2.2253   22.7260 N   0  0  0  0  0  0  0  0  0  0  0  0
    8.6968    9.8373   23.6359 C   0  0  0  0  0  0  0  0  0  0  0  0
   12.5135    6.5957   21.8396 C   0  0  0  0  0  0  0  0  0  0  0  0
   10.9406    8.2330   21.1350 C   0  0  0  0  0  0  0  0  0  0  0  0
    9.6648    8.5956   21.7310 C   0  0  0  0  0  0  0  0  0  0  0  0
   10.8829    1.7153   20.9865 C   0  0  0  0  0  0  0  0  0  0  0  0
    5.7768    2.8533   23.7910 C   0  0  0  0  0  0  0  0  0  0  0  0
    9.7977    1.4791   21.6912 N   0  0  0  0  0  0  0  0  0  0  0  0
    6.5976    9.3401   22.6478 N   0  0  0  0  0  0  0  0  0  0  0  0
   11.2031    3.0042   20.6246 C   0  0  0  0  0  0  0  0  0  0  0  0
   12.8688    7.7370   22.7287 C   0  0  0  0  0  0  0  0  0  0  0  0
    7.4487    9.1361   23.6506 C   0  0  0  0  0  0  0  0  0  0  0  0
    8.9772    2.5025   22.0273 C   0  0  0  0  0  0  0  0  0  0  0  0
   10.4859    4.0901   20.9730 C   0  0  0  0  0  0  0  0  0  0  0  0
   11.0962    9.3293   23.5072 C   0  0  0  0  0  0  0  0  0  0  0  0
    5.1273    7.8529   23.6208 N   0  0  0  0  0  0  0  0  0  0  0  0
    9.7552    9.2338   23.0171 N   0  0  0  0  0  0  0  0  0  0  0  0
   11.1797    6.7591   21.3326 N   0  0  0  0  0  0  0  0  0  0  0  0
   11.7728    8.0337   23.7267 C   0  0  0  0  0  0  0  0  0  0  0  0
    7.1194    8.3344   24.6775 C   0  0  0  0  0  0  0  0  0  0  0  0
    8.4311    4.7963   22.0500 C   0  0  0  0  0  0  0  0  0  0  0  0
    8.7393   10.8706   24.1871 O   0  0  0  0  0  0  0  0  0  0  0  0
    9.3093    3.8166   21.6712 C   0  0  0  0  0  0  0  0  0  0  0  0
  1  5  1  0
  1 15  4  0
  1 22  4  0
  2 20  1  0
  2 24  1  0
  3  6  4  0
  3 27  4  0
  4 22  4  0
  4 26  4  0
  6  7  4  0
  6 13  1  0
  7 19  4  0
  8 18  1  0
  8 23  1  0
  8 28  2  0
  9 17  1  0
  9 24  1  0
 10 11  1  0
 10 24  1  0
 11 23  1  0
 12 14  4  0
 12 16  4  0
 14 19  4  0
 15 18  4  0
 16 20  4  0
 17 25  1  0
 18 26  4  0
 19 29  4  0
 20 29  4  0
 21 23  1  0
 21 25  1  0
 27 29  4  0
M  END
$$$$

 Created by Python create_sdf_string function

 29 32  0  0  0  0  0  0  0  0999 V2000
    5.4450    8.7154   22.6662 C   0  0  0  0  0  0  0  0  0  0  0  0
   10.9154    5.4574   20.5483 C   0  0  0  0  0  0  0  0  0  0  0  0
    7.2709    4.5089   22.7542 C   0  0  0  0  0  0  0  0  0  0  0  0
    5.9698    7.6329   24.6581 C   0  0  0  0  0  0  0  0  0  0  0  0
    4.5542    8.9057   21.7104 O   0  0  0  0  0  0  0  0  0  0  0  0
    6.9895    3.2085   23.0690 C   0  0  0  0  0  0  0  0  0  0  0  0
    7.8391    2.2253   22.7260 N   0  0  0  0  0  0  0  0  0  0  0  0
    8.6968    9.8373   23.6359 C   0  0  0  0  0  0  0  0  0  0  0  0
   12.5135    6.5957   21.8396 C   0  0  0  0  0  0  0  0  0  0  0  0
   10.9406    8.2330   21.1350 C   0  0  0  0  0  0  0  0  0  0  0  0
    9.6648    8.5956   21.7310 C   0  0  0  0  0  0  0  0  0  0  0  0
   10.8829    1.7153   20.9865 C   0  0  0  0  0  0  0  0  0  0  0  0
    5.7768    2.8533   23.7910 C   0  0  0  0  0  0  0  0  0  0  0  0
    9.7977    1.4791   21.6912 N   0  0  0  0  0  0  0  0  0  0  0  0
    6.5976    9.3401   22.6478 N   0  0  0  0  0  0  0  0  0  0  0  0
   11.2031    3.0042   20.6246 C   0  0  0  0  0  0  0  0  0  0  0  0
   12.8688    7.7370   22.7287 C   0  0  0  0  0  0  0  0  0  0  0  0
    7.4487    9.1361   23.6506 C   0  0  0  0  0  0  0  0  0  0  0  0
    8.9772    2.5025   22.0273 C   0  0  0  0  0  0  0  0  0  0  0  0
   10.4859    4.0901   20.9730 C   0  0  0  0  0  0  0  0  0  0  0  0
   11.0962    9.3293   23.5072 C   0  0  0  0  0  0  0  0  0  0  0  0
    5.1273    7.8529   23.6208 N   0  0  0  0  0  0  0  0  0  0  0  0
    9.7552    9.2338   23.0171 N   0  0  0  0  0  0  0  0  0  0  0  0
   11.1797    6.7591   21.3326 N   0  0  0  0  0  0  0  0  0  0  0  0
   11.7728    8.0337   23.7267 C   0  0  0  0  0  0  0  0  0  0  0  0
    7.1194    8.3344   24.6775 C   0  0  0  0  0  0  0  0  0  0  0  0
    8.4311    4.7963   22.0500 C   0  0  0  0  0  0  0  0  0  0  0  0
    8.7393   10.8706   24.1871 O   0  0  0  0  0  0  0  0  0  0  0  0
    9.3093    3.8166   21.6712 C   0  0  0  0  0  0  0  0  0  0  0  0
  1  5  1  0
  1 15  4  0
  1 22  4  0
  2 20  1  0
  2 24  1  0
  3  6  4  0
  3 27  4  0
  4 22  4  0
  4 26  4  0
  6  7  4  0
  6 13  1  0
  7 19  4  0
  8 18  1  0
  8 23  1  0
  8 28  2  0
  9 17  1  0
  9 24  1  0
 10 11  1  0
 10 24  1  0
 11 23  1  0
 12 14  4  0
 12 16  4  0
 14 19  4  0
 15 18  4  0
 16 20  4  0
 17 25  1  0
 18 26  4  0
 19 29  4  0
 20 29  4  0
 21 23  1  0
 21 25  1  0
 27 29  4  0
M  END
$$$$

 Created by Python create_sdf_string function

 29 32  0  0  0  0  0  0  0  0999 V2000
    5.4450    8.7154   22.6662 C   0  0  0  0  0  0  0  0  0  0  0  0
   10.9154    5.4574   20.5483 C   0  0  0  0  0  0  0  0  0  0  0  0
    7.2709    4.5089   22.7542 C   0  0  0  0  0  0  0  0  0  0  0  0
    5.9698    7.6329   24.6581 C   0  0  0  0  0  0  0  0  0  0  0  0
    4.5542    8.9057   21.7104 O   0  0  0  0  0  0  0  0  0  0  0  0
    6.9895    3.2085   23.0690 C   0  0  0  0  0  0  0  0  0  0  0  0
    7.8391    2.2253   22.7260 N   0  0  0  0  0  0  0  0  0  0  0  0
    8.6968    9.8373   23.6359 C   0  0  0  0  0  0  0  0  0  0  0  0
   12.5135    6.5957   21.8396 C   0  0  0  0  0  0  0  0  0  0  0  0
   10.9406    8.2330   21.1350 C   0  0  0  0  0  0  0  0  0  0  0  0
    9.6648    8.5956   21.7310 C   0  0  0  0  0  0  0  0  0  0  0  0
   10.8829    1.7153   20.9865 C   0  0  0  0  0  0  0  0  0  0  0  0
    5.7768    2.8533   23.7910 C   0  0  0  0  0  0  0  0  0  0  0  0
    9.7977    1.4791   21.6912 N   0  0  0  0  0  0  0  0  0  0  0  0
    6.5976    9.3401   22.6478 N   0  0  0  0  0  0  0  0  0  0  0  0
   11.2031    3.0042   20.6246 C   0  0  0  0  0  0  0  0  0  0  0  0
   12.8688    7.7370   22.7287 C   0  0  0  0  0  0  0  0  0  0  0  0
    7.4487    9.1361   23.6506 C   0  0  0  0  0  0  0  0  0  0  0  0
    8.9772    2.5025   22.0273 C   0  0  0  0  0  0  0  0  0  0  0  0
   10.4859    4.0901   20.9730 C   0  0  0  0  0  0  0  0  0  0  0  0
   11.0962    9.3293   23.5072 C   0  0  0  0  0  0  0  0  0  0  0  0
    5.1273    7.8529   23.6208 N   0  0  0  0  0  0  0  0  0  0  0  0
    9.7552    9.2338   23.0171 N   0  0  0  0  0  0  0  0  0  0  0  0
   11.1797    6.7591   21.3326 N   0  0  0  0  0  0  0  0  0  0  0  0
   11.7728    8.0337   23.7267 C   0  0  0  0  0  0  0  0  0  0  0  0
    7.1194    8.3344   24.6775 C   0  0  0  0  0  0  0  0  0  0  0  0
    8.4311    4.7963   22.0500 C   0  0  0  0  0  0  0  0  0  0  0  0
    8.7393   10.8706   24.1871 O   0  0  0  0  0  0  0  0  0  0  0  0
    9.3093    3.8166   21.6712 C   0  0  0  0  0  0  0  0  0  0  0  0
  1  5  1  0
  1 15  4  0
  1 22  4  0
  2 20  1  0
  2 24  1  0
  3  6  4  0
  3 27  4  0
  4 22  4  0
  4 26  4  0
  6  7  4  0
  6 13  1  0
  7 19  4  0
  8 18  1  0
  8 23  1  0
  8 28  2  0
  9 17  1  0
  9 24  1  0
 10 11  1  0
 10 24  1  0
 11 23  1  0
 12 14  4  0
 12 16  4  0
 14 19  4  0
 15 18  4  0
 16 20  4  0
 17 25  1  0
 18 26  4  0
 19 29  4  0
 20 29  4  0
 21 23  1  0
 21 25  1  0
 27 29  4  0
M  END
$$$$

 Created by Python create_sdf_string function

 29 32  0  0  0  0  0  0  0  0999 V2000
    5.4450    8.7154   22.6662 C   0  0  0  0  0  0  0  0  0  0  0  0
   10.9154    5.4574   20.5483 C   0  0  0  0  0  0  0  0  0  0  0  0
    7.2709    4.5089   22.7542 C   0  0  0  0  0  0  0  0  0  0  0  0
    5.9698    7.6329   24.6581 C   0  0  0  0  0  0  0  0  0  0  0  0
    4.5542    8.9057   21.7104 O   0  0  0  0  0  0  0  0  0  0  0  0
    6.9895    3.2085   23.0690 C   0  0  0  0  0  0  0  0  0  0  0  0
    7.8391    2.2253   22.7260 N   0  0  0  0  0  0  0  0  0  0  0  0
    8.6968    9.8373   23.6359 C   0  0  0  0  0  0  0  0  0  0  0  0
   12.5135    6.5957   21.8396 C   0  0  0  0  0  0  0  0  0  0  0  0
   10.9406    8.2330   21.1350 C   0  0  0  0  0  0  0  0  0  0  0  0
    9.6648    8.5956   21.7310 C   0  0  0  0  0  0  0  0  0  0  0  0
   10.8829    1.7153   20.9865 C   0  0  0  0  0  0  0  0  0  0  0  0
    5.7768    2.8533   23.7910 C   0  0  0  0  0  0  0  0  0  0  0  0
    9.7977    1.4791   21.6912 N   0  0  0  0  0  0  0  0  0  0  0  0
    6.5976    9.3401   22.6478 N   0  0  0  0  0  0  0  0  0  0  0  0
   11.2031    3.0042   20.6246 C   0  0  0  0  0  0  0  0  0  0  0  0
   12.8688    7.7370   22.7287 C   0  0  0  0  0  0  0  0  0  0  0  0
    7.4487    9.1361   23.6506 C   0  0  0  0  0  0  0  0  0  0  0  0
    8.9772    2.5025   22.0273 C   0  0  0  0  0  0  0  0  0  0  0  0
   10.4859    4.0901   20.9730 C   0  0  0  0  0  0  0  0  0  0  0  0
   11.0962    9.3293   23.5072 C   0  0  0  0  0  0  0  0  0  0  0  0
    5.1273    7.8529   23.6208 N   0  0  0  0  0  0  0  0  0  0  0  0
    9.7552    9.2338   23.0171 N   0  0  0  0  0  0  0  0  0  0  0  0
   11.1797    6.7591   21.3326 N   0  0  0  0  0  0  0  0  0  0  0  0
   11.7728    8.0337   23.7267 C   0  0  0  0  0  0  0  0  0  0  0  0
    7.1194    8.3344   24.6775 C   0  0  0  0  0  0  0  0  0  0  0  0
    8.4311    4.7963   22.0500 C   0  0  0  0  0  0  0  0  0  0  0  0
    8.7393   10.8706   24.1871 O   0  0  0  0  0  0  0  0  0  0  0  0
    9.3093    3.8166   21.6712 C   0  0  0  0  0  0  0  0  0  0  0  0
  1  5  1  0
  1 15  4  0
  1 22  4  0
  2 20  1  0
  2 24  1  0
  3  6  4  0
  3 27  4  0
  4 22  4  0
  4 26  4  0
  6  7  4  0
  6 13  1  0
  7 19  4  0
  8 18  1  0
  8 23  1  0
  8 28  2  0
  9 17  1  0
  9 24  1  0
 10 11  1  0
 10 24  1  0
 11 23  1  0
 12 14  4  0
 12 16  4  0
 14 19  4  0
 15 18  4  0
 16 20  4  0
 17 25  1  0
 18 26  4  0
 19 29  4  0
 20 29  4  0
 21 23  1  0
 21 25  1  0
 27 29  4  0
M  END
$$$$

 Created by Python create_sdf_string function

 29 32  0  0  0  0  0  0  0  0999 V2000
    5.4450    8.7154   22.6662 C   0  0  0  0  0  0  0  0  0  0  0  0
   10.9154    5.4574   20.5483 C   0  0  0  0  0  0  0  0  0  0  0  0
    7.2709    4.5089   22.7542 C   0  0  0  0  0  0  0  0  0  0  0  0
    5.9698    7.6329   24.6581 C   0  0  0  0  0  0  0  0  0  0  0  0
    4.5542    8.9057   21.7104 O   0  0  0  0  0  0  0  0  0  0  0  0
    6.9895    3.2085   23.0690 C   0  0  0  0  0  0  0  0  0  0  0  0
    7.8391    2.2253   22.7260 N   0  0  0  0  0  0  0  0  0  0  0  0
    8.6968    9.8373   23.6359 C   0  0  0  0  0  0  0  0  0  0  0  0
   12.5135    6.5957   21.8396 C   0  0  0  0  0  0  0  0  0  0  0  0
   10.9406    8.2330   21.1350 C   0  0  0  0  0  0  0  0  0  0  0  0
    9.6648    8.5956   21.7310 C   0  0  0  0  0  0  0  0  0  0  0  0
   10.8829    1.7153   20.9865 C   0  0  0  0  0  0  0  0  0  0  0  0
    5.7768    2.8533   23.7910 C   0  0  0  0  0  0  0  0  0  0  0  0
    9.7977    1.4791   21.6912 N   0  0  0  0  0  0  0  0  0  0  0  0
    6.5976    9.3401   22.6478 N   0  0  0  0  0  0  0  0  0  0  0  0
   11.2031    3.0042   20.6246 C   0  0  0  0  0  0  0  0  0  0  0  0
   12.8688    7.7370   22.7287 C   0  0  0  0  0  0  0  0  0  0  0  0
    7.4487    9.1361   23.6506 C   0  0  0  0  0  0  0  0  0  0  0  0
    8.9772    2.5025   22.0273 C   0  0  0  0  0  0  0  0  0  0  0  0
   10.4859    4.0901   20.9730 C   0  0  0  0  0  0  0  0  0  0  0  0
   11.0962    9.3293   23.5072 C   0  0  0  0  0  0  0  0  0  0  0  0
    5.1273    7.8529   23.6208 N   0  0  0  0  0  0  0  0  0  0  0  0
    9.7552    9.2338   23.0171 N   0  0  0  0  0  0  0  0  0  0  0  0
   11.1797    6.7591   21.3326 N   0  0  0  0  0  0  0  0  0  0  0  0
   11.7728    8.0337   23.7267 C   0  0  0  0  0  0  0  0  0  0  0  0
    7.1194    8.3344   24.6775 C   0  0  0  0  0  0  0  0  0  0  0  0
    8.4311    4.7963   22.0500 C   0  0  0  0  0  0  0  0  0  0  0  0
    8.7393   10.8706   24.1871 O   0  0  0  0  0  0  0  0  0  0  0  0
    9.3093    3.8166   21.6712 C   0  0  0  0  0  0  0  0  0  0  0  0
  1  5  1  0
  1 15  4  0
  1 22  4  0
  2 20  1  0
  2 24  1  0
  3  6  4  0
  3 27  4  0
  4 22  4  0
  4 26  4  0
  6  7  4  0
  6 13  1  0
  7 19  4  0
  8 18  1  0
  8 23  1  0
  8 28  2  0
  9 17  1  0
  9 24  1  0
 10 11  1  0
 10 24  1  0
 11 23  1  0
 12 14  4  0
 12 16  4  0
 14 19  4  0
 15 18  4  0
 16 20  4  0
 17 25  1  0
 18 26  4  0
 19 29  4  0
 20 29  4  0
 21 23  1  0
 21 25  1  0
 27 29  4  0
M  END
$$$$

 Created by Python create_sdf_string function

 29 32  0  0  0  0  0  0  0  0999 V2000
    5.4450    8.7154   22.6662 C   0  0  0  0  0  0  0  0  0  0  0  0
   10.9154    5.4574   20.5483 C   0  0  0  0  0  0  0  0  0  0  0  0
    7.2709    4.5089   22.7542 C   0  0  0  0  0  0  0  0  0  0  0  0
    5.9698    7.6329   24.6581 C   0  0  0  0  0  0  0  0  0  0  0  0
    4.5542    8.9057   21.7104 O   0  0  0  0  0  0  0  0  0  0  0  0
    6.9895    3.2085   23.0690 C   0  0  0  0  0  0  0  0  0  0  0  0
    7.8391    2.2253   22.7260 N   0  0  0  0  0  0  0  0  0  0  0  0
    8.6968    9.8373   23.6359 C   0  0  0  0  0  0  0  0  0  0  0  0
   12.5135    6.5957   21.8396 C   0  0  0  0  0  0  0  0  0  0  0  0
   10.9406    8.2330   21.1350 C   0  0  0  0  0  0  0  0  0  0  0  0
    9.6648    8.5956   21.7310 C   0  0  0  0  0  0  0  0  0  0  0  0
   10.8829    1.7153   20.9865 C   0  0  0  0  0  0  0  0  0  0  0  0
    5.7768    2.8533   23.7910 C   0  0  0  0  0  0  0  0  0  0  0  0
    9.7977    1.4791   21.6912 N   0  0  0  0  0  0  0  0  0  0  0  0
    6.5976    9.3401   22.6478 N   0  0  0  0  0  0  0  0  0  0  0  0
   11.2031    3.0042   20.6246 C   0  0  0  0  0  0  0  0  0  0  0  0
   12.8688    7.7370   22.7287 C   0  0  0  0  0  0  0  0  0  0  0  0
    7.4487    9.1361   23.6506 C   0  0  0  0  0  0  0  0  0  0  0  0
    8.9772    2.5025   22.0273 C   0  0  0  0  0  0  0  0  0  0  0  0
   10.4859    4.0901   20.9730 C   0  0  0  0  0  0  0  0  0  0  0  0
   11.0962    9.3293   23.5072 C   0  0  0  0  0  0  0  0  0  0  0  0
    5.1273    7.8529   23.6208 N   0  0  0  0  0  0  0  0  0  0  0  0
    9.7552    9.2338   23.0171 N   0  0  0  0  0  0  0  0  0  0  0  0
   11.1797    6.7591   21.3326 N   0  0  0  0  0  0  0  0  0  0  0  0
   11.7728    8.0337   23.7267 C   0  0  0  0  0  0  0  0  0  0  0  0
    7.1194    8.3344   24.6775 C   0  0  0  0  0  0  0  0  0  0  0  0
    8.4311    4.7963   22.0500 C   0  0  0  0  0  0  0  0  0  0  0  0
    8.7393   10.8706   24.1871 O   0  0  0  0  0  0  0  0  0  0  0  0
    9.3093    3.8166   21.6712 C   0  0  0  0  0  0  0  0  0  0  0  0
  1  5  1  0
  1 15  4  0
  1 22  4  0
  2 20  1  0
  2 24  1  0
  3  6  4  0
  3 27  4  0
  4 22  4  0
  4 26  4  0
  6  7  4  0
  6 13  1  0
  7 19  4  0
  8 18  1  0
  8 23  1  0
  8 28  2  0
  9 17  1  0
  9 24  1  0
 10 11  1  0
 10 24  1  0
 11 23  1  0
 12 14  4  0
 12 16  4  0
 14 19  4  0
 15 18  4  0
 16 20  4  0
 17 25  1  0
 18 26  4  0
 19 29  4  0
 20 29  4  0
 21 23  1  0
 21 25  1  0
 27 29  4  0
M  END
$$$$

 Created by Python create_sdf_string function

 29 32  0  0  0  0  0  0  0  0999 V2000
    5.4450    8.7154   22.6662 C   0  0  0  0  0  0  0  0  0  0  0  0
   10.9154    5.4574   20.5483 C   0  0  0  0  0  0  0  0  0  0  0  0
    7.2709    4.5089   22.7542 C   0  0  0  0  0  0  0  0  0  0  0  0
    5.9698    7.6329   24.6581 C   0  0  0  0  0  0  0  0  0  0  0  0
    4.5542    8.9057   21.7104 O   0  0  0  0  0  0  0  0  0  0  0  0
    6.9895    3.2085   23.0690 C   0  0  0  0  0  0  0  0  0  0  0  0
    7.8391    2.2253   22.7260 N   0  0  0  0  0  0  0  0  0  0  0  0
    8.6968    9.8373   23.6359 C   0  0  0  0  0  0  0  0  0  0  0  0
   12.5135    6.5957   21.8396 C   0  0  0  0  0  0  0  0  0  0  0  0
   10.9406    8.2330   21.1350 C   0  0  0  0  0  0  0  0  0  0  0  0
    9.6648    8.5956   21.7310 C   0  0  0  0  0  0  0  0  0  0  0  0
   10.8829    1.7153   20.9865 C   0  0  0  0  0  0  0  0  0  0  0  0
    5.7768    2.8533   23.7910 C   0  0  0  0  0  0  0  0  0  0  0  0
    9.7977    1.4791   21.6912 N   0  0  0  0  0  0  0  0  0  0  0  0
    6.5976    9.3401   22.6478 N   0  0  0  0  0  0  0  0  0  0  0  0
   11.2031    3.0042   20.6246 C   0  0  0  0  0  0  0  0  0  0  0  0
   12.8688    7.7370   22.7287 C   0  0  0  0  0  0  0  0  0  0  0  0
    7.4487    9.1361   23.6506 C   0  0  0  0  0  0  0  0  0  0  0  0
    8.9772    2.5025   22.0273 C   0  0  0  0  0  0  0  0  0  0  0  0
   10.4859    4.0901   20.9730 C   0  0  0  0  0  0  0  0  0  0  0  0
   11.0962    9.3293   23.5072 C   0  0  0  0  0  0  0  0  0  0  0  0
    5.1273    7.8529   23.6208 N   0  0  0  0  0  0  0  0  0  0  0  0
    9.7552    9.2338   23.0171 N   0  0  0  0  0  0  0  0  0  0  0  0
   11.1797    6.7591   21.3326 N   0  0  0  0  0  0  0  0  0  0  0  0
   11.7728    8.0337   23.7267 C   0  0  0  0  0  0  0  0  0  0  0  0
    7.1194    8.3344   24.6775 C   0  0  0  0  0  0  0  0  0  0  0  0
    8.4311    4.7963   22.0500 C   0  0  0  0  0  0  0  0  0  0  0  0
    8.7393   10.8706   24.1871 O   0  0  0  0  0  0  0  0  0  0  0  0
    9.3093    3.8166   21.6712 C   0  0  0  0  0  0  0  0  0  0  0  0
  1  5  1  0
  1 15  4  0
  1 22  4  0
  2 20  1  0
  2 24  1  0
  3  6  4  0
  3 27  4  0
  4 22  4  0
  4 26  4  0
  6  7  4  0
  6 13  1  0
  7 19  4  0
  8 18  1  0
  8 23  1  0
  8 28  2  0
  9 17  1  0
  9 24  1  0
 10 11  1  0
 10 24  1  0
 11 23  1  0
 12 14  4  0
 12 16  4  0
 14 19  4  0
 15 18  4  0
 16 20  4  0
 17 25  1  0
 18 26  4  0
 19 29  4  0
 20 29  4  0
 21 23  1  0
 21 25  1  0
 27 29  4  0
M  END
$$$$

 Created by Python create_sdf_string function

 29 32  0  0  0  0  0  0  0  0999 V2000
    5.4450    8.7154   22.6662 C   0  0  0  0  0  0  0  0  0  0  0  0
   10.9154    5.4574   20.5483 C   0  0  0  0  0  0  0  0  0  0  0  0
    7.2709    4.5089   22.7542 C   0  0  0  0  0  0  0  0  0  0  0  0
    5.9698    7.6329   24.6581 C   0  0  0  0  0  0  0  0  0  0  0  0
    4.5542    8.9057   21.7104 O   0  0  0  0  0  0  0  0  0  0  0  0
    6.9895    3.2085   23.0690 C   0  0  0  0  0  0  0  0  0  0  0  0
    7.8391    2.2253   22.7260 N   0  0  0  0  0  0  0  0  0  0  0  0
    8.6968    9.8373   23.6359 C   0  0  0  0  0  0  0  0  0  0  0  0
   12.5135    6.5957   21.8396 C   0  0  0  0  0  0  0  0  0  0  0  0
   10.9406    8.2330   21.1350 C   0  0  0  0  0  0  0  0  0  0  0  0
    9.6648    8.5956   21.7310 C   0  0  0  0  0  0  0  0  0  0  0  0
   10.8829    1.7153   20.9865 C   0  0  0  0  0  0  0  0  0  0  0  0
    5.7768    2.8533   23.7910 C   0  0  0  0  0  0  0  0  0  0  0  0
    9.7977    1.4791   21.6912 N   0  0  0  0  0  0  0  0  0  0  0  0
    6.5976    9.3401   22.6478 N   0  0  0  0  0  0  0  0  0  0  0  0
   11.2031    3.0042   20.6246 C   0  0  0  0  0  0  0  0  0  0  0  0
   12.8688    7.7370   22.7287 C   0  0  0  0  0  0  0  0  0  0  0  0
    7.4487    9.1361   23.6506 C   0  0  0  0  0  0  0  0  0  0  0  0
    8.9772    2.5025   22.0273 C   0  0  0  0  0  0  0  0  0  0  0  0
   10.4859    4.0901   20.9730 C   0  0  0  0  0  0  0  0  0  0  0  0
   11.0962    9.3293   23.5072 C   0  0  0  0  0  0  0  0  0  0  0  0
    5.1273    7.8529   23.6208 N   0  0  0  0  0  0  0  0  0  0  0  0
    9.7552    9.2338   23.0171 N   0  0  0  0  0  0  0  0  0  0  0  0
   11.1797    6.7591   21.3326 N   0  0  0  0  0  0  0  0  0  0  0  0
   11.7728    8.0337   23.7267 C   0  0  0  0  0  0  0  0  0  0  0  0
    7.1194    8.3344   24.6775 C   0  0  0  0  0  0  0  0  0  0  0  0
    8.4311    4.7963   22.0500 C   0  0  0  0  0  0  0  0  0  0  0  0
    8.7393   10.8706   24.1871 O   0  0  0  0  0  0  0  0  0  0  0  0
    9.3093    3.8166   21.6712 C   0  0  0  0  0  0  0  0  0  0  0  0
  1  5  1  0
  1 15  4  0
  1 22  4  0
  2 20  1  0
  2 24  1  0
  3  6  4  0
  3 27  4  0
  4 22  4  0
  4 26  4  0
  6  7  4  0
  6 13  1  0
  7 19  4  0
  8 18  1  0
  8 23  1  0
  8 28  2  0
  9 17  1  0
  9 24  1  0
 10 11  1  0
 10 24  1  0
 11 23  1  0
 12 14  4  0
 12 16  4  0
 14 19  4  0
 15 18  4  0
 16 20  4  0
 17 25  1  0
 18 26  4  0
 19 29  4  0
 20 29  4  0
 21 23  1  0
 21 25  1  0
 27 29  4  0
M  END
$$$$

 Created by Python create_sdf_string function

 29 32  0  0  0  0  0  0  0  0999 V2000
    5.4450    8.7154   22.6662 C   0  0  0  0  0  0  0  0  0  0  0  0
   10.9154    5.4574   20.5483 C   0  0  0  0  0  0  0  0  0  0  0  0
    7.2709    4.5089   22.7542 C   0  0  0  0  0  0  0  0  0  0  0  0
    5.9698    7.6329   24.6581 C   0  0  0  0  0  0  0  0  0  0  0  0
    4.5542    8.9057   21.7104 O   0  0  0  0  0  0  0  0  0  0  0  0
    6.9895    3.2085   23.0690 C   0  0  0  0  0  0  0  0  0  0  0  0
    7.8391    2.2253   22.7260 N   0  0  0  0  0  0  0  0  0  0  0  0
    8.6968    9.8373   23.6359 C   0  0  0  0  0  0  0  0  0  0  0  0
   12.5135    6.5957   21.8396 C   0  0  0  0  0  0  0  0  0  0  0  0
   10.9406    8.2330   21.1350 C   0  0  0  0  0  0  0  0  0  0  0  0
    9.6648    8.5956   21.7310 C   0  0  0  0  0  0  0  0  0  0  0  0
   10.8829    1.7153   20.9865 C   0  0  0  0  0  0  0  0  0  0  0  0
    5.7768    2.8533   23.7910 C   0  0  0  0  0  0  0  0  0  0  0  0
    9.7977    1.4791   21.6912 N   0  0  0  0  0  0  0  0  0  0  0  0
    6.5976    9.3401   22.6478 N   0  0  0  0  0  0  0  0  0  0  0  0
   11.2031    3.0042   20.6246 C   0  0  0  0  0  0  0  0  0  0  0  0
   12.8688    7.7370   22.7287 C   0  0  0  0  0  0  0  0  0  0  0  0
    7.4487    9.1361   23.6506 C   0  0  0  0  0  0  0  0  0  0  0  0
    8.9772    2.5025   22.0273 C   0  0  0  0  0  0  0  0  0  0  0  0
   10.4859    4.0901   20.9730 C   0  0  0  0  0  0  0  0  0  0  0  0
   11.0962    9.3293   23.5072 C   0  0  0  0  0  0  0  0  0  0  0  0
    5.1273    7.8529   23.6208 N   0  0  0  0  0  0  0  0  0  0  0  0
    9.7552    9.2338   23.0171 N   0  0  0  0  0  0  0  0  0  0  0  0
   11.1797    6.7591   21.3326 N   0  0  0  0  0  0  0  0  0  0  0  0
   11.7728    8.0337   23.7267 C   0  0  0  0  0  0  0  0  0  0  0  0
    7.1194    8.3344   24.6775 C   0  0  0  0  0  0  0  0  0  0  0  0
    8.4311    4.7963   22.0500 C   0  0  0  0  0  0  0  0  0  0  0  0
    8.7393   10.8706   24.1871 O   0  0  0  0  0  0  0  0  0  0  0  0
    9.3093    3.8166   21.6712 C   0  0  0  0  0  0  0  0  0  0  0  0
  1  5  1  0
  1 15  4  0
  1 22  4  0
  2 20  1  0
  2 24  1  0
  3  6  4  0
  3 27  4  0
  4 22  4  0
  4 26  4  0
  6  7  4  0
  6 13  1  0
  7 19  4  0
  8 18  1  0
  8 23  1  0
  8 28  2  0
  9 17  1  0
  9 24  1  0
 10 11  1  0
 10 24  1  0
 11 23  1  0
 12 14  4  0
 12 16  4  0
 14 19  4  0
 15 18  4  0
 16 20  4  0
 17 25  1  0
 18 26  4  0
 19 29  4  0
 20 29  4  0
 21 23  1  0
 21 25  1  0
 27 29  4  0
M  END
$$$$

 Created by Python create_sdf_string function

 29 32  0  0  0  0  0  0  0  0999 V2000
    5.4450    8.7154   22.6662 C   0  0  0  0  0  0  0  0  0  0  0  0
   10.9154    5.4574   20.5483 C   0  0  0  0  0  0  0  0  0  0  0  0
    7.2709    4.5089   22.7542 C   0  0  0  0  0  0  0  0  0  0  0  0
    5.9698    7.6329   24.6581 C   0  0  0  0  0  0  0  0  0  0  0  0
    4.5542    8.9057   21.7104 O   0  0  0  0  0  0  0  0  0  0  0  0
    6.9895    3.2085   23.0690 C   0  0  0  0  0  0  0  0  0  0  0  0
    7.8391    2.2253   22.7260 N   0  0  0  0  0  0  0  0  0  0  0  0
    8.6968    9.8373   23.6359 C   0  0  0  0  0  0  0  0  0  0  0  0
   12.5135    6.5957   21.8396 C   0  0  0  0  0  0  0  0  0  0  0  0
   10.9406    8.2330   21.1350 C   0  0  0  0  0  0  0  0  0  0  0  0
    9.6648    8.5956   21.7310 C   0  0  0  0  0  0  0  0  0  0  0  0
   10.8829    1.7153   20.9865 C   0  0  0  0  0  0  0  0  0  0  0  0
    5.7768    2.8533   23.7910 C   0  0  0  0  0  0  0  0  0  0  0  0
    9.7977    1.4791   21.6912 N   0  0  0  0  0  0  0  0  0  0  0  0
    6.5976    9.3401   22.6478 N   0  0  0  0  0  0  0  0  0  0  0  0
   11.2031    3.0042   20.6246 C   0  0  0  0  0  0  0  0  0  0  0  0
   12.8688    7.7370   22.7287 C   0  0  0  0  0  0  0  0  0  0  0  0
    7.4487    9.1361   23.6506 C   0  0  0  0  0  0  0  0  0  0  0  0
    8.9772    2.5025   22.0273 C   0  0  0  0  0  0  0  0  0  0  0  0
   10.4859    4.0901   20.9730 C   0  0  0  0  0  0  0  0  0  0  0  0
   11.0962    9.3293   23.5072 C   0  0  0  0  0  0  0  0  0  0  0  0
    5.1273    7.8529   23.6208 N   0  0  0  0  0  0  0  0  0  0  0  0
    9.7552    9.2338   23.0171 N   0  0  0  0  0  0  0  0  0  0  0  0
   11.1797    6.7591   21.3326 N   0  0  0  0  0  0  0  0  0  0  0  0
   11.7728    8.0337   23.7267 C   0  0  0  0  0  0  0  0  0  0  0  0
    7.1194    8.3344   24.6775 C   0  0  0  0  0  0  0  0  0  0  0  0
    8.4311    4.7963   22.0500 C   0  0  0  0  0  0  0  0  0  0  0  0
    8.7393   10.8706   24.1871 O   0  0  0  0  0  0  0  0  0  0  0  0
    9.3093    3.8166   21.6712 C   0  0  0  0  0  0  0  0  0  0  0  0
  1  5  1  0
  1 15  4  0
  1 22  4  0
  2 20  1  0
  2 24  1  0
  3  6  4  0
  3 27  4  0
  4 22  4  0
  4 26  4  0
  6  7  4  0
  6 13  1  0
  7 19  4  0
  8 18  1  0
  8 23  1  0
  8 28  2  0
  9 17  1  0
  9 24  1  0
 10 11  1  0
 10 24  1  0
 11 23  1  0
 12 14  4  0
 12 16  4  0
 14 19  4  0
 15 18  4  0
 16 20  4  0
 17 25  1  0
 18 26  4  0
 19 29  4  0
 20 29  4  0
 21 23  1  0
 21 25  1  0
 27 29  4  0
M  END
$$$$

 Created by Python create_sdf_string function

 29 32  0  0  0  0  0  0  0  0999 V2000
    5.4450    8.7154   22.6662 C   0  0  0  0  0  0  0  0  0  0  0  0
   10.9154    5.4574   20.5483 C   0  0  0  0  0  0  0  0  0  0  0  0
    7.2709    4.5089   22.7542 C   0  0  0  0  0  0  0  0  0  0  0  0
    5.9698    7.6329   24.6581 C   0  0  0  0  0  0  0  0  0  0  0  0
    4.5542    8.9057   21.7104 O   0  0  0  0  0  0  0  0  0  0  0  0
    6.9895    3.2085   23.0690 C   0  0  0  0  0  0  0  0  0  0  0  0
    7.8391    2.2253   22.7260 N   0  0  0  0  0  0  0  0  0  0  0  0
    8.6968    9.8373   23.6359 C   0  0  0  0  0  0  0  0  0  0  0  0
   12.5135    6.5957   21.8396 C   0  0  0  0  0  0  0  0  0  0  0  0
   10.9406    8.2330   21.1350 C   0  0  0  0  0  0  0  0  0  0  0  0
    9.6648    8.5956   21.7310 C   0  0  0  0  0  0  0  0  0  0  0  0
   10.8829    1.7153   20.9865 C   0  0  0  0  0  0  0  0  0  0  0  0
    5.7768    2.8533   23.7910 C   0  0  0  0  0  0  0  0  0  0  0  0
    9.7977    1.4791   21.6912 N   0  0  0  0  0  0  0  0  0  0  0  0
    6.5976    9.3401   22.6478 N   0  0  0  0  0  0  0  0  0  0  0  0
   11.2031    3.0042   20.6246 C   0  0  0  0  0  0  0  0  0  0  0  0
   12.8688    7.7370   22.7287 C   0  0  0  0  0  0  0  0  0  0  0  0
    7.4487    9.1361   23.6506 C   0  0  0  0  0  0  0  0  0  0  0  0
    8.9772    2.5025   22.0273 C   0  0  0  0  0  0  0  0  0  0  0  0
   10.4859    4.0901   20.9730 C   0  0  0  0  0  0  0  0  0  0  0  0
   11.0962    9.3293   23.5072 C   0  0  0  0  0  0  0  0  0  0  0  0
    5.1273    7.8529   23.6208 N   0  0  0  0  0  0  0  0  0  0  0  0
    9.7552    9.2338   23.0171 N   0  0  0  0  0  0  0  0  0  0  0  0
   11.1797    6.7591   21.3326 N   0  0  0  0  0  0  0  0  0  0  0  0
   11.7728    8.0337   23.7267 C   0  0  0  0  0  0  0  0  0  0  0  0
    7.1194    8.3344   24.6775 C   0  0  0  0  0  0  0  0  0  0  0  0
    8.4311    4.7963   22.0500 C   0  0  0  0  0  0  0  0  0  0  0  0
    8.7393   10.8706   24.1871 O   0  0  0  0  0  0  0  0  0  0  0  0
    9.3093    3.8166   21.6712 C   0  0  0  0  0  0  0  0  0  0  0  0
  1  5  1  0
  1 15  4  0
  1 22  4  0
  2 20  1  0
  2 24  1  0
  3  6  4  0
  3 27  4  0
  4 22  4  0
  4 26  4  0
  6  7  4  0
  6 13  1  0
  7 19  4  0
  8 18  1  0
  8 23  1  0
  8 28  2  0
  9 17  1  0
  9 24  1  0
 10 11  1  0
 10 24  1  0
 11 23  1  0
 12 14  4  0
 12 16  4  0
 14 19  4  0
 15 18  4  0
 16 20  4  0
 17 25  1  0
 18 26  4  0
 19 29  4  0
 20 29  4  0
 21 23  1  0
 21 25  1  0
 27 29  4  0
M  END
$$$$

 Created by Python create_sdf_string function

 29 32  0  0  0  0  0  0  0  0999 V2000
    5.4450    8.7154   22.6662 C   0  0  0  0  0  0  0  0  0  0  0  0
   10.9154    5.4574   20.5483 C   0  0  0  0  0  0  0  0  0  0  0  0
    7.2709    4.5089   22.7542 C   0  0  0  0  0  0  0  0  0  0  0  0
    5.9698    7.6329   24.6581 C   0  0  0  0  0  0  0  0  0  0  0  0
    4.5542    8.9057   21.7104 O   0  0  0  0  0  0  0  0  0  0  0  0
    6.9895    3.2085   23.0690 C   0  0  0  0  0  0  0  0  0  0  0  0
    7.8391    2.2253   22.7260 N   0  0  0  0  0  0  0  0  0  0  0  0
    8.6968    9.8373   23.6359 C   0  0  0  0  0  0  0  0  0  0  0  0
   12.5135    6.5957   21.8396 C   0  0  0  0  0  0  0  0  0  0  0  0
   10.9406    8.2330   21.1350 C   0  0  0  0  0  0  0  0  0  0  0  0
    9.6648    8.5956   21.7310 C   0  0  0  0  0  0  0  0  0  0  0  0
   10.8829    1.7153   20.9865 C   0  0  0  0  0  0  0  0  0  0  0  0
    5.7768    2.8533   23.7910 C   0  0  0  0  0  0  0  0  0  0  0  0
    9.7977    1.4791   21.6912 N   0  0  0  0  0  0  0  0  0  0  0  0
    6.5976    9.3401   22.6478 N   0  0  0  0  0  0  0  0  0  0  0  0
   11.2031    3.0042   20.6246 C   0  0  0  0  0  0  0  0  0  0  0  0
   12.8688    7.7370   22.7287 C   0  0  0  0  0  0  0  0  0  0  0  0
    7.4487    9.1361   23.6506 C   0  0  0  0  0  0  0  0  0  0  0  0
    8.9772    2.5025   22.0273 C   0  0  0  0  0  0  0  0  0  0  0  0
   10.4859    4.0901   20.9730 C   0  0  0  0  0  0  0  0  0  0  0  0
   11.0962    9.3293   23.5072 C   0  0  0  0  0  0  0  0  0  0  0  0
    5.1273    7.8529   23.6208 N   0  0  0  0  0  0  0  0  0  0  0  0
    9.7552    9.2338   23.0171 N   0  0  0  0  0  0  0  0  0  0  0  0
   11.1797    6.7591   21.3326 N   0  0  0  0  0  0  0  0  0  0  0  0
   11.7728    8.0337   23.7267 C   0  0  0  0  0  0  0  0  0  0  0  0
    7.1194    8.3344   24.6775 C   0  0  0  0  0  0  0  0  0  0  0  0
    8.4311    4.7963   22.0500 C   0  0  0  0  0  0  0  0  0  0  0  0
    8.7393   10.8706   24.1871 O   0  0  0  0  0  0  0  0  0  0  0  0
    9.3093    3.8166   21.6712 C   0  0  0  0  0  0  0  0  0  0  0  0
  1  5  1  0
  1 15  4  0
  1 22  4  0
  2 20  1  0
  2 24  1  0
  3  6  4  0
  3 27  4  0
  4 22  4  0
  4 26  4  0
  6  7  4  0
  6 13  1  0
  7 19  4  0
  8 18  1  0
  8 23  1  0
  8 28  2  0
  9 17  1  0
  9 24  1  0
 10 11  1  0
 10 24  1  0
 11 23  1  0
 12 14  4  0
 12 16  4  0
 14 19  4  0
 15 18  4  0
 16 20  4  0
 17 25  1  0
 18 26  4  0
 19 29  4  0
 20 29  4  0
 21 23  1  0
 21 25  1  0
 27 29  4  0
M  END
$$$$

 Created by Python create_sdf_string function

 29 32  0  0  0  0  0  0  0  0999 V2000
    5.4450    8.7154   22.6662 C   0  0  0  0  0  0  0  0  0  0  0  0
   10.9154    5.4574   20.5483 C   0  0  0  0  0  0  0  0  0  0  0  0
    7.2709    4.5089   22.7542 C   0  0  0  0  0  0  0  0  0  0  0  0
    5.9698    7.6329   24.6581 C   0  0  0  0  0  0  0  0  0  0  0  0
    4.5542    8.9057   21.7104 O   0  0  0  0  0  0  0  0  0  0  0  0
    6.9895    3.2085   23.0690 C   0  0  0  0  0  0  0  0  0  0  0  0
    7.8391    2.2253   22.7260 N   0  0  0  0  0  0  0  0  0  0  0  0
    8.6968    9.8373   23.6359 C   0  0  0  0  0  0  0  0  0  0  0  0
   12.5135    6.5957   21.8396 C   0  0  0  0  0  0  0  0  0  0  0  0
   10.9406    8.2330   21.1350 C   0  0  0  0  0  0  0  0  0  0  0  0
    9.6648    8.5956   21.7310 C   0  0  0  0  0  0  0  0  0  0  0  0
   10.8829    1.7153   20.9865 C   0  0  0  0  0  0  0  0  0  0  0  0
    5.7768    2.8533   23.7910 C   0  0  0  0  0  0  0  0  0  0  0  0
    9.7977    1.4791   21.6912 N   0  0  0  0  0  0  0  0  0  0  0  0
    6.5976    9.3401   22.6478 N   0  0  0  0  0  0  0  0  0  0  0  0
   11.2031    3.0042   20.6246 C   0  0  0  0  0  0  0  0  0  0  0  0
   12.8688    7.7370   22.7287 C   0  0  0  0  0  0  0  0  0  0  0  0
    7.4487    9.1361   23.6506 C   0  0  0  0  0  0  0  0  0  0  0  0
    8.9772    2.5025   22.0273 C   0  0  0  0  0  0  0  0  0  0  0  0
   10.4859    4.0901   20.9730 C   0  0  0  0  0  0  0  0  0  0  0  0
   11.0962    9.3293   23.5072 C   0  0  0  0  0  0  0  0  0  0  0  0
    5.1273    7.8529   23.6208 N   0  0  0  0  0  0  0  0  0  0  0  0
    9.7552    9.2338   23.0171 N   0  0  0  0  0  0  0  0  0  0  0  0
   11.1797    6.7591   21.3326 N   0  0  0  0  0  0  0  0  0  0  0  0
   11.7728    8.0337   23.7267 C   0  0  0  0  0  0  0  0  0  0  0  0
    7.1194    8.3344   24.6775 C   0  0  0  0  0  0  0  0  0  0  0  0
    8.4311    4.7963   22.0500 C   0  0  0  0  0  0  0  0  0  0  0  0
    8.7393   10.8706   24.1871 O   0  0  0  0  0  0  0  0  0  0  0  0
    9.3093    3.8166   21.6712 C   0  0  0  0  0  0  0  0  0  0  0  0
  1  5  1  0
  1 15  4  0
  1 22  4  0
  2 20  1  0
  2 24  1  0
  3  6  4  0
  3 27  4  0
  4 22  4  0
  4 26  4  0
  6  7  4  0
  6 13  1  0
  7 19  4  0
  8 18  1  0
  8 23  1  0
  8 28  2  0
  9 17  1  0
  9 24  1  0
 10 11  1  0
 10 24  1  0
 11 23  1  0
 12 14  4  0
 12 16  4  0
 14 19  4  0
 15 18  4  0
 16 20  4  0
 17 25  1  0
 18 26  4  0
 19 29  4  0
 20 29  4  0
 21 23  1  0
 21 25  1  0
 27 29  4  0
M  END
$$$$

 Created by Python create_sdf_string function

 29 32  0  0  0  0  0  0  0  0999 V2000
    5.4450    8.7154   22.6662 C   0  0  0  0  0  0  0  0  0  0  0  0
   10.9154    5.4574   20.5483 C   0  0  0  0  0  0  0  0  0  0  0  0
    7.2709    4.5089   22.7542 C   0  0  0  0  0  0  0  0  0  0  0  0
    5.9698    7.6329   24.6581 C   0  0  0  0  0  0  0  0  0  0  0  0
    4.5542    8.9057   21.7104 O   0  0  0  0  0  0  0  0  0  0  0  0
    6.9895    3.2085   23.0690 C   0  0  0  0  0  0  0  0  0  0  0  0
    7.8391    2.2253   22.7260 N   0  0  0  0  0  0  0  0  0  0  0  0
    8.6968    9.8373   23.6359 C   0  0  0  0  0  0  0  0  0  0  0  0
   12.5135    6.5957   21.8396 C   0  0  0  0  0  0  0  0  0  0  0  0
   10.9406    8.2330   21.1350 C   0  0  0  0  0  0  0  0  0  0  0  0
    9.6648    8.5956   21.7310 C   0  0  0  0  0  0  0  0  0  0  0  0
   10.8829    1.7153   20.9865 C   0  0  0  0  0  0  0  0  0  0  0  0
    5.7768    2.8533   23.7910 C   0  0  0  0  0  0  0  0  0  0  0  0
    9.7977    1.4791   21.6912 N   0  0  0  0  0  0  0  0  0  0  0  0
    6.5976    9.3401   22.6478 N   0  0  0  0  0  0  0  0  0  0  0  0
   11.2031    3.0042   20.6246 C   0  0  0  0  0  0  0  0  0  0  0  0
   12.8688    7.7370   22.7287 C   0  0  0  0  0  0  0  0  0  0  0  0
    7.4487    9.1361   23.6506 C   0  0  0  0  0  0  0  0  0  0  0  0
    8.9772    2.5025   22.0273 C   0  0  0  0  0  0  0  0  0  0  0  0
   10.4859    4.0901   20.9730 C   0  0  0  0  0  0  0  0  0  0  0  0
   11.0962    9.3293   23.5072 C   0  0  0  0  0  0  0  0  0  0  0  0
    5.1273    7.8529   23.6208 N   0  0  0  0  0  0  0  0  0  0  0  0
    9.7552    9.2338   23.0171 N   0  0  0  0  0  0  0  0  0  0  0  0
   11.1797    6.7591   21.3326 N   0  0  0  0  0  0  0  0  0  0  0  0
   11.7728    8.0337   23.7267 C   0  0  0  0  0  0  0  0  0  0  0  0
    7.1194    8.3344   24.6775 C   0  0  0  0  0  0  0  0  0  0  0  0
    8.4311    4.7963   22.0500 C   0  0  0  0  0  0  0  0  0  0  0  0
    8.7393   10.8706   24.1871 O   0  0  0  0  0  0  0  0  0  0  0  0
    9.3093    3.8166   21.6712 C   0  0  0  0  0  0  0  0  0  0  0  0
  1  5  1  0
  1 15  4  0
  1 22  4  0
  2 20  1  0
  2 24  1  0
  3  6  4  0
  3 27  4  0
  4 22  4  0
  4 26  4  0
  6  7  4  0
  6 13  1  0
  7 19  4  0
  8 18  1  0
  8 23  1  0
  8 28  2  0
  9 17  1  0
  9 24  1  0
 10 11  1  0
 10 24  1  0
 11 23  1  0
 12 14  4  0
 12 16  4  0
 14 19  4  0
 15 18  4  0
 16 20  4  0
 17 25  1  0
 18 26  4  0
 19 29  4  0
 20 29  4  0
 21 23  1  0
 21 25  1  0
 27 29  4  0
M  END
$$$$

 Created by Python create_sdf_string function

 29 32  0  0  0  0  0  0  0  0999 V2000
    5.4450    8.7154   22.6662 C   0  0  0  0  0  0  0  0  0  0  0  0
   10.9154    5.4574   20.5483 C   0  0  0  0  0  0  0  0  0  0  0  0
    7.2709    4.5089   22.7542 C   0  0  0  0  0  0  0  0  0  0  0  0
    5.9698    7.6329   24.6581 C   0  0  0  0  0  0  0  0  0  0  0  0
    4.5542    8.9057   21.7104 O   0  0  0  0  0  0  0  0  0  0  0  0
    6.9895    3.2085   23.0690 C   0  0  0  0  0  0  0  0  0  0  0  0
    7.8391    2.2253   22.7260 N   0  0  0  0  0  0  0  0  0  0  0  0
    8.6968    9.8373   23.6359 C   0  0  0  0  0  0  0  0  0  0  0  0
   12.5135    6.5957   21.8396 C   0  0  0  0  0  0  0  0  0  0  0  0
   10.9406    8.2330   21.1350 C   0  0  0  0  0  0  0  0  0  0  0  0
    9.6648    8.5956   21.7310 C   0  0  0  0  0  0  0  0  0  0  0  0
   10.8829    1.7153   20.9865 C   0  0  0  0  0  0  0  0  0  0  0  0
    5.7768    2.8533   23.7910 C   0  0  0  0  0  0  0  0  0  0  0  0
    9.7977    1.4791   21.6912 N   0  0  0  0  0  0  0  0  0  0  0  0
    6.5976    9.3401   22.6478 N   0  0  0  0  0  0  0  0  0  0  0  0
   11.2031    3.0042   20.6246 C   0  0  0  0  0  0  0  0  0  0  0  0
   12.8688    7.7370   22.7287 C   0  0  0  0  0  0  0  0  0  0  0  0
    7.4487    9.1361   23.6506 C   0  0  0  0  0  0  0  0  0  0  0  0
    8.9772    2.5025   22.0273 C   0  0  0  0  0  0  0  0  0  0  0  0
   10.4859    4.0901   20.9730 C   0  0  0  0  0  0  0  0  0  0  0  0
   11.0962    9.3293   23.5072 C   0  0  0  0  0  0  0  0  0  0  0  0
    5.1273    7.8529   23.6208 N   0  0  0  0  0  0  0  0  0  0  0  0
    9.7552    9.2338   23.0171 N   0  0  0  0  0  0  0  0  0  0  0  0
   11.1797    6.7591   21.3326 N   0  0  0  0  0  0  0  0  0  0  0  0
   11.7728    8.0337   23.7267 C   0  0  0  0  0  0  0  0  0  0  0  0
    7.1194    8.3344   24.6775 C   0  0  0  0  0  0  0  0  0  0  0  0
    8.4311    4.7963   22.0500 C   0  0  0  0  0  0  0  0  0  0  0  0
    8.7393   10.8706   24.1871 O   0  0  0  0  0  0  0  0  0  0  0  0
    9.3093    3.8166   21.6712 C   0  0  0  0  0  0  0  0  0  0  0  0
  1  5  1  0
  1 15  4  0
  1 22  4  0
  2 20  1  0
  2 24  1  0
  3  6  4  0
  3 27  4  0
  4 22  4  0
  4 26  4  0
  6  7  4  0
  6 13  1  0
  7 19  4  0
  8 18  1  0
  8 23  1  0
  8 28  2  0
  9 17  1  0
  9 24  1  0
 10 11  1  0
 10 24  1  0
 11 23  1  0
 12 14  4  0
 12 16  4  0
 14 19  4  0
 15 18  4  0
 16 20  4  0
 17 25  1  0
 18 26  4  0
 19 29  4  0
 20 29  4  0
 21 23  1  0
 21 25  1  0
 27 29  4  0
M  END
$$$$

 Created by Python create_sdf_string function

 29 32  0  0  0  0  0  0  0  0999 V2000
    5.4450    8.7154   22.6662 C   0  0  0  0  0  0  0  0  0  0  0  0
   10.9154    5.4574   20.5483 C   0  0  0  0  0  0  0  0  0  0  0  0
    7.2709    4.5089   22.7542 C   0  0  0  0  0  0  0  0  0  0  0  0
    5.9698    7.6329   24.6581 C   0  0  0  0  0  0  0  0  0  0  0  0
    4.5542    8.9057   21.7104 O   0  0  0  0  0  0  0  0  0  0  0  0
    6.9895    3.2085   23.0690 C   0  0  0  0  0  0  0  0  0  0  0  0
    7.8391    2.2253   22.7260 N   0  0  0  0  0  0  0  0  0  0  0  0
    8.6968    9.8373   23.6359 C   0  0  0  0  0  0  0  0  0  0  0  0
   12.5135    6.5957   21.8396 C   0  0  0  0  0  0  0  0  0  0  0  0
   10.9406    8.2330   21.1350 C   0  0  0  0  0  0  0  0  0  0  0  0
    9.6648    8.5956   21.7310 C   0  0  0  0  0  0  0  0  0  0  0  0
   10.8829    1.7153   20.9865 C   0  0  0  0  0  0  0  0  0  0  0  0
    5.7768    2.8533   23.7910 C   0  0  0  0  0  0  0  0  0  0  0  0
    9.7977    1.4791   21.6912 N   0  0  0  0  0  0  0  0  0  0  0  0
    6.5976    9.3401   22.6478 N   0  0  0  0  0  0  0  0  0  0  0  0
   11.2031    3.0042   20.6246 C   0  0  0  0  0  0  0  0  0  0  0  0
   12.8688    7.7370   22.7287 C   0  0  0  0  0  0  0  0  0  0  0  0
    7.4487    9.1361   23.6506 C   0  0  0  0  0  0  0  0  0  0  0  0
    8.9772    2.5025   22.0273 C   0  0  0  0  0  0  0  0  0  0  0  0
   10.4859    4.0901   20.9730 C   0  0  0  0  0  0  0  0  0  0  0  0
   11.0962    9.3293   23.5072 C   0  0  0  0  0  0  0  0  0  0  0  0
    5.1273    7.8529   23.6208 N   0  0  0  0  0  0  0  0  0  0  0  0
    9.7552    9.2338   23.0171 N   0  0  0  0  0  0  0  0  0  0  0  0
   11.1797    6.7591   21.3326 N   0  0  0  0  0  0  0  0  0  0  0  0
   11.7728    8.0337   23.7267 C   0  0  0  0  0  0  0  0  0  0  0  0
    7.1194    8.3344   24.6775 C   0  0  0  0  0  0  0  0  0  0  0  0
    8.4311    4.7963   22.0500 C   0  0  0  0  0  0  0  0  0  0  0  0
    8.7393   10.8706   24.1871 O   0  0  0  0  0  0  0  0  0  0  0  0
    9.3093    3.8166   21.6712 C   0  0  0  0  0  0  0  0  0  0  0  0
  1  5  1  0
  1 15  4  0
  1 22  4  0
  2 20  1  0
  2 24  1  0
  3  6  4  0
  3 27  4  0
  4 22  4  0
  4 26  4  0
  6  7  4  0
  6 13  1  0
  7 19  4  0
  8 18  1  0
  8 23  1  0
  8 28  2  0
  9 17  1  0
  9 24  1  0
 10 11  1  0
 10 24  1  0
 11 23  1  0
 12 14  4  0
 12 16  4  0
 14 19  4  0
 15 18  4  0
 16 20  4  0
 17 25  1  0
 18 26  4  0
 19 29  4  0
 20 29  4  0
 21 23  1  0
 21 25  1  0
 27 29  4  0
M  END
$$$$

 Created by Python create_sdf_string function

 29 32  0  0  0  0  0  0  0  0999 V2000
    5.4450    8.7154   22.6662 C   0  0  0  0  0  0  0  0  0  0  0  0
   10.9154    5.4574   20.5483 C   0  0  0  0  0  0  0  0  0  0  0  0
    7.2709    4.5089   22.7542 C   0  0  0  0  0  0  0  0  0  0  0  0
    5.9698    7.6329   24.6581 C   0  0  0  0  0  0  0  0  0  0  0  0
    4.5542    8.9057   21.7104 O   0  0  0  0  0  0  0  0  0  0  0  0
    6.9895    3.2085   23.0690 C   0  0  0  0  0  0  0  0  0  0  0  0
    7.8391    2.2253   22.7260 N   0  0  0  0  0  0  0  0  0  0  0  0
    8.6968    9.8373   23.6359 C   0  0  0  0  0  0  0  0  0  0  0  0
   12.5135    6.5957   21.8396 C   0  0  0  0  0  0  0  0  0  0  0  0
   10.9406    8.2330   21.1350 C   0  0  0  0  0  0  0  0  0  0  0  0
    9.6648    8.5956   21.7310 C   0  0  0  0  0  0  0  0  0  0  0  0
   10.8829    1.7153   20.9865 C   0  0  0  0  0  0  0  0  0  0  0  0
    5.7768    2.8533   23.7910 C   0  0  0  0  0  0  0  0  0  0  0  0
    9.7977    1.4791   21.6912 N   0  0  0  0  0  0  0  0  0  0  0  0
    6.5976    9.3401   22.6478 N   0  0  0  0  0  0  0  0  0  0  0  0
   11.2031    3.0042   20.6246 C   0  0  0  0  0  0  0  0  0  0  0  0
   12.8688    7.7370   22.7287 C   0  0  0  0  0  0  0  0  0  0  0  0
    7.4487    9.1361   23.6506 C   0  0  0  0  0  0  0  0  0  0  0  0
    8.9772    2.5025   22.0273 C   0  0  0  0  0  0  0  0  0  0  0  0
   10.4859    4.0901   20.9730 C   0  0  0  0  0  0  0  0  0  0  0  0
   11.0962    9.3293   23.5072 C   0  0  0  0  0  0  0  0  0  0  0  0
    5.1273    7.8529   23.6208 N   0  0  0  0  0  0  0  0  0  0  0  0
    9.7552    9.2338   23.0171 N   0  0  0  0  0  0  0  0  0  0  0  0
   11.1797    6.7591   21.3326 N   0  0  0  0  0  0  0  0  0  0  0  0
   11.7728    8.0337   23.7267 C   0  0  0  0  0  0  0  0  0  0  0  0
    7.1194    8.3344   24.6775 C   0  0  0  0  0  0  0  0  0  0  0  0
    8.4311    4.7963   22.0500 C   0  0  0  0  0  0  0  0  0  0  0  0
    8.7393   10.8706   24.1871 O   0  0  0  0  0  0  0  0  0  0  0  0
    9.3093    3.8166   21.6712 C   0  0  0  0  0  0  0  0  0  0  0  0
  1  5  1  0
  1 15  4  0
  1 22  4  0
  2 20  1  0
  2 24  1  0
  3  6  4  0
  3 27  4  0
  4 22  4  0
  4 26  4  0
  6  7  4  0
  6 13  1  0
  7 19  4  0
  8 18  1  0
  8 23  1  0
  8 28  2  0
  9 17  1  0
  9 24  1  0
 10 11  1  0
 10 24  1  0
 11 23  1  0
 12 14  4  0
 12 16  4  0
 14 19  4  0
 15 18  4  0
 16 20  4  0
 17 25  1  0
 18 26  4  0
 19 29  4  0
 20 29  4  0
 21 23  1  0
 21 25  1  0
 27 29  4  0
M  END
$$$$

 Created by Python create_sdf_string function

 29 32  0  0  0  0  0  0  0  0999 V2000
    5.4450    8.7154   22.6662 C   0  0  0  0  0  0  0  0  0  0  0  0
   10.9154    5.4574   20.5483 C   0  0  0  0  0  0  0  0  0  0  0  0
    7.2709    4.5089   22.7542 C   0  0  0  0  0  0  0  0  0  0  0  0
    5.9698    7.6329   24.6581 C   0  0  0  0  0  0  0  0  0  0  0  0
    4.5542    8.9057   21.7104 O   0  0  0  0  0  0  0  0  0  0  0  0
    6.9895    3.2085   23.0690 C   0  0  0  0  0  0  0  0  0  0  0  0
    7.8391    2.2253   22.7260 N   0  0  0  0  0  0  0  0  0  0  0  0
    8.6968    9.8373   23.6359 C   0  0  0  0  0  0  0  0  0  0  0  0
   12.5135    6.5957   21.8396 C   0  0  0  0  0  0  0  0  0  0  0  0
   10.9406    8.2330   21.1350 C   0  0  0  0  0  0  0  0  0  0  0  0
    9.6648    8.5956   21.7310 C   0  0  0  0  0  0  0  0  0  0  0  0
   10.8829    1.7153   20.9865 C   0  0  0  0  0  0  0  0  0  0  0  0
    5.7768    2.8533   23.7910 C   0  0  0  0  0  0  0  0  0  0  0  0
    9.7977    1.4791   21.6912 N   0  0  0  0  0  0  0  0  0  0  0  0
    6.5976    9.3401   22.6478 N   0  0  0  0  0  0  0  0  0  0  0  0
   11.2031    3.0042   20.6246 C   0  0  0  0  0  0  0  0  0  0  0  0
   12.8688    7.7370   22.7287 C   0  0  0  0  0  0  0  0  0  0  0  0
    7.4487    9.1361   23.6506 C   0  0  0  0  0  0  0  0  0  0  0  0
    8.9772    2.5025   22.0273 C   0  0  0  0  0  0  0  0  0  0  0  0
   10.4859    4.0901   20.9730 C   0  0  0  0  0  0  0  0  0  0  0  0
   11.0962    9.3293   23.5072 C   0  0  0  0  0  0  0  0  0  0  0  0
    5.1273    7.8529   23.6208 N   0  0  0  0  0  0  0  0  0  0  0  0
    9.7552    9.2338   23.0171 N   0  0  0  0  0  0  0  0  0  0  0  0
   11.1797    6.7591   21.3326 N   0  0  0  0  0  0  0  0  0  0  0  0
   11.7728    8.0337   23.7267 C   0  0  0  0  0  0  0  0  0  0  0  0
    7.1194    8.3344   24.6775 C   0  0  0  0  0  0  0  0  0  0  0  0
    8.4311    4.7963   22.0500 C   0  0  0  0  0  0  0  0  0  0  0  0
    8.7393   10.8706   24.1871 O   0  0  0  0  0  0  0  0  0  0  0  0
    9.3093    3.8166   21.6712 C   0  0  0  0  0  0  0  0  0  0  0  0
  1  5  1  0
  1 15  4  0
  1 22  4  0
  2 20  1  0
  2 24  1  0
  3  6  4  0
  3 27  4  0
  4 22  4  0
  4 26  4  0
  6  7  4  0
  6 13  1  0
  7 19  4  0
  8 18  1  0
  8 23  1  0
  8 28  2  0
  9 17  1  0
  9 24  1  0
 10 11  1  0
 10 24  1  0
 11 23  1  0
 12 14  4  0
 12 16  4  0
 14 19  4  0
 15 18  4  0
 16 20  4  0
 17 25  1  0
 18 26  4  0
 19 29  4  0
 20 29  4  0
 21 23  1  0
 21 25  1  0
 27 29  4  0
M  END
$$$$

 Created by Python create_sdf_string function

 29 32  0  0  0  0  0  0  0  0999 V2000
    5.4450    8.7154   22.6662 C   0  0  0  0  0  0  0  0  0  0  0  0
   10.9154    5.4574   20.5483 C   0  0  0  0  0  0  0  0  0  0  0  0
    7.2709    4.5089   22.7542 C   0  0  0  0  0  0  0  0  0  0  0  0
    5.9698    7.6329   24.6581 C   0  0  0  0  0  0  0  0  0  0  0  0
    4.5542    8.9057   21.7104 O   0  0  0  0  0  0  0  0  0  0  0  0
    6.9895    3.2085   23.0690 C   0  0  0  0  0  0  0  0  0  0  0  0
    7.8391    2.2253   22.7260 N   0  0  0  0  0  0  0  0  0  0  0  0
    8.6968    9.8373   23.6359 C   0  0  0  0  0  0  0  0  0  0  0  0
   12.5135    6.5957   21.8396 C   0  0  0  0  0  0  0  0  0  0  0  0
   10.9406    8.2330   21.1350 C   0  0  0  0  0  0  0  0  0  0  0  0
    9.6648    8.5956   21.7310 C   0  0  0  0  0  0  0  0  0  0  0  0
   10.8829    1.7153   20.9865 C   0  0  0  0  0  0  0  0  0  0  0  0
    5.7768    2.8533   23.7910 C   0  0  0  0  0  0  0  0  0  0  0  0
    9.7977    1.4791   21.6912 N   0  0  0  0  0  0  0  0  0  0  0  0
    6.5976    9.3401   22.6478 N   0  0  0  0  0  0  0  0  0  0  0  0
   11.2031    3.0042   20.6246 C   0  0  0  0  0  0  0  0  0  0  0  0
   12.8688    7.7370   22.7287 C   0  0  0  0  0  0  0  0  0  0  0  0
    7.4487    9.1361   23.6506 C   0  0  0  0  0  0  0  0  0  0  0  0
    8.9772    2.5025   22.0273 C   0  0  0  0  0  0  0  0  0  0  0  0
   10.4859    4.0901   20.9730 C   0  0  0  0  0  0  0  0  0  0  0  0
   11.0962    9.3293   23.5072 C   0  0  0  0  0  0  0  0  0  0  0  0
    5.1273    7.8529   23.6208 N   0  0  0  0  0  0  0  0  0  0  0  0
    9.7552    9.2338   23.0171 N   0  0  0  0  0  0  0  0  0  0  0  0
   11.1797    6.7591   21.3326 N   0  0  0  0  0  0  0  0  0  0  0  0
   11.7728    8.0337   23.7267 C   0  0  0  0  0  0  0  0  0  0  0  0
    7.1194    8.3344   24.6775 C   0  0  0  0  0  0  0  0  0  0  0  0
    8.4311    4.7963   22.0500 C   0  0  0  0  0  0  0  0  0  0  0  0
    8.7393   10.8706   24.1871 O   0  0  0  0  0  0  0  0  0  0  0  0
    9.3093    3.8166   21.6712 C   0  0  0  0  0  0  0  0  0  0  0  0
  1  5  1  0
  1 15  4  0
  1 22  4  0
  2 20  1  0
  2 24  1  0
  3  6  4  0
  3 27  4  0
  4 22  4  0
  4 26  4  0
  6  7  4  0
  6 13  1  0
  7 19  4  0
  8 18  1  0
  8 23  1  0
  8 28  2  0
  9 17  1  0
  9 24  1  0
 10 11  1  0
 10 24  1  0
 11 23  1  0
 12 14  4  0
 12 16  4  0
 14 19  4  0
 15 18  4  0
 16 20  4  0
 17 25  1  0
 18 26  4  0
 19 29  4  0
 20 29  4  0
 21 23  1  0
 21 25  1  0
 27 29  4  0
M  END
$$$$

 Created by Python create_sdf_string function

 29 32  0  0  0  0  0  0  0  0999 V2000
    5.4450    8.7154   22.6662 C   0  0  0  0  0  0  0  0  0  0  0  0
   10.9154    5.4574   20.5483 C   0  0  0  0  0  0  0  0  0  0  0  0
    7.2709    4.5089   22.7542 C   0  0  0  0  0  0  0  0  0  0  0  0
    5.9698    7.6329   24.6581 C   0  0  0  0  0  0  0  0  0  0  0  0
    4.5542    8.9057   21.7104 O   0  0  0  0  0  0  0  0  0  0  0  0
    6.9895    3.2085   23.0690 C   0  0  0  0  0  0  0  0  0  0  0  0
    7.8391    2.2253   22.7260 N   0  0  0  0  0  0  0  0  0  0  0  0
    8.6968    9.8373   23.6359 C   0  0  0  0  0  0  0  0  0  0  0  0
   12.5135    6.5957   21.8396 C   0  0  0  0  0  0  0  0  0  0  0  0
   10.9406    8.2330   21.1350 C   0  0  0  0  0  0  0  0  0  0  0  0
    9.6648    8.5956   21.7310 C   0  0  0  0  0  0  0  0  0  0  0  0
   10.8829    1.7153   20.9865 C   0  0  0  0  0  0  0  0  0  0  0  0
    5.7768    2.8533   23.7910 C   0  0  0  0  0  0  0  0  0  0  0  0
    9.7977    1.4791   21.6912 N   0  0  0  0  0  0  0  0  0  0  0  0
    6.5976    9.3401   22.6478 N   0  0  0  0  0  0  0  0  0  0  0  0
   11.2031    3.0042   20.6246 C   0  0  0  0  0  0  0  0  0  0  0  0
   12.8688    7.7370   22.7287 C   0  0  0  0  0  0  0  0  0  0  0  0
    7.4487    9.1361   23.6506 C   0  0  0  0  0  0  0  0  0  0  0  0
    8.9772    2.5025   22.0273 C   0  0  0  0  0  0  0  0  0  0  0  0
   10.4859    4.0901   20.9730 C   0  0  0  0  0  0  0  0  0  0  0  0
   11.0962    9.3293   23.5072 C   0  0  0  0  0  0  0  0  0  0  0  0
    5.1273    7.8529   23.6208 N   0  0  0  0  0  0  0  0  0  0  0  0
    9.7552    9.2338   23.0171 N   0  0  0  0  0  0  0  0  0  0  0  0
   11.1797    6.7591   21.3326 N   0  0  0  0  0  0  0  0  0  0  0  0
   11.7728    8.0337   23.7267 C   0  0  0  0  0  0  0  0  0  0  0  0
    7.1194    8.3344   24.6775 C   0  0  0  0  0  0  0  0  0  0  0  0
    8.4311    4.7963   22.0500 C   0  0  0  0  0  0  0  0  0  0  0  0
    8.7393   10.8706   24.1871 O   0  0  0  0  0  0  0  0  0  0  0  0
    9.3093    3.8166   21.6712 C   0  0  0  0  0  0  0  0  0  0  0  0
  1  5  1  0
  1 15  4  0
  1 22  4  0
  2 20  1  0
  2 24  1  0
  3  6  4  0
  3 27  4  0
  4 22  4  0
  4 26  4  0
  6  7  4  0
  6 13  1  0
  7 19  4  0
  8 18  1  0
  8 23  1  0
  8 28  2  0
  9 17  1  0
  9 24  1  0
 10 11  1  0
 10 24  1  0
 11 23  1  0
 12 14  4  0
 12 16  4  0
 14 19  4  0
 15 18  4  0
 16 20  4  0
 17 25  1  0
 18 26  4  0
 19 29  4  0
 20 29  4  0
 21 23  1  0
 21 25  1  0
 27 29  4  0
M  END
$$$$

 Created by Python create_sdf_string function

 29 32  0  0  0  0  0  0  0  0999 V2000
    5.4450    8.7154   22.6662 C   0  0  0  0  0  0  0  0  0  0  0  0
   10.9154    5.4574   20.5483 C   0  0  0  0  0  0  0  0  0  0  0  0
    7.2709    4.5089   22.7542 C   0  0  0  0  0  0  0  0  0  0  0  0
    5.9698    7.6329   24.6581 C   0  0  0  0  0  0  0  0  0  0  0  0
    4.5542    8.9057   21.7104 O   0  0  0  0  0  0  0  0  0  0  0  0
    6.9895    3.2085   23.0690 C   0  0  0  0  0  0  0  0  0  0  0  0
    7.8391    2.2253   22.7260 N   0  0  0  0  0  0  0  0  0  0  0  0
    8.6968    9.8373   23.6359 C   0  0  0  0  0  0  0  0  0  0  0  0
   12.5135    6.5957   21.8396 C   0  0  0  0  0  0  0  0  0  0  0  0
   10.9406    8.2330   21.1350 C   0  0  0  0  0  0  0  0  0  0  0  0
    9.6648    8.5956   21.7310 C   0  0  0  0  0  0  0  0  0  0  0  0
   10.8829    1.7153   20.9865 C   0  0  0  0  0  0  0  0  0  0  0  0
    5.7768    2.8533   23.7910 C   0  0  0  0  0  0  0  0  0  0  0  0
    9.7977    1.4791   21.6912 N   0  0  0  0  0  0  0  0  0  0  0  0
    6.5976    9.3401   22.6478 N   0  0  0  0  0  0  0  0  0  0  0  0
   11.2031    3.0042   20.6246 C   0  0  0  0  0  0  0  0  0  0  0  0
   12.8688    7.7370   22.7287 C   0  0  0  0  0  0  0  0  0  0  0  0
    7.4487    9.1361   23.6506 C   0  0  0  0  0  0  0  0  0  0  0  0
    8.9772    2.5025   22.0273 C   0  0  0  0  0  0  0  0  0  0  0  0
   10.4859    4.0901   20.9730 C   0  0  0  0  0  0  0  0  0  0  0  0
   11.0962    9.3293   23.5072 C   0  0  0  0  0  0  0  0  0  0  0  0
    5.1273    7.8529   23.6208 N   0  0  0  0  0  0  0  0  0  0  0  0
    9.7552    9.2338   23.0171 N   0  0  0  0  0  0  0  0  0  0  0  0
   11.1797    6.7591   21.3326 N   0  0  0  0  0  0  0  0  0  0  0  0
   11.7728    8.0337   23.7267 C   0  0  0  0  0  0  0  0  0  0  0  0
    7.1194    8.3344   24.6775 C   0  0  0  0  0  0  0  0  0  0  0  0
    8.4311    4.7963   22.0500 C   0  0  0  0  0  0  0  0  0  0  0  0
    8.7393   10.8706   24.1871 O   0  0  0  0  0  0  0  0  0  0  0  0
    9.3093    3.8166   21.6712 C   0  0  0  0  0  0  0  0  0  0  0  0
  1  5  1  0
  1 15  4  0
  1 22  4  0
  2 20  1  0
  2 24  1  0
  3  6  4  0
  3 27  4  0
  4 22  4  0
  4 26  4  0
  6  7  4  0
  6 13  1  0
  7 19  4  0
  8 18  1  0
  8 23  1  0
  8 28  2  0
  9 17  1  0
  9 24  1  0
 10 11  1  0
 10 24  1  0
 11 23  1  0
 12 14  4  0
 12 16  4  0
 14 19  4  0
 15 18  4  0
 16 20  4  0
 17 25  1  0
 18 26  4  0
 19 29  4  0
 20 29  4  0
 21 23  1  0
 21 25  1  0
 27 29  4  0
M  END
$$$$

 Created by Python create_sdf_string function

 29 32  0  0  0  0  0  0  0  0999 V2000
    5.4450    8.7154   22.6662 C   0  0  0  0  0  0  0  0  0  0  0  0
   10.9154    5.4574   20.5483 C   0  0  0  0  0  0  0  0  0  0  0  0
    7.2709    4.5089   22.7542 C   0  0  0  0  0  0  0  0  0  0  0  0
    5.9698    7.6329   24.6581 C   0  0  0  0  0  0  0  0  0  0  0  0
    4.5542    8.9057   21.7104 O   0  0  0  0  0  0  0  0  0  0  0  0
    6.9895    3.2085   23.0690 C   0  0  0  0  0  0  0  0  0  0  0  0
    7.8391    2.2253   22.7260 N   0  0  0  0  0  0  0  0  0  0  0  0
    8.6968    9.8373   23.6359 C   0  0  0  0  0  0  0  0  0  0  0  0
   12.5135    6.5957   21.8396 C   0  0  0  0  0  0  0  0  0  0  0  0
   10.9406    8.2330   21.1350 C   0  0  0  0  0  0  0  0  0  0  0  0
    9.6648    8.5956   21.7310 C   0  0  0  0  0  0  0  0  0  0  0  0
   10.8829    1.7153   20.9865 C   0  0  0  0  0  0  0  0  0  0  0  0
    5.7768    2.8533   23.7910 C   0  0  0  0  0  0  0  0  0  0  0  0
    9.7977    1.4791   21.6912 N   0  0  0  0  0  0  0  0  0  0  0  0
    6.5976    9.3401   22.6478 N   0  0  0  0  0  0  0  0  0  0  0  0
   11.2031    3.0042   20.6246 C   0  0  0  0  0  0  0  0  0  0  0  0
   12.8688    7.7370   22.7287 C   0  0  0  0  0  0  0  0  0  0  0  0
    7.4487    9.1361   23.6506 C   0  0  0  0  0  0  0  0  0  0  0  0
    8.9772    2.5025   22.0273 C   0  0  0  0  0  0  0  0  0  0  0  0
   10.4859    4.0901   20.9730 C   0  0  0  0  0  0  0  0  0  0  0  0
   11.0962    9.3293   23.5072 C   0  0  0  0  0  0  0  0  0  0  0  0
    5.1273    7.8529   23.6208 N   0  0  0  0  0  0  0  0  0  0  0  0
    9.7552    9.2338   23.0171 N   0  0  0  0  0  0  0  0  0  0  0  0
   11.1797    6.7591   21.3326 N   0  0  0  0  0  0  0  0  0  0  0  0
   11.7728    8.0337   23.7267 C   0  0  0  0  0  0  0  0  0  0  0  0
    7.1194    8.3344   24.6775 C   0  0  0  0  0  0  0  0  0  0  0  0
    8.4311    4.7963   22.0500 C   0  0  0  0  0  0  0  0  0  0  0  0
    8.7393   10.8706   24.1871 O   0  0  0  0  0  0  0  0  0  0  0  0
    9.3093    3.8166   21.6712 C   0  0  0  0  0  0  0  0  0  0  0  0
  1  5  1  0
  1 15  4  0
  1 22  4  0
  2 20  1  0
  2 24  1  0
  3  6  4  0
  3 27  4  0
  4 22  4  0
  4 26  4  0
  6  7  4  0
  6 13  1  0
  7 19  4  0
  8 18  1  0
  8 23  1  0
  8 28  2  0
  9 17  1  0
  9 24  1  0
 10 11  1  0
 10 24  1  0
 11 23  1  0
 12 14  4  0
 12 16  4  0
 14 19  4  0
 15 18  4  0
 16 20  4  0
 17 25  1  0
 18 26  4  0
 19 29  4  0
 20 29  4  0
 21 23  1  0
 21 25  1  0
 27 29  4  0
M  END
$$$$

 Created by Python create_sdf_string function

 29 32  0  0  0  0  0  0  0  0999 V2000
    5.4450    8.7154   22.6662 C   0  0  0  0  0  0  0  0  0  0  0  0
   10.9154    5.4574   20.5483 C   0  0  0  0  0  0  0  0  0  0  0  0
    7.2709    4.5089   22.7542 C   0  0  0  0  0  0  0  0  0  0  0  0
    5.9698    7.6329   24.6581 C   0  0  0  0  0  0  0  0  0  0  0  0
    4.5542    8.9057   21.7104 O   0  0  0  0  0  0  0  0  0  0  0  0
    6.9895    3.2085   23.0690 C   0  0  0  0  0  0  0  0  0  0  0  0
    7.8391    2.2253   22.7260 N   0  0  0  0  0  0  0  0  0  0  0  0
    8.6968    9.8373   23.6359 C   0  0  0  0  0  0  0  0  0  0  0  0
   12.5135    6.5957   21.8396 C   0  0  0  0  0  0  0  0  0  0  0  0
   10.9406    8.2330   21.1350 C   0  0  0  0  0  0  0  0  0  0  0  0
    9.6648    8.5956   21.7310 C   0  0  0  0  0  0  0  0  0  0  0  0
   10.8829    1.7153   20.9865 C   0  0  0  0  0  0  0  0  0  0  0  0
    5.7768    2.8533   23.7910 C   0  0  0  0  0  0  0  0  0  0  0  0
    9.7977    1.4791   21.6912 N   0  0  0  0  0  0  0  0  0  0  0  0
    6.5976    9.3401   22.6478 N   0  0  0  0  0  0  0  0  0  0  0  0
   11.2031    3.0042   20.6246 C   0  0  0  0  0  0  0  0  0  0  0  0
   12.8688    7.7370   22.7287 C   0  0  0  0  0  0  0  0  0  0  0  0
    7.4487    9.1361   23.6506 C   0  0  0  0  0  0  0  0  0  0  0  0
    8.9772    2.5025   22.0273 C   0  0  0  0  0  0  0  0  0  0  0  0
   10.4859    4.0901   20.9730 C   0  0  0  0  0  0  0  0  0  0  0  0
   11.0962    9.3293   23.5072 C   0  0  0  0  0  0  0  0  0  0  0  0
    5.1273    7.8529   23.6208 N   0  0  0  0  0  0  0  0  0  0  0  0
    9.7552    9.2338   23.0171 N   0  0  0  0  0  0  0  0  0  0  0  0
   11.1797    6.7591   21.3326 N   0  0  0  0  0  0  0  0  0  0  0  0
   11.7728    8.0337   23.7267 C   0  0  0  0  0  0  0  0  0  0  0  0
    7.1194    8.3344   24.6775 C   0  0  0  0  0  0  0  0  0  0  0  0
    8.4311    4.7963   22.0500 C   0  0  0  0  0  0  0  0  0  0  0  0
    8.7393   10.8706   24.1871 O   0  0  0  0  0  0  0  0  0  0  0  0
    9.3093    3.8166   21.6712 C   0  0  0  0  0  0  0  0  0  0  0  0
  1  5  1  0
  1 15  4  0
  1 22  4  0
  2 20  1  0
  2 24  1  0
  3  6  4  0
  3 27  4  0
  4 22  4  0
  4 26  4  0
  6  7  4  0
  6 13  1  0
  7 19  4  0
  8 18  1  0
  8 23  1  0
  8 28  2  0
  9 17  1  0
  9 24  1  0
 10 11  1  0
 10 24  1  0
 11 23  1  0
 12 14  4  0
 12 16  4  0
 14 19  4  0
 15 18  4  0
 16 20  4  0
 17 25  1  0
 18 26  4  0
 19 29  4  0
 20 29  4  0
 21 23  1  0
 21 25  1  0
 27 29  4  0
M  END
$$$$

 Created by Python create_sdf_string function

 29 32  0  0  0  0  0  0  0  0999 V2000
    5.4450    8.7154   22.6662 C   0  0  0  0  0  0  0  0  0  0  0  0
   10.9154    5.4574   20.5483 C   0  0  0  0  0  0  0  0  0  0  0  0
    7.2709    4.5089   22.7542 C   0  0  0  0  0  0  0  0  0  0  0  0
    5.9698    7.6329   24.6581 C   0  0  0  0  0  0  0  0  0  0  0  0
    4.5542    8.9057   21.7104 O   0  0  0  0  0  0  0  0  0  0  0  0
    6.9895    3.2085   23.0690 C   0  0  0  0  0  0  0  0  0  0  0  0
    7.8391    2.2253   22.7260 N   0  0  0  0  0  0  0  0  0  0  0  0
    8.6968    9.8373   23.6359 C   0  0  0  0  0  0  0  0  0  0  0  0
   12.5135    6.5957   21.8396 C   0  0  0  0  0  0  0  0  0  0  0  0
   10.9406    8.2330   21.1350 C   0  0  0  0  0  0  0  0  0  0  0  0
    9.6648    8.5956   21.7310 C   0  0  0  0  0  0  0  0  0  0  0  0
   10.8829    1.7153   20.9865 C   0  0  0  0  0  0  0  0  0  0  0  0
    5.7768    2.8533   23.7910 C   0  0  0  0  0  0  0  0  0  0  0  0
    9.7977    1.4791   21.6912 N   0  0  0  0  0  0  0  0  0  0  0  0
    6.5976    9.3401   22.6478 N   0  0  0  0  0  0  0  0  0  0  0  0
   11.2031    3.0042   20.6246 C   0  0  0  0  0  0  0  0  0  0  0  0
   12.8688    7.7370   22.7287 C   0  0  0  0  0  0  0  0  0  0  0  0
    7.4487    9.1361   23.6506 C   0  0  0  0  0  0  0  0  0  0  0  0
    8.9772    2.5025   22.0273 C   0  0  0  0  0  0  0  0  0  0  0  0
   10.4859    4.0901   20.9730 C   0  0  0  0  0  0  0  0  0  0  0  0
   11.0962    9.3293   23.5072 C   0  0  0  0  0  0  0  0  0  0  0  0
    5.1273    7.8529   23.6208 N   0  0  0  0  0  0  0  0  0  0  0  0
    9.7552    9.2338   23.0171 N   0  0  0  0  0  0  0  0  0  0  0  0
   11.1797    6.7591   21.3326 N   0  0  0  0  0  0  0  0  0  0  0  0
   11.7728    8.0337   23.7267 C   0  0  0  0  0  0  0  0  0  0  0  0
    7.1194    8.3344   24.6775 C   0  0  0  0  0  0  0  0  0  0  0  0
    8.4311    4.7963   22.0500 C   0  0  0  0  0  0  0  0  0  0  0  0
    8.7393   10.8706   24.1871 O   0  0  0  0  0  0  0  0  0  0  0  0
    9.3093    3.8166   21.6712 C   0  0  0  0  0  0  0  0  0  0  0  0
  1  5  1  0
  1 15  4  0
  1 22  4  0
  2 20  1  0
  2 24  1  0
  3  6  4  0
  3 27  4  0
  4 22  4  0
  4 26  4  0
  6  7  4  0
  6 13  1  0
  7 19  4  0
  8 18  1  0
  8 23  1  0
  8 28  2  0
  9 17  1  0
  9 24  1  0
 10 11  1  0
 10 24  1  0
 11 23  1  0
 12 14  4  0
 12 16  4  0
 14 19  4  0
 15 18  4  0
 16 20  4  0
 17 25  1  0
 18 26  4  0
 19 29  4  0
 20 29  4  0
 21 23  1  0
 21 25  1  0
 27 29  4  0
M  END
$$$$

 Created by Python create_sdf_string function

 29 32  0  0  0  0  0  0  0  0999 V2000
    5.4450    8.7154   22.6662 C   0  0  0  0  0  0  0  0  0  0  0  0
   10.9154    5.4574   20.5483 C   0  0  0  0  0  0  0  0  0  0  0  0
    7.2709    4.5089   22.7542 C   0  0  0  0  0  0  0  0  0  0  0  0
    5.9698    7.6329   24.6581 C   0  0  0  0  0  0  0  0  0  0  0  0
    4.5542    8.9057   21.7104 O   0  0  0  0  0  0  0  0  0  0  0  0
    6.9895    3.2085   23.0690 C   0  0  0  0  0  0  0  0  0  0  0  0
    7.8391    2.2253   22.7260 N   0  0  0  0  0  0  0  0  0  0  0  0
    8.6968    9.8373   23.6359 C   0  0  0  0  0  0  0  0  0  0  0  0
   12.5135    6.5957   21.8396 C   0  0  0  0  0  0  0  0  0  0  0  0
   10.9406    8.2330   21.1350 C   0  0  0  0  0  0  0  0  0  0  0  0
    9.6648    8.5956   21.7310 C   0  0  0  0  0  0  0  0  0  0  0  0
   10.8829    1.7153   20.9865 C   0  0  0  0  0  0  0  0  0  0  0  0
    5.7768    2.8533   23.7910 C   0  0  0  0  0  0  0  0  0  0  0  0
    9.7977    1.4791   21.6912 N   0  0  0  0  0  0  0  0  0  0  0  0
    6.5976    9.3401   22.6478 N   0  0  0  0  0  0  0  0  0  0  0  0
   11.2031    3.0042   20.6246 C   0  0  0  0  0  0  0  0  0  0  0  0
   12.8688    7.7370   22.7287 C   0  0  0  0  0  0  0  0  0  0  0  0
    7.4487    9.1361   23.6506 C   0  0  0  0  0  0  0  0  0  0  0  0
    8.9772    2.5025   22.0273 C   0  0  0  0  0  0  0  0  0  0  0  0
   10.4859    4.0901   20.9730 C   0  0  0  0  0  0  0  0  0  0  0  0
   11.0962    9.3293   23.5072 C   0  0  0  0  0  0  0  0  0  0  0  0
    5.1273    7.8529   23.6208 N   0  0  0  0  0  0  0  0  0  0  0  0
    9.7552    9.2338   23.0171 N   0  0  0  0  0  0  0  0  0  0  0  0
   11.1797    6.7591   21.3326 N   0  0  0  0  0  0  0  0  0  0  0  0
   11.7728    8.0337   23.7267 C   0  0  0  0  0  0  0  0  0  0  0  0
    7.1194    8.3344   24.6775 C   0  0  0  0  0  0  0  0  0  0  0  0
    8.4311    4.7963   22.0500 C   0  0  0  0  0  0  0  0  0  0  0  0
    8.7393   10.8706   24.1871 O   0  0  0  0  0  0  0  0  0  0  0  0
    9.3093    3.8166   21.6712 C   0  0  0  0  0  0  0  0  0  0  0  0
  1  5  1  0
  1 15  4  0
  1 22  4  0
  2 20  1  0
  2 24  1  0
  3  6  4  0
  3 27  4  0
  4 22  4  0
  4 26  4  0
  6  7  4  0
  6 13  1  0
  7 19  4  0
  8 18  1  0
  8 23  1  0
  8 28  2  0
  9 17  1  0
  9 24  1  0
 10 11  1  0
 10 24  1  0
 11 23  1  0
 12 14  4  0
 12 16  4  0
 14 19  4  0
 15 18  4  0
 16 20  4  0
 17 25  1  0
 18 26  4  0
 19 29  4  0
 20 29  4  0
 21 23  1  0
 21 25  1  0
 27 29  4  0
M  END
$$$$

 Created by Python create_sdf_string function

 29 32  0  0  0  0  0  0  0  0999 V2000
    5.4450    8.7154   22.6662 C   0  0  0  0  0  0  0  0  0  0  0  0
   10.9154    5.4574   20.5483 C   0  0  0  0  0  0  0  0  0  0  0  0
    7.2709    4.5089   22.7542 C   0  0  0  0  0  0  0  0  0  0  0  0
    5.9698    7.6329   24.6581 C   0  0  0  0  0  0  0  0  0  0  0  0
    4.5542    8.9057   21.7104 O   0  0  0  0  0  0  0  0  0  0  0  0
    6.9895    3.2085   23.0690 C   0  0  0  0  0  0  0  0  0  0  0  0
    7.8391    2.2253   22.7260 N   0  0  0  0  0  0  0  0  0  0  0  0
    8.6968    9.8373   23.6359 C   0  0  0  0  0  0  0  0  0  0  0  0
   12.5135    6.5957   21.8396 C   0  0  0  0  0  0  0  0  0  0  0  0
   10.9406    8.2330   21.1350 C   0  0  0  0  0  0  0  0  0  0  0  0
    9.6648    8.5956   21.7310 C   0  0  0  0  0  0  0  0  0  0  0  0
   10.8829    1.7153   20.9865 C   0  0  0  0  0  0  0  0  0  0  0  0
    5.7768    2.8533   23.7910 C   0  0  0  0  0  0  0  0  0  0  0  0
    9.7977    1.4791   21.6912 N   0  0  0  0  0  0  0  0  0  0  0  0
    6.5976    9.3401   22.6478 N   0  0  0  0  0  0  0  0  0  0  0  0
   11.2031    3.0042   20.6246 C   0  0  0  0  0  0  0  0  0  0  0  0
   12.8688    7.7370   22.7287 C   0  0  0  0  0  0  0  0  0  0  0  0
    7.4487    9.1361   23.6506 C   0  0  0  0  0  0  0  0  0  0  0  0
    8.9772    2.5025   22.0273 C   0  0  0  0  0  0  0  0  0  0  0  0
   10.4859    4.0901   20.9730 C   0  0  0  0  0  0  0  0  0  0  0  0
   11.0962    9.3293   23.5072 C   0  0  0  0  0  0  0  0  0  0  0  0
    5.1273    7.8529   23.6208 N   0  0  0  0  0  0  0  0  0  0  0  0
    9.7552    9.2338   23.0171 N   0  0  0  0  0  0  0  0  0  0  0  0
   11.1797    6.7591   21.3326 N   0  0  0  0  0  0  0  0  0  0  0  0
   11.7728    8.0337   23.7267 C   0  0  0  0  0  0  0  0  0  0  0  0
    7.1194    8.3344   24.6775 C   0  0  0  0  0  0  0  0  0  0  0  0
    8.4311    4.7963   22.0500 C   0  0  0  0  0  0  0  0  0  0  0  0
    8.7393   10.8706   24.1871 O   0  0  0  0  0  0  0  0  0  0  0  0
    9.3093    3.8166   21.6712 C   0  0  0  0  0  0  0  0  0  0  0  0
  1  5  1  0
  1 15  4  0
  1 22  4  0
  2 20  1  0
  2 24  1  0
  3  6  4  0
  3 27  4  0
  4 22  4  0
  4 26  4  0
  6  7  4  0
  6 13  1  0
  7 19  4  0
  8 18  1  0
  8 23  1  0
  8 28  2  0
  9 17  1  0
  9 24  1  0
 10 11  1  0
 10 24  1  0
 11 23  1  0
 12 14  4  0
 12 16  4  0
 14 19  4  0
 15 18  4  0
 16 20  4  0
 17 25  1  0
 18 26  4  0
 19 29  4  0
 20 29  4  0
 21 23  1  0
 21 25  1  0
 27 29  4  0
M  END
$$$$

 Created by Python create_sdf_string function

 29 32  0  0  0  0  0  0  0  0999 V2000
    5.4450    8.7154   22.6662 C   0  0  0  0  0  0  0  0  0  0  0  0
   10.9154    5.4574   20.5483 C   0  0  0  0  0  0  0  0  0  0  0  0
    7.2709    4.5089   22.7542 C   0  0  0  0  0  0  0  0  0  0  0  0
    5.9698    7.6329   24.6581 C   0  0  0  0  0  0  0  0  0  0  0  0
    4.5542    8.9057   21.7104 O   0  0  0  0  0  0  0  0  0  0  0  0
    6.9895    3.2085   23.0690 C   0  0  0  0  0  0  0  0  0  0  0  0
    7.8391    2.2253   22.7260 N   0  0  0  0  0  0  0  0  0  0  0  0
    8.6968    9.8373   23.6359 C   0  0  0  0  0  0  0  0  0  0  0  0
   12.5135    6.5957   21.8396 C   0  0  0  0  0  0  0  0  0  0  0  0
   10.9406    8.2330   21.1350 C   0  0  0  0  0  0  0  0  0  0  0  0
    9.6648    8.5956   21.7310 C   0  0  0  0  0  0  0  0  0  0  0  0
   10.8829    1.7153   20.9865 C   0  0  0  0  0  0  0  0  0  0  0  0
    5.7768    2.8533   23.7910 C   0  0  0  0  0  0  0  0  0  0  0  0
    9.7977    1.4791   21.6912 N   0  0  0  0  0  0  0  0  0  0  0  0
    6.5976    9.3401   22.6478 N   0  0  0  0  0  0  0  0  0  0  0  0
   11.2031    3.0042   20.6246 C   0  0  0  0  0  0  0  0  0  0  0  0
   12.8688    7.7370   22.7287 C   0  0  0  0  0  0  0  0  0  0  0  0
    7.4487    9.1361   23.6506 C   0  0  0  0  0  0  0  0  0  0  0  0
    8.9772    2.5025   22.0273 C   0  0  0  0  0  0  0  0  0  0  0  0
   10.4859    4.0901   20.9730 C   0  0  0  0  0  0  0  0  0  0  0  0
   11.0962    9.3293   23.5072 C   0  0  0  0  0  0  0  0  0  0  0  0
    5.1273    7.8529   23.6208 N   0  0  0  0  0  0  0  0  0  0  0  0
    9.7552    9.2338   23.0171 N   0  0  0  0  0  0  0  0  0  0  0  0
   11.1797    6.7591   21.3326 N   0  0  0  0  0  0  0  0  0  0  0  0
   11.7728    8.0337   23.7267 C   0  0  0  0  0  0  0  0  0  0  0  0
    7.1194    8.3344   24.6775 C   0  0  0  0  0  0  0  0  0  0  0  0
    8.4311    4.7963   22.0500 C   0  0  0  0  0  0  0  0  0  0  0  0
    8.7393   10.8706   24.1871 O   0  0  0  0  0  0  0  0  0  0  0  0
    9.3093    3.8166   21.6712 C   0  0  0  0  0  0  0  0  0  0  0  0
  1  5  1  0
  1 15  4  0
  1 22  4  0
  2 20  1  0
  2 24  1  0
  3  6  4  0
  3 27  4  0
  4 22  4  0
  4 26  4  0
  6  7  4  0
  6 13  1  0
  7 19  4  0
  8 18  1  0
  8 23  1  0
  8 28  2  0
  9 17  1  0
  9 24  1  0
 10 11  1  0
 10 24  1  0
 11 23  1  0
 12 14  4  0
 12 16  4  0
 14 19  4  0
 15 18  4  0
 16 20  4  0
 17 25  1  0
 18 26  4  0
 19 29  4  0
 20 29  4  0
 21 23  1  0
 21 25  1  0
 27 29  4  0
M  END
$$$$

 Created by Python create_sdf_string function

 29 32  0  0  0  0  0  0  0  0999 V2000
    5.4450    8.7154   22.6662 C   0  0  0  0  0  0  0  0  0  0  0  0
   10.9154    5.4574   20.5483 C   0  0  0  0  0  0  0  0  0  0  0  0
    7.2709    4.5089   22.7542 C   0  0  0  0  0  0  0  0  0  0  0  0
    5.9698    7.6329   24.6581 C   0  0  0  0  0  0  0  0  0  0  0  0
    4.5542    8.9057   21.7104 O   0  0  0  0  0  0  0  0  0  0  0  0
    6.9895    3.2085   23.0690 C   0  0  0  0  0  0  0  0  0  0  0  0
    7.8391    2.2253   22.7260 N   0  0  0  0  0  0  0  0  0  0  0  0
    8.6968    9.8373   23.6359 C   0  0  0  0  0  0  0  0  0  0  0  0
   12.5135    6.5957   21.8396 C   0  0  0  0  0  0  0  0  0  0  0  0
   10.9406    8.2330   21.1350 C   0  0  0  0  0  0  0  0  0  0  0  0
    9.6648    8.5956   21.7310 C   0  0  0  0  0  0  0  0  0  0  0  0
   10.8829    1.7153   20.9865 C   0  0  0  0  0  0  0  0  0  0  0  0
    5.7768    2.8533   23.7910 C   0  0  0  0  0  0  0  0  0  0  0  0
    9.7977    1.4791   21.6912 N   0  0  0  0  0  0  0  0  0  0  0  0
    6.5976    9.3401   22.6478 N   0  0  0  0  0  0  0  0  0  0  0  0
   11.2031    3.0042   20.6246 C   0  0  0  0  0  0  0  0  0  0  0  0
   12.8688    7.7370   22.7287 C   0  0  0  0  0  0  0  0  0  0  0  0
    7.4487    9.1361   23.6506 C   0  0  0  0  0  0  0  0  0  0  0  0
    8.9772    2.5025   22.0273 C   0  0  0  0  0  0  0  0  0  0  0  0
   10.4859    4.0901   20.9730 C   0  0  0  0  0  0  0  0  0  0  0  0
   11.0962    9.3293   23.5072 C   0  0  0  0  0  0  0  0  0  0  0  0
    5.1273    7.8529   23.6208 N   0  0  0  0  0  0  0  0  0  0  0  0
    9.7552    9.2338   23.0171 N   0  0  0  0  0  0  0  0  0  0  0  0
   11.1797    6.7591   21.3326 N   0  0  0  0  0  0  0  0  0  0  0  0
   11.7728    8.0337   23.7267 C   0  0  0  0  0  0  0  0  0  0  0  0
    7.1194    8.3344   24.6775 C   0  0  0  0  0  0  0  0  0  0  0  0
    8.4311    4.7963   22.0500 C   0  0  0  0  0  0  0  0  0  0  0  0
    8.7393   10.8706   24.1871 O   0  0  0  0  0  0  0  0  0  0  0  0
    9.3093    3.8166   21.6712 C   0  0  0  0  0  0  0  0  0  0  0  0
  1  5  1  0
  1 15  4  0
  1 22  4  0
  2 20  1  0
  2 24  1  0
  3  6  4  0
  3 27  4  0
  4 22  4  0
  4 26  4  0
  6  7  4  0
  6 13  1  0
  7 19  4  0
  8 18  1  0
  8 23  1  0
  8 28  2  0
  9 17  1  0
  9 24  1  0
 10 11  1  0
 10 24  1  0
 11 23  1  0
 12 14  4  0
 12 16  4  0
 14 19  4  0
 15 18  4  0
 16 20  4  0
 17 25  1  0
 18 26  4  0
 19 29  4  0
 20 29  4  0
 21 23  1  0
 21 25  1  0
 27 29  4  0
M  END
$$$$

 Created by Python create_sdf_string function

 29 32  0  0  0  0  0  0  0  0999 V2000
    5.4450    8.7154   22.6662 C   0  0  0  0  0  0  0  0  0  0  0  0
   10.9154    5.4574   20.5483 C   0  0  0  0  0  0  0  0  0  0  0  0
    7.2709    4.5089   22.7542 C   0  0  0  0  0  0  0  0  0  0  0  0
    5.9698    7.6329   24.6581 C   0  0  0  0  0  0  0  0  0  0  0  0
    4.5542    8.9057   21.7104 O   0  0  0  0  0  0  0  0  0  0  0  0
    6.9895    3.2085   23.0690 C   0  0  0  0  0  0  0  0  0  0  0  0
    7.8391    2.2253   22.7260 N   0  0  0  0  0  0  0  0  0  0  0  0
    8.6968    9.8373   23.6359 C   0  0  0  0  0  0  0  0  0  0  0  0
   12.5135    6.5957   21.8396 C   0  0  0  0  0  0  0  0  0  0  0  0
   10.9406    8.2330   21.1350 C   0  0  0  0  0  0  0  0  0  0  0  0
    9.6648    8.5956   21.7310 C   0  0  0  0  0  0  0  0  0  0  0  0
   10.8829    1.7153   20.9865 C   0  0  0  0  0  0  0  0  0  0  0  0
    5.7768    2.8533   23.7910 C   0  0  0  0  0  0  0  0  0  0  0  0
    9.7977    1.4791   21.6912 N   0  0  0  0  0  0  0  0  0  0  0  0
    6.5976    9.3401   22.6478 N   0  0  0  0  0  0  0  0  0  0  0  0
   11.2031    3.0042   20.6246 C   0  0  0  0  0  0  0  0  0  0  0  0
   12.8688    7.7370   22.7287 C   0  0  0  0  0  0  0  0  0  0  0  0
    7.4487    9.1361   23.6506 C   0  0  0  0  0  0  0  0  0  0  0  0
    8.9772    2.5025   22.0273 C   0  0  0  0  0  0  0  0  0  0  0  0
   10.4859    4.0901   20.9730 C   0  0  0  0  0  0  0  0  0  0  0  0
   11.0962    9.3293   23.5072 C   0  0  0  0  0  0  0  0  0  0  0  0
    5.1273    7.8529   23.6208 N   0  0  0  0  0  0  0  0  0  0  0  0
    9.7552    9.2338   23.0171 N   0  0  0  0  0  0  0  0  0  0  0  0
   11.1797    6.7591   21.3326 N   0  0  0  0  0  0  0  0  0  0  0  0
   11.7728    8.0337   23.7267 C   0  0  0  0  0  0  0  0  0  0  0  0
    7.1194    8.3344   24.6775 C   0  0  0  0  0  0  0  0  0  0  0  0
    8.4311    4.7963   22.0500 C   0  0  0  0  0  0  0  0  0  0  0  0
    8.7393   10.8706   24.1871 O   0  0  0  0  0  0  0  0  0  0  0  0
    9.3093    3.8166   21.6712 C   0  0  0  0  0  0  0  0  0  0  0  0
  1  5  1  0
  1 15  4  0
  1 22  4  0
  2 20  1  0
  2 24  1  0
  3  6  4  0
  3 27  4  0
  4 22  4  0
  4 26  4  0
  6  7  4  0
  6 13  1  0
  7 19  4  0
  8 18  1  0
  8 23  1  0
  8 28  2  0
  9 17  1  0
  9 24  1  0
 10 11  1  0
 10 24  1  0
 11 23  1  0
 12 14  4  0
 12 16  4  0
 14 19  4  0
 15 18  4  0
 16 20  4  0
 17 25  1  0
 18 26  4  0
 19 29  4  0
 20 29  4  0
 21 23  1  0
 21 25  1  0
 27 29  4  0
M  END
$$$$

 Created by Python create_sdf_string function

 29 32  0  0  0  0  0  0  0  0999 V2000
    5.4450    8.7154   22.6662 C   0  0  0  0  0  0  0  0  0  0  0  0
   10.9154    5.4574   20.5483 C   0  0  0  0  0  0  0  0  0  0  0  0
    7.2709    4.5089   22.7542 C   0  0  0  0  0  0  0  0  0  0  0  0
    5.9698    7.6329   24.6581 C   0  0  0  0  0  0  0  0  0  0  0  0
    4.5542    8.9057   21.7104 O   0  0  0  0  0  0  0  0  0  0  0  0
    6.9895    3.2085   23.0690 C   0  0  0  0  0  0  0  0  0  0  0  0
    7.8391    2.2253   22.7260 N   0  0  0  0  0  0  0  0  0  0  0  0
    8.6968    9.8373   23.6359 C   0  0  0  0  0  0  0  0  0  0  0  0
   12.5135    6.5957   21.8396 C   0  0  0  0  0  0  0  0  0  0  0  0
   10.9406    8.2330   21.1350 C   0  0  0  0  0  0  0  0  0  0  0  0
    9.6648    8.5956   21.7310 C   0  0  0  0  0  0  0  0  0  0  0  0
   10.8829    1.7153   20.9865 C   0  0  0  0  0  0  0  0  0  0  0  0
    5.7768    2.8533   23.7910 C   0  0  0  0  0  0  0  0  0  0  0  0
    9.7977    1.4791   21.6912 N   0  0  0  0  0  0  0  0  0  0  0  0
    6.5976    9.3401   22.6478 N   0  0  0  0  0  0  0  0  0  0  0  0
   11.2031    3.0042   20.6246 C   0  0  0  0  0  0  0  0  0  0  0  0
   12.8688    7.7370   22.7287 C   0  0  0  0  0  0  0  0  0  0  0  0
    7.4487    9.1361   23.6506 C   0  0  0  0  0  0  0  0  0  0  0  0
    8.9772    2.5025   22.0273 C   0  0  0  0  0  0  0  0  0  0  0  0
   10.4859    4.0901   20.9730 C   0  0  0  0  0  0  0  0  0  0  0  0
   11.0962    9.3293   23.5072 C   0  0  0  0  0  0  0  0  0  0  0  0
    5.1273    7.8529   23.6208 N   0  0  0  0  0  0  0  0  0  0  0  0
    9.7552    9.2338   23.0171 N   0  0  0  0  0  0  0  0  0  0  0  0
   11.1797    6.7591   21.3326 N   0  0  0  0  0  0  0  0  0  0  0  0
   11.7728    8.0337   23.7267 C   0  0  0  0  0  0  0  0  0  0  0  0
    7.1194    8.3344   24.6775 C   0  0  0  0  0  0  0  0  0  0  0  0
    8.4311    4.7963   22.0500 C   0  0  0  0  0  0  0  0  0  0  0  0
    8.7393   10.8706   24.1871 O   0  0  0  0  0  0  0  0  0  0  0  0
    9.3093    3.8166   21.6712 C   0  0  0  0  0  0  0  0  0  0  0  0
  1  5  1  0
  1 15  4  0
  1 22  4  0
  2 20  1  0
  2 24  1  0
  3  6  4  0
  3 27  4  0
  4 22  4  0
  4 26  4  0
  6  7  4  0
  6 13  1  0
  7 19  4  0
  8 18  1  0
  8 23  1  0
  8 28  2  0
  9 17  1  0
  9 24  1  0
 10 11  1  0
 10 24  1  0
 11 23  1  0
 12 14  4  0
 12 16  4  0
 14 19  4  0
 15 18  4  0
 16 20  4  0
 17 25  1  0
 18 26  4  0
 19 29  4  0
 20 29  4  0
 21 23  1  0
 21 25  1  0
 27 29  4  0
M  END
$$$$

 Created by Python create_sdf_string function

 29 32  0  0  0  0  0  0  0  0999 V2000
    5.4450    8.7154   22.6662 C   0  0  0  0  0  0  0  0  0  0  0  0
   10.9154    5.4574   20.5483 C   0  0  0  0  0  0  0  0  0  0  0  0
    7.2709    4.5089   22.7542 C   0  0  0  0  0  0  0  0  0  0  0  0
    5.9698    7.6329   24.6581 C   0  0  0  0  0  0  0  0  0  0  0  0
    4.5542    8.9057   21.7104 O   0  0  0  0  0  0  0  0  0  0  0  0
    6.9895    3.2085   23.0690 C   0  0  0  0  0  0  0  0  0  0  0  0
    7.8391    2.2253   22.7260 N   0  0  0  0  0  0  0  0  0  0  0  0
    8.6968    9.8373   23.6359 C   0  0  0  0  0  0  0  0  0  0  0  0
   12.5135    6.5957   21.8396 C   0  0  0  0  0  0  0  0  0  0  0  0
   10.9406    8.2330   21.1350 C   0  0  0  0  0  0  0  0  0  0  0  0
    9.6648    8.5956   21.7310 C   0  0  0  0  0  0  0  0  0  0  0  0
   10.8829    1.7153   20.9865 C   0  0  0  0  0  0  0  0  0  0  0  0
    5.7768    2.8533   23.7910 C   0  0  0  0  0  0  0  0  0  0  0  0
    9.7977    1.4791   21.6912 N   0  0  0  0  0  0  0  0  0  0  0  0
    6.5976    9.3401   22.6478 N   0  0  0  0  0  0  0  0  0  0  0  0
   11.2031    3.0042   20.6246 C   0  0  0  0  0  0  0  0  0  0  0  0
   12.8688    7.7370   22.7287 C   0  0  0  0  0  0  0  0  0  0  0  0
    7.4487    9.1361   23.6506 C   0  0  0  0  0  0  0  0  0  0  0  0
    8.9772    2.5025   22.0273 C   0  0  0  0  0  0  0  0  0  0  0  0
   10.4859    4.0901   20.9730 C   0  0  0  0  0  0  0  0  0  0  0  0
   11.0962    9.3293   23.5072 C   0  0  0  0  0  0  0  0  0  0  0  0
    5.1273    7.8529   23.6208 N   0  0  0  0  0  0  0  0  0  0  0  0
    9.7552    9.2338   23.0171 N   0  0  0  0  0  0  0  0  0  0  0  0
   11.1797    6.7591   21.3326 N   0  0  0  0  0  0  0  0  0  0  0  0
   11.7728    8.0337   23.7267 C   0  0  0  0  0  0  0  0  0  0  0  0
    7.1194    8.3344   24.6775 C   0  0  0  0  0  0  0  0  0  0  0  0
    8.4311    4.7963   22.0500 C   0  0  0  0  0  0  0  0  0  0  0  0
    8.7393   10.8706   24.1871 O   0  0  0  0  0  0  0  0  0  0  0  0
    9.3093    3.8166   21.6712 C   0  0  0  0  0  0  0  0  0  0  0  0
  1  5  1  0
  1 15  4  0
  1 22  4  0
  2 20  1  0
  2 24  1  0
  3  6  4  0
  3 27  4  0
  4 22  4  0
  4 26  4  0
  6  7  4  0
  6 13  1  0
  7 19  4  0
  8 18  1  0
  8 23  1  0
  8 28  2  0
  9 17  1  0
  9 24  1  0
 10 11  1  0
 10 24  1  0
 11 23  1  0
 12 14  4  0
 12 16  4  0
 14 19  4  0
 15 18  4  0
 16 20  4  0
 17 25  1  0
 18 26  4  0
 19 29  4  0
 20 29  4  0
 21 23  1  0
 21 25  1  0
 27 29  4  0
M  END
$$$$

 Created by Python create_sdf_string function

 29 32  0  0  0  0  0  0  0  0999 V2000
    5.4450    8.7154   22.6662 C   0  0  0  0  0  0  0  0  0  0  0  0
   10.9154    5.4574   20.5483 C   0  0  0  0  0  0  0  0  0  0  0  0
    7.2709    4.5089   22.7542 C   0  0  0  0  0  0  0  0  0  0  0  0
    5.9698    7.6329   24.6581 C   0  0  0  0  0  0  0  0  0  0  0  0
    4.5542    8.9057   21.7104 O   0  0  0  0  0  0  0  0  0  0  0  0
    6.9895    3.2085   23.0690 C   0  0  0  0  0  0  0  0  0  0  0  0
    7.8391    2.2253   22.7260 N   0  0  0  0  0  0  0  0  0  0  0  0
    8.6968    9.8373   23.6359 C   0  0  0  0  0  0  0  0  0  0  0  0
   12.5135    6.5957   21.8396 C   0  0  0  0  0  0  0  0  0  0  0  0
   10.9406    8.2330   21.1350 C   0  0  0  0  0  0  0  0  0  0  0  0
    9.6648    8.5956   21.7310 C   0  0  0  0  0  0  0  0  0  0  0  0
   10.8829    1.7153   20.9865 C   0  0  0  0  0  0  0  0  0  0  0  0
    5.7768    2.8533   23.7910 C   0  0  0  0  0  0  0  0  0  0  0  0
    9.7977    1.4791   21.6912 N   0  0  0  0  0  0  0  0  0  0  0  0
    6.5976    9.3401   22.6478 N   0  0  0  0  0  0  0  0  0  0  0  0
   11.2031    3.0042   20.6246 C   0  0  0  0  0  0  0  0  0  0  0  0
   12.8688    7.7370   22.7287 C   0  0  0  0  0  0  0  0  0  0  0  0
    7.4487    9.1361   23.6506 C   0  0  0  0  0  0  0  0  0  0  0  0
    8.9772    2.5025   22.0273 C   0  0  0  0  0  0  0  0  0  0  0  0
   10.4859    4.0901   20.9730 C   0  0  0  0  0  0  0  0  0  0  0  0
   11.0962    9.3293   23.5072 C   0  0  0  0  0  0  0  0  0  0  0  0
    5.1273    7.8529   23.6208 N   0  0  0  0  0  0  0  0  0  0  0  0
    9.7552    9.2338   23.0171 N   0  0  0  0  0  0  0  0  0  0  0  0
   11.1797    6.7591   21.3326 N   0  0  0  0  0  0  0  0  0  0  0  0
   11.7728    8.0337   23.7267 C   0  0  0  0  0  0  0  0  0  0  0  0
    7.1194    8.3344   24.6775 C   0  0  0  0  0  0  0  0  0  0  0  0
    8.4311    4.7963   22.0500 C   0  0  0  0  0  0  0  0  0  0  0  0
    8.7393   10.8706   24.1871 O   0  0  0  0  0  0  0  0  0  0  0  0
    9.3093    3.8166   21.6712 C   0  0  0  0  0  0  0  0  0  0  0  0
  1  5  1  0
  1 15  4  0
  1 22  4  0
  2 20  1  0
  2 24  1  0
  3  6  4  0
  3 27  4  0
  4 22  4  0
  4 26  4  0
  6  7  4  0
  6 13  1  0
  7 19  4  0
  8 18  1  0
  8 23  1  0
  8 28  2  0
  9 17  1  0
  9 24  1  0
 10 11  1  0
 10 24  1  0
 11 23  1  0
 12 14  4  0
 12 16  4  0
 14 19  4  0
 15 18  4  0
 16 20  4  0
 17 25  1  0
 18 26  4  0
 19 29  4  0
 20 29  4  0
 21 23  1  0
 21 25  1  0
 27 29  4  0
M  END
$$$$

 Created by Python create_sdf_string function

 29 32  0  0  0  0  0  0  0  0999 V2000
    5.4450    8.7154   22.6662 C   0  0  0  0  0  0  0  0  0  0  0  0
   10.9154    5.4574   20.5483 C   0  0  0  0  0  0  0  0  0  0  0  0
    7.2709    4.5089   22.7542 C   0  0  0  0  0  0  0  0  0  0  0  0
    5.9698    7.6329   24.6581 C   0  0  0  0  0  0  0  0  0  0  0  0
    4.5542    8.9057   21.7104 O   0  0  0  0  0  0  0  0  0  0  0  0
    6.9895    3.2085   23.0690 C   0  0  0  0  0  0  0  0  0  0  0  0
    7.8391    2.2253   22.7260 N   0  0  0  0  0  0  0  0  0  0  0  0
    8.6968    9.8373   23.6359 C   0  0  0  0  0  0  0  0  0  0  0  0
   12.5135    6.5957   21.8396 C   0  0  0  0  0  0  0  0  0  0  0  0
   10.9406    8.2330   21.1350 C   0  0  0  0  0  0  0  0  0  0  0  0
    9.6648    8.5956   21.7310 C   0  0  0  0  0  0  0  0  0  0  0  0
   10.8829    1.7153   20.9865 C   0  0  0  0  0  0  0  0  0  0  0  0
    5.7768    2.8533   23.7910 C   0  0  0  0  0  0  0  0  0  0  0  0
    9.7977    1.4791   21.6912 N   0  0  0  0  0  0  0  0  0  0  0  0
    6.5976    9.3401   22.6478 N   0  0  0  0  0  0  0  0  0  0  0  0
   11.2031    3.0042   20.6246 C   0  0  0  0  0  0  0  0  0  0  0  0
   12.8688    7.7370   22.7287 C   0  0  0  0  0  0  0  0  0  0  0  0
    7.4487    9.1361   23.6506 C   0  0  0  0  0  0  0  0  0  0  0  0
    8.9772    2.5025   22.0273 C   0  0  0  0  0  0  0  0  0  0  0  0
   10.4859    4.0901   20.9730 C   0  0  0  0  0  0  0  0  0  0  0  0
   11.0962    9.3293   23.5072 C   0  0  0  0  0  0  0  0  0  0  0  0
    5.1273    7.8529   23.6208 N   0  0  0  0  0  0  0  0  0  0  0  0
    9.7552    9.2338   23.0171 N   0  0  0  0  0  0  0  0  0  0  0  0
   11.1797    6.7591   21.3326 N   0  0  0  0  0  0  0  0  0  0  0  0
   11.7728    8.0337   23.7267 C   0  0  0  0  0  0  0  0  0  0  0  0
    7.1194    8.3344   24.6775 C   0  0  0  0  0  0  0  0  0  0  0  0
    8.4311    4.7963   22.0500 C   0  0  0  0  0  0  0  0  0  0  0  0
    8.7393   10.8706   24.1871 O   0  0  0  0  0  0  0  0  0  0  0  0
    9.3093    3.8166   21.6712 C   0  0  0  0  0  0  0  0  0  0  0  0
  1  5  1  0
  1 15  4  0
  1 22  4  0
  2 20  1  0
  2 24  1  0
  3  6  4  0
  3 27  4  0
  4 22  4  0
  4 26  4  0
  6  7  4  0
  6 13  1  0
  7 19  4  0
  8 18  1  0
  8 23  1  0
  8 28  2  0
  9 17  1  0
  9 24  1  0
 10 11  1  0
 10 24  1  0
 11 23  1  0
 12 14  4  0
 12 16  4  0
 14 19  4  0
 15 18  4  0
 16 20  4  0
 17 25  1  0
 18 26  4  0
 19 29  4  0
 20 29  4  0
 21 23  1  0
 21 25  1  0
 27 29  4  0
M  END
$$$$

 Created by Python create_sdf_string function

 29 32  0  0  0  0  0  0  0  0999 V2000
    5.4450    8.7154   22.6662 C   0  0  0  0  0  0  0  0  0  0  0  0
   10.9154    5.4574   20.5483 C   0  0  0  0  0  0  0  0  0  0  0  0
    7.2709    4.5089   22.7542 C   0  0  0  0  0  0  0  0  0  0  0  0
    5.9698    7.6329   24.6581 C   0  0  0  0  0  0  0  0  0  0  0  0
    4.5542    8.9057   21.7104 O   0  0  0  0  0  0  0  0  0  0  0  0
    6.9895    3.2085   23.0690 C   0  0  0  0  0  0  0  0  0  0  0  0
    7.8391    2.2253   22.7260 N   0  0  0  0  0  0  0  0  0  0  0  0
    8.6968    9.8373   23.6359 C   0  0  0  0  0  0  0  0  0  0  0  0
   12.5135    6.5957   21.8396 C   0  0  0  0  0  0  0  0  0  0  0  0
   10.9406    8.2330   21.1350 C   0  0  0  0  0  0  0  0  0  0  0  0
    9.6648    8.5956   21.7310 C   0  0  0  0  0  0  0  0  0  0  0  0
   10.8829    1.7153   20.9865 C   0  0  0  0  0  0  0  0  0  0  0  0
    5.7768    2.8533   23.7910 C   0  0  0  0  0  0  0  0  0  0  0  0
    9.7977    1.4791   21.6912 N   0  0  0  0  0  0  0  0  0  0  0  0
    6.5976    9.3401   22.6478 N   0  0  0  0  0  0  0  0  0  0  0  0
   11.2031    3.0042   20.6246 C   0  0  0  0  0  0  0  0  0  0  0  0
   12.8688    7.7370   22.7287 C   0  0  0  0  0  0  0  0  0  0  0  0
    7.4487    9.1361   23.6506 C   0  0  0  0  0  0  0  0  0  0  0  0
    8.9772    2.5025   22.0273 C   0  0  0  0  0  0  0  0  0  0  0  0
   10.4859    4.0901   20.9730 C   0  0  0  0  0  0  0  0  0  0  0  0
   11.0962    9.3293   23.5072 C   0  0  0  0  0  0  0  0  0  0  0  0
    5.1273    7.8529   23.6208 N   0  0  0  0  0  0  0  0  0  0  0  0
    9.7552    9.2338   23.0171 N   0  0  0  0  0  0  0  0  0  0  0  0
   11.1797    6.7591   21.3326 N   0  0  0  0  0  0  0  0  0  0  0  0
   11.7728    8.0337   23.7267 C   0  0  0  0  0  0  0  0  0  0  0  0
    7.1194    8.3344   24.6775 C   0  0  0  0  0  0  0  0  0  0  0  0
    8.4311    4.7963   22.0500 C   0  0  0  0  0  0  0  0  0  0  0  0
    8.7393   10.8706   24.1871 O   0  0  0  0  0  0  0  0  0  0  0  0
    9.3093    3.8166   21.6712 C   0  0  0  0  0  0  0  0  0  0  0  0
  1  5  1  0
  1 15  4  0
  1 22  4  0
  2 20  1  0
  2 24  1  0
  3  6  4  0
  3 27  4  0
  4 22  4  0
  4 26  4  0
  6  7  4  0
  6 13  1  0
  7 19  4  0
  8 18  1  0
  8 23  1  0
  8 28  2  0
  9 17  1  0
  9 24  1  0
 10 11  1  0
 10 24  1  0
 11 23  1  0
 12 14  4  0
 12 16  4  0
 14 19  4  0
 15 18  4  0
 16 20  4  0
 17 25  1  0
 18 26  4  0
 19 29  4  0
 20 29  4  0
 21 23  1  0
 21 25  1  0
 27 29  4  0
M  END
$$$$

 Created by Python create_sdf_string function

 29 32  0  0  0  0  0  0  0  0999 V2000
    5.4450    8.7154   22.6662 C   0  0  0  0  0  0  0  0  0  0  0  0
   10.9154    5.4574   20.5483 C   0  0  0  0  0  0  0  0  0  0  0  0
    7.2709    4.5089   22.7542 C   0  0  0  0  0  0  0  0  0  0  0  0
    5.9698    7.6329   24.6581 C   0  0  0  0  0  0  0  0  0  0  0  0
    4.5542    8.9057   21.7104 O   0  0  0  0  0  0  0  0  0  0  0  0
    6.9895    3.2085   23.0690 C   0  0  0  0  0  0  0  0  0  0  0  0
    7.8391    2.2253   22.7260 N   0  0  0  0  0  0  0  0  0  0  0  0
    8.6968    9.8373   23.6359 C   0  0  0  0  0  0  0  0  0  0  0  0
   12.5135    6.5957   21.8396 C   0  0  0  0  0  0  0  0  0  0  0  0
   10.9406    8.2330   21.1350 C   0  0  0  0  0  0  0  0  0  0  0  0
    9.6648    8.5956   21.7310 C   0  0  0  0  0  0  0  0  0  0  0  0
   10.8829    1.7153   20.9865 C   0  0  0  0  0  0  0  0  0  0  0  0
    5.7768    2.8533   23.7910 C   0  0  0  0  0  0  0  0  0  0  0  0
    9.7977    1.4791   21.6912 N   0  0  0  0  0  0  0  0  0  0  0  0
    6.5976    9.3401   22.6478 N   0  0  0  0  0  0  0  0  0  0  0  0
   11.2031    3.0042   20.6246 C   0  0  0  0  0  0  0  0  0  0  0  0
   12.8688    7.7370   22.7287 C   0  0  0  0  0  0  0  0  0  0  0  0
    7.4487    9.1361   23.6506 C   0  0  0  0  0  0  0  0  0  0  0  0
    8.9772    2.5025   22.0273 C   0  0  0  0  0  0  0  0  0  0  0  0
   10.4859    4.0901   20.9730 C   0  0  0  0  0  0  0  0  0  0  0  0
   11.0962    9.3293   23.5072 C   0  0  0  0  0  0  0  0  0  0  0  0
    5.1273    7.8529   23.6208 N   0  0  0  0  0  0  0  0  0  0  0  0
    9.7552    9.2338   23.0171 N   0  0  0  0  0  0  0  0  0  0  0  0
   11.1797    6.7591   21.3326 N   0  0  0  0  0  0  0  0  0  0  0  0
   11.7728    8.0337   23.7267 C   0  0  0  0  0  0  0  0  0  0  0  0
    7.1194    8.3344   24.6775 C   0  0  0  0  0  0  0  0  0  0  0  0
    8.4311    4.7963   22.0500 C   0  0  0  0  0  0  0  0  0  0  0  0
    8.7393   10.8706   24.1871 O   0  0  0  0  0  0  0  0  0  0  0  0
    9.3093    3.8166   21.6712 C   0  0  0  0  0  0  0  0  0  0  0  0
  1  5  1  0
  1 15  4  0
  1 22  4  0
  2 20  1  0
  2 24  1  0
  3  6  4  0
  3 27  4  0
  4 22  4  0
  4 26  4  0
  6  7  4  0
  6 13  1  0
  7 19  4  0
  8 18  1  0
  8 23  1  0
  8 28  2  0
  9 17  1  0
  9 24  1  0
 10 11  1  0
 10 24  1  0
 11 23  1  0
 12 14  4  0
 12 16  4  0
 14 19  4  0
 15 18  4  0
 16 20  4  0
 17 25  1  0
 18 26  4  0
 19 29  4  0
 20 29  4  0
 21 23  1  0
 21 25  1  0
 27 29  4  0
M  END
$$$$

 Created by Python create_sdf_string function

 29 32  0  0  0  0  0  0  0  0999 V2000
    5.4450    8.7154   22.6662 C   0  0  0  0  0  0  0  0  0  0  0  0
   10.9154    5.4574   20.5483 C   0  0  0  0  0  0  0  0  0  0  0  0
    7.2709    4.5089   22.7542 C   0  0  0  0  0  0  0  0  0  0  0  0
    5.9698    7.6329   24.6581 C   0  0  0  0  0  0  0  0  0  0  0  0
    4.5542    8.9057   21.7104 O   0  0  0  0  0  0  0  0  0  0  0  0
    6.9895    3.2085   23.0690 C   0  0  0  0  0  0  0  0  0  0  0  0
    7.8391    2.2253   22.7260 N   0  0  0  0  0  0  0  0  0  0  0  0
    8.6968    9.8373   23.6359 C   0  0  0  0  0  0  0  0  0  0  0  0
   12.5135    6.5957   21.8396 C   0  0  0  0  0  0  0  0  0  0  0  0
   10.9406    8.2330   21.1350 C   0  0  0  0  0  0  0  0  0  0  0  0
    9.6648    8.5956   21.7310 C   0  0  0  0  0  0  0  0  0  0  0  0
   10.8829    1.7153   20.9865 C   0  0  0  0  0  0  0  0  0  0  0  0
    5.7768    2.8533   23.7910 C   0  0  0  0  0  0  0  0  0  0  0  0
    9.7977    1.4791   21.6912 N   0  0  0  0  0  0  0  0  0  0  0  0
    6.5976    9.3401   22.6478 N   0  0  0  0  0  0  0  0  0  0  0  0
   11.2031    3.0042   20.6246 C   0  0  0  0  0  0  0  0  0  0  0  0
   12.8688    7.7370   22.7287 C   0  0  0  0  0  0  0  0  0  0  0  0
    7.4487    9.1361   23.6506 C   0  0  0  0  0  0  0  0  0  0  0  0
    8.9772    2.5025   22.0273 C   0  0  0  0  0  0  0  0  0  0  0  0
   10.4859    4.0901   20.9730 C   0  0  0  0  0  0  0  0  0  0  0  0
   11.0962    9.3293   23.5072 C   0  0  0  0  0  0  0  0  0  0  0  0
    5.1273    7.8529   23.6208 N   0  0  0  0  0  0  0  0  0  0  0  0
    9.7552    9.2338   23.0171 N   0  0  0  0  0  0  0  0  0  0  0  0
   11.1797    6.7591   21.3326 N   0  0  0  0  0  0  0  0  0  0  0  0
   11.7728    8.0337   23.7267 C   0  0  0  0  0  0  0  0  0  0  0  0
    7.1194    8.3344   24.6775 C   0  0  0  0  0  0  0  0  0  0  0  0
    8.4311    4.7963   22.0500 C   0  0  0  0  0  0  0  0  0  0  0  0
    8.7393   10.8706   24.1871 O   0  0  0  0  0  0  0  0  0  0  0  0
    9.3093    3.8166   21.6712 C   0  0  0  0  0  0  0  0  0  0  0  0
  1  5  1  0
  1 15  4  0
  1 22  4  0
  2 20  1  0
  2 24  1  0
  3  6  4  0
  3 27  4  0
  4 22  4  0
  4 26  4  0
  6  7  4  0
  6 13  1  0
  7 19  4  0
  8 18  1  0
  8 23  1  0
  8 28  2  0
  9 17  1  0
  9 24  1  0
 10 11  1  0
 10 24  1  0
 11 23  1  0
 12 14  4  0
 12 16  4  0
 14 19  4  0
 15 18  4  0
 16 20  4  0
 17 25  1  0
 18 26  4  0
 19 29  4  0
 20 29  4  0
 21 23  1  0
 21 25  1  0
 27 29  4  0
M  END
$$$$

 Created by Python create_sdf_string function

 29 32  0  0  0  0  0  0  0  0999 V2000
    5.4450    8.7154   22.6662 C   0  0  0  0  0  0  0  0  0  0  0  0
   10.9154    5.4574   20.5483 C   0  0  0  0  0  0  0  0  0  0  0  0
    7.2709    4.5089   22.7542 C   0  0  0  0  0  0  0  0  0  0  0  0
    5.9698    7.6329   24.6581 C   0  0  0  0  0  0  0  0  0  0  0  0
    4.5542    8.9057   21.7104 O   0  0  0  0  0  0  0  0  0  0  0  0
    6.9895    3.2085   23.0690 C   0  0  0  0  0  0  0  0  0  0  0  0
    7.8391    2.2253   22.7260 N   0  0  0  0  0  0  0  0  0  0  0  0
    8.6968    9.8373   23.6359 C   0  0  0  0  0  0  0  0  0  0  0  0
   12.5135    6.5957   21.8396 C   0  0  0  0  0  0  0  0  0  0  0  0
   10.9406    8.2330   21.1350 C   0  0  0  0  0  0  0  0  0  0  0  0
    9.6648    8.5956   21.7310 C   0  0  0  0  0  0  0  0  0  0  0  0
   10.8829    1.7153   20.9865 C   0  0  0  0  0  0  0  0  0  0  0  0
    5.7768    2.8533   23.7910 C   0  0  0  0  0  0  0  0  0  0  0  0
    9.7977    1.4791   21.6912 N   0  0  0  0  0  0  0  0  0  0  0  0
    6.5976    9.3401   22.6478 N   0  0  0  0  0  0  0  0  0  0  0  0
   11.2031    3.0042   20.6246 C   0  0  0  0  0  0  0  0  0  0  0  0
   12.8688    7.7370   22.7287 C   0  0  0  0  0  0  0  0  0  0  0  0
    7.4487    9.1361   23.6506 C   0  0  0  0  0  0  0  0  0  0  0  0
    8.9772    2.5025   22.0273 C   0  0  0  0  0  0  0  0  0  0  0  0
   10.4859    4.0901   20.9730 C   0  0  0  0  0  0  0  0  0  0  0  0
   11.0962    9.3293   23.5072 C   0  0  0  0  0  0  0  0  0  0  0  0
    5.1273    7.8529   23.6208 N   0  0  0  0  0  0  0  0  0  0  0  0
    9.7552    9.2338   23.0171 N   0  0  0  0  0  0  0  0  0  0  0  0
   11.1797    6.7591   21.3326 N   0  0  0  0  0  0  0  0  0  0  0  0
   11.7728    8.0337   23.7267 C   0  0  0  0  0  0  0  0  0  0  0  0
    7.1194    8.3344   24.6775 C   0  0  0  0  0  0  0  0  0  0  0  0
    8.4311    4.7963   22.0500 C   0  0  0  0  0  0  0  0  0  0  0  0
    8.7393   10.8706   24.1871 O   0  0  0  0  0  0  0  0  0  0  0  0
    9.3093    3.8166   21.6712 C   0  0  0  0  0  0  0  0  0  0  0  0
  1  5  1  0
  1 15  4  0
  1 22  4  0
  2 20  1  0
  2 24  1  0
  3  6  4  0
  3 27  4  0
  4 22  4  0
  4 26  4  0
  6  7  4  0
  6 13  1  0
  7 19  4  0
  8 18  1  0
  8 23  1  0
  8 28  2  0
  9 17  1  0
  9 24  1  0
 10 11  1  0
 10 24  1  0
 11 23  1  0
 12 14  4  0
 12 16  4  0
 14 19  4  0
 15 18  4  0
 16 20  4  0
 17 25  1  0
 18 26  4  0
 19 29  4  0
 20 29  4  0
 21 23  1  0
 21 25  1  0
 27 29  4  0
M  END
$$$$

 Created by Python create_sdf_string function

 29 32  0  0  0  0  0  0  0  0999 V2000
    5.4450    8.7154   22.6662 C   0  0  0  0  0  0  0  0  0  0  0  0
   10.9154    5.4574   20.5483 C   0  0  0  0  0  0  0  0  0  0  0  0
    7.2709    4.5089   22.7542 C   0  0  0  0  0  0  0  0  0  0  0  0
    5.9698    7.6329   24.6581 C   0  0  0  0  0  0  0  0  0  0  0  0
    4.5542    8.9057   21.7104 O   0  0  0  0  0  0  0  0  0  0  0  0
    6.9895    3.2085   23.0690 C   0  0  0  0  0  0  0  0  0  0  0  0
    7.8391    2.2253   22.7260 N   0  0  0  0  0  0  0  0  0  0  0  0
    8.6968    9.8373   23.6359 C   0  0  0  0  0  0  0  0  0  0  0  0
   12.5135    6.5957   21.8396 C   0  0  0  0  0  0  0  0  0  0  0  0
   10.9406    8.2330   21.1350 C   0  0  0  0  0  0  0  0  0  0  0  0
    9.6648    8.5956   21.7310 C   0  0  0  0  0  0  0  0  0  0  0  0
   10.8829    1.7153   20.9865 C   0  0  0  0  0  0  0  0  0  0  0  0
    5.7768    2.8533   23.7910 C   0  0  0  0  0  0  0  0  0  0  0  0
    9.7977    1.4791   21.6912 N   0  0  0  0  0  0  0  0  0  0  0  0
    6.5976    9.3401   22.6478 N   0  0  0  0  0  0  0  0  0  0  0  0
   11.2031    3.0042   20.6246 C   0  0  0  0  0  0  0  0  0  0  0  0
   12.8688    7.7370   22.7287 C   0  0  0  0  0  0  0  0  0  0  0  0
    7.4487    9.1361   23.6506 C   0  0  0  0  0  0  0  0  0  0  0  0
    8.9772    2.5025   22.0273 C   0  0  0  0  0  0  0  0  0  0  0  0
   10.4859    4.0901   20.9730 C   0  0  0  0  0  0  0  0  0  0  0  0
   11.0962    9.3293   23.5072 C   0  0  0  0  0  0  0  0  0  0  0  0
    5.1273    7.8529   23.6208 N   0  0  0  0  0  0  0  0  0  0  0  0
    9.7552    9.2338   23.0171 N   0  0  0  0  0  0  0  0  0  0  0  0
   11.1797    6.7591   21.3326 N   0  0  0  0  0  0  0  0  0  0  0  0
   11.7728    8.0337   23.7267 C   0  0  0  0  0  0  0  0  0  0  0  0
    7.1194    8.3344   24.6775 C   0  0  0  0  0  0  0  0  0  0  0  0
    8.4311    4.7963   22.0500 C   0  0  0  0  0  0  0  0  0  0  0  0
    8.7393   10.8706   24.1871 O   0  0  0  0  0  0  0  0  0  0  0  0
    9.3093    3.8166   21.6712 C   0  0  0  0  0  0  0  0  0  0  0  0
  1  5  1  0
  1 15  4  0
  1 22  4  0
  2 20  1  0
  2 24  1  0
  3  6  4  0
  3 27  4  0
  4 22  4  0
  4 26  4  0
  6  7  4  0
  6 13  1  0
  7 19  4  0
  8 18  1  0
  8 23  1  0
  8 28  2  0
  9 17  1  0
  9 24  1  0
 10 11  1  0
 10 24  1  0
 11 23  1  0
 12 14  4  0
 12 16  4  0
 14 19  4  0
 15 18  4  0
 16 20  4  0
 17 25  1  0
 18 26  4  0
 19 29  4  0
 20 29  4  0
 21 23  1  0
 21 25  1  0
 27 29  4  0
M  END
$$$$

 Created by Python create_sdf_string function

 29 32  0  0  0  0  0  0  0  0999 V2000
    5.4450    8.7154   22.6662 C   0  0  0  0  0  0  0  0  0  0  0  0
   10.9154    5.4574   20.5483 C   0  0  0  0  0  0  0  0  0  0  0  0
    7.2709    4.5089   22.7542 C   0  0  0  0  0  0  0  0  0  0  0  0
    5.9698    7.6329   24.6581 C   0  0  0  0  0  0  0  0  0  0  0  0
    4.5542    8.9057   21.7104 O   0  0  0  0  0  0  0  0  0  0  0  0
    6.9895    3.2085   23.0690 C   0  0  0  0  0  0  0  0  0  0  0  0
    7.8391    2.2253   22.7260 N   0  0  0  0  0  0  0  0  0  0  0  0
    8.6968    9.8373   23.6359 C   0  0  0  0  0  0  0  0  0  0  0  0
   12.5135    6.5957   21.8396 C   0  0  0  0  0  0  0  0  0  0  0  0
   10.9406    8.2330   21.1350 C   0  0  0  0  0  0  0  0  0  0  0  0
    9.6648    8.5956   21.7310 C   0  0  0  0  0  0  0  0  0  0  0  0
   10.8829    1.7153   20.9865 C   0  0  0  0  0  0  0  0  0  0  0  0
    5.7768    2.8533   23.7910 C   0  0  0  0  0  0  0  0  0  0  0  0
    9.7977    1.4791   21.6912 N   0  0  0  0  0  0  0  0  0  0  0  0
    6.5976    9.3401   22.6478 N   0  0  0  0  0  0  0  0  0  0  0  0
   11.2031    3.0042   20.6246 C   0  0  0  0  0  0  0  0  0  0  0  0
   12.8688    7.7370   22.7287 C   0  0  0  0  0  0  0  0  0  0  0  0
    7.4487    9.1361   23.6506 C   0  0  0  0  0  0  0  0  0  0  0  0
    8.9772    2.5025   22.0273 C   0  0  0  0  0  0  0  0  0  0  0  0
   10.4859    4.0901   20.9730 C   0  0  0  0  0  0  0  0  0  0  0  0
   11.0962    9.3293   23.5072 C   0  0  0  0  0  0  0  0  0  0  0  0
    5.1273    7.8529   23.6208 N   0  0  0  0  0  0  0  0  0  0  0  0
    9.7552    9.2338   23.0171 N   0  0  0  0  0  0  0  0  0  0  0  0
   11.1797    6.7591   21.3326 N   0  0  0  0  0  0  0  0  0  0  0  0
   11.7728    8.0337   23.7267 C   0  0  0  0  0  0  0  0  0  0  0  0
    7.1194    8.3344   24.6775 C   0  0  0  0  0  0  0  0  0  0  0  0
    8.4311    4.7963   22.0500 C   0  0  0  0  0  0  0  0  0  0  0  0
    8.7393   10.8706   24.1871 O   0  0  0  0  0  0  0  0  0  0  0  0
    9.3093    3.8166   21.6712 C   0  0  0  0  0  0  0  0  0  0  0  0
  1  5  1  0
  1 15  4  0
  1 22  4  0
  2 20  1  0
  2 24  1  0
  3  6  4  0
  3 27  4  0
  4 22  4  0
  4 26  4  0
  6  7  4  0
  6 13  1  0
  7 19  4  0
  8 18  1  0
  8 23  1  0
  8 28  2  0
  9 17  1  0
  9 24  1  0
 10 11  1  0
 10 24  1  0
 11 23  1  0
 12 14  4  0
 12 16  4  0
 14 19  4  0
 15 18  4  0
 16 20  4  0
 17 25  1  0
 18 26  4  0
 19 29  4  0
 20 29  4  0
 21 23  1  0
 21 25  1  0
 27 29  4  0
M  END
$$$$

 Created by Python create_sdf_string function

 29 32  0  0  0  0  0  0  0  0999 V2000
    5.4450    8.7154   22.6662 C   0  0  0  0  0  0  0  0  0  0  0  0
   10.9154    5.4574   20.5483 C   0  0  0  0  0  0  0  0  0  0  0  0
    7.2709    4.5089   22.7542 C   0  0  0  0  0  0  0  0  0  0  0  0
    5.9698    7.6329   24.6581 C   0  0  0  0  0  0  0  0  0  0  0  0
    4.5542    8.9057   21.7104 O   0  0  0  0  0  0  0  0  0  0  0  0
    6.9895    3.2085   23.0690 C   0  0  0  0  0  0  0  0  0  0  0  0
    7.8391    2.2253   22.7260 N   0  0  0  0  0  0  0  0  0  0  0  0
    8.6968    9.8373   23.6359 C   0  0  0  0  0  0  0  0  0  0  0  0
   12.5135    6.5957   21.8396 C   0  0  0  0  0  0  0  0  0  0  0  0
   10.9406    8.2330   21.1350 C   0  0  0  0  0  0  0  0  0  0  0  0
    9.6648    8.5956   21.7310 C   0  0  0  0  0  0  0  0  0  0  0  0
   10.8829    1.7153   20.9865 C   0  0  0  0  0  0  0  0  0  0  0  0
    5.7768    2.8533   23.7910 C   0  0  0  0  0  0  0  0  0  0  0  0
    9.7977    1.4791   21.6912 N   0  0  0  0  0  0  0  0  0  0  0  0
    6.5976    9.3401   22.6478 N   0  0  0  0  0  0  0  0  0  0  0  0
   11.2031    3.0042   20.6246 C   0  0  0  0  0  0  0  0  0  0  0  0
   12.8688    7.7370   22.7287 C   0  0  0  0  0  0  0  0  0  0  0  0
    7.4487    9.1361   23.6506 C   0  0  0  0  0  0  0  0  0  0  0  0
    8.9772    2.5025   22.0273 C   0  0  0  0  0  0  0  0  0  0  0  0
   10.4859    4.0901   20.9730 C   0  0  0  0  0  0  0  0  0  0  0  0
   11.0962    9.3293   23.5072 C   0  0  0  0  0  0  0  0  0  0  0  0
    5.1273    7.8529   23.6208 N   0  0  0  0  0  0  0  0  0  0  0  0
    9.7552    9.2338   23.0171 N   0  0  0  0  0  0  0  0  0  0  0  0
   11.1797    6.7591   21.3326 N   0  0  0  0  0  0  0  0  0  0  0  0
   11.7728    8.0337   23.7267 C   0  0  0  0  0  0  0  0  0  0  0  0
    7.1194    8.3344   24.6775 C   0  0  0  0  0  0  0  0  0  0  0  0
    8.4311    4.7963   22.0500 C   0  0  0  0  0  0  0  0  0  0  0  0
    8.7393   10.8706   24.1871 O   0  0  0  0  0  0  0  0  0  0  0  0
    9.3093    3.8166   21.6712 C   0  0  0  0  0  0  0  0  0  0  0  0
  1  5  1  0
  1 15  4  0
  1 22  4  0
  2 20  1  0
  2 24  1  0
  3  6  4  0
  3 27  4  0
  4 22  4  0
  4 26  4  0
  6  7  4  0
  6 13  1  0
  7 19  4  0
  8 18  1  0
  8 23  1  0
  8 28  2  0
  9 17  1  0
  9 24  1  0
 10 11  1  0
 10 24  1  0
 11 23  1  0
 12 14  4  0
 12 16  4  0
 14 19  4  0
 15 18  4  0
 16 20  4  0
 17 25  1  0
 18 26  4  0
 19 29  4  0
 20 29  4  0
 21 23  1  0
 21 25  1  0
 27 29  4  0
M  END
$$$$

 Created by Python create_sdf_string function

 29 32  0  0  0  0  0  0  0  0999 V2000
    5.4450    8.7154   22.6662 C   0  0  0  0  0  0  0  0  0  0  0  0
   10.9154    5.4574   20.5483 C   0  0  0  0  0  0  0  0  0  0  0  0
    7.2709    4.5089   22.7542 C   0  0  0  0  0  0  0  0  0  0  0  0
    5.9698    7.6329   24.6581 C   0  0  0  0  0  0  0  0  0  0  0  0
    4.5542    8.9057   21.7104 O   0  0  0  0  0  0  0  0  0  0  0  0
    6.9895    3.2085   23.0690 C   0  0  0  0  0  0  0  0  0  0  0  0
    7.8391    2.2253   22.7260 N   0  0  0  0  0  0  0  0  0  0  0  0
    8.6968    9.8373   23.6359 C   0  0  0  0  0  0  0  0  0  0  0  0
   12.5135    6.5957   21.8396 C   0  0  0  0  0  0  0  0  0  0  0  0
   10.9406    8.2330   21.1350 C   0  0  0  0  0  0  0  0  0  0  0  0
    9.6648    8.5956   21.7310 C   0  0  0  0  0  0  0  0  0  0  0  0
   10.8829    1.7153   20.9865 C   0  0  0  0  0  0  0  0  0  0  0  0
    5.7768    2.8533   23.7910 C   0  0  0  0  0  0  0  0  0  0  0  0
    9.7977    1.4791   21.6912 N   0  0  0  0  0  0  0  0  0  0  0  0
    6.5976    9.3401   22.6478 N   0  0  0  0  0  0  0  0  0  0  0  0
   11.2031    3.0042   20.6246 C   0  0  0  0  0  0  0  0  0  0  0  0
   12.8688    7.7370   22.7287 C   0  0  0  0  0  0  0  0  0  0  0  0
    7.4487    9.1361   23.6506 C   0  0  0  0  0  0  0  0  0  0  0  0
    8.9772    2.5025   22.0273 C   0  0  0  0  0  0  0  0  0  0  0  0
   10.4859    4.0901   20.9730 C   0  0  0  0  0  0  0  0  0  0  0  0
   11.0962    9.3293   23.5072 C   0  0  0  0  0  0  0  0  0  0  0  0
    5.1273    7.8529   23.6208 N   0  0  0  0  0  0  0  0  0  0  0  0
    9.7552    9.2338   23.0171 N   0  0  0  0  0  0  0  0  0  0  0  0
   11.1797    6.7591   21.3326 N   0  0  0  0  0  0  0  0  0  0  0  0
   11.7728    8.0337   23.7267 C   0  0  0  0  0  0  0  0  0  0  0  0
    7.1194    8.3344   24.6775 C   0  0  0  0  0  0  0  0  0  0  0  0
    8.4311    4.7963   22.0500 C   0  0  0  0  0  0  0  0  0  0  0  0
    8.7393   10.8706   24.1871 O   0  0  0  0  0  0  0  0  0  0  0  0
    9.3093    3.8166   21.6712 C   0  0  0  0  0  0  0  0  0  0  0  0
  1  5  1  0
  1 15  4  0
  1 22  4  0
  2 20  1  0
  2 24  1  0
  3  6  4  0
  3 27  4  0
  4 22  4  0
  4 26  4  0
  6  7  4  0
  6 13  1  0
  7 19  4  0
  8 18  1  0
  8 23  1  0
  8 28  2  0
  9 17  1  0
  9 24  1  0
 10 11  1  0
 10 24  1  0
 11 23  1  0
 12 14  4  0
 12 16  4  0
 14 19  4  0
 15 18  4  0
 16 20  4  0
 17 25  1  0
 18 26  4  0
 19 29  4  0
 20 29  4  0
 21 23  1  0
 21 25  1  0
 27 29  4  0
M  END
$$$$

 Created by Python create_sdf_string function

 29 32  0  0  0  0  0  0  0  0999 V2000
    5.4450    8.7154   22.6662 C   0  0  0  0  0  0  0  0  0  0  0  0
   10.9154    5.4574   20.5483 C   0  0  0  0  0  0  0  0  0  0  0  0
    7.2709    4.5089   22.7542 C   0  0  0  0  0  0  0  0  0  0  0  0
    5.9698    7.6329   24.6581 C   0  0  0  0  0  0  0  0  0  0  0  0
    4.5542    8.9057   21.7104 O   0  0  0  0  0  0  0  0  0  0  0  0
    6.9895    3.2085   23.0690 C   0  0  0  0  0  0  0  0  0  0  0  0
    7.8391    2.2253   22.7260 N   0  0  0  0  0  0  0  0  0  0  0  0
    8.6968    9.8373   23.6359 C   0  0  0  0  0  0  0  0  0  0  0  0
   12.5135    6.5957   21.8396 C   0  0  0  0  0  0  0  0  0  0  0  0
   10.9406    8.2330   21.1350 C   0  0  0  0  0  0  0  0  0  0  0  0
    9.6648    8.5956   21.7310 C   0  0  0  0  0  0  0  0  0  0  0  0
   10.8829    1.7153   20.9865 C   0  0  0  0  0  0  0  0  0  0  0  0
    5.7768    2.8533   23.7910 C   0  0  0  0  0  0  0  0  0  0  0  0
    9.7977    1.4791   21.6912 N   0  0  0  0  0  0  0  0  0  0  0  0
    6.5976    9.3401   22.6478 N   0  0  0  0  0  0  0  0  0  0  0  0
   11.2031    3.0042   20.6246 C   0  0  0  0  0  0  0  0  0  0  0  0
   12.8688    7.7370   22.7287 C   0  0  0  0  0  0  0  0  0  0  0  0
    7.4487    9.1361   23.6506 C   0  0  0  0  0  0  0  0  0  0  0  0
    8.9772    2.5025   22.0273 C   0  0  0  0  0  0  0  0  0  0  0  0
   10.4859    4.0901   20.9730 C   0  0  0  0  0  0  0  0  0  0  0  0
   11.0962    9.3293   23.5072 C   0  0  0  0  0  0  0  0  0  0  0  0
    5.1273    7.8529   23.6208 N   0  0  0  0  0  0  0  0  0  0  0  0
    9.7552    9.2338   23.0171 N   0  0  0  0  0  0  0  0  0  0  0  0
   11.1797    6.7591   21.3326 N   0  0  0  0  0  0  0  0  0  0  0  0
   11.7728    8.0337   23.7267 C   0  0  0  0  0  0  0  0  0  0  0  0
    7.1194    8.3344   24.6775 C   0  0  0  0  0  0  0  0  0  0  0  0
    8.4311    4.7963   22.0500 C   0  0  0  0  0  0  0  0  0  0  0  0
    8.7393   10.8706   24.1871 O   0  0  0  0  0  0  0  0  0  0  0  0
    9.3093    3.8166   21.6712 C   0  0  0  0  0  0  0  0  0  0  0  0
  1  5  1  0
  1 15  4  0
  1 22  4  0
  2 20  1  0
  2 24  1  0
  3  6  4  0
  3 27  4  0
  4 22  4  0
  4 26  4  0
  6  7  4  0
  6 13  1  0
  7 19  4  0
  8 18  1  0
  8 23  1  0
  8 28  2  0
  9 17  1  0
  9 24  1  0
 10 11  1  0
 10 24  1  0
 11 23  1  0
 12 14  4  0
 12 16  4  0
 14 19  4  0
 15 18  4  0
 16 20  4  0
 17 25  1  0
 18 26  4  0
 19 29  4  0
 20 29  4  0
 21 23  1  0
 21 25  1  0
 27 29  4  0
M  END
$$$$

 Created by Python create_sdf_string function

 29 32  0  0  0  0  0  0  0  0999 V2000
    5.4450    8.7154   22.6662 C   0  0  0  0  0  0  0  0  0  0  0  0
   10.9154    5.4574   20.5483 C   0  0  0  0  0  0  0  0  0  0  0  0
    7.2709    4.5089   22.7542 C   0  0  0  0  0  0  0  0  0  0  0  0
    5.9698    7.6329   24.6581 C   0  0  0  0  0  0  0  0  0  0  0  0
    4.5542    8.9057   21.7104 O   0  0  0  0  0  0  0  0  0  0  0  0
    6.9895    3.2085   23.0690 C   0  0  0  0  0  0  0  0  0  0  0  0
    7.8391    2.2253   22.7260 N   0  0  0  0  0  0  0  0  0  0  0  0
    8.6968    9.8373   23.6359 C   0  0  0  0  0  0  0  0  0  0  0  0
   12.5135    6.5957   21.8396 C   0  0  0  0  0  0  0  0  0  0  0  0
   10.9406    8.2330   21.1350 C   0  0  0  0  0  0  0  0  0  0  0  0
    9.6648    8.5956   21.7310 C   0  0  0  0  0  0  0  0  0  0  0  0
   10.8829    1.7153   20.9865 C   0  0  0  0  0  0  0  0  0  0  0  0
    5.7768    2.8533   23.7910 C   0  0  0  0  0  0  0  0  0  0  0  0
    9.7977    1.4791   21.6912 N   0  0  0  0  0  0  0  0  0  0  0  0
    6.5976    9.3401   22.6478 N   0  0  0  0  0  0  0  0  0  0  0  0
   11.2031    3.0042   20.6246 C   0  0  0  0  0  0  0  0  0  0  0  0
   12.8688    7.7370   22.7287 C   0  0  0  0  0  0  0  0  0  0  0  0
    7.4487    9.1361   23.6506 C   0  0  0  0  0  0  0  0  0  0  0  0
    8.9772    2.5025   22.0273 C   0  0  0  0  0  0  0  0  0  0  0  0
   10.4859    4.0901   20.9730 C   0  0  0  0  0  0  0  0  0  0  0  0
   11.0962    9.3293   23.5072 C   0  0  0  0  0  0  0  0  0  0  0  0
    5.1273    7.8529   23.6208 N   0  0  0  0  0  0  0  0  0  0  0  0
    9.7552    9.2338   23.0171 N   0  0  0  0  0  0  0  0  0  0  0  0
   11.1797    6.7591   21.3326 N   0  0  0  0  0  0  0  0  0  0  0  0
   11.7728    8.0337   23.7267 C   0  0  0  0  0  0  0  0  0  0  0  0
    7.1194    8.3344   24.6775 C   0  0  0  0  0  0  0  0  0  0  0  0
    8.4311    4.7963   22.0500 C   0  0  0  0  0  0  0  0  0  0  0  0
    8.7393   10.8706   24.1871 O   0  0  0  0  0  0  0  0  0  0  0  0
    9.3093    3.8166   21.6712 C   0  0  0  0  0  0  0  0  0  0  0  0
  1  5  1  0
  1 15  4  0
  1 22  4  0
  2 20  1  0
  2 24  1  0
  3  6  4  0
  3 27  4  0
  4 22  4  0
  4 26  4  0
  6  7  4  0
  6 13  1  0
  7 19  4  0
  8 18  1  0
  8 23  1  0
  8 28  2  0
  9 17  1  0
  9 24  1  0
 10 11  1  0
 10 24  1  0
 11 23  1  0
 12 14  4  0
 12 16  4  0
 14 19  4  0
 15 18  4  0
 16 20  4  0
 17 25  1  0
 18 26  4  0
 19 29  4  0
 20 29  4  0
 21 23  1  0
 21 25  1  0
 27 29  4  0
M  END
$$$$

 Created by Python create_sdf_string function

 29 32  0  0  0  0  0  0  0  0999 V2000
    5.4450    8.7154   22.6662 C   0  0  0  0  0  0  0  0  0  0  0  0
   10.9154    5.4574   20.5483 C   0  0  0  0  0  0  0  0  0  0  0  0
    7.2709    4.5089   22.7542 C   0  0  0  0  0  0  0  0  0  0  0  0
    5.9698    7.6329   24.6581 C   0  0  0  0  0  0  0  0  0  0  0  0
    4.5542    8.9057   21.7104 O   0  0  0  0  0  0  0  0  0  0  0  0
    6.9895    3.2085   23.0690 C   0  0  0  0  0  0  0  0  0  0  0  0
    7.8391    2.2253   22.7260 N   0  0  0  0  0  0  0  0  0  0  0  0
    8.6968    9.8373   23.6359 C   0  0  0  0  0  0  0  0  0  0  0  0
   12.5135    6.5957   21.8396 C   0  0  0  0  0  0  0  0  0  0  0  0
   10.9406    8.2330   21.1350 C   0  0  0  0  0  0  0  0  0  0  0  0
    9.6648    8.5956   21.7310 C   0  0  0  0  0  0  0  0  0  0  0  0
   10.8829    1.7153   20.9865 C   0  0  0  0  0  0  0  0  0  0  0  0
    5.7768    2.8533   23.7910 C   0  0  0  0  0  0  0  0  0  0  0  0
    9.7977    1.4791   21.6912 N   0  0  0  0  0  0  0  0  0  0  0  0
    6.5976    9.3401   22.6478 N   0  0  0  0  0  0  0  0  0  0  0  0
   11.2031    3.0042   20.6246 C   0  0  0  0  0  0  0  0  0  0  0  0
   12.8688    7.7370   22.7287 C   0  0  0  0  0  0  0  0  0  0  0  0
    7.4487    9.1361   23.6506 C   0  0  0  0  0  0  0  0  0  0  0  0
    8.9772    2.5025   22.0273 C   0  0  0  0  0  0  0  0  0  0  0  0
   10.4859    4.0901   20.9730 C   0  0  0  0  0  0  0  0  0  0  0  0
   11.0962    9.3293   23.5072 C   0  0  0  0  0  0  0  0  0  0  0  0
    5.1273    7.8529   23.6208 N   0  0  0  0  0  0  0  0  0  0  0  0
    9.7552    9.2338   23.0171 N   0  0  0  0  0  0  0  0  0  0  0  0
   11.1797    6.7591   21.3326 N   0  0  0  0  0  0  0  0  0  0  0  0
   11.7728    8.0337   23.7267 C   0  0  0  0  0  0  0  0  0  0  0  0
    7.1194    8.3344   24.6775 C   0  0  0  0  0  0  0  0  0  0  0  0
    8.4311    4.7963   22.0500 C   0  0  0  0  0  0  0  0  0  0  0  0
    8.7393   10.8706   24.1871 O   0  0  0  0  0  0  0  0  0  0  0  0
    9.3093    3.8166   21.6712 C   0  0  0  0  0  0  0  0  0  0  0  0
  1  5  1  0
  1 15  4  0
  1 22  4  0
  2 20  1  0
  2 24  1  0
  3  6  4  0
  3 27  4  0
  4 22  4  0
  4 26  4  0
  6  7  4  0
  6 13  1  0
  7 19  4  0
  8 18  1  0
  8 23  1  0
  8 28  2  0
  9 17  1  0
  9 24  1  0
 10 11  1  0
 10 24  1  0
 11 23  1  0
 12 14  4  0
 12 16  4  0
 14 19  4  0
 15 18  4  0
 16 20  4  0
 17 25  1  0
 18 26  4  0
 19 29  4  0
 20 29  4  0
 21 23  1  0
 21 25  1  0
 27 29  4  0
M  END
$$$$

 Created by Python create_sdf_string function

 29 32  0  0  0  0  0  0  0  0999 V2000
    5.4450    8.7154   22.6662 C   0  0  0  0  0  0  0  0  0  0  0  0
   10.9154    5.4574   20.5483 C   0  0  0  0  0  0  0  0  0  0  0  0
    7.2709    4.5089   22.7542 C   0  0  0  0  0  0  0  0  0  0  0  0
    5.9698    7.6329   24.6581 C   0  0  0  0  0  0  0  0  0  0  0  0
    4.5542    8.9057   21.7104 O   0  0  0  0  0  0  0  0  0  0  0  0
    6.9895    3.2085   23.0690 C   0  0  0  0  0  0  0  0  0  0  0  0
    7.8391    2.2253   22.7260 N   0  0  0  0  0  0  0  0  0  0  0  0
    8.6968    9.8373   23.6359 C   0  0  0  0  0  0  0  0  0  0  0  0
   12.5135    6.5957   21.8396 C   0  0  0  0  0  0  0  0  0  0  0  0
   10.9406    8.2330   21.1350 C   0  0  0  0  0  0  0  0  0  0  0  0
    9.6648    8.5956   21.7310 C   0  0  0  0  0  0  0  0  0  0  0  0
   10.8829    1.7153   20.9865 C   0  0  0  0  0  0  0  0  0  0  0  0
    5.7768    2.8533   23.7910 C   0  0  0  0  0  0  0  0  0  0  0  0
    9.7977    1.4791   21.6912 N   0  0  0  0  0  0  0  0  0  0  0  0
    6.5976    9.3401   22.6478 N   0  0  0  0  0  0  0  0  0  0  0  0
   11.2031    3.0042   20.6246 C   0  0  0  0  0  0  0  0  0  0  0  0
   12.8688    7.7370   22.7287 C   0  0  0  0  0  0  0  0  0  0  0  0
    7.4487    9.1361   23.6506 C   0  0  0  0  0  0  0  0  0  0  0  0
    8.9772    2.5025   22.0273 C   0  0  0  0  0  0  0  0  0  0  0  0
   10.4859    4.0901   20.9730 C   0  0  0  0  0  0  0  0  0  0  0  0
   11.0962    9.3293   23.5072 C   0  0  0  0  0  0  0  0  0  0  0  0
    5.1273    7.8529   23.6208 N   0  0  0  0  0  0  0  0  0  0  0  0
    9.7552    9.2338   23.0171 N   0  0  0  0  0  0  0  0  0  0  0  0
   11.1797    6.7591   21.3326 N   0  0  0  0  0  0  0  0  0  0  0  0
   11.7728    8.0337   23.7267 C   0  0  0  0  0  0  0  0  0  0  0  0
    7.1194    8.3344   24.6775 C   0  0  0  0  0  0  0  0  0  0  0  0
    8.4311    4.7963   22.0500 C   0  0  0  0  0  0  0  0  0  0  0  0
    8.7393   10.8706   24.1871 O   0  0  0  0  0  0  0  0  0  0  0  0
    9.3093    3.8166   21.6712 C   0  0  0  0  0  0  0  0  0  0  0  0
  1  5  1  0
  1 15  4  0
  1 22  4  0
  2 20  1  0
  2 24  1  0
  3  6  4  0
  3 27  4  0
  4 22  4  0
  4 26  4  0
  6  7  4  0
  6 13  1  0
  7 19  4  0
  8 18  1  0
  8 23  1  0
  8 28  2  0
  9 17  1  0
  9 24  1  0
 10 11  1  0
 10 24  1  0
 11 23  1  0
 12 14  4  0
 12 16  4  0
 14 19  4  0
 15 18  4  0
 16 20  4  0
 17 25  1  0
 18 26  4  0
 19 29  4  0
 20 29  4  0
 21 23  1  0
 21 25  1  0
 27 29  4  0
M  END
$$$$

 Created by Python create_sdf_string function

 29 32  0  0  0  0  0  0  0  0999 V2000
    5.4450    8.7154   22.6662 C   0  0  0  0  0  0  0  0  0  0  0  0
   10.9154    5.4574   20.5483 C   0  0  0  0  0  0  0  0  0  0  0  0
    7.2709    4.5089   22.7542 C   0  0  0  0  0  0  0  0  0  0  0  0
    5.9698    7.6329   24.6581 C   0  0  0  0  0  0  0  0  0  0  0  0
    4.5542    8.9057   21.7104 O   0  0  0  0  0  0  0  0  0  0  0  0
    6.9895    3.2085   23.0690 C   0  0  0  0  0  0  0  0  0  0  0  0
    7.8391    2.2253   22.7260 N   0  0  0  0  0  0  0  0  0  0  0  0
    8.6968    9.8373   23.6359 C   0  0  0  0  0  0  0  0  0  0  0  0
   12.5135    6.5957   21.8396 C   0  0  0  0  0  0  0  0  0  0  0  0
   10.9406    8.2330   21.1350 C   0  0  0  0  0  0  0  0  0  0  0  0
    9.6648    8.5956   21.7310 C   0  0  0  0  0  0  0  0  0  0  0  0
   10.8829    1.7153   20.9865 C   0  0  0  0  0  0  0  0  0  0  0  0
    5.7768    2.8533   23.7910 C   0  0  0  0  0  0  0  0  0  0  0  0
    9.7977    1.4791   21.6912 N   0  0  0  0  0  0  0  0  0  0  0  0
    6.5976    9.3401   22.6478 N   0  0  0  0  0  0  0  0  0  0  0  0
   11.2031    3.0042   20.6246 C   0  0  0  0  0  0  0  0  0  0  0  0
   12.8688    7.7370   22.7287 C   0  0  0  0  0  0  0  0  0  0  0  0
    7.4487    9.1361   23.6506 C   0  0  0  0  0  0  0  0  0  0  0  0
    8.9772    2.5025   22.0273 C   0  0  0  0  0  0  0  0  0  0  0  0
   10.4859    4.0901   20.9730 C   0  0  0  0  0  0  0  0  0  0  0  0
   11.0962    9.3293   23.5072 C   0  0  0  0  0  0  0  0  0  0  0  0
    5.1273    7.8529   23.6208 N   0  0  0  0  0  0  0  0  0  0  0  0
    9.7552    9.2338   23.0171 N   0  0  0  0  0  0  0  0  0  0  0  0
   11.1797    6.7591   21.3326 N   0  0  0  0  0  0  0  0  0  0  0  0
   11.7728    8.0337   23.7267 C   0  0  0  0  0  0  0  0  0  0  0  0
    7.1194    8.3344   24.6775 C   0  0  0  0  0  0  0  0  0  0  0  0
    8.4311    4.7963   22.0500 C   0  0  0  0  0  0  0  0  0  0  0  0
    8.7393   10.8706   24.1871 O   0  0  0  0  0  0  0  0  0  0  0  0
    9.3093    3.8166   21.6712 C   0  0  0  0  0  0  0  0  0  0  0  0
  1  5  1  0
  1 15  4  0
  1 22  4  0
  2 20  1  0
  2 24  1  0
  3  6  4  0
  3 27  4  0
  4 22  4  0
  4 26  4  0
  6  7  4  0
  6 13  1  0
  7 19  4  0
  8 18  1  0
  8 23  1  0
  8 28  2  0
  9 17  1  0
  9 24  1  0
 10 11  1  0
 10 24  1  0
 11 23  1  0
 12 14  4  0
 12 16  4  0
 14 19  4  0
 15 18  4  0
 16 20  4  0
 17 25  1  0
 18 26  4  0
 19 29  4  0
 20 29  4  0
 21 23  1  0
 21 25  1  0
 27 29  4  0
M  END
$$$$

 Created by Python create_sdf_string function

 29 32  0  0  0  0  0  0  0  0999 V2000
    5.4450    8.7154   22.6662 C   0  0  0  0  0  0  0  0  0  0  0  0
   10.9154    5.4574   20.5483 C   0  0  0  0  0  0  0  0  0  0  0  0
    7.2709    4.5089   22.7542 C   0  0  0  0  0  0  0  0  0  0  0  0
    5.9698    7.6329   24.6581 C   0  0  0  0  0  0  0  0  0  0  0  0
    4.5542    8.9057   21.7104 O   0  0  0  0  0  0  0  0  0  0  0  0
    6.9895    3.2085   23.0690 C   0  0  0  0  0  0  0  0  0  0  0  0
    7.8391    2.2253   22.7260 N   0  0  0  0  0  0  0  0  0  0  0  0
    8.6968    9.8373   23.6359 C   0  0  0  0  0  0  0  0  0  0  0  0
   12.5135    6.5957   21.8396 C   0  0  0  0  0  0  0  0  0  0  0  0
   10.9406    8.2330   21.1350 C   0  0  0  0  0  0  0  0  0  0  0  0
    9.6648    8.5956   21.7310 C   0  0  0  0  0  0  0  0  0  0  0  0
   10.8829    1.7153   20.9865 C   0  0  0  0  0  0  0  0  0  0  0  0
    5.7768    2.8533   23.7910 C   0  0  0  0  0  0  0  0  0  0  0  0
    9.7977    1.4791   21.6912 N   0  0  0  0  0  0  0  0  0  0  0  0
    6.5976    9.3401   22.6478 N   0  0  0  0  0  0  0  0  0  0  0  0
   11.2031    3.0042   20.6246 C   0  0  0  0  0  0  0  0  0  0  0  0
   12.8688    7.7370   22.7287 C   0  0  0  0  0  0  0  0  0  0  0  0
    7.4487    9.1361   23.6506 C   0  0  0  0  0  0  0  0  0  0  0  0
    8.9772    2.5025   22.0273 C   0  0  0  0  0  0  0  0  0  0  0  0
   10.4859    4.0901   20.9730 C   0  0  0  0  0  0  0  0  0  0  0  0
   11.0962    9.3293   23.5072 C   0  0  0  0  0  0  0  0  0  0  0  0
    5.1273    7.8529   23.6208 N   0  0  0  0  0  0  0  0  0  0  0  0
    9.7552    9.2338   23.0171 N   0  0  0  0  0  0  0  0  0  0  0  0
   11.1797    6.7591   21.3326 N   0  0  0  0  0  0  0  0  0  0  0  0
   11.7728    8.0337   23.7267 C   0  0  0  0  0  0  0  0  0  0  0  0
    7.1194    8.3344   24.6775 C   0  0  0  0  0  0  0  0  0  0  0  0
    8.4311    4.7963   22.0500 C   0  0  0  0  0  0  0  0  0  0  0  0
    8.7393   10.8706   24.1871 O   0  0  0  0  0  0  0  0  0  0  0  0
    9.3093    3.8166   21.6712 C   0  0  0  0  0  0  0  0  0  0  0  0
  1  5  1  0
  1 15  4  0
  1 22  4  0
  2 20  1  0
  2 24  1  0
  3  6  4  0
  3 27  4  0
  4 22  4  0
  4 26  4  0
  6  7  4  0
  6 13  1  0
  7 19  4  0
  8 18  1  0
  8 23  1  0
  8 28  2  0
  9 17  1  0
  9 24  1  0
 10 11  1  0
 10 24  1  0
 11 23  1  0
 12 14  4  0
 12 16  4  0
 14 19  4  0
 15 18  4  0
 16 20  4  0
 17 25  1  0
 18 26  4  0
 19 29  4  0
 20 29  4  0
 21 23  1  0
 21 25  1  0
 27 29  4  0
M  END
$$$$

 Created by Python create_sdf_string function

 29 32  0  0  0  0  0  0  0  0999 V2000
    5.4450    8.7154   22.6662 C   0  0  0  0  0  0  0  0  0  0  0  0
   10.9154    5.4574   20.5483 C   0  0  0  0  0  0  0  0  0  0  0  0
    7.2709    4.5089   22.7542 C   0  0  0  0  0  0  0  0  0  0  0  0
    5.9698    7.6329   24.6581 C   0  0  0  0  0  0  0  0  0  0  0  0
    4.5542    8.9057   21.7104 O   0  0  0  0  0  0  0  0  0  0  0  0
    6.9895    3.2085   23.0690 C   0  0  0  0  0  0  0  0  0  0  0  0
    7.8391    2.2253   22.7260 N   0  0  0  0  0  0  0  0  0  0  0  0
    8.6968    9.8373   23.6359 C   0  0  0  0  0  0  0  0  0  0  0  0
   12.5135    6.5957   21.8396 C   0  0  0  0  0  0  0  0  0  0  0  0
   10.9406    8.2330   21.1350 C   0  0  0  0  0  0  0  0  0  0  0  0
    9.6648    8.5956   21.7310 C   0  0  0  0  0  0  0  0  0  0  0  0
   10.8829    1.7153   20.9865 C   0  0  0  0  0  0  0  0  0  0  0  0
    5.7768    2.8533   23.7910 C   0  0  0  0  0  0  0  0  0  0  0  0
    9.7977    1.4791   21.6912 N   0  0  0  0  0  0  0  0  0  0  0  0
    6.5976    9.3401   22.6478 N   0  0  0  0  0  0  0  0  0  0  0  0
   11.2031    3.0042   20.6246 C   0  0  0  0  0  0  0  0  0  0  0  0
   12.8688    7.7370   22.7287 C   0  0  0  0  0  0  0  0  0  0  0  0
    7.4487    9.1361   23.6506 C   0  0  0  0  0  0  0  0  0  0  0  0
    8.9772    2.5025   22.0273 C   0  0  0  0  0  0  0  0  0  0  0  0
   10.4859    4.0901   20.9730 C   0  0  0  0  0  0  0  0  0  0  0  0
   11.0962    9.3293   23.5072 C   0  0  0  0  0  0  0  0  0  0  0  0
    5.1273    7.8529   23.6208 N   0  0  0  0  0  0  0  0  0  0  0  0
    9.7552    9.2338   23.0171 N   0  0  0  0  0  0  0  0  0  0  0  0
   11.1797    6.7591   21.3326 N   0  0  0  0  0  0  0  0  0  0  0  0
   11.7728    8.0337   23.7267 C   0  0  0  0  0  0  0  0  0  0  0  0
    7.1194    8.3344   24.6775 C   0  0  0  0  0  0  0  0  0  0  0  0
    8.4311    4.7963   22.0500 C   0  0  0  0  0  0  0  0  0  0  0  0
    8.7393   10.8706   24.1871 O   0  0  0  0  0  0  0  0  0  0  0  0
    9.3093    3.8166   21.6712 C   0  0  0  0  0  0  0  0  0  0  0  0
  1  5  1  0
  1 15  4  0
  1 22  4  0
  2 20  1  0
  2 24  1  0
  3  6  4  0
  3 27  4  0
  4 22  4  0
  4 26  4  0
  6  7  4  0
  6 13  1  0
  7 19  4  0
  8 18  1  0
  8 23  1  0
  8 28  2  0
  9 17  1  0
  9 24  1  0
 10 11  1  0
 10 24  1  0
 11 23  1  0
 12 14  4  0
 12 16  4  0
 14 19  4  0
 15 18  4  0
 16 20  4  0
 17 25  1  0
 18 26  4  0
 19 29  4  0
 20 29  4  0
 21 23  1  0
 21 25  1  0
 27 29  4  0
M  END
$$$$

 Created by Python create_sdf_string function

 29 32  0  0  0  0  0  0  0  0999 V2000
    5.4450    8.7154   22.6662 C   0  0  0  0  0  0  0  0  0  0  0  0
   10.9154    5.4574   20.5483 C   0  0  0  0  0  0  0  0  0  0  0  0
    7.2709    4.5089   22.7542 C   0  0  0  0  0  0  0  0  0  0  0  0
    5.9698    7.6329   24.6581 C   0  0  0  0  0  0  0  0  0  0  0  0
    4.5542    8.9057   21.7104 O   0  0  0  0  0  0  0  0  0  0  0  0
    6.9895    3.2085   23.0690 C   0  0  0  0  0  0  0  0  0  0  0  0
    7.8391    2.2253   22.7260 N   0  0  0  0  0  0  0  0  0  0  0  0
    8.6968    9.8373   23.6359 C   0  0  0  0  0  0  0  0  0  0  0  0
   12.5135    6.5957   21.8396 C   0  0  0  0  0  0  0  0  0  0  0  0
   10.9406    8.2330   21.1350 C   0  0  0  0  0  0  0  0  0  0  0  0
    9.6648    8.5956   21.7310 C   0  0  0  0  0  0  0  0  0  0  0  0
   10.8829    1.7153   20.9865 C   0  0  0  0  0  0  0  0  0  0  0  0
    5.7768    2.8533   23.7910 C   0  0  0  0  0  0  0  0  0  0  0  0
    9.7977    1.4791   21.6912 N   0  0  0  0  0  0  0  0  0  0  0  0
    6.5976    9.3401   22.6478 N   0  0  0  0  0  0  0  0  0  0  0  0
   11.2031    3.0042   20.6246 C   0  0  0  0  0  0  0  0  0  0  0  0
   12.8688    7.7370   22.7287 C   0  0  0  0  0  0  0  0  0  0  0  0
    7.4487    9.1361   23.6506 C   0  0  0  0  0  0  0  0  0  0  0  0
    8.9772    2.5025   22.0273 C   0  0  0  0  0  0  0  0  0  0  0  0
   10.4859    4.0901   20.9730 C   0  0  0  0  0  0  0  0  0  0  0  0
   11.0962    9.3293   23.5072 C   0  0  0  0  0  0  0  0  0  0  0  0
    5.1273    7.8529   23.6208 N   0  0  0  0  0  0  0  0  0  0  0  0
    9.7552    9.2338   23.0171 N   0  0  0  0  0  0  0  0  0  0  0  0
   11.1797    6.7591   21.3326 N   0  0  0  0  0  0  0  0  0  0  0  0
   11.7728    8.0337   23.7267 C   0  0  0  0  0  0  0  0  0  0  0  0
    7.1194    8.3344   24.6775 C   0  0  0  0  0  0  0  0  0  0  0  0
    8.4311    4.7963   22.0500 C   0  0  0  0  0  0  0  0  0  0  0  0
    8.7393   10.8706   24.1871 O   0  0  0  0  0  0  0  0  0  0  0  0
    9.3093    3.8166   21.6712 C   0  0  0  0  0  0  0  0  0  0  0  0
  1  5  1  0
  1 15  4  0
  1 22  4  0
  2 20  1  0
  2 24  1  0
  3  6  4  0
  3 27  4  0
  4 22  4  0
  4 26  4  0
  6  7  4  0
  6 13  1  0
  7 19  4  0
  8 18  1  0
  8 23  1  0
  8 28  2  0
  9 17  1  0
  9 24  1  0
 10 11  1  0
 10 24  1  0
 11 23  1  0
 12 14  4  0
 12 16  4  0
 14 19  4  0
 15 18  4  0
 16 20  4  0
 17 25  1  0
 18 26  4  0
 19 29  4  0
 20 29  4  0
 21 23  1  0
 21 25  1  0
 27 29  4  0
M  END
$$$$

 Created by Python create_sdf_string function

 29 32  0  0  0  0  0  0  0  0999 V2000
    5.4450    8.7154   22.6662 C   0  0  0  0  0  0  0  0  0  0  0  0
   10.9154    5.4574   20.5483 C   0  0  0  0  0  0  0  0  0  0  0  0
    7.2709    4.5089   22.7542 C   0  0  0  0  0  0  0  0  0  0  0  0
    5.9698    7.6329   24.6581 C   0  0  0  0  0  0  0  0  0  0  0  0
    4.5542    8.9057   21.7104 O   0  0  0  0  0  0  0  0  0  0  0  0
    6.9895    3.2085   23.0690 C   0  0  0  0  0  0  0  0  0  0  0  0
    7.8391    2.2253   22.7260 N   0  0  0  0  0  0  0  0  0  0  0  0
    8.6968    9.8373   23.6359 C   0  0  0  0  0  0  0  0  0  0  0  0
   12.5135    6.5957   21.8396 C   0  0  0  0  0  0  0  0  0  0  0  0
   10.9406    8.2330   21.1350 C   0  0  0  0  0  0  0  0  0  0  0  0
    9.6648    8.5956   21.7310 C   0  0  0  0  0  0  0  0  0  0  0  0
   10.8829    1.7153   20.9865 C   0  0  0  0  0  0  0  0  0  0  0  0
    5.7768    2.8533   23.7910 C   0  0  0  0  0  0  0  0  0  0  0  0
    9.7977    1.4791   21.6912 N   0  0  0  0  0  0  0  0  0  0  0  0
    6.5976    9.3401   22.6478 N   0  0  0  0  0  0  0  0  0  0  0  0
   11.2031    3.0042   20.6246 C   0  0  0  0  0  0  0  0  0  0  0  0
   12.8688    7.7370   22.7287 C   0  0  0  0  0  0  0  0  0  0  0  0
    7.4487    9.1361   23.6506 C   0  0  0  0  0  0  0  0  0  0  0  0
    8.9772    2.5025   22.0273 C   0  0  0  0  0  0  0  0  0  0  0  0
   10.4859    4.0901   20.9730 C   0  0  0  0  0  0  0  0  0  0  0  0
   11.0962    9.3293   23.5072 C   0  0  0  0  0  0  0  0  0  0  0  0
    5.1273    7.8529   23.6208 N   0  0  0  0  0  0  0  0  0  0  0  0
    9.7552    9.2338   23.0171 N   0  0  0  0  0  0  0  0  0  0  0  0
   11.1797    6.7591   21.3326 N   0  0  0  0  0  0  0  0  0  0  0  0
   11.7728    8.0337   23.7267 C   0  0  0  0  0  0  0  0  0  0  0  0
    7.1194    8.3344   24.6775 C   0  0  0  0  0  0  0  0  0  0  0  0
    8.4311    4.7963   22.0500 C   0  0  0  0  0  0  0  0  0  0  0  0
    8.7393   10.8706   24.1871 O   0  0  0  0  0  0  0  0  0  0  0  0
    9.3093    3.8166   21.6712 C   0  0  0  0  0  0  0  0  0  0  0  0
  1  5  1  0
  1 15  4  0
  1 22  4  0
  2 20  1  0
  2 24  1  0
  3  6  4  0
  3 27  4  0
  4 22  4  0
  4 26  4  0
  6  7  4  0
  6 13  1  0
  7 19  4  0
  8 18  1  0
  8 23  1  0
  8 28  2  0
  9 17  1  0
  9 24  1  0
 10 11  1  0
 10 24  1  0
 11 23  1  0
 12 14  4  0
 12 16  4  0
 14 19  4  0
 15 18  4  0
 16 20  4  0
 17 25  1  0
 18 26  4  0
 19 29  4  0
 20 29  4  0
 21 23  1  0
 21 25  1  0
 27 29  4  0
M  END
$$$$

 Created by Python create_sdf_string function

 29 32  0  0  0  0  0  0  0  0999 V2000
    5.4450    8.7154   22.6662 C   0  0  0  0  0  0  0  0  0  0  0  0
   10.9154    5.4574   20.5483 C   0  0  0  0  0  0  0  0  0  0  0  0
    7.2709    4.5089   22.7542 C   0  0  0  0  0  0  0  0  0  0  0  0
    5.9698    7.6329   24.6581 C   0  0  0  0  0  0  0  0  0  0  0  0
    4.5542    8.9057   21.7104 O   0  0  0  0  0  0  0  0  0  0  0  0
    6.9895    3.2085   23.0690 C   0  0  0  0  0  0  0  0  0  0  0  0
    7.8391    2.2253   22.7260 N   0  0  0  0  0  0  0  0  0  0  0  0
    8.6968    9.8373   23.6359 C   0  0  0  0  0  0  0  0  0  0  0  0
   12.5135    6.5957   21.8396 C   0  0  0  0  0  0  0  0  0  0  0  0
   10.9406    8.2330   21.1350 C   0  0  0  0  0  0  0  0  0  0  0  0
    9.6648    8.5956   21.7310 C   0  0  0  0  0  0  0  0  0  0  0  0
   10.8829    1.7153   20.9865 C   0  0  0  0  0  0  0  0  0  0  0  0
    5.7768    2.8533   23.7910 C   0  0  0  0  0  0  0  0  0  0  0  0
    9.7977    1.4791   21.6912 N   0  0  0  0  0  0  0  0  0  0  0  0
    6.5976    9.3401   22.6478 N   0  0  0  0  0  0  0  0  0  0  0  0
   11.2031    3.0042   20.6246 C   0  0  0  0  0  0  0  0  0  0  0  0
   12.8688    7.7370   22.7287 C   0  0  0  0  0  0  0  0  0  0  0  0
    7.4487    9.1361   23.6506 C   0  0  0  0  0  0  0  0  0  0  0  0
    8.9772    2.5025   22.0273 C   0  0  0  0  0  0  0  0  0  0  0  0
   10.4859    4.0901   20.9730 C   0  0  0  0  0  0  0  0  0  0  0  0
   11.0962    9.3293   23.5072 C   0  0  0  0  0  0  0  0  0  0  0  0
    5.1273    7.8529   23.6208 N   0  0  0  0  0  0  0  0  0  0  0  0
    9.7552    9.2338   23.0171 N   0  0  0  0  0  0  0  0  0  0  0  0
   11.1797    6.7591   21.3326 N   0  0  0  0  0  0  0  0  0  0  0  0
   11.7728    8.0337   23.7267 C   0  0  0  0  0  0  0  0  0  0  0  0
    7.1194    8.3344   24.6775 C   0  0  0  0  0  0  0  0  0  0  0  0
    8.4311    4.7963   22.0500 C   0  0  0  0  0  0  0  0  0  0  0  0
    8.7393   10.8706   24.1871 O   0  0  0  0  0  0  0  0  0  0  0  0
    9.3093    3.8166   21.6712 C   0  0  0  0  0  0  0  0  0  0  0  0
  1  5  1  0
  1 15  4  0
  1 22  4  0
  2 20  1  0
  2 24  1  0
  3  6  4  0
  3 27  4  0
  4 22  4  0
  4 26  4  0
  6  7  4  0
  6 13  1  0
  7 19  4  0
  8 18  1  0
  8 23  1  0
  8 28  2  0
  9 17  1  0
  9 24  1  0
 10 11  1  0
 10 24  1  0
 11 23  1  0
 12 14  4  0
 12 16  4  0
 14 19  4  0
 15 18  4  0
 16 20  4  0
 17 25  1  0
 18 26  4  0
 19 29  4  0
 20 29  4  0
 21 23  1  0
 21 25  1  0
 27 29  4  0
M  END
$$$$

 Created by Python create_sdf_string function

 29 32  0  0  0  0  0  0  0  0999 V2000
    5.4450    8.7154   22.6662 C   0  0  0  0  0  0  0  0  0  0  0  0
   10.9154    5.4574   20.5483 C   0  0  0  0  0  0  0  0  0  0  0  0
    7.2709    4.5089   22.7542 C   0  0  0  0  0  0  0  0  0  0  0  0
    5.9698    7.6329   24.6581 C   0  0  0  0  0  0  0  0  0  0  0  0
    4.5542    8.9057   21.7104 O   0  0  0  0  0  0  0  0  0  0  0  0
    6.9895    3.2085   23.0690 C   0  0  0  0  0  0  0  0  0  0  0  0
    7.8391    2.2253   22.7260 N   0  0  0  0  0  0  0  0  0  0  0  0
    8.6968    9.8373   23.6359 C   0  0  0  0  0  0  0  0  0  0  0  0
   12.5135    6.5957   21.8396 C   0  0  0  0  0  0  0  0  0  0  0  0
   10.9406    8.2330   21.1350 C   0  0  0  0  0  0  0  0  0  0  0  0
    9.6648    8.5956   21.7310 C   0  0  0  0  0  0  0  0  0  0  0  0
   10.8829    1.7153   20.9865 C   0  0  0  0  0  0  0  0  0  0  0  0
    5.7768    2.8533   23.7910 C   0  0  0  0  0  0  0  0  0  0  0  0
    9.7977    1.4791   21.6912 N   0  0  0  0  0  0  0  0  0  0  0  0
    6.5976    9.3401   22.6478 N   0  0  0  0  0  0  0  0  0  0  0  0
   11.2031    3.0042   20.6246 C   0  0  0  0  0  0  0  0  0  0  0  0
   12.8688    7.7370   22.7287 C   0  0  0  0  0  0  0  0  0  0  0  0
    7.4487    9.1361   23.6506 C   0  0  0  0  0  0  0  0  0  0  0  0
    8.9772    2.5025   22.0273 C   0  0  0  0  0  0  0  0  0  0  0  0
   10.4859    4.0901   20.9730 C   0  0  0  0  0  0  0  0  0  0  0  0
   11.0962    9.3293   23.5072 C   0  0  0  0  0  0  0  0  0  0  0  0
    5.1273    7.8529   23.6208 N   0  0  0  0  0  0  0  0  0  0  0  0
    9.7552    9.2338   23.0171 N   0  0  0  0  0  0  0  0  0  0  0  0
   11.1797    6.7591   21.3326 N   0  0  0  0  0  0  0  0  0  0  0  0
   11.7728    8.0337   23.7267 C   0  0  0  0  0  0  0  0  0  0  0  0
    7.1194    8.3344   24.6775 C   0  0  0  0  0  0  0  0  0  0  0  0
    8.4311    4.7963   22.0500 C   0  0  0  0  0  0  0  0  0  0  0  0
    8.7393   10.8706   24.1871 O   0  0  0  0  0  0  0  0  0  0  0  0
    9.3093    3.8166   21.6712 C   0  0  0  0  0  0  0  0  0  0  0  0
  1  5  1  0
  1 15  4  0
  1 22  4  0
  2 20  1  0
  2 24  1  0
  3  6  4  0
  3 27  4  0
  4 22  4  0
  4 26  4  0
  6  7  4  0
  6 13  1  0
  7 19  4  0
  8 18  1  0
  8 23  1  0
  8 28  2  0
  9 17  1  0
  9 24  1  0
 10 11  1  0
 10 24  1  0
 11 23  1  0
 12 14  4  0
 12 16  4  0
 14 19  4  0
 15 18  4  0
 16 20  4  0
 17 25  1  0
 18 26  4  0
 19 29  4  0
 20 29  4  0
 21 23  1  0
 21 25  1  0
 27 29  4  0
M  END
$$$$

 Created by Python create_sdf_string function

 29 32  0  0  0  0  0  0  0  0999 V2000
    5.4450    8.7154   22.6662 C   0  0  0  0  0  0  0  0  0  0  0  0
   10.9154    5.4574   20.5483 C   0  0  0  0  0  0  0  0  0  0  0  0
    7.2709    4.5089   22.7542 C   0  0  0  0  0  0  0  0  0  0  0  0
    5.9698    7.6329   24.6581 C   0  0  0  0  0  0  0  0  0  0  0  0
    4.5542    8.9057   21.7104 O   0  0  0  0  0  0  0  0  0  0  0  0
    6.9895    3.2085   23.0690 C   0  0  0  0  0  0  0  0  0  0  0  0
    7.8391    2.2253   22.7260 N   0  0  0  0  0  0  0  0  0  0  0  0
    8.6968    9.8373   23.6359 C   0  0  0  0  0  0  0  0  0  0  0  0
   12.5135    6.5957   21.8396 C   0  0  0  0  0  0  0  0  0  0  0  0
   10.9406    8.2330   21.1350 C   0  0  0  0  0  0  0  0  0  0  0  0
    9.6648    8.5956   21.7310 C   0  0  0  0  0  0  0  0  0  0  0  0
   10.8829    1.7153   20.9865 C   0  0  0  0  0  0  0  0  0  0  0  0
    5.7768    2.8533   23.7910 C   0  0  0  0  0  0  0  0  0  0  0  0
    9.7977    1.4791   21.6912 N   0  0  0  0  0  0  0  0  0  0  0  0
    6.5976    9.3401   22.6478 N   0  0  0  0  0  0  0  0  0  0  0  0
   11.2031    3.0042   20.6246 C   0  0  0  0  0  0  0  0  0  0  0  0
   12.8688    7.7370   22.7287 C   0  0  0  0  0  0  0  0  0  0  0  0
    7.4487    9.1361   23.6506 C   0  0  0  0  0  0  0  0  0  0  0  0
    8.9772    2.5025   22.0273 C   0  0  0  0  0  0  0  0  0  0  0  0
   10.4859    4.0901   20.9730 C   0  0  0  0  0  0  0  0  0  0  0  0
   11.0962    9.3293   23.5072 C   0  0  0  0  0  0  0  0  0  0  0  0
    5.1273    7.8529   23.6208 N   0  0  0  0  0  0  0  0  0  0  0  0
    9.7552    9.2338   23.0171 N   0  0  0  0  0  0  0  0  0  0  0  0
   11.1797    6.7591   21.3326 N   0  0  0  0  0  0  0  0  0  0  0  0
   11.7728    8.0337   23.7267 C   0  0  0  0  0  0  0  0  0  0  0  0
    7.1194    8.3344   24.6775 C   0  0  0  0  0  0  0  0  0  0  0  0
    8.4311    4.7963   22.0500 C   0  0  0  0  0  0  0  0  0  0  0  0
    8.7393   10.8706   24.1871 O   0  0  0  0  0  0  0  0  0  0  0  0
    9.3093    3.8166   21.6712 C   0  0  0  0  0  0  0  0  0  0  0  0
  1  5  1  0
  1 15  4  0
  1 22  4  0
  2 20  1  0
  2 24  1  0
  3  6  4  0
  3 27  4  0
  4 22  4  0
  4 26  4  0
  6  7  4  0
  6 13  1  0
  7 19  4  0
  8 18  1  0
  8 23  1  0
  8 28  2  0
  9 17  1  0
  9 24  1  0
 10 11  1  0
 10 24  1  0
 11 23  1  0
 12 14  4  0
 12 16  4  0
 14 19  4  0
 15 18  4  0
 16 20  4  0
 17 25  1  0
 18 26  4  0
 19 29  4  0
 20 29  4  0
 21 23  1  0
 21 25  1  0
 27 29  4  0
M  END
$$$$

 Created by Python create_sdf_string function

 29 32  0  0  0  0  0  0  0  0999 V2000
    5.4450    8.7154   22.6662 C   0  0  0  0  0  0  0  0  0  0  0  0
   10.9154    5.4574   20.5483 C   0  0  0  0  0  0  0  0  0  0  0  0
    7.2709    4.5089   22.7542 C   0  0  0  0  0  0  0  0  0  0  0  0
    5.9698    7.6329   24.6581 C   0  0  0  0  0  0  0  0  0  0  0  0
    4.5542    8.9057   21.7104 O   0  0  0  0  0  0  0  0  0  0  0  0
    6.9895    3.2085   23.0690 C   0  0  0  0  0  0  0  0  0  0  0  0
    7.8391    2.2253   22.7260 N   0  0  0  0  0  0  0  0  0  0  0  0
    8.6968    9.8373   23.6359 C   0  0  0  0  0  0  0  0  0  0  0  0
   12.5135    6.5957   21.8396 C   0  0  0  0  0  0  0  0  0  0  0  0
   10.9406    8.2330   21.1350 C   0  0  0  0  0  0  0  0  0  0  0  0
    9.6648    8.5956   21.7310 C   0  0  0  0  0  0  0  0  0  0  0  0
   10.8829    1.7153   20.9865 C   0  0  0  0  0  0  0  0  0  0  0  0
    5.7768    2.8533   23.7910 C   0  0  0  0  0  0  0  0  0  0  0  0
    9.7977    1.4791   21.6912 N   0  0  0  0  0  0  0  0  0  0  0  0
    6.5976    9.3401   22.6478 N   0  0  0  0  0  0  0  0  0  0  0  0
   11.2031    3.0042   20.6246 C   0  0  0  0  0  0  0  0  0  0  0  0
   12.8688    7.7370   22.7287 C   0  0  0  0  0  0  0  0  0  0  0  0
    7.4487    9.1361   23.6506 C   0  0  0  0  0  0  0  0  0  0  0  0
    8.9772    2.5025   22.0273 C   0  0  0  0  0  0  0  0  0  0  0  0
   10.4859    4.0901   20.9730 C   0  0  0  0  0  0  0  0  0  0  0  0
   11.0962    9.3293   23.5072 C   0  0  0  0  0  0  0  0  0  0  0  0
    5.1273    7.8529   23.6208 N   0  0  0  0  0  0  0  0  0  0  0  0
    9.7552    9.2338   23.0171 N   0  0  0  0  0  0  0  0  0  0  0  0
   11.1797    6.7591   21.3326 N   0  0  0  0  0  0  0  0  0  0  0  0
   11.7728    8.0337   23.7267 C   0  0  0  0  0  0  0  0  0  0  0  0
    7.1194    8.3344   24.6775 C   0  0  0  0  0  0  0  0  0  0  0  0
    8.4311    4.7963   22.0500 C   0  0  0  0  0  0  0  0  0  0  0  0
    8.7393   10.8706   24.1871 O   0  0  0  0  0  0  0  0  0  0  0  0
    9.3093    3.8166   21.6712 C   0  0  0  0  0  0  0  0  0  0  0  0
  1  5  1  0
  1 15  4  0
  1 22  4  0
  2 20  1  0
  2 24  1  0
  3  6  4  0
  3 27  4  0
  4 22  4  0
  4 26  4  0
  6  7  4  0
  6 13  1  0
  7 19  4  0
  8 18  1  0
  8 23  1  0
  8 28  2  0
  9 17  1  0
  9 24  1  0
 10 11  1  0
 10 24  1  0
 11 23  1  0
 12 14  4  0
 12 16  4  0
 14 19  4  0
 15 18  4  0
 16 20  4  0
 17 25  1  0
 18 26  4  0
 19 29  4  0
 20 29  4  0
 21 23  1  0
 21 25  1  0
 27 29  4  0
M  END
$$$$

 Created by Python create_sdf_string function

 29 32  0  0  0  0  0  0  0  0999 V2000
    5.4450    8.7154   22.6662 C   0  0  0  0  0  0  0  0  0  0  0  0
   10.9154    5.4574   20.5483 C   0  0  0  0  0  0  0  0  0  0  0  0
    7.2709    4.5089   22.7542 C   0  0  0  0  0  0  0  0  0  0  0  0
    5.9698    7.6329   24.6581 C   0  0  0  0  0  0  0  0  0  0  0  0
    4.5542    8.9057   21.7104 O   0  0  0  0  0  0  0  0  0  0  0  0
    6.9895    3.2085   23.0690 C   0  0  0  0  0  0  0  0  0  0  0  0
    7.8391    2.2253   22.7260 N   0  0  0  0  0  0  0  0  0  0  0  0
    8.6968    9.8373   23.6359 C   0  0  0  0  0  0  0  0  0  0  0  0
   12.5135    6.5957   21.8396 C   0  0  0  0  0  0  0  0  0  0  0  0
   10.9406    8.2330   21.1350 C   0  0  0  0  0  0  0  0  0  0  0  0
    9.6648    8.5956   21.7310 C   0  0  0  0  0  0  0  0  0  0  0  0
   10.8829    1.7153   20.9865 C   0  0  0  0  0  0  0  0  0  0  0  0
    5.7768    2.8533   23.7910 C   0  0  0  0  0  0  0  0  0  0  0  0
    9.7977    1.4791   21.6912 N   0  0  0  0  0  0  0  0  0  0  0  0
    6.5976    9.3401   22.6478 N   0  0  0  0  0  0  0  0  0  0  0  0
   11.2031    3.0042   20.6246 C   0  0  0  0  0  0  0  0  0  0  0  0
   12.8688    7.7370   22.7287 C   0  0  0  0  0  0  0  0  0  0  0  0
    7.4487    9.1361   23.6506 C   0  0  0  0  0  0  0  0  0  0  0  0
    8.9772    2.5025   22.0273 C   0  0  0  0  0  0  0  0  0  0  0  0
   10.4859    4.0901   20.9730 C   0  0  0  0  0  0  0  0  0  0  0  0
   11.0962    9.3293   23.5072 C   0  0  0  0  0  0  0  0  0  0  0  0
    5.1273    7.8529   23.6208 N   0  0  0  0  0  0  0  0  0  0  0  0
    9.7552    9.2338   23.0171 N   0  0  0  0  0  0  0  0  0  0  0  0
   11.1797    6.7591   21.3326 N   0  0  0  0  0  0  0  0  0  0  0  0
   11.7728    8.0337   23.7267 C   0  0  0  0  0  0  0  0  0  0  0  0
    7.1194    8.3344   24.6775 C   0  0  0  0  0  0  0  0  0  0  0  0
    8.4311    4.7963   22.0500 C   0  0  0  0  0  0  0  0  0  0  0  0
    8.7393   10.8706   24.1871 O   0  0  0  0  0  0  0  0  0  0  0  0
    9.3093    3.8166   21.6712 C   0  0  0  0  0  0  0  0  0  0  0  0
  1  5  1  0
  1 15  4  0
  1 22  4  0
  2 20  1  0
  2 24  1  0
  3  6  4  0
  3 27  4  0
  4 22  4  0
  4 26  4  0
  6  7  4  0
  6 13  1  0
  7 19  4  0
  8 18  1  0
  8 23  1  0
  8 28  2  0
  9 17  1  0
  9 24  1  0
 10 11  1  0
 10 24  1  0
 11 23  1  0
 12 14  4  0
 12 16  4  0
 14 19  4  0
 15 18  4  0
 16 20  4  0
 17 25  1  0
 18 26  4  0
 19 29  4  0
 20 29  4  0
 21 23  1  0
 21 25  1  0
 27 29  4  0
M  END
$$$$

 Created by Python create_sdf_string function

 29 32  0  0  0  0  0  0  0  0999 V2000
    5.4450    8.7154   22.6662 C   0  0  0  0  0  0  0  0  0  0  0  0
   10.9154    5.4574   20.5483 C   0  0  0  0  0  0  0  0  0  0  0  0
    7.2709    4.5089   22.7542 C   0  0  0  0  0  0  0  0  0  0  0  0
    5.9698    7.6329   24.6581 C   0  0  0  0  0  0  0  0  0  0  0  0
    4.5542    8.9057   21.7104 O   0  0  0  0  0  0  0  0  0  0  0  0
    6.9895    3.2085   23.0690 C   0  0  0  0  0  0  0  0  0  0  0  0
    7.8391    2.2253   22.7260 N   0  0  0  0  0  0  0  0  0  0  0  0
    8.6968    9.8373   23.6359 C   0  0  0  0  0  0  0  0  0  0  0  0
   12.5135    6.5957   21.8396 C   0  0  0  0  0  0  0  0  0  0  0  0
   10.9406    8.2330   21.1350 C   0  0  0  0  0  0  0  0  0  0  0  0
    9.6648    8.5956   21.7310 C   0  0  0  0  0  0  0  0  0  0  0  0
   10.8829    1.7153   20.9865 C   0  0  0  0  0  0  0  0  0  0  0  0
    5.7768    2.8533   23.7910 C   0  0  0  0  0  0  0  0  0  0  0  0
    9.7977    1.4791   21.6912 N   0  0  0  0  0  0  0  0  0  0  0  0
    6.5976    9.3401   22.6478 N   0  0  0  0  0  0  0  0  0  0  0  0
   11.2031    3.0042   20.6246 C   0  0  0  0  0  0  0  0  0  0  0  0
   12.8688    7.7370   22.7287 C   0  0  0  0  0  0  0  0  0  0  0  0
    7.4487    9.1361   23.6506 C   0  0  0  0  0  0  0  0  0  0  0  0
    8.9772    2.5025   22.0273 C   0  0  0  0  0  0  0  0  0  0  0  0
   10.4859    4.0901   20.9730 C   0  0  0  0  0  0  0  0  0  0  0  0
   11.0962    9.3293   23.5072 C   0  0  0  0  0  0  0  0  0  0  0  0
    5.1273    7.8529   23.6208 N   0  0  0  0  0  0  0  0  0  0  0  0
    9.7552    9.2338   23.0171 N   0  0  0  0  0  0  0  0  0  0  0  0
   11.1797    6.7591   21.3326 N   0  0  0  0  0  0  0  0  0  0  0  0
   11.7728    8.0337   23.7267 C   0  0  0  0  0  0  0  0  0  0  0  0
    7.1194    8.3344   24.6775 C   0  0  0  0  0  0  0  0  0  0  0  0
    8.4311    4.7963   22.0500 C   0  0  0  0  0  0  0  0  0  0  0  0
    8.7393   10.8706   24.1871 O   0  0  0  0  0  0  0  0  0  0  0  0
    9.3093    3.8166   21.6712 C   0  0  0  0  0  0  0  0  0  0  0  0
  1  5  1  0
  1 15  4  0
  1 22  4  0
  2 20  1  0
  2 24  1  0
  3  6  4  0
  3 27  4  0
  4 22  4  0
  4 26  4  0
  6  7  4  0
  6 13  1  0
  7 19  4  0
  8 18  1  0
  8 23  1  0
  8 28  2  0
  9 17  1  0
  9 24  1  0
 10 11  1  0
 10 24  1  0
 11 23  1  0
 12 14  4  0
 12 16  4  0
 14 19  4  0
 15 18  4  0
 16 20  4  0
 17 25  1  0
 18 26  4  0
 19 29  4  0
 20 29  4  0
 21 23  1  0
 21 25  1  0
 27 29  4  0
M  END
$$$$

 Created by Python create_sdf_string function

 29 32  0  0  0  0  0  0  0  0999 V2000
    5.4450    8.7154   22.6662 C   0  0  0  0  0  0  0  0  0  0  0  0
   10.9154    5.4574   20.5483 C   0  0  0  0  0  0  0  0  0  0  0  0
    7.2709    4.5089   22.7542 C   0  0  0  0  0  0  0  0  0  0  0  0
    5.9698    7.6329   24.6581 C   0  0  0  0  0  0  0  0  0  0  0  0
    4.5542    8.9057   21.7104 O   0  0  0  0  0  0  0  0  0  0  0  0
    6.9895    3.2085   23.0690 C   0  0  0  0  0  0  0  0  0  0  0  0
    7.8391    2.2253   22.7260 N   0  0  0  0  0  0  0  0  0  0  0  0
    8.6968    9.8373   23.6359 C   0  0  0  0  0  0  0  0  0  0  0  0
   12.5135    6.5957   21.8396 C   0  0  0  0  0  0  0  0  0  0  0  0
   10.9406    8.2330   21.1350 C   0  0  0  0  0  0  0  0  0  0  0  0
    9.6648    8.5956   21.7310 C   0  0  0  0  0  0  0  0  0  0  0  0
   10.8829    1.7153   20.9865 C   0  0  0  0  0  0  0  0  0  0  0  0
    5.7768    2.8533   23.7910 C   0  0  0  0  0  0  0  0  0  0  0  0
    9.7977    1.4791   21.6912 N   0  0  0  0  0  0  0  0  0  0  0  0
    6.5976    9.3401   22.6478 N   0  0  0  0  0  0  0  0  0  0  0  0
   11.2031    3.0042   20.6246 C   0  0  0  0  0  0  0  0  0  0  0  0
   12.8688    7.7370   22.7287 C   0  0  0  0  0  0  0  0  0  0  0  0
    7.4487    9.1361   23.6506 C   0  0  0  0  0  0  0  0  0  0  0  0
    8.9772    2.5025   22.0273 C   0  0  0  0  0  0  0  0  0  0  0  0
   10.4859    4.0901   20.9730 C   0  0  0  0  0  0  0  0  0  0  0  0
   11.0962    9.3293   23.5072 C   0  0  0  0  0  0  0  0  0  0  0  0
    5.1273    7.8529   23.6208 N   0  0  0  0  0  0  0  0  0  0  0  0
    9.7552    9.2338   23.0171 N   0  0  0  0  0  0  0  0  0  0  0  0
   11.1797    6.7591   21.3326 N   0  0  0  0  0  0  0  0  0  0  0  0
   11.7728    8.0337   23.7267 C   0  0  0  0  0  0  0  0  0  0  0  0
    7.1194    8.3344   24.6775 C   0  0  0  0  0  0  0  0  0  0  0  0
    8.4311    4.7963   22.0500 C   0  0  0  0  0  0  0  0  0  0  0  0
    8.7393   10.8706   24.1871 O   0  0  0  0  0  0  0  0  0  0  0  0
    9.3093    3.8166   21.6712 C   0  0  0  0  0  0  0  0  0  0  0  0
  1  5  1  0
  1 15  4  0
  1 22  4  0
  2 20  1  0
  2 24  1  0
  3  6  4  0
  3 27  4  0
  4 22  4  0
  4 26  4  0
  6  7  4  0
  6 13  1  0
  7 19  4  0
  8 18  1  0
  8 23  1  0
  8 28  2  0
  9 17  1  0
  9 24  1  0
 10 11  1  0
 10 24  1  0
 11 23  1  0
 12 14  4  0
 12 16  4  0
 14 19  4  0
 15 18  4  0
 16 20  4  0
 17 25  1  0
 18 26  4  0
 19 29  4  0
 20 29  4  0
 21 23  1  0
 21 25  1  0
 27 29  4  0
M  END
$$$$

 Created by Python create_sdf_string function

 29 32  0  0  0  0  0  0  0  0999 V2000
    5.4450    8.7154   22.6662 C   0  0  0  0  0  0  0  0  0  0  0  0
   10.9154    5.4574   20.5483 C   0  0  0  0  0  0  0  0  0  0  0  0
    7.2709    4.5089   22.7542 C   0  0  0  0  0  0  0  0  0  0  0  0
    5.9698    7.6329   24.6581 C   0  0  0  0  0  0  0  0  0  0  0  0
    4.5542    8.9057   21.7104 O   0  0  0  0  0  0  0  0  0  0  0  0
    6.9895    3.2085   23.0690 C   0  0  0  0  0  0  0  0  0  0  0  0
    7.8391    2.2253   22.7260 N   0  0  0  0  0  0  0  0  0  0  0  0
    8.6968    9.8373   23.6359 C   0  0  0  0  0  0  0  0  0  0  0  0
   12.5135    6.5957   21.8396 C   0  0  0  0  0  0  0  0  0  0  0  0
   10.9406    8.2330   21.1350 C   0  0  0  0  0  0  0  0  0  0  0  0
    9.6648    8.5956   21.7310 C   0  0  0  0  0  0  0  0  0  0  0  0
   10.8829    1.7153   20.9865 C   0  0  0  0  0  0  0  0  0  0  0  0
    5.7768    2.8533   23.7910 C   0  0  0  0  0  0  0  0  0  0  0  0
    9.7977    1.4791   21.6912 N   0  0  0  0  0  0  0  0  0  0  0  0
    6.5976    9.3401   22.6478 N   0  0  0  0  0  0  0  0  0  0  0  0
   11.2031    3.0042   20.6246 C   0  0  0  0  0  0  0  0  0  0  0  0
   12.8688    7.7370   22.7287 C   0  0  0  0  0  0  0  0  0  0  0  0
    7.4487    9.1361   23.6506 C   0  0  0  0  0  0  0  0  0  0  0  0
    8.9772    2.5025   22.0273 C   0  0  0  0  0  0  0  0  0  0  0  0
   10.4859    4.0901   20.9730 C   0  0  0  0  0  0  0  0  0  0  0  0
   11.0962    9.3293   23.5072 C   0  0  0  0  0  0  0  0  0  0  0  0
    5.1273    7.8529   23.6208 N   0  0  0  0  0  0  0  0  0  0  0  0
    9.7552    9.2338   23.0171 N   0  0  0  0  0  0  0  0  0  0  0  0
   11.1797    6.7591   21.3326 N   0  0  0  0  0  0  0  0  0  0  0  0
   11.7728    8.0337   23.7267 C   0  0  0  0  0  0  0  0  0  0  0  0
    7.1194    8.3344   24.6775 C   0  0  0  0  0  0  0  0  0  0  0  0
    8.4311    4.7963   22.0500 C   0  0  0  0  0  0  0  0  0  0  0  0
    8.7393   10.8706   24.1871 O   0  0  0  0  0  0  0  0  0  0  0  0
    9.3093    3.8166   21.6712 C   0  0  0  0  0  0  0  0  0  0  0  0
  1  5  1  0
  1 15  4  0
  1 22  4  0
  2 20  1  0
  2 24  1  0
  3  6  4  0
  3 27  4  0
  4 22  4  0
  4 26  4  0
  6  7  4  0
  6 13  1  0
  7 19  4  0
  8 18  1  0
  8 23  1  0
  8 28  2  0
  9 17  1  0
  9 24  1  0
 10 11  1  0
 10 24  1  0
 11 23  1  0
 12 14  4  0
 12 16  4  0
 14 19  4  0
 15 18  4  0
 16 20  4  0
 17 25  1  0
 18 26  4  0
 19 29  4  0
 20 29  4  0
 21 23  1  0
 21 25  1  0
 27 29  4  0
M  END
$$$$

 Created by Python create_sdf_string function

 29 32  0  0  0  0  0  0  0  0999 V2000
    5.4450    8.7154   22.6662 C   0  0  0  0  0  0  0  0  0  0  0  0
   10.9154    5.4574   20.5483 C   0  0  0  0  0  0  0  0  0  0  0  0
    7.2709    4.5089   22.7542 C   0  0  0  0  0  0  0  0  0  0  0  0
    5.9698    7.6329   24.6581 C   0  0  0  0  0  0  0  0  0  0  0  0
    4.5542    8.9057   21.7104 O   0  0  0  0  0  0  0  0  0  0  0  0
    6.9895    3.2085   23.0690 C   0  0  0  0  0  0  0  0  0  0  0  0
    7.8391    2.2253   22.7260 N   0  0  0  0  0  0  0  0  0  0  0  0
    8.6968    9.8373   23.6359 C   0  0  0  0  0  0  0  0  0  0  0  0
   12.5135    6.5957   21.8396 C   0  0  0  0  0  0  0  0  0  0  0  0
   10.9406    8.2330   21.1350 C   0  0  0  0  0  0  0  0  0  0  0  0
    9.6648    8.5956   21.7310 C   0  0  0  0  0  0  0  0  0  0  0  0
   10.8829    1.7153   20.9865 C   0  0  0  0  0  0  0  0  0  0  0  0
    5.7768    2.8533   23.7910 C   0  0  0  0  0  0  0  0  0  0  0  0
    9.7977    1.4791   21.6912 N   0  0  0  0  0  0  0  0  0  0  0  0
    6.5976    9.3401   22.6478 N   0  0  0  0  0  0  0  0  0  0  0  0
   11.2031    3.0042   20.6246 C   0  0  0  0  0  0  0  0  0  0  0  0
   12.8688    7.7370   22.7287 C   0  0  0  0  0  0  0  0  0  0  0  0
    7.4487    9.1361   23.6506 C   0  0  0  0  0  0  0  0  0  0  0  0
    8.9772    2.5025   22.0273 C   0  0  0  0  0  0  0  0  0  0  0  0
   10.4859    4.0901   20.9730 C   0  0  0  0  0  0  0  0  0  0  0  0
   11.0962    9.3293   23.5072 C   0  0  0  0  0  0  0  0  0  0  0  0
    5.1273    7.8529   23.6208 N   0  0  0  0  0  0  0  0  0  0  0  0
    9.7552    9.2338   23.0171 N   0  0  0  0  0  0  0  0  0  0  0  0
   11.1797    6.7591   21.3326 N   0  0  0  0  0  0  0  0  0  0  0  0
   11.7728    8.0337   23.7267 C   0  0  0  0  0  0  0  0  0  0  0  0
    7.1194    8.3344   24.6775 C   0  0  0  0  0  0  0  0  0  0  0  0
    8.4311    4.7963   22.0500 C   0  0  0  0  0  0  0  0  0  0  0  0
    8.7393   10.8706   24.1871 O   0  0  0  0  0  0  0  0  0  0  0  0
    9.3093    3.8166   21.6712 C   0  0  0  0  0  0  0  0  0  0  0  0
  1  5  1  0
  1 15  4  0
  1 22  4  0
  2 20  1  0
  2 24  1  0
  3  6  4  0
  3 27  4  0
  4 22  4  0
  4 26  4  0
  6  7  4  0
  6 13  1  0
  7 19  4  0
  8 18  1  0
  8 23  1  0
  8 28  2  0
  9 17  1  0
  9 24  1  0
 10 11  1  0
 10 24  1  0
 11 23  1  0
 12 14  4  0
 12 16  4  0
 14 19  4  0
 15 18  4  0
 16 20  4  0
 17 25  1  0
 18 26  4  0
 19 29  4  0
 20 29  4  0
 21 23  1  0
 21 25  1  0
 27 29  4  0
M  END
$$$$

 Created by Python create_sdf_string function

 29 32  0  0  0  0  0  0  0  0999 V2000
    5.4450    8.7154   22.6662 C   0  0  0  0  0  0  0  0  0  0  0  0
   10.9154    5.4574   20.5483 C   0  0  0  0  0  0  0  0  0  0  0  0
    7.2709    4.5089   22.7542 C   0  0  0  0  0  0  0  0  0  0  0  0
    5.9698    7.6329   24.6581 C   0  0  0  0  0  0  0  0  0  0  0  0
    4.5542    8.9057   21.7104 O   0  0  0  0  0  0  0  0  0  0  0  0
    6.9895    3.2085   23.0690 C   0  0  0  0  0  0  0  0  0  0  0  0
    7.8391    2.2253   22.7260 N   0  0  0  0  0  0  0  0  0  0  0  0
    8.6968    9.8373   23.6359 C   0  0  0  0  0  0  0  0  0  0  0  0
   12.5135    6.5957   21.8396 C   0  0  0  0  0  0  0  0  0  0  0  0
   10.9406    8.2330   21.1350 C   0  0  0  0  0  0  0  0  0  0  0  0
    9.6648    8.5956   21.7310 C   0  0  0  0  0  0  0  0  0  0  0  0
   10.8829    1.7153   20.9865 C   0  0  0  0  0  0  0  0  0  0  0  0
    5.7768    2.8533   23.7910 C   0  0  0  0  0  0  0  0  0  0  0  0
    9.7977    1.4791   21.6912 N   0  0  0  0  0  0  0  0  0  0  0  0
    6.5976    9.3401   22.6478 N   0  0  0  0  0  0  0  0  0  0  0  0
   11.2031    3.0042   20.6246 C   0  0  0  0  0  0  0  0  0  0  0  0
   12.8688    7.7370   22.7287 C   0  0  0  0  0  0  0  0  0  0  0  0
    7.4487    9.1361   23.6506 C   0  0  0  0  0  0  0  0  0  0  0  0
    8.9772    2.5025   22.0273 C   0  0  0  0  0  0  0  0  0  0  0  0
   10.4859    4.0901   20.9730 C   0  0  0  0  0  0  0  0  0  0  0  0
   11.0962    9.3293   23.5072 C   0  0  0  0  0  0  0  0  0  0  0  0
    5.1273    7.8529   23.6208 N   0  0  0  0  0  0  0  0  0  0  0  0
    9.7552    9.2338   23.0171 N   0  0  0  0  0  0  0  0  0  0  0  0
   11.1797    6.7591   21.3326 N   0  0  0  0  0  0  0  0  0  0  0  0
   11.7728    8.0337   23.7267 C   0  0  0  0  0  0  0  0  0  0  0  0
    7.1194    8.3344   24.6775 C   0  0  0  0  0  0  0  0  0  0  0  0
    8.4311    4.7963   22.0500 C   0  0  0  0  0  0  0  0  0  0  0  0
    8.7393   10.8706   24.1871 O   0  0  0  0  0  0  0  0  0  0  0  0
    9.3093    3.8166   21.6712 C   0  0  0  0  0  0  0  0  0  0  0  0
  1  5  1  0
  1 15  4  0
  1 22  4  0
  2 20  1  0
  2 24  1  0
  3  6  4  0
  3 27  4  0
  4 22  4  0
  4 26  4  0
  6  7  4  0
  6 13  1  0
  7 19  4  0
  8 18  1  0
  8 23  1  0
  8 28  2  0
  9 17  1  0
  9 24  1  0
 10 11  1  0
 10 24  1  0
 11 23  1  0
 12 14  4  0
 12 16  4  0
 14 19  4  0
 15 18  4  0
 16 20  4  0
 17 25  1  0
 18 26  4  0
 19 29  4  0
 20 29  4  0
 21 23  1  0
 21 25  1  0
 27 29  4  0
M  END
$$$$

 Created by Python create_sdf_string function

 29 32  0  0  0  0  0  0  0  0999 V2000
    5.4450    8.7154   22.6662 C   0  0  0  0  0  0  0  0  0  0  0  0
   10.9154    5.4574   20.5483 C   0  0  0  0  0  0  0  0  0  0  0  0
    7.2709    4.5089   22.7542 C   0  0  0  0  0  0  0  0  0  0  0  0
    5.9698    7.6329   24.6581 C   0  0  0  0  0  0  0  0  0  0  0  0
    4.5542    8.9057   21.7104 O   0  0  0  0  0  0  0  0  0  0  0  0
    6.9895    3.2085   23.0690 C   0  0  0  0  0  0  0  0  0  0  0  0
    7.8391    2.2253   22.7260 N   0  0  0  0  0  0  0  0  0  0  0  0
    8.6968    9.8373   23.6359 C   0  0  0  0  0  0  0  0  0  0  0  0
   12.5135    6.5957   21.8396 C   0  0  0  0  0  0  0  0  0  0  0  0
   10.9406    8.2330   21.1350 C   0  0  0  0  0  0  0  0  0  0  0  0
    9.6648    8.5956   21.7310 C   0  0  0  0  0  0  0  0  0  0  0  0
   10.8829    1.7153   20.9865 C   0  0  0  0  0  0  0  0  0  0  0  0
    5.7768    2.8533   23.7910 C   0  0  0  0  0  0  0  0  0  0  0  0
    9.7977    1.4791   21.6912 N   0  0  0  0  0  0  0  0  0  0  0  0
    6.5976    9.3401   22.6478 N   0  0  0  0  0  0  0  0  0  0  0  0
   11.2031    3.0042   20.6246 C   0  0  0  0  0  0  0  0  0  0  0  0
   12.8688    7.7370   22.7287 C   0  0  0  0  0  0  0  0  0  0  0  0
    7.4487    9.1361   23.6506 C   0  0  0  0  0  0  0  0  0  0  0  0
    8.9772    2.5025   22.0273 C   0  0  0  0  0  0  0  0  0  0  0  0
   10.4859    4.0901   20.9730 C   0  0  0  0  0  0  0  0  0  0  0  0
   11.0962    9.3293   23.5072 C   0  0  0  0  0  0  0  0  0  0  0  0
    5.1273    7.8529   23.6208 N   0  0  0  0  0  0  0  0  0  0  0  0
    9.7552    9.2338   23.0171 N   0  0  0  0  0  0  0  0  0  0  0  0
   11.1797    6.7591   21.3326 N   0  0  0  0  0  0  0  0  0  0  0  0
   11.7728    8.0337   23.7267 C   0  0  0  0  0  0  0  0  0  0  0  0
    7.1194    8.3344   24.6775 C   0  0  0  0  0  0  0  0  0  0  0  0
    8.4311    4.7963   22.0500 C   0  0  0  0  0  0  0  0  0  0  0  0
    8.7393   10.8706   24.1871 O   0  0  0  0  0  0  0  0  0  0  0  0
    9.3093    3.8166   21.6712 C   0  0  0  0  0  0  0  0  0  0  0  0
  1  5  1  0
  1 15  4  0
  1 22  4  0
  2 20  1  0
  2 24  1  0
  3  6  4  0
  3 27  4  0
  4 22  4  0
  4 26  4  0
  6  7  4  0
  6 13  1  0
  7 19  4  0
  8 18  1  0
  8 23  1  0
  8 28  2  0
  9 17  1  0
  9 24  1  0
 10 11  1  0
 10 24  1  0
 11 23  1  0
 12 14  4  0
 12 16  4  0
 14 19  4  0
 15 18  4  0
 16 20  4  0
 17 25  1  0
 18 26  4  0
 19 29  4  0
 20 29  4  0
 21 23  1  0
 21 25  1  0
 27 29  4  0
M  END
$$$$

 Created by Python create_sdf_string function

 29 32  0  0  0  0  0  0  0  0999 V2000
    5.4450    8.7154   22.6662 C   0  0  0  0  0  0  0  0  0  0  0  0
   10.9154    5.4574   20.5483 C   0  0  0  0  0  0  0  0  0  0  0  0
    7.2709    4.5089   22.7542 C   0  0  0  0  0  0  0  0  0  0  0  0
    5.9698    7.6329   24.6581 C   0  0  0  0  0  0  0  0  0  0  0  0
    4.5542    8.9057   21.7104 O   0  0  0  0  0  0  0  0  0  0  0  0
    6.9895    3.2085   23.0690 C   0  0  0  0  0  0  0  0  0  0  0  0
    7.8391    2.2253   22.7260 N   0  0  0  0  0  0  0  0  0  0  0  0
    8.6968    9.8373   23.6359 C   0  0  0  0  0  0  0  0  0  0  0  0
   12.5135    6.5957   21.8396 C   0  0  0  0  0  0  0  0  0  0  0  0
   10.9406    8.2330   21.1350 C   0  0  0  0  0  0  0  0  0  0  0  0
    9.6648    8.5956   21.7310 C   0  0  0  0  0  0  0  0  0  0  0  0
   10.8829    1.7153   20.9865 C   0  0  0  0  0  0  0  0  0  0  0  0
    5.7768    2.8533   23.7910 C   0  0  0  0  0  0  0  0  0  0  0  0
    9.7977    1.4791   21.6912 N   0  0  0  0  0  0  0  0  0  0  0  0
    6.5976    9.3401   22.6478 N   0  0  0  0  0  0  0  0  0  0  0  0
   11.2031    3.0042   20.6246 C   0  0  0  0  0  0  0  0  0  0  0  0
   12.8688    7.7370   22.7287 C   0  0  0  0  0  0  0  0  0  0  0  0
    7.4487    9.1361   23.6506 C   0  0  0  0  0  0  0  0  0  0  0  0
    8.9772    2.5025   22.0273 C   0  0  0  0  0  0  0  0  0  0  0  0
   10.4859    4.0901   20.9730 C   0  0  0  0  0  0  0  0  0  0  0  0
   11.0962    9.3293   23.5072 C   0  0  0  0  0  0  0  0  0  0  0  0
    5.1273    7.8529   23.6208 N   0  0  0  0  0  0  0  0  0  0  0  0
    9.7552    9.2338   23.0171 N   0  0  0  0  0  0  0  0  0  0  0  0
   11.1797    6.7591   21.3326 N   0  0  0  0  0  0  0  0  0  0  0  0
   11.7728    8.0337   23.7267 C   0  0  0  0  0  0  0  0  0  0  0  0
    7.1194    8.3344   24.6775 C   0  0  0  0  0  0  0  0  0  0  0  0
    8.4311    4.7963   22.0500 C   0  0  0  0  0  0  0  0  0  0  0  0
    8.7393   10.8706   24.1871 O   0  0  0  0  0  0  0  0  0  0  0  0
    9.3093    3.8166   21.6712 C   0  0  0  0  0  0  0  0  0  0  0  0
  1  5  1  0
  1 15  4  0
  1 22  4  0
  2 20  1  0
  2 24  1  0
  3  6  4  0
  3 27  4  0
  4 22  4  0
  4 26  4  0
  6  7  4  0
  6 13  1  0
  7 19  4  0
  8 18  1  0
  8 23  1  0
  8 28  2  0
  9 17  1  0
  9 24  1  0
 10 11  1  0
 10 24  1  0
 11 23  1  0
 12 14  4  0
 12 16  4  0
 14 19  4  0
 15 18  4  0
 16 20  4  0
 17 25  1  0
 18 26  4  0
 19 29  4  0
 20 29  4  0
 21 23  1  0
 21 25  1  0
 27 29  4  0
M  END
$$$$

 Created by Python create_sdf_string function

 29 32  0  0  0  0  0  0  0  0999 V2000
    5.4450    8.7154   22.6662 C   0  0  0  0  0  0  0  0  0  0  0  0
   10.9154    5.4574   20.5483 C   0  0  0  0  0  0  0  0  0  0  0  0
    7.2709    4.5089   22.7542 C   0  0  0  0  0  0  0  0  0  0  0  0
    5.9698    7.6329   24.6581 C   0  0  0  0  0  0  0  0  0  0  0  0
    4.5542    8.9057   21.7104 O   0  0  0  0  0  0  0  0  0  0  0  0
    6.9895    3.2085   23.0690 C   0  0  0  0  0  0  0  0  0  0  0  0
    7.8391    2.2253   22.7260 N   0  0  0  0  0  0  0  0  0  0  0  0
    8.6968    9.8373   23.6359 C   0  0  0  0  0  0  0  0  0  0  0  0
   12.5135    6.5957   21.8396 C   0  0  0  0  0  0  0  0  0  0  0  0
   10.9406    8.2330   21.1350 C   0  0  0  0  0  0  0  0  0  0  0  0
    9.6648    8.5956   21.7310 C   0  0  0  0  0  0  0  0  0  0  0  0
   10.8829    1.7153   20.9865 C   0  0  0  0  0  0  0  0  0  0  0  0
    5.7768    2.8533   23.7910 C   0  0  0  0  0  0  0  0  0  0  0  0
    9.7977    1.4791   21.6912 N   0  0  0  0  0  0  0  0  0  0  0  0
    6.5976    9.3401   22.6478 N   0  0  0  0  0  0  0  0  0  0  0  0
   11.2031    3.0042   20.6246 C   0  0  0  0  0  0  0  0  0  0  0  0
   12.8688    7.7370   22.7287 C   0  0  0  0  0  0  0  0  0  0  0  0
    7.4487    9.1361   23.6506 C   0  0  0  0  0  0  0  0  0  0  0  0
    8.9772    2.5025   22.0273 C   0  0  0  0  0  0  0  0  0  0  0  0
   10.4859    4.0901   20.9730 C   0  0  0  0  0  0  0  0  0  0  0  0
   11.0962    9.3293   23.5072 C   0  0  0  0  0  0  0  0  0  0  0  0
    5.1273    7.8529   23.6208 N   0  0  0  0  0  0  0  0  0  0  0  0
    9.7552    9.2338   23.0171 N   0  0  0  0  0  0  0  0  0  0  0  0
   11.1797    6.7591   21.3326 N   0  0  0  0  0  0  0  0  0  0  0  0
   11.7728    8.0337   23.7267 C   0  0  0  0  0  0  0  0  0  0  0  0
    7.1194    8.3344   24.6775 C   0  0  0  0  0  0  0  0  0  0  0  0
    8.4311    4.7963   22.0500 C   0  0  0  0  0  0  0  0  0  0  0  0
    8.7393   10.8706   24.1871 O   0  0  0  0  0  0  0  0  0  0  0  0
    9.3093    3.8166   21.6712 C   0  0  0  0  0  0  0  0  0  0  0  0
  1  5  1  0
  1 15  4  0
  1 22  4  0
  2 20  1  0
  2 24  1  0
  3  6  4  0
  3 27  4  0
  4 22  4  0
  4 26  4  0
  6  7  4  0
  6 13  1  0
  7 19  4  0
  8 18  1  0
  8 23  1  0
  8 28  2  0
  9 17  1  0
  9 24  1  0
 10 11  1  0
 10 24  1  0
 11 23  1  0
 12 14  4  0
 12 16  4  0
 14 19  4  0
 15 18  4  0
 16 20  4  0
 17 25  1  0
 18 26  4  0
 19 29  4  0
 20 29  4  0
 21 23  1  0
 21 25  1  0
 27 29  4  0
M  END
$$$$

 Created by Python create_sdf_string function

 29 32  0  0  0  0  0  0  0  0999 V2000
    5.4450    8.7154   22.6662 C   0  0  0  0  0  0  0  0  0  0  0  0
   10.9154    5.4574   20.5483 C   0  0  0  0  0  0  0  0  0  0  0  0
    7.2709    4.5089   22.7542 C   0  0  0  0  0  0  0  0  0  0  0  0
    5.9698    7.6329   24.6581 C   0  0  0  0  0  0  0  0  0  0  0  0
    4.5542    8.9057   21.7104 O   0  0  0  0  0  0  0  0  0  0  0  0
    6.9895    3.2085   23.0690 C   0  0  0  0  0  0  0  0  0  0  0  0
    7.8391    2.2253   22.7260 N   0  0  0  0  0  0  0  0  0  0  0  0
    8.6968    9.8373   23.6359 C   0  0  0  0  0  0  0  0  0  0  0  0
   12.5135    6.5957   21.8396 C   0  0  0  0  0  0  0  0  0  0  0  0
   10.9406    8.2330   21.1350 C   0  0  0  0  0  0  0  0  0  0  0  0
    9.6648    8.5956   21.7310 C   0  0  0  0  0  0  0  0  0  0  0  0
   10.8829    1.7153   20.9865 C   0  0  0  0  0  0  0  0  0  0  0  0
    5.7768    2.8533   23.7910 C   0  0  0  0  0  0  0  0  0  0  0  0
    9.7977    1.4791   21.6912 N   0  0  0  0  0  0  0  0  0  0  0  0
    6.5976    9.3401   22.6478 N   0  0  0  0  0  0  0  0  0  0  0  0
   11.2031    3.0042   20.6246 C   0  0  0  0  0  0  0  0  0  0  0  0
   12.8688    7.7370   22.7287 C   0  0  0  0  0  0  0  0  0  0  0  0
    7.4487    9.1361   23.6506 C   0  0  0  0  0  0  0  0  0  0  0  0
    8.9772    2.5025   22.0273 C   0  0  0  0  0  0  0  0  0  0  0  0
   10.4859    4.0901   20.9730 C   0  0  0  0  0  0  0  0  0  0  0  0
   11.0962    9.3293   23.5072 C   0  0  0  0  0  0  0  0  0  0  0  0
    5.1273    7.8529   23.6208 N   0  0  0  0  0  0  0  0  0  0  0  0
    9.7552    9.2338   23.0171 N   0  0  0  0  0  0  0  0  0  0  0  0
   11.1797    6.7591   21.3326 N   0  0  0  0  0  0  0  0  0  0  0  0
   11.7728    8.0337   23.7267 C   0  0  0  0  0  0  0  0  0  0  0  0
    7.1194    8.3344   24.6775 C   0  0  0  0  0  0  0  0  0  0  0  0
    8.4311    4.7963   22.0500 C   0  0  0  0  0  0  0  0  0  0  0  0
    8.7393   10.8706   24.1871 O   0  0  0  0  0  0  0  0  0  0  0  0
    9.3093    3.8166   21.6712 C   0  0  0  0  0  0  0  0  0  0  0  0
  1  5  1  0
  1 15  4  0
  1 22  4  0
  2 20  1  0
  2 24  1  0
  3  6  4  0
  3 27  4  0
  4 22  4  0
  4 26  4  0
  6  7  4  0
  6 13  1  0
  7 19  4  0
  8 18  1  0
  8 23  1  0
  8 28  2  0
  9 17  1  0
  9 24  1  0
 10 11  1  0
 10 24  1  0
 11 23  1  0
 12 14  4  0
 12 16  4  0
 14 19  4  0
 15 18  4  0
 16 20  4  0
 17 25  1  0
 18 26  4  0
 19 29  4  0
 20 29  4  0
 21 23  1  0
 21 25  1  0
 27 29  4  0
M  END
$$$$

 Created by Python create_sdf_string function

 29 32  0  0  0  0  0  0  0  0999 V2000
    5.4450    8.7154   22.6662 C   0  0  0  0  0  0  0  0  0  0  0  0
   10.9154    5.4574   20.5483 C   0  0  0  0  0  0  0  0  0  0  0  0
    7.2709    4.5089   22.7542 C   0  0  0  0  0  0  0  0  0  0  0  0
    5.9698    7.6329   24.6581 C   0  0  0  0  0  0  0  0  0  0  0  0
    4.5542    8.9057   21.7104 O   0  0  0  0  0  0  0  0  0  0  0  0
    6.9895    3.2085   23.0690 C   0  0  0  0  0  0  0  0  0  0  0  0
    7.8391    2.2253   22.7260 N   0  0  0  0  0  0  0  0  0  0  0  0
    8.6968    9.8373   23.6359 C   0  0  0  0  0  0  0  0  0  0  0  0
   12.5135    6.5957   21.8396 C   0  0  0  0  0  0  0  0  0  0  0  0
   10.9406    8.2330   21.1350 C   0  0  0  0  0  0  0  0  0  0  0  0
    9.6648    8.5956   21.7310 C   0  0  0  0  0  0  0  0  0  0  0  0
   10.8829    1.7153   20.9865 C   0  0  0  0  0  0  0  0  0  0  0  0
    5.7768    2.8533   23.7910 C   0  0  0  0  0  0  0  0  0  0  0  0
    9.7977    1.4791   21.6912 N   0  0  0  0  0  0  0  0  0  0  0  0
    6.5976    9.3401   22.6478 N   0  0  0  0  0  0  0  0  0  0  0  0
   11.2031    3.0042   20.6246 C   0  0  0  0  0  0  0  0  0  0  0  0
   12.8688    7.7370   22.7287 C   0  0  0  0  0  0  0  0  0  0  0  0
    7.4487    9.1361   23.6506 C   0  0  0  0  0  0  0  0  0  0  0  0
    8.9772    2.5025   22.0273 C   0  0  0  0  0  0  0  0  0  0  0  0
   10.4859    4.0901   20.9730 C   0  0  0  0  0  0  0  0  0  0  0  0
   11.0962    9.3293   23.5072 C   0  0  0  0  0  0  0  0  0  0  0  0
    5.1273    7.8529   23.6208 N   0  0  0  0  0  0  0  0  0  0  0  0
    9.7552    9.2338   23.0171 N   0  0  0  0  0  0  0  0  0  0  0  0
   11.1797    6.7591   21.3326 N   0  0  0  0  0  0  0  0  0  0  0  0
   11.7728    8.0337   23.7267 C   0  0  0  0  0  0  0  0  0  0  0  0
    7.1194    8.3344   24.6775 C   0  0  0  0  0  0  0  0  0  0  0  0
    8.4311    4.7963   22.0500 C   0  0  0  0  0  0  0  0  0  0  0  0
    8.7393   10.8706   24.1871 O   0  0  0  0  0  0  0  0  0  0  0  0
    9.3093    3.8166   21.6712 C   0  0  0  0  0  0  0  0  0  0  0  0
  1  5  1  0
  1 15  4  0
  1 22  4  0
  2 20  1  0
  2 24  1  0
  3  6  4  0
  3 27  4  0
  4 22  4  0
  4 26  4  0
  6  7  4  0
  6 13  1  0
  7 19  4  0
  8 18  1  0
  8 23  1  0
  8 28  2  0
  9 17  1  0
  9 24  1  0
 10 11  1  0
 10 24  1  0
 11 23  1  0
 12 14  4  0
 12 16  4  0
 14 19  4  0
 15 18  4  0
 16 20  4  0
 17 25  1  0
 18 26  4  0
 19 29  4  0
 20 29  4  0
 21 23  1  0
 21 25  1  0
 27 29  4  0
M  END
$$$$

 Created by Python create_sdf_string function

 29 32  0  0  0  0  0  0  0  0999 V2000
    5.4450    8.7154   22.6662 C   0  0  0  0  0  0  0  0  0  0  0  0
   10.9154    5.4574   20.5483 C   0  0  0  0  0  0  0  0  0  0  0  0
    7.2709    4.5089   22.7542 C   0  0  0  0  0  0  0  0  0  0  0  0
    5.9698    7.6329   24.6581 C   0  0  0  0  0  0  0  0  0  0  0  0
    4.5542    8.9057   21.7104 O   0  0  0  0  0  0  0  0  0  0  0  0
    6.9895    3.2085   23.0690 C   0  0  0  0  0  0  0  0  0  0  0  0
    7.8391    2.2253   22.7260 N   0  0  0  0  0  0  0  0  0  0  0  0
    8.6968    9.8373   23.6359 C   0  0  0  0  0  0  0  0  0  0  0  0
   12.5135    6.5957   21.8396 C   0  0  0  0  0  0  0  0  0  0  0  0
   10.9406    8.2330   21.1350 C   0  0  0  0  0  0  0  0  0  0  0  0
    9.6648    8.5956   21.7310 C   0  0  0  0  0  0  0  0  0  0  0  0
   10.8829    1.7153   20.9865 C   0  0  0  0  0  0  0  0  0  0  0  0
    5.7768    2.8533   23.7910 C   0  0  0  0  0  0  0  0  0  0  0  0
    9.7977    1.4791   21.6912 N   0  0  0  0  0  0  0  0  0  0  0  0
    6.5976    9.3401   22.6478 N   0  0  0  0  0  0  0  0  0  0  0  0
   11.2031    3.0042   20.6246 C   0  0  0  0  0  0  0  0  0  0  0  0
   12.8688    7.7370   22.7287 C   0  0  0  0  0  0  0  0  0  0  0  0
    7.4487    9.1361   23.6506 C   0  0  0  0  0  0  0  0  0  0  0  0
    8.9772    2.5025   22.0273 C   0  0  0  0  0  0  0  0  0  0  0  0
   10.4859    4.0901   20.9730 C   0  0  0  0  0  0  0  0  0  0  0  0
   11.0962    9.3293   23.5072 C   0  0  0  0  0  0  0  0  0  0  0  0
    5.1273    7.8529   23.6208 N   0  0  0  0  0  0  0  0  0  0  0  0
    9.7552    9.2338   23.0171 N   0  0  0  0  0  0  0  0  0  0  0  0
   11.1797    6.7591   21.3326 N   0  0  0  0  0  0  0  0  0  0  0  0
   11.7728    8.0337   23.7267 C   0  0  0  0  0  0  0  0  0  0  0  0
    7.1194    8.3344   24.6775 C   0  0  0  0  0  0  0  0  0  0  0  0
    8.4311    4.7963   22.0500 C   0  0  0  0  0  0  0  0  0  0  0  0
    8.7393   10.8706   24.1871 O   0  0  0  0  0  0  0  0  0  0  0  0
    9.3093    3.8166   21.6712 C   0  0  0  0  0  0  0  0  0  0  0  0
  1  5  1  0
  1 15  4  0
  1 22  4  0
  2 20  1  0
  2 24  1  0
  3  6  4  0
  3 27  4  0
  4 22  4  0
  4 26  4  0
  6  7  4  0
  6 13  1  0
  7 19  4  0
  8 18  1  0
  8 23  1  0
  8 28  2  0
  9 17  1  0
  9 24  1  0
 10 11  1  0
 10 24  1  0
 11 23  1  0
 12 14  4  0
 12 16  4  0
 14 19  4  0
 15 18  4  0
 16 20  4  0
 17 25  1  0
 18 26  4  0
 19 29  4  0
 20 29  4  0
 21 23  1  0
 21 25  1  0
 27 29  4  0
M  END
$$$$

 Created by Python create_sdf_string function

 29 32  0  0  0  0  0  0  0  0999 V2000
    5.4450    8.7154   22.6662 C   0  0  0  0  0  0  0  0  0  0  0  0
   10.9154    5.4574   20.5483 C   0  0  0  0  0  0  0  0  0  0  0  0
    7.2709    4.5089   22.7542 C   0  0  0  0  0  0  0  0  0  0  0  0
    5.9698    7.6329   24.6581 C   0  0  0  0  0  0  0  0  0  0  0  0
    4.5542    8.9057   21.7104 O   0  0  0  0  0  0  0  0  0  0  0  0
    6.9895    3.2085   23.0690 C   0  0  0  0  0  0  0  0  0  0  0  0
    7.8391    2.2253   22.7260 N   0  0  0  0  0  0  0  0  0  0  0  0
    8.6968    9.8373   23.6359 C   0  0  0  0  0  0  0  0  0  0  0  0
   12.5135    6.5957   21.8396 C   0  0  0  0  0  0  0  0  0  0  0  0
   10.9406    8.2330   21.1350 C   0  0  0  0  0  0  0  0  0  0  0  0
    9.6648    8.5956   21.7310 C   0  0  0  0  0  0  0  0  0  0  0  0
   10.8829    1.7153   20.9865 C   0  0  0  0  0  0  0  0  0  0  0  0
    5.7768    2.8533   23.7910 C   0  0  0  0  0  0  0  0  0  0  0  0
    9.7977    1.4791   21.6912 N   0  0  0  0  0  0  0  0  0  0  0  0
    6.5976    9.3401   22.6478 N   0  0  0  0  0  0  0  0  0  0  0  0
   11.2031    3.0042   20.6246 C   0  0  0  0  0  0  0  0  0  0  0  0
   12.8688    7.7370   22.7287 C   0  0  0  0  0  0  0  0  0  0  0  0
    7.4487    9.1361   23.6506 C   0  0  0  0  0  0  0  0  0  0  0  0
    8.9772    2.5025   22.0273 C   0  0  0  0  0  0  0  0  0  0  0  0
   10.4859    4.0901   20.9730 C   0  0  0  0  0  0  0  0  0  0  0  0
   11.0962    9.3293   23.5072 C   0  0  0  0  0  0  0  0  0  0  0  0
    5.1273    7.8529   23.6208 N   0  0  0  0  0  0  0  0  0  0  0  0
    9.7552    9.2338   23.0171 N   0  0  0  0  0  0  0  0  0  0  0  0
   11.1797    6.7591   21.3326 N   0  0  0  0  0  0  0  0  0  0  0  0
   11.7728    8.0337   23.7267 C   0  0  0  0  0  0  0  0  0  0  0  0
    7.1194    8.3344   24.6775 C   0  0  0  0  0  0  0  0  0  0  0  0
    8.4311    4.7963   22.0500 C   0  0  0  0  0  0  0  0  0  0  0  0
    8.7393   10.8706   24.1871 O   0  0  0  0  0  0  0  0  0  0  0  0
    9.3093    3.8166   21.6712 C   0  0  0  0  0  0  0  0  0  0  0  0
  1  5  1  0
  1 15  4  0
  1 22  4  0
  2 20  1  0
  2 24  1  0
  3  6  4  0
  3 27  4  0
  4 22  4  0
  4 26  4  0
  6  7  4  0
  6 13  1  0
  7 19  4  0
  8 18  1  0
  8 23  1  0
  8 28  2  0
  9 17  1  0
  9 24  1  0
 10 11  1  0
 10 24  1  0
 11 23  1  0
 12 14  4  0
 12 16  4  0
 14 19  4  0
 15 18  4  0
 16 20  4  0
 17 25  1  0
 18 26  4  0
 19 29  4  0
 20 29  4  0
 21 23  1  0
 21 25  1  0
 27 29  4  0
M  END
$$$$

 Created by Python create_sdf_string function

 29 32  0  0  0  0  0  0  0  0999 V2000
    5.4450    8.7154   22.6662 C   0  0  0  0  0  0  0  0  0  0  0  0
   10.9154    5.4574   20.5483 C   0  0  0  0  0  0  0  0  0  0  0  0
    7.2709    4.5089   22.7542 C   0  0  0  0  0  0  0  0  0  0  0  0
    5.9698    7.6329   24.6581 C   0  0  0  0  0  0  0  0  0  0  0  0
    4.5542    8.9057   21.7104 O   0  0  0  0  0  0  0  0  0  0  0  0
    6.9895    3.2085   23.0690 C   0  0  0  0  0  0  0  0  0  0  0  0
    7.8391    2.2253   22.7260 N   0  0  0  0  0  0  0  0  0  0  0  0
    8.6968    9.8373   23.6359 C   0  0  0  0  0  0  0  0  0  0  0  0
   12.5135    6.5957   21.8396 C   0  0  0  0  0  0  0  0  0  0  0  0
   10.9406    8.2330   21.1350 C   0  0  0  0  0  0  0  0  0  0  0  0
    9.6648    8.5956   21.7310 C   0  0  0  0  0  0  0  0  0  0  0  0
   10.8829    1.7153   20.9865 C   0  0  0  0  0  0  0  0  0  0  0  0
    5.7768    2.8533   23.7910 C   0  0  0  0  0  0  0  0  0  0  0  0
    9.7977    1.4791   21.6912 N   0  0  0  0  0  0  0  0  0  0  0  0
    6.5976    9.3401   22.6478 N   0  0  0  0  0  0  0  0  0  0  0  0
   11.2031    3.0042   20.6246 C   0  0  0  0  0  0  0  0  0  0  0  0
   12.8688    7.7370   22.7287 C   0  0  0  0  0  0  0  0  0  0  0  0
    7.4487    9.1361   23.6506 C   0  0  0  0  0  0  0  0  0  0  0  0
    8.9772    2.5025   22.0273 C   0  0  0  0  0  0  0  0  0  0  0  0
   10.4859    4.0901   20.9730 C   0  0  0  0  0  0  0  0  0  0  0  0
   11.0962    9.3293   23.5072 C   0  0  0  0  0  0  0  0  0  0  0  0
    5.1273    7.8529   23.6208 N   0  0  0  0  0  0  0  0  0  0  0  0
    9.7552    9.2338   23.0171 N   0  0  0  0  0  0  0  0  0  0  0  0
   11.1797    6.7591   21.3326 N   0  0  0  0  0  0  0  0  0  0  0  0
   11.7728    8.0337   23.7267 C   0  0  0  0  0  0  0  0  0  0  0  0
    7.1194    8.3344   24.6775 C   0  0  0  0  0  0  0  0  0  0  0  0
    8.4311    4.7963   22.0500 C   0  0  0  0  0  0  0  0  0  0  0  0
    8.7393   10.8706   24.1871 O   0  0  0  0  0  0  0  0  0  0  0  0
    9.3093    3.8166   21.6712 C   0  0  0  0  0  0  0  0  0  0  0  0
  1  5  1  0
  1 15  4  0
  1 22  4  0
  2 20  1  0
  2 24  1  0
  3  6  4  0
  3 27  4  0
  4 22  4  0
  4 26  4  0
  6  7  4  0
  6 13  1  0
  7 19  4  0
  8 18  1  0
  8 23  1  0
  8 28  2  0
  9 17  1  0
  9 24  1  0
 10 11  1  0
 10 24  1  0
 11 23  1  0
 12 14  4  0
 12 16  4  0
 14 19  4  0
 15 18  4  0
 16 20  4  0
 17 25  1  0
 18 26  4  0
 19 29  4  0
 20 29  4  0
 21 23  1  0
 21 25  1  0
 27 29  4  0
M  END
$$$$

 Created by Python create_sdf_string function

 29 32  0  0  0  0  0  0  0  0999 V2000
    5.4450    8.7154   22.6662 C   0  0  0  0  0  0  0  0  0  0  0  0
   10.9154    5.4574   20.5483 C   0  0  0  0  0  0  0  0  0  0  0  0
    7.2709    4.5089   22.7542 C   0  0  0  0  0  0  0  0  0  0  0  0
    5.9698    7.6329   24.6581 C   0  0  0  0  0  0  0  0  0  0  0  0
    4.5542    8.9057   21.7104 O   0  0  0  0  0  0  0  0  0  0  0  0
    6.9895    3.2085   23.0690 C   0  0  0  0  0  0  0  0  0  0  0  0
    7.8391    2.2253   22.7260 N   0  0  0  0  0  0  0  0  0  0  0  0
    8.6968    9.8373   23.6359 C   0  0  0  0  0  0  0  0  0  0  0  0
   12.5135    6.5957   21.8396 C   0  0  0  0  0  0  0  0  0  0  0  0
   10.9406    8.2330   21.1350 C   0  0  0  0  0  0  0  0  0  0  0  0
    9.6648    8.5956   21.7310 C   0  0  0  0  0  0  0  0  0  0  0  0
   10.8829    1.7153   20.9865 C   0  0  0  0  0  0  0  0  0  0  0  0
    5.7768    2.8533   23.7910 C   0  0  0  0  0  0  0  0  0  0  0  0
    9.7977    1.4791   21.6912 N   0  0  0  0  0  0  0  0  0  0  0  0
    6.5976    9.3401   22.6478 N   0  0  0  0  0  0  0  0  0  0  0  0
   11.2031    3.0042   20.6246 C   0  0  0  0  0  0  0  0  0  0  0  0
   12.8688    7.7370   22.7287 C   0  0  0  0  0  0  0  0  0  0  0  0
    7.4487    9.1361   23.6506 C   0  0  0  0  0  0  0  0  0  0  0  0
    8.9772    2.5025   22.0273 C   0  0  0  0  0  0  0  0  0  0  0  0
   10.4859    4.0901   20.9730 C   0  0  0  0  0  0  0  0  0  0  0  0
   11.0962    9.3293   23.5072 C   0  0  0  0  0  0  0  0  0  0  0  0
    5.1273    7.8529   23.6208 N   0  0  0  0  0  0  0  0  0  0  0  0
    9.7552    9.2338   23.0171 N   0  0  0  0  0  0  0  0  0  0  0  0
   11.1797    6.7591   21.3326 N   0  0  0  0  0  0  0  0  0  0  0  0
   11.7728    8.0337   23.7267 C   0  0  0  0  0  0  0  0  0  0  0  0
    7.1194    8.3344   24.6775 C   0  0  0  0  0  0  0  0  0  0  0  0
    8.4311    4.7963   22.0500 C   0  0  0  0  0  0  0  0  0  0  0  0
    8.7393   10.8706   24.1871 O   0  0  0  0  0  0  0  0  0  0  0  0
    9.3093    3.8166   21.6712 C   0  0  0  0  0  0  0  0  0  0  0  0
  1  5  1  0
  1 15  4  0
  1 22  4  0
  2 20  1  0
  2 24  1  0
  3  6  4  0
  3 27  4  0
  4 22  4  0
  4 26  4  0
  6  7  4  0
  6 13  1  0
  7 19  4  0
  8 18  1  0
  8 23  1  0
  8 28  2  0
  9 17  1  0
  9 24  1  0
 10 11  1  0
 10 24  1  0
 11 23  1  0
 12 14  4  0
 12 16  4  0
 14 19  4  0
 15 18  4  0
 16 20  4  0
 17 25  1  0
 18 26  4  0
 19 29  4  0
 20 29  4  0
 21 23  1  0
 21 25  1  0
 27 29  4  0
M  END
$$$$

 Created by Python create_sdf_string function

 29 32  0  0  0  0  0  0  0  0999 V2000
    5.4450    8.7154   22.6662 C   0  0  0  0  0  0  0  0  0  0  0  0
   10.9154    5.4574   20.5483 C   0  0  0  0  0  0  0  0  0  0  0  0
    7.2709    4.5089   22.7542 C   0  0  0  0  0  0  0  0  0  0  0  0
    5.9698    7.6329   24.6581 C   0  0  0  0  0  0  0  0  0  0  0  0
    4.5542    8.9057   21.7104 O   0  0  0  0  0  0  0  0  0  0  0  0
    6.9895    3.2085   23.0690 C   0  0  0  0  0  0  0  0  0  0  0  0
    7.8391    2.2253   22.7260 N   0  0  0  0  0  0  0  0  0  0  0  0
    8.6968    9.8373   23.6359 C   0  0  0  0  0  0  0  0  0  0  0  0
   12.5135    6.5957   21.8396 C   0  0  0  0  0  0  0  0  0  0  0  0
   10.9406    8.2330   21.1350 C   0  0  0  0  0  0  0  0  0  0  0  0
    9.6648    8.5956   21.7310 C   0  0  0  0  0  0  0  0  0  0  0  0
   10.8829    1.7153   20.9865 C   0  0  0  0  0  0  0  0  0  0  0  0
    5.7768    2.8533   23.7910 C   0  0  0  0  0  0  0  0  0  0  0  0
    9.7977    1.4791   21.6912 N   0  0  0  0  0  0  0  0  0  0  0  0
    6.5976    9.3401   22.6478 N   0  0  0  0  0  0  0  0  0  0  0  0
   11.2031    3.0042   20.6246 C   0  0  0  0  0  0  0  0  0  0  0  0
   12.8688    7.7370   22.7287 C   0  0  0  0  0  0  0  0  0  0  0  0
    7.4487    9.1361   23.6506 C   0  0  0  0  0  0  0  0  0  0  0  0
    8.9772    2.5025   22.0273 C   0  0  0  0  0  0  0  0  0  0  0  0
   10.4859    4.0901   20.9730 C   0  0  0  0  0  0  0  0  0  0  0  0
   11.0962    9.3293   23.5072 C   0  0  0  0  0  0  0  0  0  0  0  0
    5.1273    7.8529   23.6208 N   0  0  0  0  0  0  0  0  0  0  0  0
    9.7552    9.2338   23.0171 N   0  0  0  0  0  0  0  0  0  0  0  0
   11.1797    6.7591   21.3326 N   0  0  0  0  0  0  0  0  0  0  0  0
   11.7728    8.0337   23.7267 C   0  0  0  0  0  0  0  0  0  0  0  0
    7.1194    8.3344   24.6775 C   0  0  0  0  0  0  0  0  0  0  0  0
    8.4311    4.7963   22.0500 C   0  0  0  0  0  0  0  0  0  0  0  0
    8.7393   10.8706   24.1871 O   0  0  0  0  0  0  0  0  0  0  0  0
    9.3093    3.8166   21.6712 C   0  0  0  0  0  0  0  0  0  0  0  0
  1  5  1  0
  1 15  4  0
  1 22  4  0
  2 20  1  0
  2 24  1  0
  3  6  4  0
  3 27  4  0
  4 22  4  0
  4 26  4  0
  6  7  4  0
  6 13  1  0
  7 19  4  0
  8 18  1  0
  8 23  1  0
  8 28  2  0
  9 17  1  0
  9 24  1  0
 10 11  1  0
 10 24  1  0
 11 23  1  0
 12 14  4  0
 12 16  4  0
 14 19  4  0
 15 18  4  0
 16 20  4  0
 17 25  1  0
 18 26  4  0
 19 29  4  0
 20 29  4  0
 21 23  1  0
 21 25  1  0
 27 29  4  0
M  END
$$$$

 Created by Python create_sdf_string function

 29 32  0  0  0  0  0  0  0  0999 V2000
    5.4450    8.7154   22.6662 C   0  0  0  0  0  0  0  0  0  0  0  0
   10.9154    5.4574   20.5483 C   0  0  0  0  0  0  0  0  0  0  0  0
    7.2709    4.5089   22.7542 C   0  0  0  0  0  0  0  0  0  0  0  0
    5.9698    7.6329   24.6581 C   0  0  0  0  0  0  0  0  0  0  0  0
    4.5542    8.9057   21.7104 O   0  0  0  0  0  0  0  0  0  0  0  0
    6.9895    3.2085   23.0690 C   0  0  0  0  0  0  0  0  0  0  0  0
    7.8391    2.2253   22.7260 N   0  0  0  0  0  0  0  0  0  0  0  0
    8.6968    9.8373   23.6359 C   0  0  0  0  0  0  0  0  0  0  0  0
   12.5135    6.5957   21.8396 C   0  0  0  0  0  0  0  0  0  0  0  0
   10.9406    8.2330   21.1350 C   0  0  0  0  0  0  0  0  0  0  0  0
    9.6648    8.5956   21.7310 C   0  0  0  0  0  0  0  0  0  0  0  0
   10.8829    1.7153   20.9865 C   0  0  0  0  0  0  0  0  0  0  0  0
    5.7768    2.8533   23.7910 C   0  0  0  0  0  0  0  0  0  0  0  0
    9.7977    1.4791   21.6912 N   0  0  0  0  0  0  0  0  0  0  0  0
    6.5976    9.3401   22.6478 N   0  0  0  0  0  0  0  0  0  0  0  0
   11.2031    3.0042   20.6246 C   0  0  0  0  0  0  0  0  0  0  0  0
   12.8688    7.7370   22.7287 C   0  0  0  0  0  0  0  0  0  0  0  0
    7.4487    9.1361   23.6506 C   0  0  0  0  0  0  0  0  0  0  0  0
    8.9772    2.5025   22.0273 C   0  0  0  0  0  0  0  0  0  0  0  0
   10.4859    4.0901   20.9730 C   0  0  0  0  0  0  0  0  0  0  0  0
   11.0962    9.3293   23.5072 C   0  0  0  0  0  0  0  0  0  0  0  0
    5.1273    7.8529   23.6208 N   0  0  0  0  0  0  0  0  0  0  0  0
    9.7552    9.2338   23.0171 N   0  0  0  0  0  0  0  0  0  0  0  0
   11.1797    6.7591   21.3326 N   0  0  0  0  0  0  0  0  0  0  0  0
   11.7728    8.0337   23.7267 C   0  0  0  0  0  0  0  0  0  0  0  0
    7.1194    8.3344   24.6775 C   0  0  0  0  0  0  0  0  0  0  0  0
    8.4311    4.7963   22.0500 C   0  0  0  0  0  0  0  0  0  0  0  0
    8.7393   10.8706   24.1871 O   0  0  0  0  0  0  0  0  0  0  0  0
    9.3093    3.8166   21.6712 C   0  0  0  0  0  0  0  0  0  0  0  0
  1  5  1  0
  1 15  4  0
  1 22  4  0
  2 20  1  0
  2 24  1  0
  3  6  4  0
  3 27  4  0
  4 22  4  0
  4 26  4  0
  6  7  4  0
  6 13  1  0
  7 19  4  0
  8 18  1  0
  8 23  1  0
  8 28  2  0
  9 17  1  0
  9 24  1  0
 10 11  1  0
 10 24  1  0
 11 23  1  0
 12 14  4  0
 12 16  4  0
 14 19  4  0
 15 18  4  0
 16 20  4  0
 17 25  1  0
 18 26  4  0
 19 29  4  0
 20 29  4  0
 21 23  1  0
 21 25  1  0
 27 29  4  0
M  END
$$$$

 Created by Python create_sdf_string function

 29 32  0  0  0  0  0  0  0  0999 V2000
    5.4450    8.7154   22.6662 C   0  0  0  0  0  0  0  0  0  0  0  0
   10.9154    5.4574   20.5483 C   0  0  0  0  0  0  0  0  0  0  0  0
    7.2709    4.5089   22.7542 C   0  0  0  0  0  0  0  0  0  0  0  0
    5.9698    7.6329   24.6581 C   0  0  0  0  0  0  0  0  0  0  0  0
    4.5542    8.9057   21.7104 O   0  0  0  0  0  0  0  0  0  0  0  0
    6.9895    3.2085   23.0690 C   0  0  0  0  0  0  0  0  0  0  0  0
    7.8391    2.2253   22.7260 N   0  0  0  0  0  0  0  0  0  0  0  0
    8.6968    9.8373   23.6359 C   0  0  0  0  0  0  0  0  0  0  0  0
   12.5135    6.5957   21.8396 C   0  0  0  0  0  0  0  0  0  0  0  0
   10.9406    8.2330   21.1350 C   0  0  0  0  0  0  0  0  0  0  0  0
    9.6648    8.5956   21.7310 C   0  0  0  0  0  0  0  0  0  0  0  0
   10.8829    1.7153   20.9865 C   0  0  0  0  0  0  0  0  0  0  0  0
    5.7768    2.8533   23.7910 C   0  0  0  0  0  0  0  0  0  0  0  0
    9.7977    1.4791   21.6912 N   0  0  0  0  0  0  0  0  0  0  0  0
    6.5976    9.3401   22.6478 N   0  0  0  0  0  0  0  0  0  0  0  0
   11.2031    3.0042   20.6246 C   0  0  0  0  0  0  0  0  0  0  0  0
   12.8688    7.7370   22.7287 C   0  0  0  0  0  0  0  0  0  0  0  0
    7.4487    9.1361   23.6506 C   0  0  0  0  0  0  0  0  0  0  0  0
    8.9772    2.5025   22.0273 C   0  0  0  0  0  0  0  0  0  0  0  0
   10.4859    4.0901   20.9730 C   0  0  0  0  0  0  0  0  0  0  0  0
   11.0962    9.3293   23.5072 C   0  0  0  0  0  0  0  0  0  0  0  0
    5.1273    7.8529   23.6208 N   0  0  0  0  0  0  0  0  0  0  0  0
    9.7552    9.2338   23.0171 N   0  0  0  0  0  0  0  0  0  0  0  0
   11.1797    6.7591   21.3326 N   0  0  0  0  0  0  0  0  0  0  0  0
   11.7728    8.0337   23.7267 C   0  0  0  0  0  0  0  0  0  0  0  0
    7.1194    8.3344   24.6775 C   0  0  0  0  0  0  0  0  0  0  0  0
    8.4311    4.7963   22.0500 C   0  0  0  0  0  0  0  0  0  0  0  0
    8.7393   10.8706   24.1871 O   0  0  0  0  0  0  0  0  0  0  0  0
    9.3093    3.8166   21.6712 C   0  0  0  0  0  0  0  0  0  0  0  0
  1  5  1  0
  1 15  4  0
  1 22  4  0
  2 20  1  0
  2 24  1  0
  3  6  4  0
  3 27  4  0
  4 22  4  0
  4 26  4  0
  6  7  4  0
  6 13  1  0
  7 19  4  0
  8 18  1  0
  8 23  1  0
  8 28  2  0
  9 17  1  0
  9 24  1  0
 10 11  1  0
 10 24  1  0
 11 23  1  0
 12 14  4  0
 12 16  4  0
 14 19  4  0
 15 18  4  0
 16 20  4  0
 17 25  1  0
 18 26  4  0
 19 29  4  0
 20 29  4  0
 21 23  1  0
 21 25  1  0
 27 29  4  0
M  END
$$$$

 Created by Python create_sdf_string function

 29 32  0  0  0  0  0  0  0  0999 V2000
    5.4450    8.7154   22.6662 C   0  0  0  0  0  0  0  0  0  0  0  0
   10.9154    5.4574   20.5483 C   0  0  0  0  0  0  0  0  0  0  0  0
    7.2709    4.5089   22.7542 C   0  0  0  0  0  0  0  0  0  0  0  0
    5.9698    7.6329   24.6581 C   0  0  0  0  0  0  0  0  0  0  0  0
    4.5542    8.9057   21.7104 O   0  0  0  0  0  0  0  0  0  0  0  0
    6.9895    3.2085   23.0690 C   0  0  0  0  0  0  0  0  0  0  0  0
    7.8391    2.2253   22.7260 N   0  0  0  0  0  0  0  0  0  0  0  0
    8.6968    9.8373   23.6359 C   0  0  0  0  0  0  0  0  0  0  0  0
   12.5135    6.5957   21.8396 C   0  0  0  0  0  0  0  0  0  0  0  0
   10.9406    8.2330   21.1350 C   0  0  0  0  0  0  0  0  0  0  0  0
    9.6648    8.5956   21.7310 C   0  0  0  0  0  0  0  0  0  0  0  0
   10.8829    1.7153   20.9865 C   0  0  0  0  0  0  0  0  0  0  0  0
    5.7768    2.8533   23.7910 C   0  0  0  0  0  0  0  0  0  0  0  0
    9.7977    1.4791   21.6912 N   0  0  0  0  0  0  0  0  0  0  0  0
    6.5976    9.3401   22.6478 N   0  0  0  0  0  0  0  0  0  0  0  0
   11.2031    3.0042   20.6246 C   0  0  0  0  0  0  0  0  0  0  0  0
   12.8688    7.7370   22.7287 C   0  0  0  0  0  0  0  0  0  0  0  0
    7.4487    9.1361   23.6506 C   0  0  0  0  0  0  0  0  0  0  0  0
    8.9772    2.5025   22.0273 C   0  0  0  0  0  0  0  0  0  0  0  0
   10.4859    4.0901   20.9730 C   0  0  0  0  0  0  0  0  0  0  0  0
   11.0962    9.3293   23.5072 C   0  0  0  0  0  0  0  0  0  0  0  0
    5.1273    7.8529   23.6208 N   0  0  0  0  0  0  0  0  0  0  0  0
    9.7552    9.2338   23.0171 N   0  0  0  0  0  0  0  0  0  0  0  0
   11.1797    6.7591   21.3326 N   0  0  0  0  0  0  0  0  0  0  0  0
   11.7728    8.0337   23.7267 C   0  0  0  0  0  0  0  0  0  0  0  0
    7.1194    8.3344   24.6775 C   0  0  0  0  0  0  0  0  0  0  0  0
    8.4311    4.7963   22.0500 C   0  0  0  0  0  0  0  0  0  0  0  0
    8.7393   10.8706   24.1871 O   0  0  0  0  0  0  0  0  0  0  0  0
    9.3093    3.8166   21.6712 C   0  0  0  0  0  0  0  0  0  0  0  0
  1  5  1  0
  1 15  4  0
  1 22  4  0
  2 20  1  0
  2 24  1  0
  3  6  4  0
  3 27  4  0
  4 22  4  0
  4 26  4  0
  6  7  4  0
  6 13  1  0
  7 19  4  0
  8 18  1  0
  8 23  1  0
  8 28  2  0
  9 17  1  0
  9 24  1  0
 10 11  1  0
 10 24  1  0
 11 23  1  0
 12 14  4  0
 12 16  4  0
 14 19  4  0
 15 18  4  0
 16 20  4  0
 17 25  1  0
 18 26  4  0
 19 29  4  0
 20 29  4  0
 21 23  1  0
 21 25  1  0
 27 29  4  0
M  END
$$$$

 Created by Python create_sdf_string function

 29 32  0  0  0  0  0  0  0  0999 V2000
    5.4450    8.7154   22.6662 C   0  0  0  0  0  0  0  0  0  0  0  0
   10.9154    5.4574   20.5483 C   0  0  0  0  0  0  0  0  0  0  0  0
    7.2709    4.5089   22.7542 C   0  0  0  0  0  0  0  0  0  0  0  0
    5.9698    7.6329   24.6581 C   0  0  0  0  0  0  0  0  0  0  0  0
    4.5542    8.9057   21.7104 O   0  0  0  0  0  0  0  0  0  0  0  0
    6.9895    3.2085   23.0690 C   0  0  0  0  0  0  0  0  0  0  0  0
    7.8391    2.2253   22.7260 N   0  0  0  0  0  0  0  0  0  0  0  0
    8.6968    9.8373   23.6359 C   0  0  0  0  0  0  0  0  0  0  0  0
   12.5135    6.5957   21.8396 C   0  0  0  0  0  0  0  0  0  0  0  0
   10.9406    8.2330   21.1350 C   0  0  0  0  0  0  0  0  0  0  0  0
    9.6648    8.5956   21.7310 C   0  0  0  0  0  0  0  0  0  0  0  0
   10.8829    1.7153   20.9865 C   0  0  0  0  0  0  0  0  0  0  0  0
    5.7768    2.8533   23.7910 C   0  0  0  0  0  0  0  0  0  0  0  0
    9.7977    1.4791   21.6912 N   0  0  0  0  0  0  0  0  0  0  0  0
    6.5976    9.3401   22.6478 N   0  0  0  0  0  0  0  0  0  0  0  0
   11.2031    3.0042   20.6246 C   0  0  0  0  0  0  0  0  0  0  0  0
   12.8688    7.7370   22.7287 C   0  0  0  0  0  0  0  0  0  0  0  0
    7.4487    9.1361   23.6506 C   0  0  0  0  0  0  0  0  0  0  0  0
    8.9772    2.5025   22.0273 C   0  0  0  0  0  0  0  0  0  0  0  0
   10.4859    4.0901   20.9730 C   0  0  0  0  0  0  0  0  0  0  0  0
   11.0962    9.3293   23.5072 C   0  0  0  0  0  0  0  0  0  0  0  0
    5.1273    7.8529   23.6208 N   0  0  0  0  0  0  0  0  0  0  0  0
    9.7552    9.2338   23.0171 N   0  0  0  0  0  0  0  0  0  0  0  0
   11.1797    6.7591   21.3326 N   0  0  0  0  0  0  0  0  0  0  0  0
   11.7728    8.0337   23.7267 C   0  0  0  0  0  0  0  0  0  0  0  0
    7.1194    8.3344   24.6775 C   0  0  0  0  0  0  0  0  0  0  0  0
    8.4311    4.7963   22.0500 C   0  0  0  0  0  0  0  0  0  0  0  0
    8.7393   10.8706   24.1871 O   0  0  0  0  0  0  0  0  0  0  0  0
    9.3093    3.8166   21.6712 C   0  0  0  0  0  0  0  0  0  0  0  0
  1  5  1  0
  1 15  4  0
  1 22  4  0
  2 20  1  0
  2 24  1  0
  3  6  4  0
  3 27  4  0
  4 22  4  0
  4 26  4  0
  6  7  4  0
  6 13  1  0
  7 19  4  0
  8 18  1  0
  8 23  1  0
  8 28  2  0
  9 17  1  0
  9 24  1  0
 10 11  1  0
 10 24  1  0
 11 23  1  0
 12 14  4  0
 12 16  4  0
 14 19  4  0
 15 18  4  0
 16 20  4  0
 17 25  1  0
 18 26  4  0
 19 29  4  0
 20 29  4  0
 21 23  1  0
 21 25  1  0
 27 29  4  0
M  END
$$$$

 Created by Python create_sdf_string function

 29 32  0  0  0  0  0  0  0  0999 V2000
    5.4450    8.7154   22.6662 C   0  0  0  0  0  0  0  0  0  0  0  0
   10.9154    5.4574   20.5483 C   0  0  0  0  0  0  0  0  0  0  0  0
    7.2709    4.5089   22.7542 C   0  0  0  0  0  0  0  0  0  0  0  0
    5.9698    7.6329   24.6581 C   0  0  0  0  0  0  0  0  0  0  0  0
    4.5542    8.9057   21.7104 O   0  0  0  0  0  0  0  0  0  0  0  0
    6.9895    3.2085   23.0690 C   0  0  0  0  0  0  0  0  0  0  0  0
    7.8391    2.2253   22.7260 N   0  0  0  0  0  0  0  0  0  0  0  0
    8.6968    9.8373   23.6359 C   0  0  0  0  0  0  0  0  0  0  0  0
   12.5135    6.5957   21.8396 C   0  0  0  0  0  0  0  0  0  0  0  0
   10.9406    8.2330   21.1350 C   0  0  0  0  0  0  0  0  0  0  0  0
    9.6648    8.5956   21.7310 C   0  0  0  0  0  0  0  0  0  0  0  0
   10.8829    1.7153   20.9865 C   0  0  0  0  0  0  0  0  0  0  0  0
    5.7768    2.8533   23.7910 C   0  0  0  0  0  0  0  0  0  0  0  0
    9.7977    1.4791   21.6912 N   0  0  0  0  0  0  0  0  0  0  0  0
    6.5976    9.3401   22.6478 N   0  0  0  0  0  0  0  0  0  0  0  0
   11.2031    3.0042   20.6246 C   0  0  0  0  0  0  0  0  0  0  0  0
   12.8688    7.7370   22.7287 C   0  0  0  0  0  0  0  0  0  0  0  0
    7.4487    9.1361   23.6506 C   0  0  0  0  0  0  0  0  0  0  0  0
    8.9772    2.5025   22.0273 C   0  0  0  0  0  0  0  0  0  0  0  0
   10.4859    4.0901   20.9730 C   0  0  0  0  0  0  0  0  0  0  0  0
   11.0962    9.3293   23.5072 C   0  0  0  0  0  0  0  0  0  0  0  0
    5.1273    7.8529   23.6208 N   0  0  0  0  0  0  0  0  0  0  0  0
    9.7552    9.2338   23.0171 N   0  0  0  0  0  0  0  0  0  0  0  0
   11.1797    6.7591   21.3326 N   0  0  0  0  0  0  0  0  0  0  0  0
   11.7728    8.0337   23.7267 C   0  0  0  0  0  0  0  0  0  0  0  0
    7.1194    8.3344   24.6775 C   0  0  0  0  0  0  0  0  0  0  0  0
    8.4311    4.7963   22.0500 C   0  0  0  0  0  0  0  0  0  0  0  0
    8.7393   10.8706   24.1871 O   0  0  0  0  0  0  0  0  0  0  0  0
    9.3093    3.8166   21.6712 C   0  0  0  0  0  0  0  0  0  0  0  0
  1  5  1  0
  1 15  4  0
  1 22  4  0
  2 20  1  0
  2 24  1  0
  3  6  4  0
  3 27  4  0
  4 22  4  0
  4 26  4  0
  6  7  4  0
  6 13  1  0
  7 19  4  0
  8 18  1  0
  8 23  1  0
  8 28  2  0
  9 17  1  0
  9 24  1  0
 10 11  1  0
 10 24  1  0
 11 23  1  0
 12 14  4  0
 12 16  4  0
 14 19  4  0
 15 18  4  0
 16 20  4  0
 17 25  1  0
 18 26  4  0
 19 29  4  0
 20 29  4  0
 21 23  1  0
 21 25  1  0
 27 29  4  0
M  END
$$$$

 Created by Python create_sdf_string function

 29 32  0  0  0  0  0  0  0  0999 V2000
    5.4450    8.7154   22.6662 C   0  0  0  0  0  0  0  0  0  0  0  0
   10.9154    5.4574   20.5483 C   0  0  0  0  0  0  0  0  0  0  0  0
    7.2709    4.5089   22.7542 C   0  0  0  0  0  0  0  0  0  0  0  0
    5.9698    7.6329   24.6581 C   0  0  0  0  0  0  0  0  0  0  0  0
    4.5542    8.9057   21.7104 O   0  0  0  0  0  0  0  0  0  0  0  0
    6.9895    3.2085   23.0690 C   0  0  0  0  0  0  0  0  0  0  0  0
    7.8391    2.2253   22.7260 N   0  0  0  0  0  0  0  0  0  0  0  0
    8.6968    9.8373   23.6359 C   0  0  0  0  0  0  0  0  0  0  0  0
   12.5135    6.5957   21.8396 C   0  0  0  0  0  0  0  0  0  0  0  0
   10.9406    8.2330   21.1350 C   0  0  0  0  0  0  0  0  0  0  0  0
    9.6648    8.5956   21.7310 C   0  0  0  0  0  0  0  0  0  0  0  0
   10.8829    1.7153   20.9865 C   0  0  0  0  0  0  0  0  0  0  0  0
    5.7768    2.8533   23.7910 C   0  0  0  0  0  0  0  0  0  0  0  0
    9.7977    1.4791   21.6912 N   0  0  0  0  0  0  0  0  0  0  0  0
    6.5976    9.3401   22.6478 N   0  0  0  0  0  0  0  0  0  0  0  0
   11.2031    3.0042   20.6246 C   0  0  0  0  0  0  0  0  0  0  0  0
   12.8688    7.7370   22.7287 C   0  0  0  0  0  0  0  0  0  0  0  0
    7.4487    9.1361   23.6506 C   0  0  0  0  0  0  0  0  0  0  0  0
    8.9772    2.5025   22.0273 C   0  0  0  0  0  0  0  0  0  0  0  0
   10.4859    4.0901   20.9730 C   0  0  0  0  0  0  0  0  0  0  0  0
   11.0962    9.3293   23.5072 C   0  0  0  0  0  0  0  0  0  0  0  0
    5.1273    7.8529   23.6208 N   0  0  0  0  0  0  0  0  0  0  0  0
    9.7552    9.2338   23.0171 N   0  0  0  0  0  0  0  0  0  0  0  0
   11.1797    6.7591   21.3326 N   0  0  0  0  0  0  0  0  0  0  0  0
   11.7728    8.0337   23.7267 C   0  0  0  0  0  0  0  0  0  0  0  0
    7.1194    8.3344   24.6775 C   0  0  0  0  0  0  0  0  0  0  0  0
    8.4311    4.7963   22.0500 C   0  0  0  0  0  0  0  0  0  0  0  0
    8.7393   10.8706   24.1871 O   0  0  0  0  0  0  0  0  0  0  0  0
    9.3093    3.8166   21.6712 C   0  0  0  0  0  0  0  0  0  0  0  0
  1  5  1  0
  1 15  4  0
  1 22  4  0
  2 20  1  0
  2 24  1  0
  3  6  4  0
  3 27  4  0
  4 22  4  0
  4 26  4  0
  6  7  4  0
  6 13  1  0
  7 19  4  0
  8 18  1  0
  8 23  1  0
  8 28  2  0
  9 17  1  0
  9 24  1  0
 10 11  1  0
 10 24  1  0
 11 23  1  0
 12 14  4  0
 12 16  4  0
 14 19  4  0
 15 18  4  0
 16 20  4  0
 17 25  1  0
 18 26  4  0
 19 29  4  0
 20 29  4  0
 21 23  1  0
 21 25  1  0
 27 29  4  0
M  END
$$$$

 Created by Python create_sdf_string function

 29 32  0  0  0  0  0  0  0  0999 V2000
    5.4450    8.7154   22.6662 C   0  0  0  0  0  0  0  0  0  0  0  0
   10.9154    5.4574   20.5483 C   0  0  0  0  0  0  0  0  0  0  0  0
    7.2709    4.5089   22.7542 C   0  0  0  0  0  0  0  0  0  0  0  0
    5.9698    7.6329   24.6581 C   0  0  0  0  0  0  0  0  0  0  0  0
    4.5542    8.9057   21.7104 O   0  0  0  0  0  0  0  0  0  0  0  0
    6.9895    3.2085   23.0690 C   0  0  0  0  0  0  0  0  0  0  0  0
    7.8391    2.2253   22.7260 N   0  0  0  0  0  0  0  0  0  0  0  0
    8.6968    9.8373   23.6359 C   0  0  0  0  0  0  0  0  0  0  0  0
   12.5135    6.5957   21.8396 C   0  0  0  0  0  0  0  0  0  0  0  0
   10.9406    8.2330   21.1350 C   0  0  0  0  0  0  0  0  0  0  0  0
    9.6648    8.5956   21.7310 C   0  0  0  0  0  0  0  0  0  0  0  0
   10.8829    1.7153   20.9865 C   0  0  0  0  0  0  0  0  0  0  0  0
    5.7768    2.8533   23.7910 C   0  0  0  0  0  0  0  0  0  0  0  0
    9.7977    1.4791   21.6912 N   0  0  0  0  0  0  0  0  0  0  0  0
    6.5976    9.3401   22.6478 N   0  0  0  0  0  0  0  0  0  0  0  0
   11.2031    3.0042   20.6246 C   0  0  0  0  0  0  0  0  0  0  0  0
   12.8688    7.7370   22.7287 C   0  0  0  0  0  0  0  0  0  0  0  0
    7.4487    9.1361   23.6506 C   0  0  0  0  0  0  0  0  0  0  0  0
    8.9772    2.5025   22.0273 C   0  0  0  0  0  0  0  0  0  0  0  0
   10.4859    4.0901   20.9730 C   0  0  0  0  0  0  0  0  0  0  0  0
   11.0962    9.3293   23.5072 C   0  0  0  0  0  0  0  0  0  0  0  0
    5.1273    7.8529   23.6208 N   0  0  0  0  0  0  0  0  0  0  0  0
    9.7552    9.2338   23.0171 N   0  0  0  0  0  0  0  0  0  0  0  0
   11.1797    6.7591   21.3326 N   0  0  0  0  0  0  0  0  0  0  0  0
   11.7728    8.0337   23.7267 C   0  0  0  0  0  0  0  0  0  0  0  0
    7.1194    8.3344   24.6775 C   0  0  0  0  0  0  0  0  0  0  0  0
    8.4311    4.7963   22.0500 C   0  0  0  0  0  0  0  0  0  0  0  0
    8.7393   10.8706   24.1871 O   0  0  0  0  0  0  0  0  0  0  0  0
    9.3093    3.8166   21.6712 C   0  0  0  0  0  0  0  0  0  0  0  0
  1  5  1  0
  1 15  4  0
  1 22  4  0
  2 20  1  0
  2 24  1  0
  3  6  4  0
  3 27  4  0
  4 22  4  0
  4 26  4  0
  6  7  4  0
  6 13  1  0
  7 19  4  0
  8 18  1  0
  8 23  1  0
  8 28  2  0
  9 17  1  0
  9 24  1  0
 10 11  1  0
 10 24  1  0
 11 23  1  0
 12 14  4  0
 12 16  4  0
 14 19  4  0
 15 18  4  0
 16 20  4  0
 17 25  1  0
 18 26  4  0
 19 29  4  0
 20 29  4  0
 21 23  1  0
 21 25  1  0
 27 29  4  0
M  END
$$$$

 Created by Python create_sdf_string function

 29 32  0  0  0  0  0  0  0  0999 V2000
    5.4450    8.7154   22.6662 C   0  0  0  0  0  0  0  0  0  0  0  0
   10.9154    5.4574   20.5483 C   0  0  0  0  0  0  0  0  0  0  0  0
    7.2709    4.5089   22.7542 C   0  0  0  0  0  0  0  0  0  0  0  0
    5.9698    7.6329   24.6581 C   0  0  0  0  0  0  0  0  0  0  0  0
    4.5542    8.9057   21.7104 O   0  0  0  0  0  0  0  0  0  0  0  0
    6.9895    3.2085   23.0690 C   0  0  0  0  0  0  0  0  0  0  0  0
    7.8391    2.2253   22.7260 N   0  0  0  0  0  0  0  0  0  0  0  0
    8.6968    9.8373   23.6359 C   0  0  0  0  0  0  0  0  0  0  0  0
   12.5135    6.5957   21.8396 C   0  0  0  0  0  0  0  0  0  0  0  0
   10.9406    8.2330   21.1350 C   0  0  0  0  0  0  0  0  0  0  0  0
    9.6648    8.5956   21.7310 C   0  0  0  0  0  0  0  0  0  0  0  0
   10.8829    1.7153   20.9865 C   0  0  0  0  0  0  0  0  0  0  0  0
    5.7768    2.8533   23.7910 C   0  0  0  0  0  0  0  0  0  0  0  0
    9.7977    1.4791   21.6912 N   0  0  0  0  0  0  0  0  0  0  0  0
    6.5976    9.3401   22.6478 N   0  0  0  0  0  0  0  0  0  0  0  0
   11.2031    3.0042   20.6246 C   0  0  0  0  0  0  0  0  0  0  0  0
   12.8688    7.7370   22.7287 C   0  0  0  0  0  0  0  0  0  0  0  0
    7.4487    9.1361   23.6506 C   0  0  0  0  0  0  0  0  0  0  0  0
    8.9772    2.5025   22.0273 C   0  0  0  0  0  0  0  0  0  0  0  0
   10.4859    4.0901   20.9730 C   0  0  0  0  0  0  0  0  0  0  0  0
   11.0962    9.3293   23.5072 C   0  0  0  0  0  0  0  0  0  0  0  0
    5.1273    7.8529   23.6208 N   0  0  0  0  0  0  0  0  0  0  0  0
    9.7552    9.2338   23.0171 N   0  0  0  0  0  0  0  0  0  0  0  0
   11.1797    6.7591   21.3326 N   0  0  0  0  0  0  0  0  0  0  0  0
   11.7728    8.0337   23.7267 C   0  0  0  0  0  0  0  0  0  0  0  0
    7.1194    8.3344   24.6775 C   0  0  0  0  0  0  0  0  0  0  0  0
    8.4311    4.7963   22.0500 C   0  0  0  0  0  0  0  0  0  0  0  0
    8.7393   10.8706   24.1871 O   0  0  0  0  0  0  0  0  0  0  0  0
    9.3093    3.8166   21.6712 C   0  0  0  0  0  0  0  0  0  0  0  0
  1  5  1  0
  1 15  4  0
  1 22  4  0
  2 20  1  0
  2 24  1  0
  3  6  4  0
  3 27  4  0
  4 22  4  0
  4 26  4  0
  6  7  4  0
  6 13  1  0
  7 19  4  0
  8 18  1  0
  8 23  1  0
  8 28  2  0
  9 17  1  0
  9 24  1  0
 10 11  1  0
 10 24  1  0
 11 23  1  0
 12 14  4  0
 12 16  4  0
 14 19  4  0
 15 18  4  0
 16 20  4  0
 17 25  1  0
 18 26  4  0
 19 29  4  0
 20 29  4  0
 21 23  1  0
 21 25  1  0
 27 29  4  0
M  END
$$$$

 Created by Python create_sdf_string function

 29 32  0  0  0  0  0  0  0  0999 V2000
    5.4450    8.7154   22.6662 C   0  0  0  0  0  0  0  0  0  0  0  0
   10.9154    5.4574   20.5483 C   0  0  0  0  0  0  0  0  0  0  0  0
    7.2709    4.5089   22.7542 C   0  0  0  0  0  0  0  0  0  0  0  0
    5.9698    7.6329   24.6581 C   0  0  0  0  0  0  0  0  0  0  0  0
    4.5542    8.9057   21.7104 O   0  0  0  0  0  0  0  0  0  0  0  0
    6.9895    3.2085   23.0690 C   0  0  0  0  0  0  0  0  0  0  0  0
    7.8391    2.2253   22.7260 N   0  0  0  0  0  0  0  0  0  0  0  0
    8.6968    9.8373   23.6359 C   0  0  0  0  0  0  0  0  0  0  0  0
   12.5135    6.5957   21.8396 C   0  0  0  0  0  0  0  0  0  0  0  0
   10.9406    8.2330   21.1350 C   0  0  0  0  0  0  0  0  0  0  0  0
    9.6648    8.5956   21.7310 C   0  0  0  0  0  0  0  0  0  0  0  0
   10.8829    1.7153   20.9865 C   0  0  0  0  0  0  0  0  0  0  0  0
    5.7768    2.8533   23.7910 C   0  0  0  0  0  0  0  0  0  0  0  0
    9.7977    1.4791   21.6912 N   0  0  0  0  0  0  0  0  0  0  0  0
    6.5976    9.3401   22.6478 N   0  0  0  0  0  0  0  0  0  0  0  0
   11.2031    3.0042   20.6246 C   0  0  0  0  0  0  0  0  0  0  0  0
   12.8688    7.7370   22.7287 C   0  0  0  0  0  0  0  0  0  0  0  0
    7.4487    9.1361   23.6506 C   0  0  0  0  0  0  0  0  0  0  0  0
    8.9772    2.5025   22.0273 C   0  0  0  0  0  0  0  0  0  0  0  0
   10.4859    4.0901   20.9730 C   0  0  0  0  0  0  0  0  0  0  0  0
   11.0962    9.3293   23.5072 C   0  0  0  0  0  0  0  0  0  0  0  0
    5.1273    7.8529   23.6208 N   0  0  0  0  0  0  0  0  0  0  0  0
    9.7552    9.2338   23.0171 N   0  0  0  0  0  0  0  0  0  0  0  0
   11.1797    6.7591   21.3326 N   0  0  0  0  0  0  0  0  0  0  0  0
   11.7728    8.0337   23.7267 C   0  0  0  0  0  0  0  0  0  0  0  0
    7.1194    8.3344   24.6775 C   0  0  0  0  0  0  0  0  0  0  0  0
    8.4311    4.7963   22.0500 C   0  0  0  0  0  0  0  0  0  0  0  0
    8.7393   10.8706   24.1871 O   0  0  0  0  0  0  0  0  0  0  0  0
    9.3093    3.8166   21.6712 C   0  0  0  0  0  0  0  0  0  0  0  0
  1  5  1  0
  1 15  4  0
  1 22  4  0
  2 20  1  0
  2 24  1  0
  3  6  4  0
  3 27  4  0
  4 22  4  0
  4 26  4  0
  6  7  4  0
  6 13  1  0
  7 19  4  0
  8 18  1  0
  8 23  1  0
  8 28  2  0
  9 17  1  0
  9 24  1  0
 10 11  1  0
 10 24  1  0
 11 23  1  0
 12 14  4  0
 12 16  4  0
 14 19  4  0
 15 18  4  0
 16 20  4  0
 17 25  1  0
 18 26  4  0
 19 29  4  0
 20 29  4  0
 21 23  1  0
 21 25  1  0
 27 29  4  0
M  END
$$$$

 Created by Python create_sdf_string function

 29 32  0  0  0  0  0  0  0  0999 V2000
    5.4450    8.7154   22.6662 C   0  0  0  0  0  0  0  0  0  0  0  0
   10.9154    5.4574   20.5483 C   0  0  0  0  0  0  0  0  0  0  0  0
    7.2709    4.5089   22.7542 C   0  0  0  0  0  0  0  0  0  0  0  0
    5.9698    7.6329   24.6581 C   0  0  0  0  0  0  0  0  0  0  0  0
    4.5542    8.9057   21.7104 O   0  0  0  0  0  0  0  0  0  0  0  0
    6.9895    3.2085   23.0690 C   0  0  0  0  0  0  0  0  0  0  0  0
    7.8391    2.2253   22.7260 N   0  0  0  0  0  0  0  0  0  0  0  0
    8.6968    9.8373   23.6359 C   0  0  0  0  0  0  0  0  0  0  0  0
   12.5135    6.5957   21.8396 C   0  0  0  0  0  0  0  0  0  0  0  0
   10.9406    8.2330   21.1350 C   0  0  0  0  0  0  0  0  0  0  0  0
    9.6648    8.5956   21.7310 C   0  0  0  0  0  0  0  0  0  0  0  0
   10.8829    1.7153   20.9865 C   0  0  0  0  0  0  0  0  0  0  0  0
    5.7768    2.8533   23.7910 C   0  0  0  0  0  0  0  0  0  0  0  0
    9.7977    1.4791   21.6912 N   0  0  0  0  0  0  0  0  0  0  0  0
    6.5976    9.3401   22.6478 N   0  0  0  0  0  0  0  0  0  0  0  0
   11.2031    3.0042   20.6246 C   0  0  0  0  0  0  0  0  0  0  0  0
   12.8688    7.7370   22.7287 C   0  0  0  0  0  0  0  0  0  0  0  0
    7.4487    9.1361   23.6506 C   0  0  0  0  0  0  0  0  0  0  0  0
    8.9772    2.5025   22.0273 C   0  0  0  0  0  0  0  0  0  0  0  0
   10.4859    4.0901   20.9730 C   0  0  0  0  0  0  0  0  0  0  0  0
   11.0962    9.3293   23.5072 C   0  0  0  0  0  0  0  0  0  0  0  0
    5.1273    7.8529   23.6208 N   0  0  0  0  0  0  0  0  0  0  0  0
    9.7552    9.2338   23.0171 N   0  0  0  0  0  0  0  0  0  0  0  0
   11.1797    6.7591   21.3326 N   0  0  0  0  0  0  0  0  0  0  0  0
   11.7728    8.0337   23.7267 C   0  0  0  0  0  0  0  0  0  0  0  0
    7.1194    8.3344   24.6775 C   0  0  0  0  0  0  0  0  0  0  0  0
    8.4311    4.7963   22.0500 C   0  0  0  0  0  0  0  0  0  0  0  0
    8.7393   10.8706   24.1871 O   0  0  0  0  0  0  0  0  0  0  0  0
    9.3093    3.8166   21.6712 C   0  0  0  0  0  0  0  0  0  0  0  0
  1  5  1  0
  1 15  4  0
  1 22  4  0
  2 20  1  0
  2 24  1  0
  3  6  4  0
  3 27  4  0
  4 22  4  0
  4 26  4  0
  6  7  4  0
  6 13  1  0
  7 19  4  0
  8 18  1  0
  8 23  1  0
  8 28  2  0
  9 17  1  0
  9 24  1  0
 10 11  1  0
 10 24  1  0
 11 23  1  0
 12 14  4  0
 12 16  4  0
 14 19  4  0
 15 18  4  0
 16 20  4  0
 17 25  1  0
 18 26  4  0
 19 29  4  0
 20 29  4  0
 21 23  1  0
 21 25  1  0
 27 29  4  0
M  END
$$$$

 Created by Python create_sdf_string function

 29 32  0  0  0  0  0  0  0  0999 V2000
    5.4450    8.7154   22.6662 C   0  0  0  0  0  0  0  0  0  0  0  0
   10.9154    5.4574   20.5483 C   0  0  0  0  0  0  0  0  0  0  0  0
    7.2709    4.5089   22.7542 C   0  0  0  0  0  0  0  0  0  0  0  0
    5.9698    7.6329   24.6581 C   0  0  0  0  0  0  0  0  0  0  0  0
    4.5542    8.9057   21.7104 O   0  0  0  0  0  0  0  0  0  0  0  0
    6.9895    3.2085   23.0690 C   0  0  0  0  0  0  0  0  0  0  0  0
    7.8391    2.2253   22.7260 N   0  0  0  0  0  0  0  0  0  0  0  0
    8.6968    9.8373   23.6359 C   0  0  0  0  0  0  0  0  0  0  0  0
   12.5135    6.5957   21.8396 C   0  0  0  0  0  0  0  0  0  0  0  0
   10.9406    8.2330   21.1350 C   0  0  0  0  0  0  0  0  0  0  0  0
    9.6648    8.5956   21.7310 C   0  0  0  0  0  0  0  0  0  0  0  0
   10.8829    1.7153   20.9865 C   0  0  0  0  0  0  0  0  0  0  0  0
    5.7768    2.8533   23.7910 C   0  0  0  0  0  0  0  0  0  0  0  0
    9.7977    1.4791   21.6912 N   0  0  0  0  0  0  0  0  0  0  0  0
    6.5976    9.3401   22.6478 N   0  0  0  0  0  0  0  0  0  0  0  0
   11.2031    3.0042   20.6246 C   0  0  0  0  0  0  0  0  0  0  0  0
   12.8688    7.7370   22.7287 C   0  0  0  0  0  0  0  0  0  0  0  0
    7.4487    9.1361   23.6506 C   0  0  0  0  0  0  0  0  0  0  0  0
    8.9772    2.5025   22.0273 C   0  0  0  0  0  0  0  0  0  0  0  0
   10.4859    4.0901   20.9730 C   0  0  0  0  0  0  0  0  0  0  0  0
   11.0962    9.3293   23.5072 C   0  0  0  0  0  0  0  0  0  0  0  0
    5.1273    7.8529   23.6208 N   0  0  0  0  0  0  0  0  0  0  0  0
    9.7552    9.2338   23.0171 N   0  0  0  0  0  0  0  0  0  0  0  0
   11.1797    6.7591   21.3326 N   0  0  0  0  0  0  0  0  0  0  0  0
   11.7728    8.0337   23.7267 C   0  0  0  0  0  0  0  0  0  0  0  0
    7.1194    8.3344   24.6775 C   0  0  0  0  0  0  0  0  0  0  0  0
    8.4311    4.7963   22.0500 C   0  0  0  0  0  0  0  0  0  0  0  0
    8.7393   10.8706   24.1871 O   0  0  0  0  0  0  0  0  0  0  0  0
    9.3093    3.8166   21.6712 C   0  0  0  0  0  0  0  0  0  0  0  0
  1  5  1  0
  1 15  4  0
  1 22  4  0
  2 20  1  0
  2 24  1  0
  3  6  4  0
  3 27  4  0
  4 22  4  0
  4 26  4  0
  6  7  4  0
  6 13  1  0
  7 19  4  0
  8 18  1  0
  8 23  1  0
  8 28  2  0
  9 17  1  0
  9 24  1  0
 10 11  1  0
 10 24  1  0
 11 23  1  0
 12 14  4  0
 12 16  4  0
 14 19  4  0
 15 18  4  0
 16 20  4  0
 17 25  1  0
 18 26  4  0
 19 29  4  0
 20 29  4  0
 21 23  1  0
 21 25  1  0
 27 29  4  0
M  END
$$$$

 Created by Python create_sdf_string function

 29 32  0  0  0  0  0  0  0  0999 V2000
    5.4450    8.7154   22.6662 C   0  0  0  0  0  0  0  0  0  0  0  0
   10.9154    5.4574   20.5483 C   0  0  0  0  0  0  0  0  0  0  0  0
    7.2709    4.5089   22.7542 C   0  0  0  0  0  0  0  0  0  0  0  0
    5.9698    7.6329   24.6581 C   0  0  0  0  0  0  0  0  0  0  0  0
    4.5542    8.9057   21.7104 O   0  0  0  0  0  0  0  0  0  0  0  0
    6.9895    3.2085   23.0690 C   0  0  0  0  0  0  0  0  0  0  0  0
    7.8391    2.2253   22.7260 N   0  0  0  0  0  0  0  0  0  0  0  0
    8.6968    9.8373   23.6359 C   0  0  0  0  0  0  0  0  0  0  0  0
   12.5135    6.5957   21.8396 C   0  0  0  0  0  0  0  0  0  0  0  0
   10.9406    8.2330   21.1350 C   0  0  0  0  0  0  0  0  0  0  0  0
    9.6648    8.5956   21.7310 C   0  0  0  0  0  0  0  0  0  0  0  0
   10.8829    1.7153   20.9865 C   0  0  0  0  0  0  0  0  0  0  0  0
    5.7768    2.8533   23.7910 C   0  0  0  0  0  0  0  0  0  0  0  0
    9.7977    1.4791   21.6912 N   0  0  0  0  0  0  0  0  0  0  0  0
    6.5976    9.3401   22.6478 N   0  0  0  0  0  0  0  0  0  0  0  0
   11.2031    3.0042   20.6246 C   0  0  0  0  0  0  0  0  0  0  0  0
   12.8688    7.7370   22.7287 C   0  0  0  0  0  0  0  0  0  0  0  0
    7.4487    9.1361   23.6506 C   0  0  0  0  0  0  0  0  0  0  0  0
    8.9772    2.5025   22.0273 C   0  0  0  0  0  0  0  0  0  0  0  0
   10.4859    4.0901   20.9730 C   0  0  0  0  0  0  0  0  0  0  0  0
   11.0962    9.3293   23.5072 C   0  0  0  0  0  0  0  0  0  0  0  0
    5.1273    7.8529   23.6208 N   0  0  0  0  0  0  0  0  0  0  0  0
    9.7552    9.2338   23.0171 N   0  0  0  0  0  0  0  0  0  0  0  0
   11.1797    6.7591   21.3326 N   0  0  0  0  0  0  0  0  0  0  0  0
   11.7728    8.0337   23.7267 C   0  0  0  0  0  0  0  0  0  0  0  0
    7.1194    8.3344   24.6775 C   0  0  0  0  0  0  0  0  0  0  0  0
    8.4311    4.7963   22.0500 C   0  0  0  0  0  0  0  0  0  0  0  0
    8.7393   10.8706   24.1871 O   0  0  0  0  0  0  0  0  0  0  0  0
    9.3093    3.8166   21.6712 C   0  0  0  0  0  0  0  0  0  0  0  0
  1  5  1  0
  1 15  4  0
  1 22  4  0
  2 20  1  0
  2 24  1  0
  3  6  4  0
  3 27  4  0
  4 22  4  0
  4 26  4  0
  6  7  4  0
  6 13  1  0
  7 19  4  0
  8 18  1  0
  8 23  1  0
  8 28  2  0
  9 17  1  0
  9 24  1  0
 10 11  1  0
 10 24  1  0
 11 23  1  0
 12 14  4  0
 12 16  4  0
 14 19  4  0
 15 18  4  0
 16 20  4  0
 17 25  1  0
 18 26  4  0
 19 29  4  0
 20 29  4  0
 21 23  1  0
 21 25  1  0
 27 29  4  0
M  END
$$$$

 Created by Python create_sdf_string function

 29 32  0  0  0  0  0  0  0  0999 V2000
    5.4450    8.7154   22.6662 C   0  0  0  0  0  0  0  0  0  0  0  0
   10.9154    5.4574   20.5483 C   0  0  0  0  0  0  0  0  0  0  0  0
    7.2709    4.5089   22.7542 C   0  0  0  0  0  0  0  0  0  0  0  0
    5.9698    7.6329   24.6581 C   0  0  0  0  0  0  0  0  0  0  0  0
    4.5542    8.9057   21.7104 O   0  0  0  0  0  0  0  0  0  0  0  0
    6.9895    3.2085   23.0690 C   0  0  0  0  0  0  0  0  0  0  0  0
    7.8391    2.2253   22.7260 N   0  0  0  0  0  0  0  0  0  0  0  0
    8.6968    9.8373   23.6359 C   0  0  0  0  0  0  0  0  0  0  0  0
   12.5135    6.5957   21.8396 C   0  0  0  0  0  0  0  0  0  0  0  0
   10.9406    8.2330   21.1350 C   0  0  0  0  0  0  0  0  0  0  0  0
    9.6648    8.5956   21.7310 C   0  0  0  0  0  0  0  0  0  0  0  0
   10.8829    1.7153   20.9865 C   0  0  0  0  0  0  0  0  0  0  0  0
    5.7768    2.8533   23.7910 C   0  0  0  0  0  0  0  0  0  0  0  0
    9.7977    1.4791   21.6912 N   0  0  0  0  0  0  0  0  0  0  0  0
    6.5976    9.3401   22.6478 N   0  0  0  0  0  0  0  0  0  0  0  0
   11.2031    3.0042   20.6246 C   0  0  0  0  0  0  0  0  0  0  0  0
   12.8688    7.7370   22.7287 C   0  0  0  0  0  0  0  0  0  0  0  0
    7.4487    9.1361   23.6506 C   0  0  0  0  0  0  0  0  0  0  0  0
    8.9772    2.5025   22.0273 C   0  0  0  0  0  0  0  0  0  0  0  0
   10.4859    4.0901   20.9730 C   0  0  0  0  0  0  0  0  0  0  0  0
   11.0962    9.3293   23.5072 C   0  0  0  0  0  0  0  0  0  0  0  0
    5.1273    7.8529   23.6208 N   0  0  0  0  0  0  0  0  0  0  0  0
    9.7552    9.2338   23.0171 N   0  0  0  0  0  0  0  0  0  0  0  0
   11.1797    6.7591   21.3326 N   0  0  0  0  0  0  0  0  0  0  0  0
   11.7728    8.0337   23.7267 C   0  0  0  0  0  0  0  0  0  0  0  0
    7.1194    8.3344   24.6775 C   0  0  0  0  0  0  0  0  0  0  0  0
    8.4311    4.7963   22.0500 C   0  0  0  0  0  0  0  0  0  0  0  0
    8.7393   10.8706   24.1871 O   0  0  0  0  0  0  0  0  0  0  0  0
    9.3093    3.8166   21.6712 C   0  0  0  0  0  0  0  0  0  0  0  0
  1  5  1  0
  1 15  4  0
  1 22  4  0
  2 20  1  0
  2 24  1  0
  3  6  4  0
  3 27  4  0
  4 22  4  0
  4 26  4  0
  6  7  4  0
  6 13  1  0
  7 19  4  0
  8 18  1  0
  8 23  1  0
  8 28  2  0
  9 17  1  0
  9 24  1  0
 10 11  1  0
 10 24  1  0
 11 23  1  0
 12 14  4  0
 12 16  4  0
 14 19  4  0
 15 18  4  0
 16 20  4  0
 17 25  1  0
 18 26  4  0
 19 29  4  0
 20 29  4  0
 21 23  1  0
 21 25  1  0
 27 29  4  0
M  END
$$$$

 Created by Python create_sdf_string function

 29 32  0  0  0  0  0  0  0  0999 V2000
    5.4450    8.7154   22.6662 C   0  0  0  0  0  0  0  0  0  0  0  0
   10.9154    5.4574   20.5483 C   0  0  0  0  0  0  0  0  0  0  0  0
    7.2709    4.5089   22.7542 C   0  0  0  0  0  0  0  0  0  0  0  0
    5.9698    7.6329   24.6581 C   0  0  0  0  0  0  0  0  0  0  0  0
    4.5542    8.9057   21.7104 O   0  0  0  0  0  0  0  0  0  0  0  0
    6.9895    3.2085   23.0690 C   0  0  0  0  0  0  0  0  0  0  0  0
    7.8391    2.2253   22.7260 N   0  0  0  0  0  0  0  0  0  0  0  0
    8.6968    9.8373   23.6359 C   0  0  0  0  0  0  0  0  0  0  0  0
   12.5135    6.5957   21.8396 C   0  0  0  0  0  0  0  0  0  0  0  0
   10.9406    8.2330   21.1350 C   0  0  0  0  0  0  0  0  0  0  0  0
    9.6648    8.5956   21.7310 C   0  0  0  0  0  0  0  0  0  0  0  0
   10.8829    1.7153   20.9865 C   0  0  0  0  0  0  0  0  0  0  0  0
    5.7768    2.8533   23.7910 C   0  0  0  0  0  0  0  0  0  0  0  0
    9.7977    1.4791   21.6912 N   0  0  0  0  0  0  0  0  0  0  0  0
    6.5976    9.3401   22.6478 N   0  0  0  0  0  0  0  0  0  0  0  0
   11.2031    3.0042   20.6246 C   0  0  0  0  0  0  0  0  0  0  0  0
   12.8688    7.7370   22.7287 C   0  0  0  0  0  0  0  0  0  0  0  0
    7.4487    9.1361   23.6506 C   0  0  0  0  0  0  0  0  0  0  0  0
    8.9772    2.5025   22.0273 C   0  0  0  0  0  0  0  0  0  0  0  0
   10.4859    4.0901   20.9730 C   0  0  0  0  0  0  0  0  0  0  0  0
   11.0962    9.3293   23.5072 C   0  0  0  0  0  0  0  0  0  0  0  0
    5.1273    7.8529   23.6208 N   0  0  0  0  0  0  0  0  0  0  0  0
    9.7552    9.2338   23.0171 N   0  0  0  0  0  0  0  0  0  0  0  0
   11.1797    6.7591   21.3326 N   0  0  0  0  0  0  0  0  0  0  0  0
   11.7728    8.0337   23.7267 C   0  0  0  0  0  0  0  0  0  0  0  0
    7.1194    8.3344   24.6775 C   0  0  0  0  0  0  0  0  0  0  0  0
    8.4311    4.7963   22.0500 C   0  0  0  0  0  0  0  0  0  0  0  0
    8.7393   10.8706   24.1871 O   0  0  0  0  0  0  0  0  0  0  0  0
    9.3093    3.8166   21.6712 C   0  0  0  0  0  0  0  0  0  0  0  0
  1  5  1  0
  1 15  4  0
  1 22  4  0
  2 20  1  0
  2 24  1  0
  3  6  4  0
  3 27  4  0
  4 22  4  0
  4 26  4  0
  6  7  4  0
  6 13  1  0
  7 19  4  0
  8 18  1  0
  8 23  1  0
  8 28  2  0
  9 17  1  0
  9 24  1  0
 10 11  1  0
 10 24  1  0
 11 23  1  0
 12 14  4  0
 12 16  4  0
 14 19  4  0
 15 18  4  0
 16 20  4  0
 17 25  1  0
 18 26  4  0
 19 29  4  0
 20 29  4  0
 21 23  1  0
 21 25  1  0
 27 29  4  0
M  END
$$$$

 Created by Python create_sdf_string function

 29 32  0  0  0  0  0  0  0  0999 V2000
    5.4450    8.7154   22.6662 C   0  0  0  0  0  0  0  0  0  0  0  0
   10.9154    5.4574   20.5483 C   0  0  0  0  0  0  0  0  0  0  0  0
    7.2709    4.5089   22.7542 C   0  0  0  0  0  0  0  0  0  0  0  0
    5.9698    7.6329   24.6581 C   0  0  0  0  0  0  0  0  0  0  0  0
    4.5542    8.9057   21.7104 O   0  0  0  0  0  0  0  0  0  0  0  0
    6.9895    3.2085   23.0690 C   0  0  0  0  0  0  0  0  0  0  0  0
    7.8391    2.2253   22.7260 N   0  0  0  0  0  0  0  0  0  0  0  0
    8.6968    9.8373   23.6359 C   0  0  0  0  0  0  0  0  0  0  0  0
   12.5135    6.5957   21.8396 C   0  0  0  0  0  0  0  0  0  0  0  0
   10.9406    8.2330   21.1350 C   0  0  0  0  0  0  0  0  0  0  0  0
    9.6648    8.5956   21.7310 C   0  0  0  0  0  0  0  0  0  0  0  0
   10.8829    1.7153   20.9865 C   0  0  0  0  0  0  0  0  0  0  0  0
    5.7768    2.8533   23.7910 C   0  0  0  0  0  0  0  0  0  0  0  0
    9.7977    1.4791   21.6912 N   0  0  0  0  0  0  0  0  0  0  0  0
    6.5976    9.3401   22.6478 N   0  0  0  0  0  0  0  0  0  0  0  0
   11.2031    3.0042   20.6246 C   0  0  0  0  0  0  0  0  0  0  0  0
   12.8688    7.7370   22.7287 C   0  0  0  0  0  0  0  0  0  0  0  0
    7.4487    9.1361   23.6506 C   0  0  0  0  0  0  0  0  0  0  0  0
    8.9772    2.5025   22.0273 C   0  0  0  0  0  0  0  0  0  0  0  0
   10.4859    4.0901   20.9730 C   0  0  0  0  0  0  0  0  0  0  0  0
   11.0962    9.3293   23.5072 C   0  0  0  0  0  0  0  0  0  0  0  0
    5.1273    7.8529   23.6208 N   0  0  0  0  0  0  0  0  0  0  0  0
    9.7552    9.2338   23.0171 N   0  0  0  0  0  0  0  0  0  0  0  0
   11.1797    6.7591   21.3326 N   0  0  0  0  0  0  0  0  0  0  0  0
   11.7728    8.0337   23.7267 C   0  0  0  0  0  0  0  0  0  0  0  0
    7.1194    8.3344   24.6775 C   0  0  0  0  0  0  0  0  0  0  0  0
    8.4311    4.7963   22.0500 C   0  0  0  0  0  0  0  0  0  0  0  0
    8.7393   10.8706   24.1871 O   0  0  0  0  0  0  0  0  0  0  0  0
    9.3093    3.8166   21.6712 C   0  0  0  0  0  0  0  0  0  0  0  0
  1  5  1  0
  1 15  4  0
  1 22  4  0
  2 20  1  0
  2 24  1  0
  3  6  4  0
  3 27  4  0
  4 22  4  0
  4 26  4  0
  6  7  4  0
  6 13  1  0
  7 19  4  0
  8 18  1  0
  8 23  1  0
  8 28  2  0
  9 17  1  0
  9 24  1  0
 10 11  1  0
 10 24  1  0
 11 23  1  0
 12 14  4  0
 12 16  4  0
 14 19  4  0
 15 18  4  0
 16 20  4  0
 17 25  1  0
 18 26  4  0
 19 29  4  0
 20 29  4  0
 21 23  1  0
 21 25  1  0
 27 29  4  0
M  END
$$$$

 Created by Python create_sdf_string function

 29 32  0  0  0  0  0  0  0  0999 V2000
    5.4450    8.7154   22.6662 C   0  0  0  0  0  0  0  0  0  0  0  0
   10.9154    5.4574   20.5483 C   0  0  0  0  0  0  0  0  0  0  0  0
    7.2709    4.5089   22.7542 C   0  0  0  0  0  0  0  0  0  0  0  0
    5.9698    7.6329   24.6581 C   0  0  0  0  0  0  0  0  0  0  0  0
    4.5542    8.9057   21.7104 O   0  0  0  0  0  0  0  0  0  0  0  0
    6.9895    3.2085   23.0690 C   0  0  0  0  0  0  0  0  0  0  0  0
    7.8391    2.2253   22.7260 N   0  0  0  0  0  0  0  0  0  0  0  0
    8.6968    9.8373   23.6359 C   0  0  0  0  0  0  0  0  0  0  0  0
   12.5135    6.5957   21.8396 C   0  0  0  0  0  0  0  0  0  0  0  0
   10.9406    8.2330   21.1350 C   0  0  0  0  0  0  0  0  0  0  0  0
    9.6648    8.5956   21.7310 C   0  0  0  0  0  0  0  0  0  0  0  0
   10.8829    1.7153   20.9865 C   0  0  0  0  0  0  0  0  0  0  0  0
    5.7768    2.8533   23.7910 C   0  0  0  0  0  0  0  0  0  0  0  0
    9.7977    1.4791   21.6912 N   0  0  0  0  0  0  0  0  0  0  0  0
    6.5976    9.3401   22.6478 N   0  0  0  0  0  0  0  0  0  0  0  0
   11.2031    3.0042   20.6246 C   0  0  0  0  0  0  0  0  0  0  0  0
   12.8688    7.7370   22.7287 C   0  0  0  0  0  0  0  0  0  0  0  0
    7.4487    9.1361   23.6506 C   0  0  0  0  0  0  0  0  0  0  0  0
    8.9772    2.5025   22.0273 C   0  0  0  0  0  0  0  0  0  0  0  0
   10.4859    4.0901   20.9730 C   0  0  0  0  0  0  0  0  0  0  0  0
   11.0962    9.3293   23.5072 C   0  0  0  0  0  0  0  0  0  0  0  0
    5.1273    7.8529   23.6208 N   0  0  0  0  0  0  0  0  0  0  0  0
    9.7552    9.2338   23.0171 N   0  0  0  0  0  0  0  0  0  0  0  0
   11.1797    6.7591   21.3326 N   0  0  0  0  0  0  0  0  0  0  0  0
   11.7728    8.0337   23.7267 C   0  0  0  0  0  0  0  0  0  0  0  0
    7.1194    8.3344   24.6775 C   0  0  0  0  0  0  0  0  0  0  0  0
    8.4311    4.7963   22.0500 C   0  0  0  0  0  0  0  0  0  0  0  0
    8.7393   10.8706   24.1871 O   0  0  0  0  0  0  0  0  0  0  0  0
    9.3093    3.8166   21.6712 C   0  0  0  0  0  0  0  0  0  0  0  0
  1  5  1  0
  1 15  4  0
  1 22  4  0
  2 20  1  0
  2 24  1  0
  3  6  4  0
  3 27  4  0
  4 22  4  0
  4 26  4  0
  6  7  4  0
  6 13  1  0
  7 19  4  0
  8 18  1  0
  8 23  1  0
  8 28  2  0
  9 17  1  0
  9 24  1  0
 10 11  1  0
 10 24  1  0
 11 23  1  0
 12 14  4  0
 12 16  4  0
 14 19  4  0
 15 18  4  0
 16 20  4  0
 17 25  1  0
 18 26  4  0
 19 29  4  0
 20 29  4  0
 21 23  1  0
 21 25  1  0
 27 29  4  0
M  END
$$$$

 Created by Python create_sdf_string function

 29 32  0  0  0  0  0  0  0  0999 V2000
    5.4450    8.7154   22.6662 C   0  0  0  0  0  0  0  0  0  0  0  0
   10.9154    5.4574   20.5483 C   0  0  0  0  0  0  0  0  0  0  0  0
    7.2709    4.5089   22.7542 C   0  0  0  0  0  0  0  0  0  0  0  0
    5.9698    7.6329   24.6581 C   0  0  0  0  0  0  0  0  0  0  0  0
    4.5542    8.9057   21.7104 O   0  0  0  0  0  0  0  0  0  0  0  0
    6.9895    3.2085   23.0690 C   0  0  0  0  0  0  0  0  0  0  0  0
    7.8391    2.2253   22.7260 N   0  0  0  0  0  0  0  0  0  0  0  0
    8.6968    9.8373   23.6359 C   0  0  0  0  0  0  0  0  0  0  0  0
   12.5135    6.5957   21.8396 C   0  0  0  0  0  0  0  0  0  0  0  0
   10.9406    8.2330   21.1350 C   0  0  0  0  0  0  0  0  0  0  0  0
    9.6648    8.5956   21.7310 C   0  0  0  0  0  0  0  0  0  0  0  0
   10.8829    1.7153   20.9865 C   0  0  0  0  0  0  0  0  0  0  0  0
    5.7768    2.8533   23.7910 C   0  0  0  0  0  0  0  0  0  0  0  0
    9.7977    1.4791   21.6912 N   0  0  0  0  0  0  0  0  0  0  0  0
    6.5976    9.3401   22.6478 N   0  0  0  0  0  0  0  0  0  0  0  0
   11.2031    3.0042   20.6246 C   0  0  0  0  0  0  0  0  0  0  0  0
   12.8688    7.7370   22.7287 C   0  0  0  0  0  0  0  0  0  0  0  0
    7.4487    9.1361   23.6506 C   0  0  0  0  0  0  0  0  0  0  0  0
    8.9772    2.5025   22.0273 C   0  0  0  0  0  0  0  0  0  0  0  0
   10.4859    4.0901   20.9730 C   0  0  0  0  0  0  0  0  0  0  0  0
   11.0962    9.3293   23.5072 C   0  0  0  0  0  0  0  0  0  0  0  0
    5.1273    7.8529   23.6208 N   0  0  0  0  0  0  0  0  0  0  0  0
    9.7552    9.2338   23.0171 N   0  0  0  0  0  0  0  0  0  0  0  0
   11.1797    6.7591   21.3326 N   0  0  0  0  0  0  0  0  0  0  0  0
   11.7728    8.0337   23.7267 C   0  0  0  0  0  0  0  0  0  0  0  0
    7.1194    8.3344   24.6775 C   0  0  0  0  0  0  0  0  0  0  0  0
    8.4311    4.7963   22.0500 C   0  0  0  0  0  0  0  0  0  0  0  0
    8.7393   10.8706   24.1871 O   0  0  0  0  0  0  0  0  0  0  0  0
    9.3093    3.8166   21.6712 C   0  0  0  0  0  0  0  0  0  0  0  0
  1  5  1  0
  1 15  4  0
  1 22  4  0
  2 20  1  0
  2 24  1  0
  3  6  4  0
  3 27  4  0
  4 22  4  0
  4 26  4  0
  6  7  4  0
  6 13  1  0
  7 19  4  0
  8 18  1  0
  8 23  1  0
  8 28  2  0
  9 17  1  0
  9 24  1  0
 10 11  1  0
 10 24  1  0
 11 23  1  0
 12 14  4  0
 12 16  4  0
 14 19  4  0
 15 18  4  0
 16 20  4  0
 17 25  1  0
 18 26  4  0
 19 29  4  0
 20 29  4  0
 21 23  1  0
 21 25  1  0
 27 29  4  0
M  END
$$$$

 Created by Python create_sdf_string function

 29 32  0  0  0  0  0  0  0  0999 V2000
    5.4450    8.7154   22.6662 C   0  0  0  0  0  0  0  0  0  0  0  0
   10.9154    5.4574   20.5483 C   0  0  0  0  0  0  0  0  0  0  0  0
    7.2709    4.5089   22.7542 C   0  0  0  0  0  0  0  0  0  0  0  0
    5.9698    7.6329   24.6581 C   0  0  0  0  0  0  0  0  0  0  0  0
    4.5542    8.9057   21.7104 O   0  0  0  0  0  0  0  0  0  0  0  0
    6.9895    3.2085   23.0690 C   0  0  0  0  0  0  0  0  0  0  0  0
    7.8391    2.2253   22.7260 N   0  0  0  0  0  0  0  0  0  0  0  0
    8.6968    9.8373   23.6359 C   0  0  0  0  0  0  0  0  0  0  0  0
   12.5135    6.5957   21.8396 C   0  0  0  0  0  0  0  0  0  0  0  0
   10.9406    8.2330   21.1350 C   0  0  0  0  0  0  0  0  0  0  0  0
    9.6648    8.5956   21.7310 C   0  0  0  0  0  0  0  0  0  0  0  0
   10.8829    1.7153   20.9865 C   0  0  0  0  0  0  0  0  0  0  0  0
    5.7768    2.8533   23.7910 C   0  0  0  0  0  0  0  0  0  0  0  0
    9.7977    1.4791   21.6912 N   0  0  0  0  0  0  0  0  0  0  0  0
    6.5976    9.3401   22.6478 N   0  0  0  0  0  0  0  0  0  0  0  0
   11.2031    3.0042   20.6246 C   0  0  0  0  0  0  0  0  0  0  0  0
   12.8688    7.7370   22.7287 C   0  0  0  0  0  0  0  0  0  0  0  0
    7.4487    9.1361   23.6506 C   0  0  0  0  0  0  0  0  0  0  0  0
    8.9772    2.5025   22.0273 C   0  0  0  0  0  0  0  0  0  0  0  0
   10.4859    4.0901   20.9730 C   0  0  0  0  0  0  0  0  0  0  0  0
   11.0962    9.3293   23.5072 C   0  0  0  0  0  0  0  0  0  0  0  0
    5.1273    7.8529   23.6208 N   0  0  0  0  0  0  0  0  0  0  0  0
    9.7552    9.2338   23.0171 N   0  0  0  0  0  0  0  0  0  0  0  0
   11.1797    6.7591   21.3326 N   0  0  0  0  0  0  0  0  0  0  0  0
   11.7728    8.0337   23.7267 C   0  0  0  0  0  0  0  0  0  0  0  0
    7.1194    8.3344   24.6775 C   0  0  0  0  0  0  0  0  0  0  0  0
    8.4311    4.7963   22.0500 C   0  0  0  0  0  0  0  0  0  0  0  0
    8.7393   10.8706   24.1871 O   0  0  0  0  0  0  0  0  0  0  0  0
    9.3093    3.8166   21.6712 C   0  0  0  0  0  0  0  0  0  0  0  0
  1  5  1  0
  1 15  4  0
  1 22  4  0
  2 20  1  0
  2 24  1  0
  3  6  4  0
  3 27  4  0
  4 22  4  0
  4 26  4  0
  6  7  4  0
  6 13  1  0
  7 19  4  0
  8 18  1  0
  8 23  1  0
  8 28  2  0
  9 17  1  0
  9 24  1  0
 10 11  1  0
 10 24  1  0
 11 23  1  0
 12 14  4  0
 12 16  4  0
 14 19  4  0
 15 18  4  0
 16 20  4  0
 17 25  1  0
 18 26  4  0
 19 29  4  0
 20 29  4  0
 21 23  1  0
 21 25  1  0
 27 29  4  0
M  END
$$$$

 Created by Python create_sdf_string function

 29 32  0  0  0  0  0  0  0  0999 V2000
    5.4450    8.7154   22.6662 C   0  0  0  0  0  0  0  0  0  0  0  0
   10.9154    5.4574   20.5483 C   0  0  0  0  0  0  0  0  0  0  0  0
    7.2709    4.5089   22.7542 C   0  0  0  0  0  0  0  0  0  0  0  0
    5.9698    7.6329   24.6581 C   0  0  0  0  0  0  0  0  0  0  0  0
    4.5542    8.9057   21.7104 O   0  0  0  0  0  0  0  0  0  0  0  0
    6.9895    3.2085   23.0690 C   0  0  0  0  0  0  0  0  0  0  0  0
    7.8391    2.2253   22.7260 N   0  0  0  0  0  0  0  0  0  0  0  0
    8.6968    9.8373   23.6359 C   0  0  0  0  0  0  0  0  0  0  0  0
   12.5135    6.5957   21.8396 C   0  0  0  0  0  0  0  0  0  0  0  0
   10.9406    8.2330   21.1350 C   0  0  0  0  0  0  0  0  0  0  0  0
    9.6648    8.5956   21.7310 C   0  0  0  0  0  0  0  0  0  0  0  0
   10.8829    1.7153   20.9865 C   0  0  0  0  0  0  0  0  0  0  0  0
    5.7768    2.8533   23.7910 C   0  0  0  0  0  0  0  0  0  0  0  0
    9.7977    1.4791   21.6912 N   0  0  0  0  0  0  0  0  0  0  0  0
    6.5976    9.3401   22.6478 N   0  0  0  0  0  0  0  0  0  0  0  0
   11.2031    3.0042   20.6246 C   0  0  0  0  0  0  0  0  0  0  0  0
   12.8688    7.7370   22.7287 C   0  0  0  0  0  0  0  0  0  0  0  0
    7.4487    9.1361   23.6506 C   0  0  0  0  0  0  0  0  0  0  0  0
    8.9772    2.5025   22.0273 C   0  0  0  0  0  0  0  0  0  0  0  0
   10.4859    4.0901   20.9730 C   0  0  0  0  0  0  0  0  0  0  0  0
   11.0962    9.3293   23.5072 C   0  0  0  0  0  0  0  0  0  0  0  0
    5.1273    7.8529   23.6208 N   0  0  0  0  0  0  0  0  0  0  0  0
    9.7552    9.2338   23.0171 N   0  0  0  0  0  0  0  0  0  0  0  0
   11.1797    6.7591   21.3326 N   0  0  0  0  0  0  0  0  0  0  0  0
   11.7728    8.0337   23.7267 C   0  0  0  0  0  0  0  0  0  0  0  0
    7.1194    8.3344   24.6775 C   0  0  0  0  0  0  0  0  0  0  0  0
    8.4311    4.7963   22.0500 C   0  0  0  0  0  0  0  0  0  0  0  0
    8.7393   10.8706   24.1871 O   0  0  0  0  0  0  0  0  0  0  0  0
    9.3093    3.8166   21.6712 C   0  0  0  0  0  0  0  0  0  0  0  0
  1  5  1  0
  1 15  4  0
  1 22  4  0
  2 20  1  0
  2 24  1  0
  3  6  4  0
  3 27  4  0
  4 22  4  0
  4 26  4  0
  6  7  4  0
  6 13  1  0
  7 19  4  0
  8 18  1  0
  8 23  1  0
  8 28  2  0
  9 17  1  0
  9 24  1  0
 10 11  1  0
 10 24  1  0
 11 23  1  0
 12 14  4  0
 12 16  4  0
 14 19  4  0
 15 18  4  0
 16 20  4  0
 17 25  1  0
 18 26  4  0
 19 29  4  0
 20 29  4  0
 21 23  1  0
 21 25  1  0
 27 29  4  0
M  END
$$$$

 Created by Python create_sdf_string function

 29 32  0  0  0  0  0  0  0  0999 V2000
    5.4450    8.7154   22.6662 C   0  0  0  0  0  0  0  0  0  0  0  0
   10.9154    5.4574   20.5483 C   0  0  0  0  0  0  0  0  0  0  0  0
    7.2709    4.5089   22.7542 C   0  0  0  0  0  0  0  0  0  0  0  0
    5.9698    7.6329   24.6581 C   0  0  0  0  0  0  0  0  0  0  0  0
    4.5542    8.9057   21.7104 O   0  0  0  0  0  0  0  0  0  0  0  0
    6.9895    3.2085   23.0690 C   0  0  0  0  0  0  0  0  0  0  0  0
    7.8391    2.2253   22.7260 N   0  0  0  0  0  0  0  0  0  0  0  0
    8.6968    9.8373   23.6359 C   0  0  0  0  0  0  0  0  0  0  0  0
   12.5135    6.5957   21.8396 C   0  0  0  0  0  0  0  0  0  0  0  0
   10.9406    8.2330   21.1350 C   0  0  0  0  0  0  0  0  0  0  0  0
    9.6648    8.5956   21.7310 C   0  0  0  0  0  0  0  0  0  0  0  0
   10.8829    1.7153   20.9865 C   0  0  0  0  0  0  0  0  0  0  0  0
    5.7768    2.8533   23.7910 C   0  0  0  0  0  0  0  0  0  0  0  0
    9.7977    1.4791   21.6912 N   0  0  0  0  0  0  0  0  0  0  0  0
    6.5976    9.3401   22.6478 N   0  0  0  0  0  0  0  0  0  0  0  0
   11.2031    3.0042   20.6246 C   0  0  0  0  0  0  0  0  0  0  0  0
   12.8688    7.7370   22.7287 C   0  0  0  0  0  0  0  0  0  0  0  0
    7.4487    9.1361   23.6506 C   0  0  0  0  0  0  0  0  0  0  0  0
    8.9772    2.5025   22.0273 C   0  0  0  0  0  0  0  0  0  0  0  0
   10.4859    4.0901   20.9730 C   0  0  0  0  0  0  0  0  0  0  0  0
   11.0962    9.3293   23.5072 C   0  0  0  0  0  0  0  0  0  0  0  0
    5.1273    7.8529   23.6208 N   0  0  0  0  0  0  0  0  0  0  0  0
    9.7552    9.2338   23.0171 N   0  0  0  0  0  0  0  0  0  0  0  0
   11.1797    6.7591   21.3326 N   0  0  0  0  0  0  0  0  0  0  0  0
   11.7728    8.0337   23.7267 C   0  0  0  0  0  0  0  0  0  0  0  0
    7.1194    8.3344   24.6775 C   0  0  0  0  0  0  0  0  0  0  0  0
    8.4311    4.7963   22.0500 C   0  0  0  0  0  0  0  0  0  0  0  0
    8.7393   10.8706   24.1871 O   0  0  0  0  0  0  0  0  0  0  0  0
    9.3093    3.8166   21.6712 C   0  0  0  0  0  0  0  0  0  0  0  0
  1  5  1  0
  1 15  4  0
  1 22  4  0
  2 20  1  0
  2 24  1  0
  3  6  4  0
  3 27  4  0
  4 22  4  0
  4 26  4  0
  6  7  4  0
  6 13  1  0
  7 19  4  0
  8 18  1  0
  8 23  1  0
  8 28  2  0
  9 17  1  0
  9 24  1  0
 10 11  1  0
 10 24  1  0
 11 23  1  0
 12 14  4  0
 12 16  4  0
 14 19  4  0
 15 18  4  0
 16 20  4  0
 17 25  1  0
 18 26  4  0
 19 29  4  0
 20 29  4  0
 21 23  1  0
 21 25  1  0
 27 29  4  0
M  END
$$$$

 Created by Python create_sdf_string function

 29 32  0  0  0  0  0  0  0  0999 V2000
    5.4450    8.7154   22.6662 C   0  0  0  0  0  0  0  0  0  0  0  0
   10.9154    5.4574   20.5483 C   0  0  0  0  0  0  0  0  0  0  0  0
    7.2709    4.5089   22.7542 C   0  0  0  0  0  0  0  0  0  0  0  0
    5.9698    7.6329   24.6581 C   0  0  0  0  0  0  0  0  0  0  0  0
    4.5542    8.9057   21.7104 O   0  0  0  0  0  0  0  0  0  0  0  0
    6.9895    3.2085   23.0690 C   0  0  0  0  0  0  0  0  0  0  0  0
    7.8391    2.2253   22.7260 N   0  0  0  0  0  0  0  0  0  0  0  0
    8.6968    9.8373   23.6359 C   0  0  0  0  0  0  0  0  0  0  0  0
   12.5135    6.5957   21.8396 C   0  0  0  0  0  0  0  0  0  0  0  0
   10.9406    8.2330   21.1350 C   0  0  0  0  0  0  0  0  0  0  0  0
    9.6648    8.5956   21.7310 C   0  0  0  0  0  0  0  0  0  0  0  0
   10.8829    1.7153   20.9865 C   0  0  0  0  0  0  0  0  0  0  0  0
    5.7768    2.8533   23.7910 C   0  0  0  0  0  0  0  0  0  0  0  0
    9.7977    1.4791   21.6912 N   0  0  0  0  0  0  0  0  0  0  0  0
    6.5976    9.3401   22.6478 N   0  0  0  0  0  0  0  0  0  0  0  0
   11.2031    3.0042   20.6246 C   0  0  0  0  0  0  0  0  0  0  0  0
   12.8688    7.7370   22.7287 C   0  0  0  0  0  0  0  0  0  0  0  0
    7.4487    9.1361   23.6506 C   0  0  0  0  0  0  0  0  0  0  0  0
    8.9772    2.5025   22.0273 C   0  0  0  0  0  0  0  0  0  0  0  0
   10.4859    4.0901   20.9730 C   0  0  0  0  0  0  0  0  0  0  0  0
   11.0962    9.3293   23.5072 C   0  0  0  0  0  0  0  0  0  0  0  0
    5.1273    7.8529   23.6208 N   0  0  0  0  0  0  0  0  0  0  0  0
    9.7552    9.2338   23.0171 N   0  0  0  0  0  0  0  0  0  0  0  0
   11.1797    6.7591   21.3326 N   0  0  0  0  0  0  0  0  0  0  0  0
   11.7728    8.0337   23.7267 C   0  0  0  0  0  0  0  0  0  0  0  0
    7.1194    8.3344   24.6775 C   0  0  0  0  0  0  0  0  0  0  0  0
    8.4311    4.7963   22.0500 C   0  0  0  0  0  0  0  0  0  0  0  0
    8.7393   10.8706   24.1871 O   0  0  0  0  0  0  0  0  0  0  0  0
    9.3093    3.8166   21.6712 C   0  0  0  0  0  0  0  0  0  0  0  0
  1  5  1  0
  1 15  4  0
  1 22  4  0
  2 20  1  0
  2 24  1  0
  3  6  4  0
  3 27  4  0
  4 22  4  0
  4 26  4  0
  6  7  4  0
  6 13  1  0
  7 19  4  0
  8 18  1  0
  8 23  1  0
  8 28  2  0
  9 17  1  0
  9 24  1  0
 10 11  1  0
 10 24  1  0
 11 23  1  0
 12 14  4  0
 12 16  4  0
 14 19  4  0
 15 18  4  0
 16 20  4  0
 17 25  1  0
 18 26  4  0
 19 29  4  0
 20 29  4  0
 21 23  1  0
 21 25  1  0
 27 29  4  0
M  END
$$$$

 Created by Python create_sdf_string function

 29 32  0  0  0  0  0  0  0  0999 V2000
    5.4450    8.7154   22.6662 C   0  0  0  0  0  0  0  0  0  0  0  0
   10.9154    5.4574   20.5483 C   0  0  0  0  0  0  0  0  0  0  0  0
    7.2709    4.5089   22.7542 C   0  0  0  0  0  0  0  0  0  0  0  0
    5.9698    7.6329   24.6581 C   0  0  0  0  0  0  0  0  0  0  0  0
    4.5542    8.9057   21.7104 O   0  0  0  0  0  0  0  0  0  0  0  0
    6.9895    3.2085   23.0690 C   0  0  0  0  0  0  0  0  0  0  0  0
    7.8391    2.2253   22.7260 N   0  0  0  0  0  0  0  0  0  0  0  0
    8.6968    9.8373   23.6359 C   0  0  0  0  0  0  0  0  0  0  0  0
   12.5135    6.5957   21.8396 C   0  0  0  0  0  0  0  0  0  0  0  0
   10.9406    8.2330   21.1350 C   0  0  0  0  0  0  0  0  0  0  0  0
    9.6648    8.5956   21.7310 C   0  0  0  0  0  0  0  0  0  0  0  0
   10.8829    1.7153   20.9865 C   0  0  0  0  0  0  0  0  0  0  0  0
    5.7768    2.8533   23.7910 C   0  0  0  0  0  0  0  0  0  0  0  0
    9.7977    1.4791   21.6912 N   0  0  0  0  0  0  0  0  0  0  0  0
    6.5976    9.3401   22.6478 N   0  0  0  0  0  0  0  0  0  0  0  0
   11.2031    3.0042   20.6246 C   0  0  0  0  0  0  0  0  0  0  0  0
   12.8688    7.7370   22.7287 C   0  0  0  0  0  0  0  0  0  0  0  0
    7.4487    9.1361   23.6506 C   0  0  0  0  0  0  0  0  0  0  0  0
    8.9772    2.5025   22.0273 C   0  0  0  0  0  0  0  0  0  0  0  0
   10.4859    4.0901   20.9730 C   0  0  0  0  0  0  0  0  0  0  0  0
   11.0962    9.3293   23.5072 C   0  0  0  0  0  0  0  0  0  0  0  0
    5.1273    7.8529   23.6208 N   0  0  0  0  0  0  0  0  0  0  0  0
    9.7552    9.2338   23.0171 N   0  0  0  0  0  0  0  0  0  0  0  0
   11.1797    6.7591   21.3326 N   0  0  0  0  0  0  0  0  0  0  0  0
   11.7728    8.0337   23.7267 C   0  0  0  0  0  0  0  0  0  0  0  0
    7.1194    8.3344   24.6775 C   0  0  0  0  0  0  0  0  0  0  0  0
    8.4311    4.7963   22.0500 C   0  0  0  0  0  0  0  0  0  0  0  0
    8.7393   10.8706   24.1871 O   0  0  0  0  0  0  0  0  0  0  0  0
    9.3093    3.8166   21.6712 C   0  0  0  0  0  0  0  0  0  0  0  0
  1  5  1  0
  1 15  4  0
  1 22  4  0
  2 20  1  0
  2 24  1  0
  3  6  4  0
  3 27  4  0
  4 22  4  0
  4 26  4  0
  6  7  4  0
  6 13  1  0
  7 19  4  0
  8 18  1  0
  8 23  1  0
  8 28  2  0
  9 17  1  0
  9 24  1  0
 10 11  1  0
 10 24  1  0
 11 23  1  0
 12 14  4  0
 12 16  4  0
 14 19  4  0
 15 18  4  0
 16 20  4  0
 17 25  1  0
 18 26  4  0
 19 29  4  0
 20 29  4  0
 21 23  1  0
 21 25  1  0
 27 29  4  0
M  END
$$$$

 Created by Python create_sdf_string function

 29 32  0  0  0  0  0  0  0  0999 V2000
    5.4450    8.7154   22.6662 C   0  0  0  0  0  0  0  0  0  0  0  0
   10.9154    5.4574   20.5483 C   0  0  0  0  0  0  0  0  0  0  0  0
    7.2709    4.5089   22.7542 C   0  0  0  0  0  0  0  0  0  0  0  0
    5.9698    7.6329   24.6581 C   0  0  0  0  0  0  0  0  0  0  0  0
    4.5542    8.9057   21.7104 O   0  0  0  0  0  0  0  0  0  0  0  0
    6.9895    3.2085   23.0690 C   0  0  0  0  0  0  0  0  0  0  0  0
    7.8391    2.2253   22.7260 N   0  0  0  0  0  0  0  0  0  0  0  0
    8.6968    9.8373   23.6359 C   0  0  0  0  0  0  0  0  0  0  0  0
   12.5135    6.5957   21.8396 C   0  0  0  0  0  0  0  0  0  0  0  0
   10.9406    8.2330   21.1350 C   0  0  0  0  0  0  0  0  0  0  0  0
    9.6648    8.5956   21.7310 C   0  0  0  0  0  0  0  0  0  0  0  0
   10.8829    1.7153   20.9865 C   0  0  0  0  0  0  0  0  0  0  0  0
    5.7768    2.8533   23.7910 C   0  0  0  0  0  0  0  0  0  0  0  0
    9.7977    1.4791   21.6912 N   0  0  0  0  0  0  0  0  0  0  0  0
    6.5976    9.3401   22.6478 N   0  0  0  0  0  0  0  0  0  0  0  0
   11.2031    3.0042   20.6246 C   0  0  0  0  0  0  0  0  0  0  0  0
   12.8688    7.7370   22.7287 C   0  0  0  0  0  0  0  0  0  0  0  0
    7.4487    9.1361   23.6506 C   0  0  0  0  0  0  0  0  0  0  0  0
    8.9772    2.5025   22.0273 C   0  0  0  0  0  0  0  0  0  0  0  0
   10.4859    4.0901   20.9730 C   0  0  0  0  0  0  0  0  0  0  0  0
   11.0962    9.3293   23.5072 C   0  0  0  0  0  0  0  0  0  0  0  0
    5.1273    7.8529   23.6208 N   0  0  0  0  0  0  0  0  0  0  0  0
    9.7552    9.2338   23.0171 N   0  0  0  0  0  0  0  0  0  0  0  0
   11.1797    6.7591   21.3326 N   0  0  0  0  0  0  0  0  0  0  0  0
   11.7728    8.0337   23.7267 C   0  0  0  0  0  0  0  0  0  0  0  0
    7.1194    8.3344   24.6775 C   0  0  0  0  0  0  0  0  0  0  0  0
    8.4311    4.7963   22.0500 C   0  0  0  0  0  0  0  0  0  0  0  0
    8.7393   10.8706   24.1871 O   0  0  0  0  0  0  0  0  0  0  0  0
    9.3093    3.8166   21.6712 C   0  0  0  0  0  0  0  0  0  0  0  0
  1  5  1  0
  1 15  4  0
  1 22  4  0
  2 20  1  0
  2 24  1  0
  3  6  4  0
  3 27  4  0
  4 22  4  0
  4 26  4  0
  6  7  4  0
  6 13  1  0
  7 19  4  0
  8 18  1  0
  8 23  1  0
  8 28  2  0
  9 17  1  0
  9 24  1  0
 10 11  1  0
 10 24  1  0
 11 23  1  0
 12 14  4  0
 12 16  4  0
 14 19  4  0
 15 18  4  0
 16 20  4  0
 17 25  1  0
 18 26  4  0
 19 29  4  0
 20 29  4  0
 21 23  1  0
 21 25  1  0
 27 29  4  0
M  END
$$$$

 Created by Python create_sdf_string function

 29 32  0  0  0  0  0  0  0  0999 V2000
    5.4450    8.7154   22.6662 C   0  0  0  0  0  0  0  0  0  0  0  0
   10.9154    5.4574   20.5483 C   0  0  0  0  0  0  0  0  0  0  0  0
    7.2709    4.5089   22.7542 C   0  0  0  0  0  0  0  0  0  0  0  0
    5.9698    7.6329   24.6581 C   0  0  0  0  0  0  0  0  0  0  0  0
    4.5542    8.9057   21.7104 O   0  0  0  0  0  0  0  0  0  0  0  0
    6.9895    3.2085   23.0690 C   0  0  0  0  0  0  0  0  0  0  0  0
    7.8391    2.2253   22.7260 N   0  0  0  0  0  0  0  0  0  0  0  0
    8.6968    9.8373   23.6359 C   0  0  0  0  0  0  0  0  0  0  0  0
   12.5135    6.5957   21.8396 C   0  0  0  0  0  0  0  0  0  0  0  0
   10.9406    8.2330   21.1350 C   0  0  0  0  0  0  0  0  0  0  0  0
    9.6648    8.5956   21.7310 C   0  0  0  0  0  0  0  0  0  0  0  0
   10.8829    1.7153   20.9865 C   0  0  0  0  0  0  0  0  0  0  0  0
    5.7768    2.8533   23.7910 C   0  0  0  0  0  0  0  0  0  0  0  0
    9.7977    1.4791   21.6912 N   0  0  0  0  0  0  0  0  0  0  0  0
    6.5976    9.3401   22.6478 N   0  0  0  0  0  0  0  0  0  0  0  0
   11.2031    3.0042   20.6246 C   0  0  0  0  0  0  0  0  0  0  0  0
   12.8688    7.7370   22.7287 C   0  0  0  0  0  0  0  0  0  0  0  0
    7.4487    9.1361   23.6506 C   0  0  0  0  0  0  0  0  0  0  0  0
    8.9772    2.5025   22.0273 C   0  0  0  0  0  0  0  0  0  0  0  0
   10.4859    4.0901   20.9730 C   0  0  0  0  0  0  0  0  0  0  0  0
   11.0962    9.3293   23.5072 C   0  0  0  0  0  0  0  0  0  0  0  0
    5.1273    7.8529   23.6208 N   0  0  0  0  0  0  0  0  0  0  0  0
    9.7552    9.2338   23.0171 N   0  0  0  0  0  0  0  0  0  0  0  0
   11.1797    6.7591   21.3326 N   0  0  0  0  0  0  0  0  0  0  0  0
   11.7728    8.0337   23.7267 C   0  0  0  0  0  0  0  0  0  0  0  0
    7.1194    8.3344   24.6775 C   0  0  0  0  0  0  0  0  0  0  0  0
    8.4311    4.7963   22.0500 C   0  0  0  0  0  0  0  0  0  0  0  0
    8.7393   10.8706   24.1871 O   0  0  0  0  0  0  0  0  0  0  0  0
    9.3093    3.8166   21.6712 C   0  0  0  0  0  0  0  0  0  0  0  0
  1  5  1  0
  1 15  4  0
  1 22  4  0
  2 20  1  0
  2 24  1  0
  3  6  4  0
  3 27  4  0
  4 22  4  0
  4 26  4  0
  6  7  4  0
  6 13  1  0
  7 19  4  0
  8 18  1  0
  8 23  1  0
  8 28  2  0
  9 17  1  0
  9 24  1  0
 10 11  1  0
 10 24  1  0
 11 23  1  0
 12 14  4  0
 12 16  4  0
 14 19  4  0
 15 18  4  0
 16 20  4  0
 17 25  1  0
 18 26  4  0
 19 29  4  0
 20 29  4  0
 21 23  1  0
 21 25  1  0
 27 29  4  0
M  END
$$$$

 Created by Python create_sdf_string function

 29 32  0  0  0  0  0  0  0  0999 V2000
    5.4450    8.7154   22.6662 C   0  0  0  0  0  0  0  0  0  0  0  0
   10.9154    5.4574   20.5483 C   0  0  0  0  0  0  0  0  0  0  0  0
    7.2709    4.5089   22.7542 C   0  0  0  0  0  0  0  0  0  0  0  0
    5.9698    7.6329   24.6581 C   0  0  0  0  0  0  0  0  0  0  0  0
    4.5542    8.9057   21.7104 O   0  0  0  0  0  0  0  0  0  0  0  0
    6.9895    3.2085   23.0690 C   0  0  0  0  0  0  0  0  0  0  0  0
    7.8391    2.2253   22.7260 N   0  0  0  0  0  0  0  0  0  0  0  0
    8.6968    9.8373   23.6359 C   0  0  0  0  0  0  0  0  0  0  0  0
   12.5135    6.5957   21.8396 C   0  0  0  0  0  0  0  0  0  0  0  0
   10.9406    8.2330   21.1350 C   0  0  0  0  0  0  0  0  0  0  0  0
    9.6648    8.5956   21.7310 C   0  0  0  0  0  0  0  0  0  0  0  0
   10.8829    1.7153   20.9865 C   0  0  0  0  0  0  0  0  0  0  0  0
    5.7768    2.8533   23.7910 C   0  0  0  0  0  0  0  0  0  0  0  0
    9.7977    1.4791   21.6912 N   0  0  0  0  0  0  0  0  0  0  0  0
    6.5976    9.3401   22.6478 N   0  0  0  0  0  0  0  0  0  0  0  0
   11.2031    3.0042   20.6246 C   0  0  0  0  0  0  0  0  0  0  0  0
   12.8688    7.7370   22.7287 C   0  0  0  0  0  0  0  0  0  0  0  0
    7.4487    9.1361   23.6506 C   0  0  0  0  0  0  0  0  0  0  0  0
    8.9772    2.5025   22.0273 C   0  0  0  0  0  0  0  0  0  0  0  0
   10.4859    4.0901   20.9730 C   0  0  0  0  0  0  0  0  0  0  0  0
   11.0962    9.3293   23.5072 C   0  0  0  0  0  0  0  0  0  0  0  0
    5.1273    7.8529   23.6208 N   0  0  0  0  0  0  0  0  0  0  0  0
    9.7552    9.2338   23.0171 N   0  0  0  0  0  0  0  0  0  0  0  0
   11.1797    6.7591   21.3326 N   0  0  0  0  0  0  0  0  0  0  0  0
   11.7728    8.0337   23.7267 C   0  0  0  0  0  0  0  0  0  0  0  0
    7.1194    8.3344   24.6775 C   0  0  0  0  0  0  0  0  0  0  0  0
    8.4311    4.7963   22.0500 C   0  0  0  0  0  0  0  0  0  0  0  0
    8.7393   10.8706   24.1871 O   0  0  0  0  0  0  0  0  0  0  0  0
    9.3093    3.8166   21.6712 C   0  0  0  0  0  0  0  0  0  0  0  0
  1  5  1  0
  1 15  4  0
  1 22  4  0
  2 20  1  0
  2 24  1  0
  3  6  4  0
  3 27  4  0
  4 22  4  0
  4 26  4  0
  6  7  4  0
  6 13  1  0
  7 19  4  0
  8 18  1  0
  8 23  1  0
  8 28  2  0
  9 17  1  0
  9 24  1  0
 10 11  1  0
 10 24  1  0
 11 23  1  0
 12 14  4  0
 12 16  4  0
 14 19  4  0
 15 18  4  0
 16 20  4  0
 17 25  1  0
 18 26  4  0
 19 29  4  0
 20 29  4  0
 21 23  1  0
 21 25  1  0
 27 29  4  0
M  END
$$$$

 Created by Python create_sdf_string function

 29 32  0  0  0  0  0  0  0  0999 V2000
    5.4450    8.7154   22.6662 C   0  0  0  0  0  0  0  0  0  0  0  0
   10.9154    5.4574   20.5483 C   0  0  0  0  0  0  0  0  0  0  0  0
    7.2709    4.5089   22.7542 C   0  0  0  0  0  0  0  0  0  0  0  0
    5.9698    7.6329   24.6581 C   0  0  0  0  0  0  0  0  0  0  0  0
    4.5542    8.9057   21.7104 O   0  0  0  0  0  0  0  0  0  0  0  0
    6.9895    3.2085   23.0690 C   0  0  0  0  0  0  0  0  0  0  0  0
    7.8391    2.2253   22.7260 N   0  0  0  0  0  0  0  0  0  0  0  0
    8.6968    9.8373   23.6359 C   0  0  0  0  0  0  0  0  0  0  0  0
   12.5135    6.5957   21.8396 C   0  0  0  0  0  0  0  0  0  0  0  0
   10.9406    8.2330   21.1350 C   0  0  0  0  0  0  0  0  0  0  0  0
    9.6648    8.5956   21.7310 C   0  0  0  0  0  0  0  0  0  0  0  0
   10.8829    1.7153   20.9865 C   0  0  0  0  0  0  0  0  0  0  0  0
    5.7768    2.8533   23.7910 C   0  0  0  0  0  0  0  0  0  0  0  0
    9.7977    1.4791   21.6912 N   0  0  0  0  0  0  0  0  0  0  0  0
    6.5976    9.3401   22.6478 N   0  0  0  0  0  0  0  0  0  0  0  0
   11.2031    3.0042   20.6246 C   0  0  0  0  0  0  0  0  0  0  0  0
   12.8688    7.7370   22.7287 C   0  0  0  0  0  0  0  0  0  0  0  0
    7.4487    9.1361   23.6506 C   0  0  0  0  0  0  0  0  0  0  0  0
    8.9772    2.5025   22.0273 C   0  0  0  0  0  0  0  0  0  0  0  0
   10.4859    4.0901   20.9730 C   0  0  0  0  0  0  0  0  0  0  0  0
   11.0962    9.3293   23.5072 C   0  0  0  0  0  0  0  0  0  0  0  0
    5.1273    7.8529   23.6208 N   0  0  0  0  0  0  0  0  0  0  0  0
    9.7552    9.2338   23.0171 N   0  0  0  0  0  0  0  0  0  0  0  0
   11.1797    6.7591   21.3326 N   0  0  0  0  0  0  0  0  0  0  0  0
   11.7728    8.0337   23.7267 C   0  0  0  0  0  0  0  0  0  0  0  0
    7.1194    8.3344   24.6775 C   0  0  0  0  0  0  0  0  0  0  0  0
    8.4311    4.7963   22.0500 C   0  0  0  0  0  0  0  0  0  0  0  0
    8.7393   10.8706   24.1871 O   0  0  0  0  0  0  0  0  0  0  0  0
    9.3093    3.8166   21.6712 C   0  0  0  0  0  0  0  0  0  0  0  0
  1  5  1  0
  1 15  4  0
  1 22  4  0
  2 20  1  0
  2 24  1  0
  3  6  4  0
  3 27  4  0
  4 22  4  0
  4 26  4  0
  6  7  4  0
  6 13  1  0
  7 19  4  0
  8 18  1  0
  8 23  1  0
  8 28  2  0
  9 17  1  0
  9 24  1  0
 10 11  1  0
 10 24  1  0
 11 23  1  0
 12 14  4  0
 12 16  4  0
 14 19  4  0
 15 18  4  0
 16 20  4  0
 17 25  1  0
 18 26  4  0
 19 29  4  0
 20 29  4  0
 21 23  1  0
 21 25  1  0
 27 29  4  0
M  END
$$$$

 Created by Python create_sdf_string function

 29 32  0  0  0  0  0  0  0  0999 V2000
    5.4450    8.7154   22.6662 C   0  0  0  0  0  0  0  0  0  0  0  0
   10.9154    5.4574   20.5483 C   0  0  0  0  0  0  0  0  0  0  0  0
    7.2709    4.5089   22.7542 C   0  0  0  0  0  0  0  0  0  0  0  0
    5.9698    7.6329   24.6581 C   0  0  0  0  0  0  0  0  0  0  0  0
    4.5542    8.9057   21.7104 O   0  0  0  0  0  0  0  0  0  0  0  0
    6.9895    3.2085   23.0690 C   0  0  0  0  0  0  0  0  0  0  0  0
    7.8391    2.2253   22.7260 N   0  0  0  0  0  0  0  0  0  0  0  0
    8.6968    9.8373   23.6359 C   0  0  0  0  0  0  0  0  0  0  0  0
   12.5135    6.5957   21.8396 C   0  0  0  0  0  0  0  0  0  0  0  0
   10.9406    8.2330   21.1350 C   0  0  0  0  0  0  0  0  0  0  0  0
    9.6648    8.5956   21.7310 C   0  0  0  0  0  0  0  0  0  0  0  0
   10.8829    1.7153   20.9865 C   0  0  0  0  0  0  0  0  0  0  0  0
    5.7768    2.8533   23.7910 C   0  0  0  0  0  0  0  0  0  0  0  0
    9.7977    1.4791   21.6912 N   0  0  0  0  0  0  0  0  0  0  0  0
    6.5976    9.3401   22.6478 N   0  0  0  0  0  0  0  0  0  0  0  0
   11.2031    3.0042   20.6246 C   0  0  0  0  0  0  0  0  0  0  0  0
   12.8688    7.7370   22.7287 C   0  0  0  0  0  0  0  0  0  0  0  0
    7.4487    9.1361   23.6506 C   0  0  0  0  0  0  0  0  0  0  0  0
    8.9772    2.5025   22.0273 C   0  0  0  0  0  0  0  0  0  0  0  0
   10.4859    4.0901   20.9730 C   0  0  0  0  0  0  0  0  0  0  0  0
   11.0962    9.3293   23.5072 C   0  0  0  0  0  0  0  0  0  0  0  0
    5.1273    7.8529   23.6208 N   0  0  0  0  0  0  0  0  0  0  0  0
    9.7552    9.2338   23.0171 N   0  0  0  0  0  0  0  0  0  0  0  0
   11.1797    6.7591   21.3326 N   0  0  0  0  0  0  0  0  0  0  0  0
   11.7728    8.0337   23.7267 C   0  0  0  0  0  0  0  0  0  0  0  0
    7.1194    8.3344   24.6775 C   0  0  0  0  0  0  0  0  0  0  0  0
    8.4311    4.7963   22.0500 C   0  0  0  0  0  0  0  0  0  0  0  0
    8.7393   10.8706   24.1871 O   0  0  0  0  0  0  0  0  0  0  0  0
    9.3093    3.8166   21.6712 C   0  0  0  0  0  0  0  0  0  0  0  0
  1  5  1  0
  1 15  4  0
  1 22  4  0
  2 20  1  0
  2 24  1  0
  3  6  4  0
  3 27  4  0
  4 22  4  0
  4 26  4  0
  6  7  4  0
  6 13  1  0
  7 19  4  0
  8 18  1  0
  8 23  1  0
  8 28  2  0
  9 17  1  0
  9 24  1  0
 10 11  1  0
 10 24  1  0
 11 23  1  0
 12 14  4  0
 12 16  4  0
 14 19  4  0
 15 18  4  0
 16 20  4  0
 17 25  1  0
 18 26  4  0
 19 29  4  0
 20 29  4  0
 21 23  1  0
 21 25  1  0
 27 29  4  0
M  END
$$$$

 Created by Python create_sdf_string function

 29 32  0  0  0  0  0  0  0  0999 V2000
    5.4450    8.7154   22.6662 C   0  0  0  0  0  0  0  0  0  0  0  0
   10.9154    5.4574   20.5483 C   0  0  0  0  0  0  0  0  0  0  0  0
    7.2709    4.5089   22.7542 C   0  0  0  0  0  0  0  0  0  0  0  0
    5.9698    7.6329   24.6581 C   0  0  0  0  0  0  0  0  0  0  0  0
    4.5542    8.9057   21.7104 O   0  0  0  0  0  0  0  0  0  0  0  0
    6.9895    3.2085   23.0690 C   0  0  0  0  0  0  0  0  0  0  0  0
    7.8391    2.2253   22.7260 N   0  0  0  0  0  0  0  0  0  0  0  0
    8.6968    9.8373   23.6359 C   0  0  0  0  0  0  0  0  0  0  0  0
   12.5135    6.5957   21.8396 C   0  0  0  0  0  0  0  0  0  0  0  0
   10.9406    8.2330   21.1350 C   0  0  0  0  0  0  0  0  0  0  0  0
    9.6648    8.5956   21.7310 C   0  0  0  0  0  0  0  0  0  0  0  0
   10.8829    1.7153   20.9865 C   0  0  0  0  0  0  0  0  0  0  0  0
    5.7768    2.8533   23.7910 C   0  0  0  0  0  0  0  0  0  0  0  0
    9.7977    1.4791   21.6912 N   0  0  0  0  0  0  0  0  0  0  0  0
    6.5976    9.3401   22.6478 N   0  0  0  0  0  0  0  0  0  0  0  0
   11.2031    3.0042   20.6246 C   0  0  0  0  0  0  0  0  0  0  0  0
   12.8688    7.7370   22.7287 C   0  0  0  0  0  0  0  0  0  0  0  0
    7.4487    9.1361   23.6506 C   0  0  0  0  0  0  0  0  0  0  0  0
    8.9772    2.5025   22.0273 C   0  0  0  0  0  0  0  0  0  0  0  0
   10.4859    4.0901   20.9730 C   0  0  0  0  0  0  0  0  0  0  0  0
   11.0962    9.3293   23.5072 C   0  0  0  0  0  0  0  0  0  0  0  0
    5.1273    7.8529   23.6208 N   0  0  0  0  0  0  0  0  0  0  0  0
    9.7552    9.2338   23.0171 N   0  0  0  0  0  0  0  0  0  0  0  0
   11.1797    6.7591   21.3326 N   0  0  0  0  0  0  0  0  0  0  0  0
   11.7728    8.0337   23.7267 C   0  0  0  0  0  0  0  0  0  0  0  0
    7.1194    8.3344   24.6775 C   0  0  0  0  0  0  0  0  0  0  0  0
    8.4311    4.7963   22.0500 C   0  0  0  0  0  0  0  0  0  0  0  0
    8.7393   10.8706   24.1871 O   0  0  0  0  0  0  0  0  0  0  0  0
    9.3093    3.8166   21.6712 C   0  0  0  0  0  0  0  0  0  0  0  0
  1  5  1  0
  1 15  4  0
  1 22  4  0
  2 20  1  0
  2 24  1  0
  3  6  4  0
  3 27  4  0
  4 22  4  0
  4 26  4  0
  6  7  4  0
  6 13  1  0
  7 19  4  0
  8 18  1  0
  8 23  1  0
  8 28  2  0
  9 17  1  0
  9 24  1  0
 10 11  1  0
 10 24  1  0
 11 23  1  0
 12 14  4  0
 12 16  4  0
 14 19  4  0
 15 18  4  0
 16 20  4  0
 17 25  1  0
 18 26  4  0
 19 29  4  0
 20 29  4  0
 21 23  1  0
 21 25  1  0
 27 29  4  0
M  END
$$$$

 Created by Python create_sdf_string function

 29 32  0  0  0  0  0  0  0  0999 V2000
    5.4450    8.7154   22.6662 C   0  0  0  0  0  0  0  0  0  0  0  0
   10.9154    5.4574   20.5483 C   0  0  0  0  0  0  0  0  0  0  0  0
    7.2709    4.5089   22.7542 C   0  0  0  0  0  0  0  0  0  0  0  0
    5.9698    7.6329   24.6581 C   0  0  0  0  0  0  0  0  0  0  0  0
    4.5542    8.9057   21.7104 O   0  0  0  0  0  0  0  0  0  0  0  0
    6.9895    3.2085   23.0690 C   0  0  0  0  0  0  0  0  0  0  0  0
    7.8391    2.2253   22.7260 N   0  0  0  0  0  0  0  0  0  0  0  0
    8.6968    9.8373   23.6359 C   0  0  0  0  0  0  0  0  0  0  0  0
   12.5135    6.5957   21.8396 C   0  0  0  0  0  0  0  0  0  0  0  0
   10.9406    8.2330   21.1350 C   0  0  0  0  0  0  0  0  0  0  0  0
    9.6648    8.5956   21.7310 C   0  0  0  0  0  0  0  0  0  0  0  0
   10.8829    1.7153   20.9865 C   0  0  0  0  0  0  0  0  0  0  0  0
    5.7768    2.8533   23.7910 C   0  0  0  0  0  0  0  0  0  0  0  0
    9.7977    1.4791   21.6912 N   0  0  0  0  0  0  0  0  0  0  0  0
    6.5976    9.3401   22.6478 N   0  0  0  0  0  0  0  0  0  0  0  0
   11.2031    3.0042   20.6246 C   0  0  0  0  0  0  0  0  0  0  0  0
   12.8688    7.7370   22.7287 C   0  0  0  0  0  0  0  0  0  0  0  0
    7.4487    9.1361   23.6506 C   0  0  0  0  0  0  0  0  0  0  0  0
    8.9772    2.5025   22.0273 C   0  0  0  0  0  0  0  0  0  0  0  0
   10.4859    4.0901   20.9730 C   0  0  0  0  0  0  0  0  0  0  0  0
   11.0962    9.3293   23.5072 C   0  0  0  0  0  0  0  0  0  0  0  0
    5.1273    7.8529   23.6208 N   0  0  0  0  0  0  0  0  0  0  0  0
    9.7552    9.2338   23.0171 N   0  0  0  0  0  0  0  0  0  0  0  0
   11.1797    6.7591   21.3326 N   0  0  0  0  0  0  0  0  0  0  0  0
   11.7728    8.0337   23.7267 C   0  0  0  0  0  0  0  0  0  0  0  0
    7.1194    8.3344   24.6775 C   0  0  0  0  0  0  0  0  0  0  0  0
    8.4311    4.7963   22.0500 C   0  0  0  0  0  0  0  0  0  0  0  0
    8.7393   10.8706   24.1871 O   0  0  0  0  0  0  0  0  0  0  0  0
    9.3093    3.8166   21.6712 C   0  0  0  0  0  0  0  0  0  0  0  0
  1  5  1  0
  1 15  4  0
  1 22  4  0
  2 20  1  0
  2 24  1  0
  3  6  4  0
  3 27  4  0
  4 22  4  0
  4 26  4  0
  6  7  4  0
  6 13  1  0
  7 19  4  0
  8 18  1  0
  8 23  1  0
  8 28  2  0
  9 17  1  0
  9 24  1  0
 10 11  1  0
 10 24  1  0
 11 23  1  0
 12 14  4  0
 12 16  4  0
 14 19  4  0
 15 18  4  0
 16 20  4  0
 17 25  1  0
 18 26  4  0
 19 29  4  0
 20 29  4  0
 21 23  1  0
 21 25  1  0
 27 29  4  0
M  END
$$$$

 Created by Python create_sdf_string function

 29 32  0  0  0  0  0  0  0  0999 V2000
    5.4450    8.7154   22.6662 C   0  0  0  0  0  0  0  0  0  0  0  0
   10.9154    5.4574   20.5483 C   0  0  0  0  0  0  0  0  0  0  0  0
    7.2709    4.5089   22.7542 C   0  0  0  0  0  0  0  0  0  0  0  0
    5.9698    7.6329   24.6581 C   0  0  0  0  0  0  0  0  0  0  0  0
    4.5542    8.9057   21.7104 O   0  0  0  0  0  0  0  0  0  0  0  0
    6.9895    3.2085   23.0690 C   0  0  0  0  0  0  0  0  0  0  0  0
    7.8391    2.2253   22.7260 N   0  0  0  0  0  0  0  0  0  0  0  0
    8.6968    9.8373   23.6359 C   0  0  0  0  0  0  0  0  0  0  0  0
   12.5135    6.5957   21.8396 C   0  0  0  0  0  0  0  0  0  0  0  0
   10.9406    8.2330   21.1350 C   0  0  0  0  0  0  0  0  0  0  0  0
    9.6648    8.5956   21.7310 C   0  0  0  0  0  0  0  0  0  0  0  0
   10.8829    1.7153   20.9865 C   0  0  0  0  0  0  0  0  0  0  0  0
    5.7768    2.8533   23.7910 C   0  0  0  0  0  0  0  0  0  0  0  0
    9.7977    1.4791   21.6912 N   0  0  0  0  0  0  0  0  0  0  0  0
    6.5976    9.3401   22.6478 N   0  0  0  0  0  0  0  0  0  0  0  0
   11.2031    3.0042   20.6246 C   0  0  0  0  0  0  0  0  0  0  0  0
   12.8688    7.7370   22.7287 C   0  0  0  0  0  0  0  0  0  0  0  0
    7.4487    9.1361   23.6506 C   0  0  0  0  0  0  0  0  0  0  0  0
    8.9772    2.5025   22.0273 C   0  0  0  0  0  0  0  0  0  0  0  0
   10.4859    4.0901   20.9730 C   0  0  0  0  0  0  0  0  0  0  0  0
   11.0962    9.3293   23.5072 C   0  0  0  0  0  0  0  0  0  0  0  0
    5.1273    7.8529   23.6208 N   0  0  0  0  0  0  0  0  0  0  0  0
    9.7552    9.2338   23.0171 N   0  0  0  0  0  0  0  0  0  0  0  0
   11.1797    6.7591   21.3326 N   0  0  0  0  0  0  0  0  0  0  0  0
   11.7728    8.0337   23.7267 C   0  0  0  0  0  0  0  0  0  0  0  0
    7.1194    8.3344   24.6775 C   0  0  0  0  0  0  0  0  0  0  0  0
    8.4311    4.7963   22.0500 C   0  0  0  0  0  0  0  0  0  0  0  0
    8.7393   10.8706   24.1871 O   0  0  0  0  0  0  0  0  0  0  0  0
    9.3093    3.8166   21.6712 C   0  0  0  0  0  0  0  0  0  0  0  0
  1  5  1  0
  1 15  4  0
  1 22  4  0
  2 20  1  0
  2 24  1  0
  3  6  4  0
  3 27  4  0
  4 22  4  0
  4 26  4  0
  6  7  4  0
  6 13  1  0
  7 19  4  0
  8 18  1  0
  8 23  1  0
  8 28  2  0
  9 17  1  0
  9 24  1  0
 10 11  1  0
 10 24  1  0
 11 23  1  0
 12 14  4  0
 12 16  4  0
 14 19  4  0
 15 18  4  0
 16 20  4  0
 17 25  1  0
 18 26  4  0
 19 29  4  0
 20 29  4  0
 21 23  1  0
 21 25  1  0
 27 29  4  0
M  END
$$$$

 Created by Python create_sdf_string function

 29 32  0  0  0  0  0  0  0  0999 V2000
    5.4450    8.7154   22.6662 C   0  0  0  0  0  0  0  0  0  0  0  0
   10.9154    5.4574   20.5483 C   0  0  0  0  0  0  0  0  0  0  0  0
    7.2709    4.5089   22.7542 C   0  0  0  0  0  0  0  0  0  0  0  0
    5.9698    7.6329   24.6581 C   0  0  0  0  0  0  0  0  0  0  0  0
    4.5542    8.9057   21.7104 O   0  0  0  0  0  0  0  0  0  0  0  0
    6.9895    3.2085   23.0690 C   0  0  0  0  0  0  0  0  0  0  0  0
    7.8391    2.2253   22.7260 N   0  0  0  0  0  0  0  0  0  0  0  0
    8.6968    9.8373   23.6359 C   0  0  0  0  0  0  0  0  0  0  0  0
   12.5135    6.5957   21.8396 C   0  0  0  0  0  0  0  0  0  0  0  0
   10.9406    8.2330   21.1350 C   0  0  0  0  0  0  0  0  0  0  0  0
    9.6648    8.5956   21.7310 C   0  0  0  0  0  0  0  0  0  0  0  0
   10.8829    1.7153   20.9865 C   0  0  0  0  0  0  0  0  0  0  0  0
    5.7768    2.8533   23.7910 C   0  0  0  0  0  0  0  0  0  0  0  0
    9.7977    1.4791   21.6912 N   0  0  0  0  0  0  0  0  0  0  0  0
    6.5976    9.3401   22.6478 N   0  0  0  0  0  0  0  0  0  0  0  0
   11.2031    3.0042   20.6246 C   0  0  0  0  0  0  0  0  0  0  0  0
   12.8688    7.7370   22.7287 C   0  0  0  0  0  0  0  0  0  0  0  0
    7.4487    9.1361   23.6506 C   0  0  0  0  0  0  0  0  0  0  0  0
    8.9772    2.5025   22.0273 C   0  0  0  0  0  0  0  0  0  0  0  0
   10.4859    4.0901   20.9730 C   0  0  0  0  0  0  0  0  0  0  0  0
   11.0962    9.3293   23.5072 C   0  0  0  0  0  0  0  0  0  0  0  0
    5.1273    7.8529   23.6208 N   0  0  0  0  0  0  0  0  0  0  0  0
    9.7552    9.2338   23.0171 N   0  0  0  0  0  0  0  0  0  0  0  0
   11.1797    6.7591   21.3326 N   0  0  0  0  0  0  0  0  0  0  0  0
   11.7728    8.0337   23.7267 C   0  0  0  0  0  0  0  0  0  0  0  0
    7.1194    8.3344   24.6775 C   0  0  0  0  0  0  0  0  0  0  0  0
    8.4311    4.7963   22.0500 C   0  0  0  0  0  0  0  0  0  0  0  0
    8.7393   10.8706   24.1871 O   0  0  0  0  0  0  0  0  0  0  0  0
    9.3093    3.8166   21.6712 C   0  0  0  0  0  0  0  0  0  0  0  0
  1  5  1  0
  1 15  4  0
  1 22  4  0
  2 20  1  0
  2 24  1  0
  3  6  4  0
  3 27  4  0
  4 22  4  0
  4 26  4  0
  6  7  4  0
  6 13  1  0
  7 19  4  0
  8 18  1  0
  8 23  1  0
  8 28  2  0
  9 17  1  0
  9 24  1  0
 10 11  1  0
 10 24  1  0
 11 23  1  0
 12 14  4  0
 12 16  4  0
 14 19  4  0
 15 18  4  0
 16 20  4  0
 17 25  1  0
 18 26  4  0
 19 29  4  0
 20 29  4  0
 21 23  1  0
 21 25  1  0
 27 29  4  0
M  END
$$$$

 Created by Python create_sdf_string function

 29 32  0  0  0  0  0  0  0  0999 V2000
    5.4450    8.7154   22.6662 C   0  0  0  0  0  0  0  0  0  0  0  0
   10.9154    5.4574   20.5483 C   0  0  0  0  0  0  0  0  0  0  0  0
    7.2709    4.5089   22.7542 C   0  0  0  0  0  0  0  0  0  0  0  0
    5.9698    7.6329   24.6581 C   0  0  0  0  0  0  0  0  0  0  0  0
    4.5542    8.9057   21.7104 O   0  0  0  0  0  0  0  0  0  0  0  0
    6.9895    3.2085   23.0690 C   0  0  0  0  0  0  0  0  0  0  0  0
    7.8391    2.2253   22.7260 N   0  0  0  0  0  0  0  0  0  0  0  0
    8.6968    9.8373   23.6359 C   0  0  0  0  0  0  0  0  0  0  0  0
   12.5135    6.5957   21.8396 C   0  0  0  0  0  0  0  0  0  0  0  0
   10.9406    8.2330   21.1350 C   0  0  0  0  0  0  0  0  0  0  0  0
    9.6648    8.5956   21.7310 C   0  0  0  0  0  0  0  0  0  0  0  0
   10.8829    1.7153   20.9865 C   0  0  0  0  0  0  0  0  0  0  0  0
    5.7768    2.8533   23.7910 C   0  0  0  0  0  0  0  0  0  0  0  0
    9.7977    1.4791   21.6912 N   0  0  0  0  0  0  0  0  0  0  0  0
    6.5976    9.3401   22.6478 N   0  0  0  0  0  0  0  0  0  0  0  0
   11.2031    3.0042   20.6246 C   0  0  0  0  0  0  0  0  0  0  0  0
   12.8688    7.7370   22.7287 C   0  0  0  0  0  0  0  0  0  0  0  0
    7.4487    9.1361   23.6506 C   0  0  0  0  0  0  0  0  0  0  0  0
    8.9772    2.5025   22.0273 C   0  0  0  0  0  0  0  0  0  0  0  0
   10.4859    4.0901   20.9730 C   0  0  0  0  0  0  0  0  0  0  0  0
   11.0962    9.3293   23.5072 C   0  0  0  0  0  0  0  0  0  0  0  0
    5.1273    7.8529   23.6208 N   0  0  0  0  0  0  0  0  0  0  0  0
    9.7552    9.2338   23.0171 N   0  0  0  0  0  0  0  0  0  0  0  0
   11.1797    6.7591   21.3326 N   0  0  0  0  0  0  0  0  0  0  0  0
   11.7728    8.0337   23.7267 C   0  0  0  0  0  0  0  0  0  0  0  0
    7.1194    8.3344   24.6775 C   0  0  0  0  0  0  0  0  0  0  0  0
    8.4311    4.7963   22.0500 C   0  0  0  0  0  0  0  0  0  0  0  0
    8.7393   10.8706   24.1871 O   0  0  0  0  0  0  0  0  0  0  0  0
    9.3093    3.8166   21.6712 C   0  0  0  0  0  0  0  0  0  0  0  0
  1  5  1  0
  1 15  4  0
  1 22  4  0
  2 20  1  0
  2 24  1  0
  3  6  4  0
  3 27  4  0
  4 22  4  0
  4 26  4  0
  6  7  4  0
  6 13  1  0
  7 19  4  0
  8 18  1  0
  8 23  1  0
  8 28  2  0
  9 17  1  0
  9 24  1  0
 10 11  1  0
 10 24  1  0
 11 23  1  0
 12 14  4  0
 12 16  4  0
 14 19  4  0
 15 18  4  0
 16 20  4  0
 17 25  1  0
 18 26  4  0
 19 29  4  0
 20 29  4  0
 21 23  1  0
 21 25  1  0
 27 29  4  0
M  END
$$$$

 Created by Python create_sdf_string function

 29 32  0  0  0  0  0  0  0  0999 V2000
    5.4450    8.7154   22.6662 C   0  0  0  0  0  0  0  0  0  0  0  0
   10.9154    5.4574   20.5483 C   0  0  0  0  0  0  0  0  0  0  0  0
    7.2709    4.5089   22.7542 C   0  0  0  0  0  0  0  0  0  0  0  0
    5.9698    7.6329   24.6581 C   0  0  0  0  0  0  0  0  0  0  0  0
    4.5542    8.9057   21.7104 O   0  0  0  0  0  0  0  0  0  0  0  0
    6.9895    3.2085   23.0690 C   0  0  0  0  0  0  0  0  0  0  0  0
    7.8391    2.2253   22.7260 N   0  0  0  0  0  0  0  0  0  0  0  0
    8.6968    9.8373   23.6359 C   0  0  0  0  0  0  0  0  0  0  0  0
   12.5135    6.5957   21.8396 C   0  0  0  0  0  0  0  0  0  0  0  0
   10.9406    8.2330   21.1350 C   0  0  0  0  0  0  0  0  0  0  0  0
    9.6648    8.5956   21.7310 C   0  0  0  0  0  0  0  0  0  0  0  0
   10.8829    1.7153   20.9865 C   0  0  0  0  0  0  0  0  0  0  0  0
    5.7768    2.8533   23.7910 C   0  0  0  0  0  0  0  0  0  0  0  0
    9.7977    1.4791   21.6912 N   0  0  0  0  0  0  0  0  0  0  0  0
    6.5976    9.3401   22.6478 N   0  0  0  0  0  0  0  0  0  0  0  0
   11.2031    3.0042   20.6246 C   0  0  0  0  0  0  0  0  0  0  0  0
   12.8688    7.7370   22.7287 C   0  0  0  0  0  0  0  0  0  0  0  0
    7.4487    9.1361   23.6506 C   0  0  0  0  0  0  0  0  0  0  0  0
    8.9772    2.5025   22.0273 C   0  0  0  0  0  0  0  0  0  0  0  0
   10.4859    4.0901   20.9730 C   0  0  0  0  0  0  0  0  0  0  0  0
   11.0962    9.3293   23.5072 C   0  0  0  0  0  0  0  0  0  0  0  0
    5.1273    7.8529   23.6208 N   0  0  0  0  0  0  0  0  0  0  0  0
    9.7552    9.2338   23.0171 N   0  0  0  0  0  0  0  0  0  0  0  0
   11.1797    6.7591   21.3326 N   0  0  0  0  0  0  0  0  0  0  0  0
   11.7728    8.0337   23.7267 C   0  0  0  0  0  0  0  0  0  0  0  0
    7.1194    8.3344   24.6775 C   0  0  0  0  0  0  0  0  0  0  0  0
    8.4311    4.7963   22.0500 C   0  0  0  0  0  0  0  0  0  0  0  0
    8.7393   10.8706   24.1871 O   0  0  0  0  0  0  0  0  0  0  0  0
    9.3093    3.8166   21.6712 C   0  0  0  0  0  0  0  0  0  0  0  0
  1  5  1  0
  1 15  4  0
  1 22  4  0
  2 20  1  0
  2 24  1  0
  3  6  4  0
  3 27  4  0
  4 22  4  0
  4 26  4  0
  6  7  4  0
  6 13  1  0
  7 19  4  0
  8 18  1  0
  8 23  1  0
  8 28  2  0
  9 17  1  0
  9 24  1  0
 10 11  1  0
 10 24  1  0
 11 23  1  0
 12 14  4  0
 12 16  4  0
 14 19  4  0
 15 18  4  0
 16 20  4  0
 17 25  1  0
 18 26  4  0
 19 29  4  0
 20 29  4  0
 21 23  1  0
 21 25  1  0
 27 29  4  0
M  END
$$$$

 Created by Python create_sdf_string function

 29 32  0  0  0  0  0  0  0  0999 V2000
    5.4450    8.7154   22.6662 C   0  0  0  0  0  0  0  0  0  0  0  0
   10.9154    5.4574   20.5483 C   0  0  0  0  0  0  0  0  0  0  0  0
    7.2709    4.5089   22.7542 C   0  0  0  0  0  0  0  0  0  0  0  0
    5.9698    7.6329   24.6581 C   0  0  0  0  0  0  0  0  0  0  0  0
    4.5542    8.9057   21.7104 O   0  0  0  0  0  0  0  0  0  0  0  0
    6.9895    3.2085   23.0690 C   0  0  0  0  0  0  0  0  0  0  0  0
    7.8391    2.2253   22.7260 N   0  0  0  0  0  0  0  0  0  0  0  0
    8.6968    9.8373   23.6359 C   0  0  0  0  0  0  0  0  0  0  0  0
   12.5135    6.5957   21.8396 C   0  0  0  0  0  0  0  0  0  0  0  0
   10.9406    8.2330   21.1350 C   0  0  0  0  0  0  0  0  0  0  0  0
    9.6648    8.5956   21.7310 C   0  0  0  0  0  0  0  0  0  0  0  0
   10.8829    1.7153   20.9865 C   0  0  0  0  0  0  0  0  0  0  0  0
    5.7768    2.8533   23.7910 C   0  0  0  0  0  0  0  0  0  0  0  0
    9.7977    1.4791   21.6912 N   0  0  0  0  0  0  0  0  0  0  0  0
    6.5976    9.3401   22.6478 N   0  0  0  0  0  0  0  0  0  0  0  0
   11.2031    3.0042   20.6246 C   0  0  0  0  0  0  0  0  0  0  0  0
   12.8688    7.7370   22.7287 C   0  0  0  0  0  0  0  0  0  0  0  0
    7.4487    9.1361   23.6506 C   0  0  0  0  0  0  0  0  0  0  0  0
    8.9772    2.5025   22.0273 C   0  0  0  0  0  0  0  0  0  0  0  0
   10.4859    4.0901   20.9730 C   0  0  0  0  0  0  0  0  0  0  0  0
   11.0962    9.3293   23.5072 C   0  0  0  0  0  0  0  0  0  0  0  0
    5.1273    7.8529   23.6208 N   0  0  0  0  0  0  0  0  0  0  0  0
    9.7552    9.2338   23.0171 N   0  0  0  0  0  0  0  0  0  0  0  0
   11.1797    6.7591   21.3326 N   0  0  0  0  0  0  0  0  0  0  0  0
   11.7728    8.0337   23.7267 C   0  0  0  0  0  0  0  0  0  0  0  0
    7.1194    8.3344   24.6775 C   0  0  0  0  0  0  0  0  0  0  0  0
    8.4311    4.7963   22.0500 C   0  0  0  0  0  0  0  0  0  0  0  0
    8.7393   10.8706   24.1871 O   0  0  0  0  0  0  0  0  0  0  0  0
    9.3093    3.8166   21.6712 C   0  0  0  0  0  0  0  0  0  0  0  0
  1  5  1  0
  1 15  4  0
  1 22  4  0
  2 20  1  0
  2 24  1  0
  3  6  4  0
  3 27  4  0
  4 22  4  0
  4 26  4  0
  6  7  4  0
  6 13  1  0
  7 19  4  0
  8 18  1  0
  8 23  1  0
  8 28  2  0
  9 17  1  0
  9 24  1  0
 10 11  1  0
 10 24  1  0
 11 23  1  0
 12 14  4  0
 12 16  4  0
 14 19  4  0
 15 18  4  0
 16 20  4  0
 17 25  1  0
 18 26  4  0
 19 29  4  0
 20 29  4  0
 21 23  1  0
 21 25  1  0
 27 29  4  0
M  END
$$$$

 Created by Python create_sdf_string function

 29 32  0  0  0  0  0  0  0  0999 V2000
    5.4450    8.7154   22.6662 C   0  0  0  0  0  0  0  0  0  0  0  0
   10.9154    5.4574   20.5483 C   0  0  0  0  0  0  0  0  0  0  0  0
    7.2709    4.5089   22.7542 C   0  0  0  0  0  0  0  0  0  0  0  0
    5.9698    7.6329   24.6581 C   0  0  0  0  0  0  0  0  0  0  0  0
    4.5542    8.9057   21.7104 O   0  0  0  0  0  0  0  0  0  0  0  0
    6.9895    3.2085   23.0690 C   0  0  0  0  0  0  0  0  0  0  0  0
    7.8391    2.2253   22.7260 N   0  0  0  0  0  0  0  0  0  0  0  0
    8.6968    9.8373   23.6359 C   0  0  0  0  0  0  0  0  0  0  0  0
   12.5135    6.5957   21.8396 C   0  0  0  0  0  0  0  0  0  0  0  0
   10.9406    8.2330   21.1350 C   0  0  0  0  0  0  0  0  0  0  0  0
    9.6648    8.5956   21.7310 C   0  0  0  0  0  0  0  0  0  0  0  0
   10.8829    1.7153   20.9865 C   0  0  0  0  0  0  0  0  0  0  0  0
    5.7768    2.8533   23.7910 C   0  0  0  0  0  0  0  0  0  0  0  0
    9.7977    1.4791   21.6912 N   0  0  0  0  0  0  0  0  0  0  0  0
    6.5976    9.3401   22.6478 N   0  0  0  0  0  0  0  0  0  0  0  0
   11.2031    3.0042   20.6246 C   0  0  0  0  0  0  0  0  0  0  0  0
   12.8688    7.7370   22.7287 C   0  0  0  0  0  0  0  0  0  0  0  0
    7.4487    9.1361   23.6506 C   0  0  0  0  0  0  0  0  0  0  0  0
    8.9772    2.5025   22.0273 C   0  0  0  0  0  0  0  0  0  0  0  0
   10.4859    4.0901   20.9730 C   0  0  0  0  0  0  0  0  0  0  0  0
   11.0962    9.3293   23.5072 C   0  0  0  0  0  0  0  0  0  0  0  0
    5.1273    7.8529   23.6208 N   0  0  0  0  0  0  0  0  0  0  0  0
    9.7552    9.2338   23.0171 N   0  0  0  0  0  0  0  0  0  0  0  0
   11.1797    6.7591   21.3326 N   0  0  0  0  0  0  0  0  0  0  0  0
   11.7728    8.0337   23.7267 C   0  0  0  0  0  0  0  0  0  0  0  0
    7.1194    8.3344   24.6775 C   0  0  0  0  0  0  0  0  0  0  0  0
    8.4311    4.7963   22.0500 C   0  0  0  0  0  0  0  0  0  0  0  0
    8.7393   10.8706   24.1871 O   0  0  0  0  0  0  0  0  0  0  0  0
    9.3093    3.8166   21.6712 C   0  0  0  0  0  0  0  0  0  0  0  0
  1  5  1  0
  1 15  4  0
  1 22  4  0
  2 20  1  0
  2 24  1  0
  3  6  4  0
  3 27  4  0
  4 22  4  0
  4 26  4  0
  6  7  4  0
  6 13  1  0
  7 19  4  0
  8 18  1  0
  8 23  1  0
  8 28  2  0
  9 17  1  0
  9 24  1  0
 10 11  1  0
 10 24  1  0
 11 23  1  0
 12 14  4  0
 12 16  4  0
 14 19  4  0
 15 18  4  0
 16 20  4  0
 17 25  1  0
 18 26  4  0
 19 29  4  0
 20 29  4  0
 21 23  1  0
 21 25  1  0
 27 29  4  0
M  END
$$$$

 Created by Python create_sdf_string function

 29 32  0  0  0  0  0  0  0  0999 V2000
    5.4450    8.7154   22.6662 C   0  0  0  0  0  0  0  0  0  0  0  0
   10.9154    5.4574   20.5483 C   0  0  0  0  0  0  0  0  0  0  0  0
    7.2709    4.5089   22.7542 C   0  0  0  0  0  0  0  0  0  0  0  0
    5.9698    7.6329   24.6581 C   0  0  0  0  0  0  0  0  0  0  0  0
    4.5542    8.9057   21.7104 O   0  0  0  0  0  0  0  0  0  0  0  0
    6.9895    3.2085   23.0690 C   0  0  0  0  0  0  0  0  0  0  0  0
    7.8391    2.2253   22.7260 N   0  0  0  0  0  0  0  0  0  0  0  0
    8.6968    9.8373   23.6359 C   0  0  0  0  0  0  0  0  0  0  0  0
   12.5135    6.5957   21.8396 C   0  0  0  0  0  0  0  0  0  0  0  0
   10.9406    8.2330   21.1350 C   0  0  0  0  0  0  0  0  0  0  0  0
    9.6648    8.5956   21.7310 C   0  0  0  0  0  0  0  0  0  0  0  0
   10.8829    1.7153   20.9865 C   0  0  0  0  0  0  0  0  0  0  0  0
    5.7768    2.8533   23.7910 C   0  0  0  0  0  0  0  0  0  0  0  0
    9.7977    1.4791   21.6912 N   0  0  0  0  0  0  0  0  0  0  0  0
    6.5976    9.3401   22.6478 N   0  0  0  0  0  0  0  0  0  0  0  0
   11.2031    3.0042   20.6246 C   0  0  0  0  0  0  0  0  0  0  0  0
   12.8688    7.7370   22.7287 C   0  0  0  0  0  0  0  0  0  0  0  0
    7.4487    9.1361   23.6506 C   0  0  0  0  0  0  0  0  0  0  0  0
    8.9772    2.5025   22.0273 C   0  0  0  0  0  0  0  0  0  0  0  0
   10.4859    4.0901   20.9730 C   0  0  0  0  0  0  0  0  0  0  0  0
   11.0962    9.3293   23.5072 C   0  0  0  0  0  0  0  0  0  0  0  0
    5.1273    7.8529   23.6208 N   0  0  0  0  0  0  0  0  0  0  0  0
    9.7552    9.2338   23.0171 N   0  0  0  0  0  0  0  0  0  0  0  0
   11.1797    6.7591   21.3326 N   0  0  0  0  0  0  0  0  0  0  0  0
   11.7728    8.0337   23.7267 C   0  0  0  0  0  0  0  0  0  0  0  0
    7.1194    8.3344   24.6775 C   0  0  0  0  0  0  0  0  0  0  0  0
    8.4311    4.7963   22.0500 C   0  0  0  0  0  0  0  0  0  0  0  0
    8.7393   10.8706   24.1871 O   0  0  0  0  0  0  0  0  0  0  0  0
    9.3093    3.8166   21.6712 C   0  0  0  0  0  0  0  0  0  0  0  0
  1  5  1  0
  1 15  4  0
  1 22  4  0
  2 20  1  0
  2 24  1  0
  3  6  4  0
  3 27  4  0
  4 22  4  0
  4 26  4  0
  6  7  4  0
  6 13  1  0
  7 19  4  0
  8 18  1  0
  8 23  1  0
  8 28  2  0
  9 17  1  0
  9 24  1  0
 10 11  1  0
 10 24  1  0
 11 23  1  0
 12 14  4  0
 12 16  4  0
 14 19  4  0
 15 18  4  0
 16 20  4  0
 17 25  1  0
 18 26  4  0
 19 29  4  0
 20 29  4  0
 21 23  1  0
 21 25  1  0
 27 29  4  0
M  END
$$$$

 Created by Python create_sdf_string function

 29 32  0  0  0  0  0  0  0  0999 V2000
    5.4450    8.7154   22.6662 C   0  0  0  0  0  0  0  0  0  0  0  0
   10.9154    5.4574   20.5483 C   0  0  0  0  0  0  0  0  0  0  0  0
    7.2709    4.5089   22.7542 C   0  0  0  0  0  0  0  0  0  0  0  0
    5.9698    7.6329   24.6581 C   0  0  0  0  0  0  0  0  0  0  0  0
    4.5542    8.9057   21.7104 O   0  0  0  0  0  0  0  0  0  0  0  0
    6.9895    3.2085   23.0690 C   0  0  0  0  0  0  0  0  0  0  0  0
    7.8391    2.2253   22.7260 N   0  0  0  0  0  0  0  0  0  0  0  0
    8.6968    9.8373   23.6359 C   0  0  0  0  0  0  0  0  0  0  0  0
   12.5135    6.5957   21.8396 C   0  0  0  0  0  0  0  0  0  0  0  0
   10.9406    8.2330   21.1350 C   0  0  0  0  0  0  0  0  0  0  0  0
    9.6648    8.5956   21.7310 C   0  0  0  0  0  0  0  0  0  0  0  0
   10.8829    1.7153   20.9865 C   0  0  0  0  0  0  0  0  0  0  0  0
    5.7768    2.8533   23.7910 C   0  0  0  0  0  0  0  0  0  0  0  0
    9.7977    1.4791   21.6912 N   0  0  0  0  0  0  0  0  0  0  0  0
    6.5976    9.3401   22.6478 N   0  0  0  0  0  0  0  0  0  0  0  0
   11.2031    3.0042   20.6246 C   0  0  0  0  0  0  0  0  0  0  0  0
   12.8688    7.7370   22.7287 C   0  0  0  0  0  0  0  0  0  0  0  0
    7.4487    9.1361   23.6506 C   0  0  0  0  0  0  0  0  0  0  0  0
    8.9772    2.5025   22.0273 C   0  0  0  0  0  0  0  0  0  0  0  0
   10.4859    4.0901   20.9730 C   0  0  0  0  0  0  0  0  0  0  0  0
   11.0962    9.3293   23.5072 C   0  0  0  0  0  0  0  0  0  0  0  0
    5.1273    7.8529   23.6208 N   0  0  0  0  0  0  0  0  0  0  0  0
    9.7552    9.2338   23.0171 N   0  0  0  0  0  0  0  0  0  0  0  0
   11.1797    6.7591   21.3326 N   0  0  0  0  0  0  0  0  0  0  0  0
   11.7728    8.0337   23.7267 C   0  0  0  0  0  0  0  0  0  0  0  0
    7.1194    8.3344   24.6775 C   0  0  0  0  0  0  0  0  0  0  0  0
    8.4311    4.7963   22.0500 C   0  0  0  0  0  0  0  0  0  0  0  0
    8.7393   10.8706   24.1871 O   0  0  0  0  0  0  0  0  0  0  0  0
    9.3093    3.8166   21.6712 C   0  0  0  0  0  0  0  0  0  0  0  0
  1  5  1  0
  1 15  4  0
  1 22  4  0
  2 20  1  0
  2 24  1  0
  3  6  4  0
  3 27  4  0
  4 22  4  0
  4 26  4  0
  6  7  4  0
  6 13  1  0
  7 19  4  0
  8 18  1  0
  8 23  1  0
  8 28  2  0
  9 17  1  0
  9 24  1  0
 10 11  1  0
 10 24  1  0
 11 23  1  0
 12 14  4  0
 12 16  4  0
 14 19  4  0
 15 18  4  0
 16 20  4  0
 17 25  1  0
 18 26  4  0
 19 29  4  0
 20 29  4  0
 21 23  1  0
 21 25  1  0
 27 29  4  0
M  END
$$$$

 Created by Python create_sdf_string function

 29 32  0  0  0  0  0  0  0  0999 V2000
    5.4450    8.7154   22.6662 C   0  0  0  0  0  0  0  0  0  0  0  0
   10.9154    5.4574   20.5483 C   0  0  0  0  0  0  0  0  0  0  0  0
    7.2709    4.5089   22.7542 C   0  0  0  0  0  0  0  0  0  0  0  0
    5.9698    7.6329   24.6581 C   0  0  0  0  0  0  0  0  0  0  0  0
    4.5542    8.9057   21.7104 O   0  0  0  0  0  0  0  0  0  0  0  0
    6.9895    3.2085   23.0690 C   0  0  0  0  0  0  0  0  0  0  0  0
    7.8391    2.2253   22.7260 N   0  0  0  0  0  0  0  0  0  0  0  0
    8.6968    9.8373   23.6359 C   0  0  0  0  0  0  0  0  0  0  0  0
   12.5135    6.5957   21.8396 C   0  0  0  0  0  0  0  0  0  0  0  0
   10.9406    8.2330   21.1350 C   0  0  0  0  0  0  0  0  0  0  0  0
    9.6648    8.5956   21.7310 C   0  0  0  0  0  0  0  0  0  0  0  0
   10.8829    1.7153   20.9865 C   0  0  0  0  0  0  0  0  0  0  0  0
    5.7768    2.8533   23.7910 C   0  0  0  0  0  0  0  0  0  0  0  0
    9.7977    1.4791   21.6912 N   0  0  0  0  0  0  0  0  0  0  0  0
    6.5976    9.3401   22.6478 N   0  0  0  0  0  0  0  0  0  0  0  0
   11.2031    3.0042   20.6246 C   0  0  0  0  0  0  0  0  0  0  0  0
   12.8688    7.7370   22.7287 C   0  0  0  0  0  0  0  0  0  0  0  0
    7.4487    9.1361   23.6506 C   0  0  0  0  0  0  0  0  0  0  0  0
    8.9772    2.5025   22.0273 C   0  0  0  0  0  0  0  0  0  0  0  0
   10.4859    4.0901   20.9730 C   0  0  0  0  0  0  0  0  0  0  0  0
   11.0962    9.3293   23.5072 C   0  0  0  0  0  0  0  0  0  0  0  0
    5.1273    7.8529   23.6208 N   0  0  0  0  0  0  0  0  0  0  0  0
    9.7552    9.2338   23.0171 N   0  0  0  0  0  0  0  0  0  0  0  0
   11.1797    6.7591   21.3326 N   0  0  0  0  0  0  0  0  0  0  0  0
   11.7728    8.0337   23.7267 C   0  0  0  0  0  0  0  0  0  0  0  0
    7.1194    8.3344   24.6775 C   0  0  0  0  0  0  0  0  0  0  0  0
    8.4311    4.7963   22.0500 C   0  0  0  0  0  0  0  0  0  0  0  0
    8.7393   10.8706   24.1871 O   0  0  0  0  0  0  0  0  0  0  0  0
    9.3093    3.8166   21.6712 C   0  0  0  0  0  0  0  0  0  0  0  0
  1  5  1  0
  1 15  4  0
  1 22  4  0
  2 20  1  0
  2 24  1  0
  3  6  4  0
  3 27  4  0
  4 22  4  0
  4 26  4  0
  6  7  4  0
  6 13  1  0
  7 19  4  0
  8 18  1  0
  8 23  1  0
  8 28  2  0
  9 17  1  0
  9 24  1  0
 10 11  1  0
 10 24  1  0
 11 23  1  0
 12 14  4  0
 12 16  4  0
 14 19  4  0
 15 18  4  0
 16 20  4  0
 17 25  1  0
 18 26  4  0
 19 29  4  0
 20 29  4  0
 21 23  1  0
 21 25  1  0
 27 29  4  0
M  END
$$$$

 Created by Python create_sdf_string function

 29 32  0  0  0  0  0  0  0  0999 V2000
    5.4450    8.7154   22.6662 C   0  0  0  0  0  0  0  0  0  0  0  0
   10.9154    5.4574   20.5483 C   0  0  0  0  0  0  0  0  0  0  0  0
    7.2709    4.5089   22.7542 C   0  0  0  0  0  0  0  0  0  0  0  0
    5.9698    7.6329   24.6581 C   0  0  0  0  0  0  0  0  0  0  0  0
    4.5542    8.9057   21.7104 O   0  0  0  0  0  0  0  0  0  0  0  0
    6.9895    3.2085   23.0690 C   0  0  0  0  0  0  0  0  0  0  0  0
    7.8391    2.2253   22.7260 N   0  0  0  0  0  0  0  0  0  0  0  0
    8.6968    9.8373   23.6359 C   0  0  0  0  0  0  0  0  0  0  0  0
   12.5135    6.5957   21.8396 C   0  0  0  0  0  0  0  0  0  0  0  0
   10.9406    8.2330   21.1350 C   0  0  0  0  0  0  0  0  0  0  0  0
    9.6648    8.5956   21.7310 C   0  0  0  0  0  0  0  0  0  0  0  0
   10.8829    1.7153   20.9865 C   0  0  0  0  0  0  0  0  0  0  0  0
    5.7768    2.8533   23.7910 C   0  0  0  0  0  0  0  0  0  0  0  0
    9.7977    1.4791   21.6912 N   0  0  0  0  0  0  0  0  0  0  0  0
    6.5976    9.3401   22.6478 N   0  0  0  0  0  0  0  0  0  0  0  0
   11.2031    3.0042   20.6246 C   0  0  0  0  0  0  0  0  0  0  0  0
   12.8688    7.7370   22.7287 C   0  0  0  0  0  0  0  0  0  0  0  0
    7.4487    9.1361   23.6506 C   0  0  0  0  0  0  0  0  0  0  0  0
    8.9772    2.5025   22.0273 C   0  0  0  0  0  0  0  0  0  0  0  0
   10.4859    4.0901   20.9730 C   0  0  0  0  0  0  0  0  0  0  0  0
   11.0962    9.3293   23.5072 C   0  0  0  0  0  0  0  0  0  0  0  0
    5.1273    7.8529   23.6208 N   0  0  0  0  0  0  0  0  0  0  0  0
    9.7552    9.2338   23.0171 N   0  0  0  0  0  0  0  0  0  0  0  0
   11.1797    6.7591   21.3326 N   0  0  0  0  0  0  0  0  0  0  0  0
   11.7728    8.0337   23.7267 C   0  0  0  0  0  0  0  0  0  0  0  0
    7.1194    8.3344   24.6775 C   0  0  0  0  0  0  0  0  0  0  0  0
    8.4311    4.7963   22.0500 C   0  0  0  0  0  0  0  0  0  0  0  0
    8.7393   10.8706   24.1871 O   0  0  0  0  0  0  0  0  0  0  0  0
    9.3093    3.8166   21.6712 C   0  0  0  0  0  0  0  0  0  0  0  0
  1  5  1  0
  1 15  4  0
  1 22  4  0
  2 20  1  0
  2 24  1  0
  3  6  4  0
  3 27  4  0
  4 22  4  0
  4 26  4  0
  6  7  4  0
  6 13  1  0
  7 19  4  0
  8 18  1  0
  8 23  1  0
  8 28  2  0
  9 17  1  0
  9 24  1  0
 10 11  1  0
 10 24  1  0
 11 23  1  0
 12 14  4  0
 12 16  4  0
 14 19  4  0
 15 18  4  0
 16 20  4  0
 17 25  1  0
 18 26  4  0
 19 29  4  0
 20 29  4  0
 21 23  1  0
 21 25  1  0
 27 29  4  0
M  END
$$$$

 Created by Python create_sdf_string function

 29 32  0  0  0  0  0  0  0  0999 V2000
    5.4450    8.7154   22.6662 C   0  0  0  0  0  0  0  0  0  0  0  0
   10.9154    5.4574   20.5483 C   0  0  0  0  0  0  0  0  0  0  0  0
    7.2709    4.5089   22.7542 C   0  0  0  0  0  0  0  0  0  0  0  0
    5.9698    7.6329   24.6581 C   0  0  0  0  0  0  0  0  0  0  0  0
    4.5542    8.9057   21.7104 O   0  0  0  0  0  0  0  0  0  0  0  0
    6.9895    3.2085   23.0690 C   0  0  0  0  0  0  0  0  0  0  0  0
    7.8391    2.2253   22.7260 N   0  0  0  0  0  0  0  0  0  0  0  0
    8.6968    9.8373   23.6359 C   0  0  0  0  0  0  0  0  0  0  0  0
   12.5135    6.5957   21.8396 C   0  0  0  0  0  0  0  0  0  0  0  0
   10.9406    8.2330   21.1350 C   0  0  0  0  0  0  0  0  0  0  0  0
    9.6648    8.5956   21.7310 C   0  0  0  0  0  0  0  0  0  0  0  0
   10.8829    1.7153   20.9865 C   0  0  0  0  0  0  0  0  0  0  0  0
    5.7768    2.8533   23.7910 C   0  0  0  0  0  0  0  0  0  0  0  0
    9.7977    1.4791   21.6912 N   0  0  0  0  0  0  0  0  0  0  0  0
    6.5976    9.3401   22.6478 N   0  0  0  0  0  0  0  0  0  0  0  0
   11.2031    3.0042   20.6246 C   0  0  0  0  0  0  0  0  0  0  0  0
   12.8688    7.7370   22.7287 C   0  0  0  0  0  0  0  0  0  0  0  0
    7.4487    9.1361   23.6506 C   0  0  0  0  0  0  0  0  0  0  0  0
    8.9772    2.5025   22.0273 C   0  0  0  0  0  0  0  0  0  0  0  0
   10.4859    4.0901   20.9730 C   0  0  0  0  0  0  0  0  0  0  0  0
   11.0962    9.3293   23.5072 C   0  0  0  0  0  0  0  0  0  0  0  0
    5.1273    7.8529   23.6208 N   0  0  0  0  0  0  0  0  0  0  0  0
    9.7552    9.2338   23.0171 N   0  0  0  0  0  0  0  0  0  0  0  0
   11.1797    6.7591   21.3326 N   0  0  0  0  0  0  0  0  0  0  0  0
   11.7728    8.0337   23.7267 C   0  0  0  0  0  0  0  0  0  0  0  0
    7.1194    8.3344   24.6775 C   0  0  0  0  0  0  0  0  0  0  0  0
    8.4311    4.7963   22.0500 C   0  0  0  0  0  0  0  0  0  0  0  0
    8.7393   10.8706   24.1871 O   0  0  0  0  0  0  0  0  0  0  0  0
    9.3093    3.8166   21.6712 C   0  0  0  0  0  0  0  0  0  0  0  0
  1  5  1  0
  1 15  4  0
  1 22  4  0
  2 20  1  0
  2 24  1  0
  3  6  4  0
  3 27  4  0
  4 22  4  0
  4 26  4  0
  6  7  4  0
  6 13  1  0
  7 19  4  0
  8 18  1  0
  8 23  1  0
  8 28  2  0
  9 17  1  0
  9 24  1  0
 10 11  1  0
 10 24  1  0
 11 23  1  0
 12 14  4  0
 12 16  4  0
 14 19  4  0
 15 18  4  0
 16 20  4  0
 17 25  1  0
 18 26  4  0
 19 29  4  0
 20 29  4  0
 21 23  1  0
 21 25  1  0
 27 29  4  0
M  END
$$$$

 Created by Python create_sdf_string function

 29 32  0  0  0  0  0  0  0  0999 V2000
    5.4450    8.7154   22.6662 C   0  0  0  0  0  0  0  0  0  0  0  0
   10.9154    5.4574   20.5483 C   0  0  0  0  0  0  0  0  0  0  0  0
    7.2709    4.5089   22.7542 C   0  0  0  0  0  0  0  0  0  0  0  0
    5.9698    7.6329   24.6581 C   0  0  0  0  0  0  0  0  0  0  0  0
    4.5542    8.9057   21.7104 O   0  0  0  0  0  0  0  0  0  0  0  0
    6.9895    3.2085   23.0690 C   0  0  0  0  0  0  0  0  0  0  0  0
    7.8391    2.2253   22.7260 N   0  0  0  0  0  0  0  0  0  0  0  0
    8.6968    9.8373   23.6359 C   0  0  0  0  0  0  0  0  0  0  0  0
   12.5135    6.5957   21.8396 C   0  0  0  0  0  0  0  0  0  0  0  0
   10.9406    8.2330   21.1350 C   0  0  0  0  0  0  0  0  0  0  0  0
    9.6648    8.5956   21.7310 C   0  0  0  0  0  0  0  0  0  0  0  0
   10.8829    1.7153   20.9865 C   0  0  0  0  0  0  0  0  0  0  0  0
    5.7768    2.8533   23.7910 C   0  0  0  0  0  0  0  0  0  0  0  0
    9.7977    1.4791   21.6912 N   0  0  0  0  0  0  0  0  0  0  0  0
    6.5976    9.3401   22.6478 N   0  0  0  0  0  0  0  0  0  0  0  0
   11.2031    3.0042   20.6246 C   0  0  0  0  0  0  0  0  0  0  0  0
   12.8688    7.7370   22.7287 C   0  0  0  0  0  0  0  0  0  0  0  0
    7.4487    9.1361   23.6506 C   0  0  0  0  0  0  0  0  0  0  0  0
    8.9772    2.5025   22.0273 C   0  0  0  0  0  0  0  0  0  0  0  0
   10.4859    4.0901   20.9730 C   0  0  0  0  0  0  0  0  0  0  0  0
   11.0962    9.3293   23.5072 C   0  0  0  0  0  0  0  0  0  0  0  0
    5.1273    7.8529   23.6208 N   0  0  0  0  0  0  0  0  0  0  0  0
    9.7552    9.2338   23.0171 N   0  0  0  0  0  0  0  0  0  0  0  0
   11.1797    6.7591   21.3326 N   0  0  0  0  0  0  0  0  0  0  0  0
   11.7728    8.0337   23.7267 C   0  0  0  0  0  0  0  0  0  0  0  0
    7.1194    8.3344   24.6775 C   0  0  0  0  0  0  0  0  0  0  0  0
    8.4311    4.7963   22.0500 C   0  0  0  0  0  0  0  0  0  0  0  0
    8.7393   10.8706   24.1871 O   0  0  0  0  0  0  0  0  0  0  0  0
    9.3093    3.8166   21.6712 C   0  0  0  0  0  0  0  0  0  0  0  0
  1  5  1  0
  1 15  4  0
  1 22  4  0
  2 20  1  0
  2 24  1  0
  3  6  4  0
  3 27  4  0
  4 22  4  0
  4 26  4  0
  6  7  4  0
  6 13  1  0
  7 19  4  0
  8 18  1  0
  8 23  1  0
  8 28  2  0
  9 17  1  0
  9 24  1  0
 10 11  1  0
 10 24  1  0
 11 23  1  0
 12 14  4  0
 12 16  4  0
 14 19  4  0
 15 18  4  0
 16 20  4  0
 17 25  1  0
 18 26  4  0
 19 29  4  0
 20 29  4  0
 21 23  1  0
 21 25  1  0
 27 29  4  0
M  END
$$$$

 Created by Python create_sdf_string function

 29 32  0  0  0  0  0  0  0  0999 V2000
    5.4450    8.7154   22.6662 C   0  0  0  0  0  0  0  0  0  0  0  0
   10.9154    5.4574   20.5483 C   0  0  0  0  0  0  0  0  0  0  0  0
    7.2709    4.5089   22.7542 C   0  0  0  0  0  0  0  0  0  0  0  0
    5.9698    7.6329   24.6581 C   0  0  0  0  0  0  0  0  0  0  0  0
    4.5542    8.9057   21.7104 O   0  0  0  0  0  0  0  0  0  0  0  0
    6.9895    3.2085   23.0690 C   0  0  0  0  0  0  0  0  0  0  0  0
    7.8391    2.2253   22.7260 N   0  0  0  0  0  0  0  0  0  0  0  0
    8.6968    9.8373   23.6359 C   0  0  0  0  0  0  0  0  0  0  0  0
   12.5135    6.5957   21.8396 C   0  0  0  0  0  0  0  0  0  0  0  0
   10.9406    8.2330   21.1350 C   0  0  0  0  0  0  0  0  0  0  0  0
    9.6648    8.5956   21.7310 C   0  0  0  0  0  0  0  0  0  0  0  0
   10.8829    1.7153   20.9865 C   0  0  0  0  0  0  0  0  0  0  0  0
    5.7768    2.8533   23.7910 C   0  0  0  0  0  0  0  0  0  0  0  0
    9.7977    1.4791   21.6912 N   0  0  0  0  0  0  0  0  0  0  0  0
    6.5976    9.3401   22.6478 N   0  0  0  0  0  0  0  0  0  0  0  0
   11.2031    3.0042   20.6246 C   0  0  0  0  0  0  0  0  0  0  0  0
   12.8688    7.7370   22.7287 C   0  0  0  0  0  0  0  0  0  0  0  0
    7.4487    9.1361   23.6506 C   0  0  0  0  0  0  0  0  0  0  0  0
    8.9772    2.5025   22.0273 C   0  0  0  0  0  0  0  0  0  0  0  0
   10.4859    4.0901   20.9730 C   0  0  0  0  0  0  0  0  0  0  0  0
   11.0962    9.3293   23.5072 C   0  0  0  0  0  0  0  0  0  0  0  0
    5.1273    7.8529   23.6208 N   0  0  0  0  0  0  0  0  0  0  0  0
    9.7552    9.2338   23.0171 N   0  0  0  0  0  0  0  0  0  0  0  0
   11.1797    6.7591   21.3326 N   0  0  0  0  0  0  0  0  0  0  0  0
   11.7728    8.0337   23.7267 C   0  0  0  0  0  0  0  0  0  0  0  0
    7.1194    8.3344   24.6775 C   0  0  0  0  0  0  0  0  0  0  0  0
    8.4311    4.7963   22.0500 C   0  0  0  0  0  0  0  0  0  0  0  0
    8.7393   10.8706   24.1871 O   0  0  0  0  0  0  0  0  0  0  0  0
    9.3093    3.8166   21.6712 C   0  0  0  0  0  0  0  0  0  0  0  0
  1  5  1  0
  1 15  4  0
  1 22  4  0
  2 20  1  0
  2 24  1  0
  3  6  4  0
  3 27  4  0
  4 22  4  0
  4 26  4  0
  6  7  4  0
  6 13  1  0
  7 19  4  0
  8 18  1  0
  8 23  1  0
  8 28  2  0
  9 17  1  0
  9 24  1  0
 10 11  1  0
 10 24  1  0
 11 23  1  0
 12 14  4  0
 12 16  4  0
 14 19  4  0
 15 18  4  0
 16 20  4  0
 17 25  1  0
 18 26  4  0
 19 29  4  0
 20 29  4  0
 21 23  1  0
 21 25  1  0
 27 29  4  0
M  END
$$$$

 Created by Python create_sdf_string function

 29 32  0  0  0  0  0  0  0  0999 V2000
    5.4450    8.7154   22.6662 C   0  0  0  0  0  0  0  0  0  0  0  0
   10.9154    5.4574   20.5483 C   0  0  0  0  0  0  0  0  0  0  0  0
    7.2709    4.5089   22.7542 C   0  0  0  0  0  0  0  0  0  0  0  0
    5.9698    7.6329   24.6581 C   0  0  0  0  0  0  0  0  0  0  0  0
    4.5542    8.9057   21.7104 O   0  0  0  0  0  0  0  0  0  0  0  0
    6.9895    3.2085   23.0690 C   0  0  0  0  0  0  0  0  0  0  0  0
    7.8391    2.2253   22.7260 N   0  0  0  0  0  0  0  0  0  0  0  0
    8.6968    9.8373   23.6359 C   0  0  0  0  0  0  0  0  0  0  0  0
   12.5135    6.5957   21.8396 C   0  0  0  0  0  0  0  0  0  0  0  0
   10.9406    8.2330   21.1350 C   0  0  0  0  0  0  0  0  0  0  0  0
    9.6648    8.5956   21.7310 C   0  0  0  0  0  0  0  0  0  0  0  0
   10.8829    1.7153   20.9865 C   0  0  0  0  0  0  0  0  0  0  0  0
    5.7768    2.8533   23.7910 C   0  0  0  0  0  0  0  0  0  0  0  0
    9.7977    1.4791   21.6912 N   0  0  0  0  0  0  0  0  0  0  0  0
    6.5976    9.3401   22.6478 N   0  0  0  0  0  0  0  0  0  0  0  0
   11.2031    3.0042   20.6246 C   0  0  0  0  0  0  0  0  0  0  0  0
   12.8688    7.7370   22.7287 C   0  0  0  0  0  0  0  0  0  0  0  0
    7.4487    9.1361   23.6506 C   0  0  0  0  0  0  0  0  0  0  0  0
    8.9772    2.5025   22.0273 C   0  0  0  0  0  0  0  0  0  0  0  0
   10.4859    4.0901   20.9730 C   0  0  0  0  0  0  0  0  0  0  0  0
   11.0962    9.3293   23.5072 C   0  0  0  0  0  0  0  0  0  0  0  0
    5.1273    7.8529   23.6208 N   0  0  0  0  0  0  0  0  0  0  0  0
    9.7552    9.2338   23.0171 N   0  0  0  0  0  0  0  0  0  0  0  0
   11.1797    6.7591   21.3326 N   0  0  0  0  0  0  0  0  0  0  0  0
   11.7728    8.0337   23.7267 C   0  0  0  0  0  0  0  0  0  0  0  0
    7.1194    8.3344   24.6775 C   0  0  0  0  0  0  0  0  0  0  0  0
    8.4311    4.7963   22.0500 C   0  0  0  0  0  0  0  0  0  0  0  0
    8.7393   10.8706   24.1871 O   0  0  0  0  0  0  0  0  0  0  0  0
    9.3093    3.8166   21.6712 C   0  0  0  0  0  0  0  0  0  0  0  0
  1  5  1  0
  1 15  4  0
  1 22  4  0
  2 20  1  0
  2 24  1  0
  3  6  4  0
  3 27  4  0
  4 22  4  0
  4 26  4  0
  6  7  4  0
  6 13  1  0
  7 19  4  0
  8 18  1  0
  8 23  1  0
  8 28  2  0
  9 17  1  0
  9 24  1  0
 10 11  1  0
 10 24  1  0
 11 23  1  0
 12 14  4  0
 12 16  4  0
 14 19  4  0
 15 18  4  0
 16 20  4  0
 17 25  1  0
 18 26  4  0
 19 29  4  0
 20 29  4  0
 21 23  1  0
 21 25  1  0
 27 29  4  0
M  END
$$$$

 Created by Python create_sdf_string function

 29 32  0  0  0  0  0  0  0  0999 V2000
    5.4450    8.7154   22.6662 C   0  0  0  0  0  0  0  0  0  0  0  0
   10.9154    5.4574   20.5483 C   0  0  0  0  0  0  0  0  0  0  0  0
    7.2709    4.5089   22.7542 C   0  0  0  0  0  0  0  0  0  0  0  0
    5.9698    7.6329   24.6581 C   0  0  0  0  0  0  0  0  0  0  0  0
    4.5542    8.9057   21.7104 O   0  0  0  0  0  0  0  0  0  0  0  0
    6.9895    3.2085   23.0690 C   0  0  0  0  0  0  0  0  0  0  0  0
    7.8391    2.2253   22.7260 N   0  0  0  0  0  0  0  0  0  0  0  0
    8.6968    9.8373   23.6359 C   0  0  0  0  0  0  0  0  0  0  0  0
   12.5135    6.5957   21.8396 C   0  0  0  0  0  0  0  0  0  0  0  0
   10.9406    8.2330   21.1350 C   0  0  0  0  0  0  0  0  0  0  0  0
    9.6648    8.5956   21.7310 C   0  0  0  0  0  0  0  0  0  0  0  0
   10.8829    1.7153   20.9865 C   0  0  0  0  0  0  0  0  0  0  0  0
    5.7768    2.8533   23.7910 C   0  0  0  0  0  0  0  0  0  0  0  0
    9.7977    1.4791   21.6912 N   0  0  0  0  0  0  0  0  0  0  0  0
    6.5976    9.3401   22.6478 N   0  0  0  0  0  0  0  0  0  0  0  0
   11.2031    3.0042   20.6246 C   0  0  0  0  0  0  0  0  0  0  0  0
   12.8688    7.7370   22.7287 C   0  0  0  0  0  0  0  0  0  0  0  0
    7.4487    9.1361   23.6506 C   0  0  0  0  0  0  0  0  0  0  0  0
    8.9772    2.5025   22.0273 C   0  0  0  0  0  0  0  0  0  0  0  0
   10.4859    4.0901   20.9730 C   0  0  0  0  0  0  0  0  0  0  0  0
   11.0962    9.3293   23.5072 C   0  0  0  0  0  0  0  0  0  0  0  0
    5.1273    7.8529   23.6208 N   0  0  0  0  0  0  0  0  0  0  0  0
    9.7552    9.2338   23.0171 N   0  0  0  0  0  0  0  0  0  0  0  0
   11.1797    6.7591   21.3326 N   0  0  0  0  0  0  0  0  0  0  0  0
   11.7728    8.0337   23.7267 C   0  0  0  0  0  0  0  0  0  0  0  0
    7.1194    8.3344   24.6775 C   0  0  0  0  0  0  0  0  0  0  0  0
    8.4311    4.7963   22.0500 C   0  0  0  0  0  0  0  0  0  0  0  0
    8.7393   10.8706   24.1871 O   0  0  0  0  0  0  0  0  0  0  0  0
    9.3093    3.8166   21.6712 C   0  0  0  0  0  0  0  0  0  0  0  0
  1  5  1  0
  1 15  4  0
  1 22  4  0
  2 20  1  0
  2 24  1  0
  3  6  4  0
  3 27  4  0
  4 22  4  0
  4 26  4  0
  6  7  4  0
  6 13  1  0
  7 19  4  0
  8 18  1  0
  8 23  1  0
  8 28  2  0
  9 17  1  0
  9 24  1  0
 10 11  1  0
 10 24  1  0
 11 23  1  0
 12 14  4  0
 12 16  4  0
 14 19  4  0
 15 18  4  0
 16 20  4  0
 17 25  1  0
 18 26  4  0
 19 29  4  0
 20 29  4  0
 21 23  1  0
 21 25  1  0
 27 29  4  0
M  END
$$$$

 Created by Python create_sdf_string function

 29 32  0  0  0  0  0  0  0  0999 V2000
    5.4450    8.7154   22.6662 C   0  0  0  0  0  0  0  0  0  0  0  0
   10.9154    5.4574   20.5483 C   0  0  0  0  0  0  0  0  0  0  0  0
    7.2709    4.5089   22.7542 C   0  0  0  0  0  0  0  0  0  0  0  0
    5.9698    7.6329   24.6581 C   0  0  0  0  0  0  0  0  0  0  0  0
    4.5542    8.9057   21.7104 O   0  0  0  0  0  0  0  0  0  0  0  0
    6.9895    3.2085   23.0690 C   0  0  0  0  0  0  0  0  0  0  0  0
    7.8391    2.2253   22.7260 N   0  0  0  0  0  0  0  0  0  0  0  0
    8.6968    9.8373   23.6359 C   0  0  0  0  0  0  0  0  0  0  0  0
   12.5135    6.5957   21.8396 C   0  0  0  0  0  0  0  0  0  0  0  0
   10.9406    8.2330   21.1350 C   0  0  0  0  0  0  0  0  0  0  0  0
    9.6648    8.5956   21.7310 C   0  0  0  0  0  0  0  0  0  0  0  0
   10.8829    1.7153   20.9865 C   0  0  0  0  0  0  0  0  0  0  0  0
    5.7768    2.8533   23.7910 C   0  0  0  0  0  0  0  0  0  0  0  0
    9.7977    1.4791   21.6912 N   0  0  0  0  0  0  0  0  0  0  0  0
    6.5976    9.3401   22.6478 N   0  0  0  0  0  0  0  0  0  0  0  0
   11.2031    3.0042   20.6246 C   0  0  0  0  0  0  0  0  0  0  0  0
   12.8688    7.7370   22.7287 C   0  0  0  0  0  0  0  0  0  0  0  0
    7.4487    9.1361   23.6506 C   0  0  0  0  0  0  0  0  0  0  0  0
    8.9772    2.5025   22.0273 C   0  0  0  0  0  0  0  0  0  0  0  0
   10.4859    4.0901   20.9730 C   0  0  0  0  0  0  0  0  0  0  0  0
   11.0962    9.3293   23.5072 C   0  0  0  0  0  0  0  0  0  0  0  0
    5.1273    7.8529   23.6208 N   0  0  0  0  0  0  0  0  0  0  0  0
    9.7552    9.2338   23.0171 N   0  0  0  0  0  0  0  0  0  0  0  0
   11.1797    6.7591   21.3326 N   0  0  0  0  0  0  0  0  0  0  0  0
   11.7728    8.0337   23.7267 C   0  0  0  0  0  0  0  0  0  0  0  0
    7.1194    8.3344   24.6775 C   0  0  0  0  0  0  0  0  0  0  0  0
    8.4311    4.7963   22.0500 C   0  0  0  0  0  0  0  0  0  0  0  0
    8.7393   10.8706   24.1871 O   0  0  0  0  0  0  0  0  0  0  0  0
    9.3093    3.8166   21.6712 C   0  0  0  0  0  0  0  0  0  0  0  0
  1  5  1  0
  1 15  4  0
  1 22  4  0
  2 20  1  0
  2 24  1  0
  3  6  4  0
  3 27  4  0
  4 22  4  0
  4 26  4  0
  6  7  4  0
  6 13  1  0
  7 19  4  0
  8 18  1  0
  8 23  1  0
  8 28  2  0
  9 17  1  0
  9 24  1  0
 10 11  1  0
 10 24  1  0
 11 23  1  0
 12 14  4  0
 12 16  4  0
 14 19  4  0
 15 18  4  0
 16 20  4  0
 17 25  1  0
 18 26  4  0
 19 29  4  0
 20 29  4  0
 21 23  1  0
 21 25  1  0
 27 29  4  0
M  END
$$$$

 Created by Python create_sdf_string function

 29 32  0  0  0  0  0  0  0  0999 V2000
    5.4450    8.7154   22.6662 C   0  0  0  0  0  0  0  0  0  0  0  0
   10.9154    5.4574   20.5483 C   0  0  0  0  0  0  0  0  0  0  0  0
    7.2709    4.5089   22.7542 C   0  0  0  0  0  0  0  0  0  0  0  0
    5.9698    7.6329   24.6581 C   0  0  0  0  0  0  0  0  0  0  0  0
    4.5542    8.9057   21.7104 O   0  0  0  0  0  0  0  0  0  0  0  0
    6.9895    3.2085   23.0690 C   0  0  0  0  0  0  0  0  0  0  0  0
    7.8391    2.2253   22.7260 N   0  0  0  0  0  0  0  0  0  0  0  0
    8.6968    9.8373   23.6359 C   0  0  0  0  0  0  0  0  0  0  0  0
   12.5135    6.5957   21.8396 C   0  0  0  0  0  0  0  0  0  0  0  0
   10.9406    8.2330   21.1350 C   0  0  0  0  0  0  0  0  0  0  0  0
    9.6648    8.5956   21.7310 C   0  0  0  0  0  0  0  0  0  0  0  0
   10.8829    1.7153   20.9865 C   0  0  0  0  0  0  0  0  0  0  0  0
    5.7768    2.8533   23.7910 C   0  0  0  0  0  0  0  0  0  0  0  0
    9.7977    1.4791   21.6912 N   0  0  0  0  0  0  0  0  0  0  0  0
    6.5976    9.3401   22.6478 N   0  0  0  0  0  0  0  0  0  0  0  0
   11.2031    3.0042   20.6246 C   0  0  0  0  0  0  0  0  0  0  0  0
   12.8688    7.7370   22.7287 C   0  0  0  0  0  0  0  0  0  0  0  0
    7.4487    9.1361   23.6506 C   0  0  0  0  0  0  0  0  0  0  0  0
    8.9772    2.5025   22.0273 C   0  0  0  0  0  0  0  0  0  0  0  0
   10.4859    4.0901   20.9730 C   0  0  0  0  0  0  0  0  0  0  0  0
   11.0962    9.3293   23.5072 C   0  0  0  0  0  0  0  0  0  0  0  0
    5.1273    7.8529   23.6208 N   0  0  0  0  0  0  0  0  0  0  0  0
    9.7552    9.2338   23.0171 N   0  0  0  0  0  0  0  0  0  0  0  0
   11.1797    6.7591   21.3326 N   0  0  0  0  0  0  0  0  0  0  0  0
   11.7728    8.0337   23.7267 C   0  0  0  0  0  0  0  0  0  0  0  0
    7.1194    8.3344   24.6775 C   0  0  0  0  0  0  0  0  0  0  0  0
    8.4311    4.7963   22.0500 C   0  0  0  0  0  0  0  0  0  0  0  0
    8.7393   10.8706   24.1871 O   0  0  0  0  0  0  0  0  0  0  0  0
    9.3093    3.8166   21.6712 C   0  0  0  0  0  0  0  0  0  0  0  0
  1  5  1  0
  1 15  4  0
  1 22  4  0
  2 20  1  0
  2 24  1  0
  3  6  4  0
  3 27  4  0
  4 22  4  0
  4 26  4  0
  6  7  4  0
  6 13  1  0
  7 19  4  0
  8 18  1  0
  8 23  1  0
  8 28  2  0
  9 17  1  0
  9 24  1  0
 10 11  1  0
 10 24  1  0
 11 23  1  0
 12 14  4  0
 12 16  4  0
 14 19  4  0
 15 18  4  0
 16 20  4  0
 17 25  1  0
 18 26  4  0
 19 29  4  0
 20 29  4  0
 21 23  1  0
 21 25  1  0
 27 29  4  0
M  END
$$$$

 Created by Python create_sdf_string function

 29 32  0  0  0  0  0  0  0  0999 V2000
    5.4450    8.7154   22.6662 C   0  0  0  0  0  0  0  0  0  0  0  0
   10.9154    5.4574   20.5483 C   0  0  0  0  0  0  0  0  0  0  0  0
    7.2709    4.5089   22.7542 C   0  0  0  0  0  0  0  0  0  0  0  0
    5.9698    7.6329   24.6581 C   0  0  0  0  0  0  0  0  0  0  0  0
    4.5542    8.9057   21.7104 O   0  0  0  0  0  0  0  0  0  0  0  0
    6.9895    3.2085   23.0690 C   0  0  0  0  0  0  0  0  0  0  0  0
    7.8391    2.2253   22.7260 N   0  0  0  0  0  0  0  0  0  0  0  0
    8.6968    9.8373   23.6359 C   0  0  0  0  0  0  0  0  0  0  0  0
   12.5135    6.5957   21.8396 C   0  0  0  0  0  0  0  0  0  0  0  0
   10.9406    8.2330   21.1350 C   0  0  0  0  0  0  0  0  0  0  0  0
    9.6648    8.5956   21.7310 C   0  0  0  0  0  0  0  0  0  0  0  0
   10.8829    1.7153   20.9865 C   0  0  0  0  0  0  0  0  0  0  0  0
    5.7768    2.8533   23.7910 C   0  0  0  0  0  0  0  0  0  0  0  0
    9.7977    1.4791   21.6912 N   0  0  0  0  0  0  0  0  0  0  0  0
    6.5976    9.3401   22.6478 N   0  0  0  0  0  0  0  0  0  0  0  0
   11.2031    3.0042   20.6246 C   0  0  0  0  0  0  0  0  0  0  0  0
   12.8688    7.7370   22.7287 C   0  0  0  0  0  0  0  0  0  0  0  0
    7.4487    9.1361   23.6506 C   0  0  0  0  0  0  0  0  0  0  0  0
    8.9772    2.5025   22.0273 C   0  0  0  0  0  0  0  0  0  0  0  0
   10.4859    4.0901   20.9730 C   0  0  0  0  0  0  0  0  0  0  0  0
   11.0962    9.3293   23.5072 C   0  0  0  0  0  0  0  0  0  0  0  0
    5.1273    7.8529   23.6208 N   0  0  0  0  0  0  0  0  0  0  0  0
    9.7552    9.2338   23.0171 N   0  0  0  0  0  0  0  0  0  0  0  0
   11.1797    6.7591   21.3326 N   0  0  0  0  0  0  0  0  0  0  0  0
   11.7728    8.0337   23.7267 C   0  0  0  0  0  0  0  0  0  0  0  0
    7.1194    8.3344   24.6775 C   0  0  0  0  0  0  0  0  0  0  0  0
    8.4311    4.7963   22.0500 C   0  0  0  0  0  0  0  0  0  0  0  0
    8.7393   10.8706   24.1871 O   0  0  0  0  0  0  0  0  0  0  0  0
    9.3093    3.8166   21.6712 C   0  0  0  0  0  0  0  0  0  0  0  0
  1  5  1  0
  1 15  4  0
  1 22  4  0
  2 20  1  0
  2 24  1  0
  3  6  4  0
  3 27  4  0
  4 22  4  0
  4 26  4  0
  6  7  4  0
  6 13  1  0
  7 19  4  0
  8 18  1  0
  8 23  1  0
  8 28  2  0
  9 17  1  0
  9 24  1  0
 10 11  1  0
 10 24  1  0
 11 23  1  0
 12 14  4  0
 12 16  4  0
 14 19  4  0
 15 18  4  0
 16 20  4  0
 17 25  1  0
 18 26  4  0
 19 29  4  0
 20 29  4  0
 21 23  1  0
 21 25  1  0
 27 29  4  0
M  END
$$$$

 Created by Python create_sdf_string function

 29 32  0  0  0  0  0  0  0  0999 V2000
    5.4450    8.7154   22.6662 C   0  0  0  0  0  0  0  0  0  0  0  0
   10.9154    5.4574   20.5483 C   0  0  0  0  0  0  0  0  0  0  0  0
    7.2709    4.5089   22.7542 C   0  0  0  0  0  0  0  0  0  0  0  0
    5.9698    7.6329   24.6581 C   0  0  0  0  0  0  0  0  0  0  0  0
    4.5542    8.9057   21.7104 O   0  0  0  0  0  0  0  0  0  0  0  0
    6.9895    3.2085   23.0690 C   0  0  0  0  0  0  0  0  0  0  0  0
    7.8391    2.2253   22.7260 N   0  0  0  0  0  0  0  0  0  0  0  0
    8.6968    9.8373   23.6359 C   0  0  0  0  0  0  0  0  0  0  0  0
   12.5135    6.5957   21.8396 C   0  0  0  0  0  0  0  0  0  0  0  0
   10.9406    8.2330   21.1350 C   0  0  0  0  0  0  0  0  0  0  0  0
    9.6648    8.5956   21.7310 C   0  0  0  0  0  0  0  0  0  0  0  0
   10.8829    1.7153   20.9865 C   0  0  0  0  0  0  0  0  0  0  0  0
    5.7768    2.8533   23.7910 C   0  0  0  0  0  0  0  0  0  0  0  0
    9.7977    1.4791   21.6912 N   0  0  0  0  0  0  0  0  0  0  0  0
    6.5976    9.3401   22.6478 N   0  0  0  0  0  0  0  0  0  0  0  0
   11.2031    3.0042   20.6246 C   0  0  0  0  0  0  0  0  0  0  0  0
   12.8688    7.7370   22.7287 C   0  0  0  0  0  0  0  0  0  0  0  0
    7.4487    9.1361   23.6506 C   0  0  0  0  0  0  0  0  0  0  0  0
    8.9772    2.5025   22.0273 C   0  0  0  0  0  0  0  0  0  0  0  0
   10.4859    4.0901   20.9730 C   0  0  0  0  0  0  0  0  0  0  0  0
   11.0962    9.3293   23.5072 C   0  0  0  0  0  0  0  0  0  0  0  0
    5.1273    7.8529   23.6208 N   0  0  0  0  0  0  0  0  0  0  0  0
    9.7552    9.2338   23.0171 N   0  0  0  0  0  0  0  0  0  0  0  0
   11.1797    6.7591   21.3326 N   0  0  0  0  0  0  0  0  0  0  0  0
   11.7728    8.0337   23.7267 C   0  0  0  0  0  0  0  0  0  0  0  0
    7.1194    8.3344   24.6775 C   0  0  0  0  0  0  0  0  0  0  0  0
    8.4311    4.7963   22.0500 C   0  0  0  0  0  0  0  0  0  0  0  0
    8.7393   10.8706   24.1871 O   0  0  0  0  0  0  0  0  0  0  0  0
    9.3093    3.8166   21.6712 C   0  0  0  0  0  0  0  0  0  0  0  0
  1  5  1  0
  1 15  4  0
  1 22  4  0
  2 20  1  0
  2 24  1  0
  3  6  4  0
  3 27  4  0
  4 22  4  0
  4 26  4  0
  6  7  4  0
  6 13  1  0
  7 19  4  0
  8 18  1  0
  8 23  1  0
  8 28  2  0
  9 17  1  0
  9 24  1  0
 10 11  1  0
 10 24  1  0
 11 23  1  0
 12 14  4  0
 12 16  4  0
 14 19  4  0
 15 18  4  0
 16 20  4  0
 17 25  1  0
 18 26  4  0
 19 29  4  0
 20 29  4  0
 21 23  1  0
 21 25  1  0
 27 29  4  0
M  END
$$$$

 Created by Python create_sdf_string function

 29 32  0  0  0  0  0  0  0  0999 V2000
    5.4450    8.7154   22.6662 C   0  0  0  0  0  0  0  0  0  0  0  0
   10.9154    5.4574   20.5483 C   0  0  0  0  0  0  0  0  0  0  0  0
    7.2709    4.5089   22.7542 C   0  0  0  0  0  0  0  0  0  0  0  0
    5.9698    7.6329   24.6581 C   0  0  0  0  0  0  0  0  0  0  0  0
    4.5542    8.9057   21.7104 O   0  0  0  0  0  0  0  0  0  0  0  0
    6.9895    3.2085   23.0690 C   0  0  0  0  0  0  0  0  0  0  0  0
    7.8391    2.2253   22.7260 N   0  0  0  0  0  0  0  0  0  0  0  0
    8.6968    9.8373   23.6359 C   0  0  0  0  0  0  0  0  0  0  0  0
   12.5135    6.5957   21.8396 C   0  0  0  0  0  0  0  0  0  0  0  0
   10.9406    8.2330   21.1350 C   0  0  0  0  0  0  0  0  0  0  0  0
    9.6648    8.5956   21.7310 C   0  0  0  0  0  0  0  0  0  0  0  0
   10.8829    1.7153   20.9865 C   0  0  0  0  0  0  0  0  0  0  0  0
    5.7768    2.8533   23.7910 C   0  0  0  0  0  0  0  0  0  0  0  0
    9.7977    1.4791   21.6912 N   0  0  0  0  0  0  0  0  0  0  0  0
    6.5976    9.3401   22.6478 N   0  0  0  0  0  0  0  0  0  0  0  0
   11.2031    3.0042   20.6246 C   0  0  0  0  0  0  0  0  0  0  0  0
   12.8688    7.7370   22.7287 C   0  0  0  0  0  0  0  0  0  0  0  0
    7.4487    9.1361   23.6506 C   0  0  0  0  0  0  0  0  0  0  0  0
    8.9772    2.5025   22.0273 C   0  0  0  0  0  0  0  0  0  0  0  0
   10.4859    4.0901   20.9730 C   0  0  0  0  0  0  0  0  0  0  0  0
   11.0962    9.3293   23.5072 C   0  0  0  0  0  0  0  0  0  0  0  0
    5.1273    7.8529   23.6208 N   0  0  0  0  0  0  0  0  0  0  0  0
    9.7552    9.2338   23.0171 N   0  0  0  0  0  0  0  0  0  0  0  0
   11.1797    6.7591   21.3326 N   0  0  0  0  0  0  0  0  0  0  0  0
   11.7728    8.0337   23.7267 C   0  0  0  0  0  0  0  0  0  0  0  0
    7.1194    8.3344   24.6775 C   0  0  0  0  0  0  0  0  0  0  0  0
    8.4311    4.7963   22.0500 C   0  0  0  0  0  0  0  0  0  0  0  0
    8.7393   10.8706   24.1871 O   0  0  0  0  0  0  0  0  0  0  0  0
    9.3093    3.8166   21.6712 C   0  0  0  0  0  0  0  0  0  0  0  0
  1  5  1  0
  1 15  4  0
  1 22  4  0
  2 20  1  0
  2 24  1  0
  3  6  4  0
  3 27  4  0
  4 22  4  0
  4 26  4  0
  6  7  4  0
  6 13  1  0
  7 19  4  0
  8 18  1  0
  8 23  1  0
  8 28  2  0
  9 17  1  0
  9 24  1  0
 10 11  1  0
 10 24  1  0
 11 23  1  0
 12 14  4  0
 12 16  4  0
 14 19  4  0
 15 18  4  0
 16 20  4  0
 17 25  1  0
 18 26  4  0
 19 29  4  0
 20 29  4  0
 21 23  1  0
 21 25  1  0
 27 29  4  0
M  END
$$$$

 Created by Python create_sdf_string function

 29 32  0  0  0  0  0  0  0  0999 V2000
    5.4450    8.7154   22.6662 C   0  0  0  0  0  0  0  0  0  0  0  0
   10.9154    5.4574   20.5483 C   0  0  0  0  0  0  0  0  0  0  0  0
    7.2709    4.5089   22.7542 C   0  0  0  0  0  0  0  0  0  0  0  0
    5.9698    7.6329   24.6581 C   0  0  0  0  0  0  0  0  0  0  0  0
    4.5542    8.9057   21.7104 O   0  0  0  0  0  0  0  0  0  0  0  0
    6.9895    3.2085   23.0690 C   0  0  0  0  0  0  0  0  0  0  0  0
    7.8391    2.2253   22.7260 N   0  0  0  0  0  0  0  0  0  0  0  0
    8.6968    9.8373   23.6359 C   0  0  0  0  0  0  0  0  0  0  0  0
   12.5135    6.5957   21.8396 C   0  0  0  0  0  0  0  0  0  0  0  0
   10.9406    8.2330   21.1350 C   0  0  0  0  0  0  0  0  0  0  0  0
    9.6648    8.5956   21.7310 C   0  0  0  0  0  0  0  0  0  0  0  0
   10.8829    1.7153   20.9865 C   0  0  0  0  0  0  0  0  0  0  0  0
    5.7768    2.8533   23.7910 C   0  0  0  0  0  0  0  0  0  0  0  0
    9.7977    1.4791   21.6912 N   0  0  0  0  0  0  0  0  0  0  0  0
    6.5976    9.3401   22.6478 N   0  0  0  0  0  0  0  0  0  0  0  0
   11.2031    3.0042   20.6246 C   0  0  0  0  0  0  0  0  0  0  0  0
   12.8688    7.7370   22.7287 C   0  0  0  0  0  0  0  0  0  0  0  0
    7.4487    9.1361   23.6506 C   0  0  0  0  0  0  0  0  0  0  0  0
    8.9772    2.5025   22.0273 C   0  0  0  0  0  0  0  0  0  0  0  0
   10.4859    4.0901   20.9730 C   0  0  0  0  0  0  0  0  0  0  0  0
   11.0962    9.3293   23.5072 C   0  0  0  0  0  0  0  0  0  0  0  0
    5.1273    7.8529   23.6208 N   0  0  0  0  0  0  0  0  0  0  0  0
    9.7552    9.2338   23.0171 N   0  0  0  0  0  0  0  0  0  0  0  0
   11.1797    6.7591   21.3326 N   0  0  0  0  0  0  0  0  0  0  0  0
   11.7728    8.0337   23.7267 C   0  0  0  0  0  0  0  0  0  0  0  0
    7.1194    8.3344   24.6775 C   0  0  0  0  0  0  0  0  0  0  0  0
    8.4311    4.7963   22.0500 C   0  0  0  0  0  0  0  0  0  0  0  0
    8.7393   10.8706   24.1871 O   0  0  0  0  0  0  0  0  0  0  0  0
    9.3093    3.8166   21.6712 C   0  0  0  0  0  0  0  0  0  0  0  0
  1  5  1  0
  1 15  4  0
  1 22  4  0
  2 20  1  0
  2 24  1  0
  3  6  4  0
  3 27  4  0
  4 22  4  0
  4 26  4  0
  6  7  4  0
  6 13  1  0
  7 19  4  0
  8 18  1  0
  8 23  1  0
  8 28  2  0
  9 17  1  0
  9 24  1  0
 10 11  1  0
 10 24  1  0
 11 23  1  0
 12 14  4  0
 12 16  4  0
 14 19  4  0
 15 18  4  0
 16 20  4  0
 17 25  1  0
 18 26  4  0
 19 29  4  0
 20 29  4  0
 21 23  1  0
 21 25  1  0
 27 29  4  0
M  END
$$$$

 Created by Python create_sdf_string function

 29 32  0  0  0  0  0  0  0  0999 V2000
    5.4450    8.7154   22.6662 C   0  0  0  0  0  0  0  0  0  0  0  0
   10.9154    5.4574   20.5483 C   0  0  0  0  0  0  0  0  0  0  0  0
    7.2709    4.5089   22.7542 C   0  0  0  0  0  0  0  0  0  0  0  0
    5.9698    7.6329   24.6581 C   0  0  0  0  0  0  0  0  0  0  0  0
    4.5542    8.9057   21.7104 O   0  0  0  0  0  0  0  0  0  0  0  0
    6.9895    3.2085   23.0690 C   0  0  0  0  0  0  0  0  0  0  0  0
    7.8391    2.2253   22.7260 N   0  0  0  0  0  0  0  0  0  0  0  0
    8.6968    9.8373   23.6359 C   0  0  0  0  0  0  0  0  0  0  0  0
   12.5135    6.5957   21.8396 C   0  0  0  0  0  0  0  0  0  0  0  0
   10.9406    8.2330   21.1350 C   0  0  0  0  0  0  0  0  0  0  0  0
    9.6648    8.5956   21.7310 C   0  0  0  0  0  0  0  0  0  0  0  0
   10.8829    1.7153   20.9865 C   0  0  0  0  0  0  0  0  0  0  0  0
    5.7768    2.8533   23.7910 C   0  0  0  0  0  0  0  0  0  0  0  0
    9.7977    1.4791   21.6912 N   0  0  0  0  0  0  0  0  0  0  0  0
    6.5976    9.3401   22.6478 N   0  0  0  0  0  0  0  0  0  0  0  0
   11.2031    3.0042   20.6246 C   0  0  0  0  0  0  0  0  0  0  0  0
   12.8688    7.7370   22.7287 C   0  0  0  0  0  0  0  0  0  0  0  0
    7.4487    9.1361   23.6506 C   0  0  0  0  0  0  0  0  0  0  0  0
    8.9772    2.5025   22.0273 C   0  0  0  0  0  0  0  0  0  0  0  0
   10.4859    4.0901   20.9730 C   0  0  0  0  0  0  0  0  0  0  0  0
   11.0962    9.3293   23.5072 C   0  0  0  0  0  0  0  0  0  0  0  0
    5.1273    7.8529   23.6208 N   0  0  0  0  0  0  0  0  0  0  0  0
    9.7552    9.2338   23.0171 N   0  0  0  0  0  0  0  0  0  0  0  0
   11.1797    6.7591   21.3326 N   0  0  0  0  0  0  0  0  0  0  0  0
   11.7728    8.0337   23.7267 C   0  0  0  0  0  0  0  0  0  0  0  0
    7.1194    8.3344   24.6775 C   0  0  0  0  0  0  0  0  0  0  0  0
    8.4311    4.7963   22.0500 C   0  0  0  0  0  0  0  0  0  0  0  0
    8.7393   10.8706   24.1871 O   0  0  0  0  0  0  0  0  0  0  0  0
    9.3093    3.8166   21.6712 C   0  0  0  0  0  0  0  0  0  0  0  0
  1  5  1  0
  1 15  4  0
  1 22  4  0
  2 20  1  0
  2 24  1  0
  3  6  4  0
  3 27  4  0
  4 22  4  0
  4 26  4  0
  6  7  4  0
  6 13  1  0
  7 19  4  0
  8 18  1  0
  8 23  1  0
  8 28  2  0
  9 17  1  0
  9 24  1  0
 10 11  1  0
 10 24  1  0
 11 23  1  0
 12 14  4  0
 12 16  4  0
 14 19  4  0
 15 18  4  0
 16 20  4  0
 17 25  1  0
 18 26  4  0
 19 29  4  0
 20 29  4  0
 21 23  1  0
 21 25  1  0
 27 29  4  0
M  END
$$$$

 Created by Python create_sdf_string function

 29 32  0  0  0  0  0  0  0  0999 V2000
    5.4450    8.7154   22.6662 C   0  0  0  0  0  0  0  0  0  0  0  0
   10.9154    5.4574   20.5483 C   0  0  0  0  0  0  0  0  0  0  0  0
    7.2709    4.5089   22.7542 C   0  0  0  0  0  0  0  0  0  0  0  0
    5.9698    7.6329   24.6581 C   0  0  0  0  0  0  0  0  0  0  0  0
    4.5542    8.9057   21.7104 O   0  0  0  0  0  0  0  0  0  0  0  0
    6.9895    3.2085   23.0690 C   0  0  0  0  0  0  0  0  0  0  0  0
    7.8391    2.2253   22.7260 N   0  0  0  0  0  0  0  0  0  0  0  0
    8.6968    9.8373   23.6359 C   0  0  0  0  0  0  0  0  0  0  0  0
   12.5135    6.5957   21.8396 C   0  0  0  0  0  0  0  0  0  0  0  0
   10.9406    8.2330   21.1350 C   0  0  0  0  0  0  0  0  0  0  0  0
    9.6648    8.5956   21.7310 C   0  0  0  0  0  0  0  0  0  0  0  0
   10.8829    1.7153   20.9865 C   0  0  0  0  0  0  0  0  0  0  0  0
    5.7768    2.8533   23.7910 C   0  0  0  0  0  0  0  0  0  0  0  0
    9.7977    1.4791   21.6912 N   0  0  0  0  0  0  0  0  0  0  0  0
    6.5976    9.3401   22.6478 N   0  0  0  0  0  0  0  0  0  0  0  0
   11.2031    3.0042   20.6246 C   0  0  0  0  0  0  0  0  0  0  0  0
   12.8688    7.7370   22.7287 C   0  0  0  0  0  0  0  0  0  0  0  0
    7.4487    9.1361   23.6506 C   0  0  0  0  0  0  0  0  0  0  0  0
    8.9772    2.5025   22.0273 C   0  0  0  0  0  0  0  0  0  0  0  0
   10.4859    4.0901   20.9730 C   0  0  0  0  0  0  0  0  0  0  0  0
   11.0962    9.3293   23.5072 C   0  0  0  0  0  0  0  0  0  0  0  0
    5.1273    7.8529   23.6208 N   0  0  0  0  0  0  0  0  0  0  0  0
    9.7552    9.2338   23.0171 N   0  0  0  0  0  0  0  0  0  0  0  0
   11.1797    6.7591   21.3326 N   0  0  0  0  0  0  0  0  0  0  0  0
   11.7728    8.0337   23.7267 C   0  0  0  0  0  0  0  0  0  0  0  0
    7.1194    8.3344   24.6775 C   0  0  0  0  0  0  0  0  0  0  0  0
    8.4311    4.7963   22.0500 C   0  0  0  0  0  0  0  0  0  0  0  0
    8.7393   10.8706   24.1871 O   0  0  0  0  0  0  0  0  0  0  0  0
    9.3093    3.8166   21.6712 C   0  0  0  0  0  0  0  0  0  0  0  0
  1  5  1  0
  1 15  4  0
  1 22  4  0
  2 20  1  0
  2 24  1  0
  3  6  4  0
  3 27  4  0
  4 22  4  0
  4 26  4  0
  6  7  4  0
  6 13  1  0
  7 19  4  0
  8 18  1  0
  8 23  1  0
  8 28  2  0
  9 17  1  0
  9 24  1  0
 10 11  1  0
 10 24  1  0
 11 23  1  0
 12 14  4  0
 12 16  4  0
 14 19  4  0
 15 18  4  0
 16 20  4  0
 17 25  1  0
 18 26  4  0
 19 29  4  0
 20 29  4  0
 21 23  1  0
 21 25  1  0
 27 29  4  0
M  END
$$$$

 Created by Python create_sdf_string function

 29 32  0  0  0  0  0  0  0  0999 V2000
    5.4450    8.7154   22.6662 C   0  0  0  0  0  0  0  0  0  0  0  0
   10.9154    5.4574   20.5483 C   0  0  0  0  0  0  0  0  0  0  0  0
    7.2709    4.5089   22.7542 C   0  0  0  0  0  0  0  0  0  0  0  0
    5.9698    7.6329   24.6581 C   0  0  0  0  0  0  0  0  0  0  0  0
    4.5542    8.9057   21.7104 O   0  0  0  0  0  0  0  0  0  0  0  0
    6.9895    3.2085   23.0690 C   0  0  0  0  0  0  0  0  0  0  0  0
    7.8391    2.2253   22.7260 N   0  0  0  0  0  0  0  0  0  0  0  0
    8.6968    9.8373   23.6359 C   0  0  0  0  0  0  0  0  0  0  0  0
   12.5135    6.5957   21.8396 C   0  0  0  0  0  0  0  0  0  0  0  0
   10.9406    8.2330   21.1350 C   0  0  0  0  0  0  0  0  0  0  0  0
    9.6648    8.5956   21.7310 C   0  0  0  0  0  0  0  0  0  0  0  0
   10.8829    1.7153   20.9865 C   0  0  0  0  0  0  0  0  0  0  0  0
    5.7768    2.8533   23.7910 C   0  0  0  0  0  0  0  0  0  0  0  0
    9.7977    1.4791   21.6912 N   0  0  0  0  0  0  0  0  0  0  0  0
    6.5976    9.3401   22.6478 N   0  0  0  0  0  0  0  0  0  0  0  0
   11.2031    3.0042   20.6246 C   0  0  0  0  0  0  0  0  0  0  0  0
   12.8688    7.7370   22.7287 C   0  0  0  0  0  0  0  0  0  0  0  0
    7.4487    9.1361   23.6506 C   0  0  0  0  0  0  0  0  0  0  0  0
    8.9772    2.5025   22.0273 C   0  0  0  0  0  0  0  0  0  0  0  0
   10.4859    4.0901   20.9730 C   0  0  0  0  0  0  0  0  0  0  0  0
   11.0962    9.3293   23.5072 C   0  0  0  0  0  0  0  0  0  0  0  0
    5.1273    7.8529   23.6208 N   0  0  0  0  0  0  0  0  0  0  0  0
    9.7552    9.2338   23.0171 N   0  0  0  0  0  0  0  0  0  0  0  0
   11.1797    6.7591   21.3326 N   0  0  0  0  0  0  0  0  0  0  0  0
   11.7728    8.0337   23.7267 C   0  0  0  0  0  0  0  0  0  0  0  0
    7.1194    8.3344   24.6775 C   0  0  0  0  0  0  0  0  0  0  0  0
    8.4311    4.7963   22.0500 C   0  0  0  0  0  0  0  0  0  0  0  0
    8.7393   10.8706   24.1871 O   0  0  0  0  0  0  0  0  0  0  0  0
    9.3093    3.8166   21.6712 C   0  0  0  0  0  0  0  0  0  0  0  0
  1  5  1  0
  1 15  4  0
  1 22  4  0
  2 20  1  0
  2 24  1  0
  3  6  4  0
  3 27  4  0
  4 22  4  0
  4 26  4  0
  6  7  4  0
  6 13  1  0
  7 19  4  0
  8 18  1  0
  8 23  1  0
  8 28  2  0
  9 17  1  0
  9 24  1  0
 10 11  1  0
 10 24  1  0
 11 23  1  0
 12 14  4  0
 12 16  4  0
 14 19  4  0
 15 18  4  0
 16 20  4  0
 17 25  1  0
 18 26  4  0
 19 29  4  0
 20 29  4  0
 21 23  1  0
 21 25  1  0
 27 29  4  0
M  END
$$$$

 Created by Python create_sdf_string function

 29 32  0  0  0  0  0  0  0  0999 V2000
    5.4450    8.7154   22.6662 C   0  0  0  0  0  0  0  0  0  0  0  0
   10.9154    5.4574   20.5483 C   0  0  0  0  0  0  0  0  0  0  0  0
    7.2709    4.5089   22.7542 C   0  0  0  0  0  0  0  0  0  0  0  0
    5.9698    7.6329   24.6581 C   0  0  0  0  0  0  0  0  0  0  0  0
    4.5542    8.9057   21.7104 O   0  0  0  0  0  0  0  0  0  0  0  0
    6.9895    3.2085   23.0690 C   0  0  0  0  0  0  0  0  0  0  0  0
    7.8391    2.2253   22.7260 N   0  0  0  0  0  0  0  0  0  0  0  0
    8.6968    9.8373   23.6359 C   0  0  0  0  0  0  0  0  0  0  0  0
   12.5135    6.5957   21.8396 C   0  0  0  0  0  0  0  0  0  0  0  0
   10.9406    8.2330   21.1350 C   0  0  0  0  0  0  0  0  0  0  0  0
    9.6648    8.5956   21.7310 C   0  0  0  0  0  0  0  0  0  0  0  0
   10.8829    1.7153   20.9865 C   0  0  0  0  0  0  0  0  0  0  0  0
    5.7768    2.8533   23.7910 C   0  0  0  0  0  0  0  0  0  0  0  0
    9.7977    1.4791   21.6912 N   0  0  0  0  0  0  0  0  0  0  0  0
    6.5976    9.3401   22.6478 N   0  0  0  0  0  0  0  0  0  0  0  0
   11.2031    3.0042   20.6246 C   0  0  0  0  0  0  0  0  0  0  0  0
   12.8688    7.7370   22.7287 C   0  0  0  0  0  0  0  0  0  0  0  0
    7.4487    9.1361   23.6506 C   0  0  0  0  0  0  0  0  0  0  0  0
    8.9772    2.5025   22.0273 C   0  0  0  0  0  0  0  0  0  0  0  0
   10.4859    4.0901   20.9730 C   0  0  0  0  0  0  0  0  0  0  0  0
   11.0962    9.3293   23.5072 C   0  0  0  0  0  0  0  0  0  0  0  0
    5.1273    7.8529   23.6208 N   0  0  0  0  0  0  0  0  0  0  0  0
    9.7552    9.2338   23.0171 N   0  0  0  0  0  0  0  0  0  0  0  0
   11.1797    6.7591   21.3326 N   0  0  0  0  0  0  0  0  0  0  0  0
   11.7728    8.0337   23.7267 C   0  0  0  0  0  0  0  0  0  0  0  0
    7.1194    8.3344   24.6775 C   0  0  0  0  0  0  0  0  0  0  0  0
    8.4311    4.7963   22.0500 C   0  0  0  0  0  0  0  0  0  0  0  0
    8.7393   10.8706   24.1871 O   0  0  0  0  0  0  0  0  0  0  0  0
    9.3093    3.8166   21.6712 C   0  0  0  0  0  0  0  0  0  0  0  0
  1  5  1  0
  1 15  4  0
  1 22  4  0
  2 20  1  0
  2 24  1  0
  3  6  4  0
  3 27  4  0
  4 22  4  0
  4 26  4  0
  6  7  4  0
  6 13  1  0
  7 19  4  0
  8 18  1  0
  8 23  1  0
  8 28  2  0
  9 17  1  0
  9 24  1  0
 10 11  1  0
 10 24  1  0
 11 23  1  0
 12 14  4  0
 12 16  4  0
 14 19  4  0
 15 18  4  0
 16 20  4  0
 17 25  1  0
 18 26  4  0
 19 29  4  0
 20 29  4  0
 21 23  1  0
 21 25  1  0
 27 29  4  0
M  END
$$$$

 Created by Python create_sdf_string function

 29 32  0  0  0  0  0  0  0  0999 V2000
    5.4450    8.7154   22.6662 C   0  0  0  0  0  0  0  0  0  0  0  0
   10.9154    5.4574   20.5483 C   0  0  0  0  0  0  0  0  0  0  0  0
    7.2709    4.5089   22.7542 C   0  0  0  0  0  0  0  0  0  0  0  0
    5.9698    7.6329   24.6581 C   0  0  0  0  0  0  0  0  0  0  0  0
    4.5542    8.9057   21.7104 O   0  0  0  0  0  0  0  0  0  0  0  0
    6.9895    3.2085   23.0690 C   0  0  0  0  0  0  0  0  0  0  0  0
    7.8391    2.2253   22.7260 N   0  0  0  0  0  0  0  0  0  0  0  0
    8.6968    9.8373   23.6359 C   0  0  0  0  0  0  0  0  0  0  0  0
   12.5135    6.5957   21.8396 C   0  0  0  0  0  0  0  0  0  0  0  0
   10.9406    8.2330   21.1350 C   0  0  0  0  0  0  0  0  0  0  0  0
    9.6648    8.5956   21.7310 C   0  0  0  0  0  0  0  0  0  0  0  0
   10.8829    1.7153   20.9865 C   0  0  0  0  0  0  0  0  0  0  0  0
    5.7768    2.8533   23.7910 C   0  0  0  0  0  0  0  0  0  0  0  0
    9.7977    1.4791   21.6912 N   0  0  0  0  0  0  0  0  0  0  0  0
    6.5976    9.3401   22.6478 N   0  0  0  0  0  0  0  0  0  0  0  0
   11.2031    3.0042   20.6246 C   0  0  0  0  0  0  0  0  0  0  0  0
   12.8688    7.7370   22.7287 C   0  0  0  0  0  0  0  0  0  0  0  0
    7.4487    9.1361   23.6506 C   0  0  0  0  0  0  0  0  0  0  0  0
    8.9772    2.5025   22.0273 C   0  0  0  0  0  0  0  0  0  0  0  0
   10.4859    4.0901   20.9730 C   0  0  0  0  0  0  0  0  0  0  0  0
   11.0962    9.3293   23.5072 C   0  0  0  0  0  0  0  0  0  0  0  0
    5.1273    7.8529   23.6208 N   0  0  0  0  0  0  0  0  0  0  0  0
    9.7552    9.2338   23.0171 N   0  0  0  0  0  0  0  0  0  0  0  0
   11.1797    6.7591   21.3326 N   0  0  0  0  0  0  0  0  0  0  0  0
   11.7728    8.0337   23.7267 C   0  0  0  0  0  0  0  0  0  0  0  0
    7.1194    8.3344   24.6775 C   0  0  0  0  0  0  0  0  0  0  0  0
    8.4311    4.7963   22.0500 C   0  0  0  0  0  0  0  0  0  0  0  0
    8.7393   10.8706   24.1871 O   0  0  0  0  0  0  0  0  0  0  0  0
    9.3093    3.8166   21.6712 C   0  0  0  0  0  0  0  0  0  0  0  0
  1  5  1  0
  1 15  4  0
  1 22  4  0
  2 20  1  0
  2 24  1  0
  3  6  4  0
  3 27  4  0
  4 22  4  0
  4 26  4  0
  6  7  4  0
  6 13  1  0
  7 19  4  0
  8 18  1  0
  8 23  1  0
  8 28  2  0
  9 17  1  0
  9 24  1  0
 10 11  1  0
 10 24  1  0
 11 23  1  0
 12 14  4  0
 12 16  4  0
 14 19  4  0
 15 18  4  0
 16 20  4  0
 17 25  1  0
 18 26  4  0
 19 29  4  0
 20 29  4  0
 21 23  1  0
 21 25  1  0
 27 29  4  0
M  END
$$$$

 Created by Python create_sdf_string function

 29 32  0  0  0  0  0  0  0  0999 V2000
    5.4450    8.7154   22.6662 C   0  0  0  0  0  0  0  0  0  0  0  0
   10.9154    5.4574   20.5483 C   0  0  0  0  0  0  0  0  0  0  0  0
    7.2709    4.5089   22.7542 C   0  0  0  0  0  0  0  0  0  0  0  0
    5.9698    7.6329   24.6581 C   0  0  0  0  0  0  0  0  0  0  0  0
    4.5542    8.9057   21.7104 O   0  0  0  0  0  0  0  0  0  0  0  0
    6.9895    3.2085   23.0690 C   0  0  0  0  0  0  0  0  0  0  0  0
    7.8391    2.2253   22.7260 N   0  0  0  0  0  0  0  0  0  0  0  0
    8.6968    9.8373   23.6359 C   0  0  0  0  0  0  0  0  0  0  0  0
   12.5135    6.5957   21.8396 C   0  0  0  0  0  0  0  0  0  0  0  0
   10.9406    8.2330   21.1350 C   0  0  0  0  0  0  0  0  0  0  0  0
    9.6648    8.5956   21.7310 C   0  0  0  0  0  0  0  0  0  0  0  0
   10.8829    1.7153   20.9865 C   0  0  0  0  0  0  0  0  0  0  0  0
    5.7768    2.8533   23.7910 C   0  0  0  0  0  0  0  0  0  0  0  0
    9.7977    1.4791   21.6912 N   0  0  0  0  0  0  0  0  0  0  0  0
    6.5976    9.3401   22.6478 N   0  0  0  0  0  0  0  0  0  0  0  0
   11.2031    3.0042   20.6246 C   0  0  0  0  0  0  0  0  0  0  0  0
   12.8688    7.7370   22.7287 C   0  0  0  0  0  0  0  0  0  0  0  0
    7.4487    9.1361   23.6506 C   0  0  0  0  0  0  0  0  0  0  0  0
    8.9772    2.5025   22.0273 C   0  0  0  0  0  0  0  0  0  0  0  0
   10.4859    4.0901   20.9730 C   0  0  0  0  0  0  0  0  0  0  0  0
   11.0962    9.3293   23.5072 C   0  0  0  0  0  0  0  0  0  0  0  0
    5.1273    7.8529   23.6208 N   0  0  0  0  0  0  0  0  0  0  0  0
    9.7552    9.2338   23.0171 N   0  0  0  0  0  0  0  0  0  0  0  0
   11.1797    6.7591   21.3326 N   0  0  0  0  0  0  0  0  0  0  0  0
   11.7728    8.0337   23.7267 C   0  0  0  0  0  0  0  0  0  0  0  0
    7.1194    8.3344   24.6775 C   0  0  0  0  0  0  0  0  0  0  0  0
    8.4311    4.7963   22.0500 C   0  0  0  0  0  0  0  0  0  0  0  0
    8.7393   10.8706   24.1871 O   0  0  0  0  0  0  0  0  0  0  0  0
    9.3093    3.8166   21.6712 C   0  0  0  0  0  0  0  0  0  0  0  0
  1  5  1  0
  1 15  4  0
  1 22  4  0
  2 20  1  0
  2 24  1  0
  3  6  4  0
  3 27  4  0
  4 22  4  0
  4 26  4  0
  6  7  4  0
  6 13  1  0
  7 19  4  0
  8 18  1  0
  8 23  1  0
  8 28  2  0
  9 17  1  0
  9 24  1  0
 10 11  1  0
 10 24  1  0
 11 23  1  0
 12 14  4  0
 12 16  4  0
 14 19  4  0
 15 18  4  0
 16 20  4  0
 17 25  1  0
 18 26  4  0
 19 29  4  0
 20 29  4  0
 21 23  1  0
 21 25  1  0
 27 29  4  0
M  END
$$$$

 Created by Python create_sdf_string function

 29 32  0  0  0  0  0  0  0  0999 V2000
    5.4450    8.7154   22.6662 C   0  0  0  0  0  0  0  0  0  0  0  0
   10.9154    5.4574   20.5483 C   0  0  0  0  0  0  0  0  0  0  0  0
    7.2709    4.5089   22.7542 C   0  0  0  0  0  0  0  0  0  0  0  0
    5.9698    7.6329   24.6581 C   0  0  0  0  0  0  0  0  0  0  0  0
    4.5542    8.9057   21.7104 O   0  0  0  0  0  0  0  0  0  0  0  0
    6.9895    3.2085   23.0690 C   0  0  0  0  0  0  0  0  0  0  0  0
    7.8391    2.2253   22.7260 N   0  0  0  0  0  0  0  0  0  0  0  0
    8.6968    9.8373   23.6359 C   0  0  0  0  0  0  0  0  0  0  0  0
   12.5135    6.5957   21.8396 C   0  0  0  0  0  0  0  0  0  0  0  0
   10.9406    8.2330   21.1350 C   0  0  0  0  0  0  0  0  0  0  0  0
    9.6648    8.5956   21.7310 C   0  0  0  0  0  0  0  0  0  0  0  0
   10.8829    1.7153   20.9865 C   0  0  0  0  0  0  0  0  0  0  0  0
    5.7768    2.8533   23.7910 C   0  0  0  0  0  0  0  0  0  0  0  0
    9.7977    1.4791   21.6912 N   0  0  0  0  0  0  0  0  0  0  0  0
    6.5976    9.3401   22.6478 N   0  0  0  0  0  0  0  0  0  0  0  0
   11.2031    3.0042   20.6246 C   0  0  0  0  0  0  0  0  0  0  0  0
   12.8688    7.7370   22.7287 C   0  0  0  0  0  0  0  0  0  0  0  0
    7.4487    9.1361   23.6506 C   0  0  0  0  0  0  0  0  0  0  0  0
    8.9772    2.5025   22.0273 C   0  0  0  0  0  0  0  0  0  0  0  0
   10.4859    4.0901   20.9730 C   0  0  0  0  0  0  0  0  0  0  0  0
   11.0962    9.3293   23.5072 C   0  0  0  0  0  0  0  0  0  0  0  0
    5.1273    7.8529   23.6208 N   0  0  0  0  0  0  0  0  0  0  0  0
    9.7552    9.2338   23.0171 N   0  0  0  0  0  0  0  0  0  0  0  0
   11.1797    6.7591   21.3326 N   0  0  0  0  0  0  0  0  0  0  0  0
   11.7728    8.0337   23.7267 C   0  0  0  0  0  0  0  0  0  0  0  0
    7.1194    8.3344   24.6775 C   0  0  0  0  0  0  0  0  0  0  0  0
    8.4311    4.7963   22.0500 C   0  0  0  0  0  0  0  0  0  0  0  0
    8.7393   10.8706   24.1871 O   0  0  0  0  0  0  0  0  0  0  0  0
    9.3093    3.8166   21.6712 C   0  0  0  0  0  0  0  0  0  0  0  0
  1  5  1  0
  1 15  4  0
  1 22  4  0
  2 20  1  0
  2 24  1  0
  3  6  4  0
  3 27  4  0
  4 22  4  0
  4 26  4  0
  6  7  4  0
  6 13  1  0
  7 19  4  0
  8 18  1  0
  8 23  1  0
  8 28  2  0
  9 17  1  0
  9 24  1  0
 10 11  1  0
 10 24  1  0
 11 23  1  0
 12 14  4  0
 12 16  4  0
 14 19  4  0
 15 18  4  0
 16 20  4  0
 17 25  1  0
 18 26  4  0
 19 29  4  0
 20 29  4  0
 21 23  1  0
 21 25  1  0
 27 29  4  0
M  END
$$$$

 Created by Python create_sdf_string function

 29 32  0  0  0  0  0  0  0  0999 V2000
    5.4450    8.7154   22.6662 C   0  0  0  0  0  0  0  0  0  0  0  0
   10.9154    5.4574   20.5483 C   0  0  0  0  0  0  0  0  0  0  0  0
    7.2709    4.5089   22.7542 C   0  0  0  0  0  0  0  0  0  0  0  0
    5.9698    7.6329   24.6581 C   0  0  0  0  0  0  0  0  0  0  0  0
    4.5542    8.9057   21.7104 O   0  0  0  0  0  0  0  0  0  0  0  0
    6.9895    3.2085   23.0690 C   0  0  0  0  0  0  0  0  0  0  0  0
    7.8391    2.2253   22.7260 N   0  0  0  0  0  0  0  0  0  0  0  0
    8.6968    9.8373   23.6359 C   0  0  0  0  0  0  0  0  0  0  0  0
   12.5135    6.5957   21.8396 C   0  0  0  0  0  0  0  0  0  0  0  0
   10.9406    8.2330   21.1350 C   0  0  0  0  0  0  0  0  0  0  0  0
    9.6648    8.5956   21.7310 C   0  0  0  0  0  0  0  0  0  0  0  0
   10.8829    1.7153   20.9865 C   0  0  0  0  0  0  0  0  0  0  0  0
    5.7768    2.8533   23.7910 C   0  0  0  0  0  0  0  0  0  0  0  0
    9.7977    1.4791   21.6912 N   0  0  0  0  0  0  0  0  0  0  0  0
    6.5976    9.3401   22.6478 N   0  0  0  0  0  0  0  0  0  0  0  0
   11.2031    3.0042   20.6246 C   0  0  0  0  0  0  0  0  0  0  0  0
   12.8688    7.7370   22.7287 C   0  0  0  0  0  0  0  0  0  0  0  0
    7.4487    9.1361   23.6506 C   0  0  0  0  0  0  0  0  0  0  0  0
    8.9772    2.5025   22.0273 C   0  0  0  0  0  0  0  0  0  0  0  0
   10.4859    4.0901   20.9730 C   0  0  0  0  0  0  0  0  0  0  0  0
   11.0962    9.3293   23.5072 C   0  0  0  0  0  0  0  0  0  0  0  0
    5.1273    7.8529   23.6208 N   0  0  0  0  0  0  0  0  0  0  0  0
    9.7552    9.2338   23.0171 N   0  0  0  0  0  0  0  0  0  0  0  0
   11.1797    6.7591   21.3326 N   0  0  0  0  0  0  0  0  0  0  0  0
   11.7728    8.0337   23.7267 C   0  0  0  0  0  0  0  0  0  0  0  0
    7.1194    8.3344   24.6775 C   0  0  0  0  0  0  0  0  0  0  0  0
    8.4311    4.7963   22.0500 C   0  0  0  0  0  0  0  0  0  0  0  0
    8.7393   10.8706   24.1871 O   0  0  0  0  0  0  0  0  0  0  0  0
    9.3093    3.8166   21.6712 C   0  0  0  0  0  0  0  0  0  0  0  0
  1  5  1  0
  1 15  4  0
  1 22  4  0
  2 20  1  0
  2 24  1  0
  3  6  4  0
  3 27  4  0
  4 22  4  0
  4 26  4  0
  6  7  4  0
  6 13  1  0
  7 19  4  0
  8 18  1  0
  8 23  1  0
  8 28  2  0
  9 17  1  0
  9 24  1  0
 10 11  1  0
 10 24  1  0
 11 23  1  0
 12 14  4  0
 12 16  4  0
 14 19  4  0
 15 18  4  0
 16 20  4  0
 17 25  1  0
 18 26  4  0
 19 29  4  0
 20 29  4  0
 21 23  1  0
 21 25  1  0
 27 29  4  0
M  END
$$$$

 Created by Python create_sdf_string function

 29 32  0  0  0  0  0  0  0  0999 V2000
    5.4450    8.7154   22.6662 C   0  0  0  0  0  0  0  0  0  0  0  0
   10.9154    5.4574   20.5483 C   0  0  0  0  0  0  0  0  0  0  0  0
    7.2709    4.5089   22.7542 C   0  0  0  0  0  0  0  0  0  0  0  0
    5.9698    7.6329   24.6581 C   0  0  0  0  0  0  0  0  0  0  0  0
    4.5542    8.9057   21.7104 O   0  0  0  0  0  0  0  0  0  0  0  0
    6.9895    3.2085   23.0690 C   0  0  0  0  0  0  0  0  0  0  0  0
    7.8391    2.2253   22.7260 N   0  0  0  0  0  0  0  0  0  0  0  0
    8.6968    9.8373   23.6359 C   0  0  0  0  0  0  0  0  0  0  0  0
   12.5135    6.5957   21.8396 C   0  0  0  0  0  0  0  0  0  0  0  0
   10.9406    8.2330   21.1350 C   0  0  0  0  0  0  0  0  0  0  0  0
    9.6648    8.5956   21.7310 C   0  0  0  0  0  0  0  0  0  0  0  0
   10.8829    1.7153   20.9865 C   0  0  0  0  0  0  0  0  0  0  0  0
    5.7768    2.8533   23.7910 C   0  0  0  0  0  0  0  0  0  0  0  0
    9.7977    1.4791   21.6912 N   0  0  0  0  0  0  0  0  0  0  0  0
    6.5976    9.3401   22.6478 N   0  0  0  0  0  0  0  0  0  0  0  0
   11.2031    3.0042   20.6246 C   0  0  0  0  0  0  0  0  0  0  0  0
   12.8688    7.7370   22.7287 C   0  0  0  0  0  0  0  0  0  0  0  0
    7.4487    9.1361   23.6506 C   0  0  0  0  0  0  0  0  0  0  0  0
    8.9772    2.5025   22.0273 C   0  0  0  0  0  0  0  0  0  0  0  0
   10.4859    4.0901   20.9730 C   0  0  0  0  0  0  0  0  0  0  0  0
   11.0962    9.3293   23.5072 C   0  0  0  0  0  0  0  0  0  0  0  0
    5.1273    7.8529   23.6208 N   0  0  0  0  0  0  0  0  0  0  0  0
    9.7552    9.2338   23.0171 N   0  0  0  0  0  0  0  0  0  0  0  0
   11.1797    6.7591   21.3326 N   0  0  0  0  0  0  0  0  0  0  0  0
   11.7728    8.0337   23.7267 C   0  0  0  0  0  0  0  0  0  0  0  0
    7.1194    8.3344   24.6775 C   0  0  0  0  0  0  0  0  0  0  0  0
    8.4311    4.7963   22.0500 C   0  0  0  0  0  0  0  0  0  0  0  0
    8.7393   10.8706   24.1871 O   0  0  0  0  0  0  0  0  0  0  0  0
    9.3093    3.8166   21.6712 C   0  0  0  0  0  0  0  0  0  0  0  0
  1  5  1  0
  1 15  4  0
  1 22  4  0
  2 20  1  0
  2 24  1  0
  3  6  4  0
  3 27  4  0
  4 22  4  0
  4 26  4  0
  6  7  4  0
  6 13  1  0
  7 19  4  0
  8 18  1  0
  8 23  1  0
  8 28  2  0
  9 17  1  0
  9 24  1  0
 10 11  1  0
 10 24  1  0
 11 23  1  0
 12 14  4  0
 12 16  4  0
 14 19  4  0
 15 18  4  0
 16 20  4  0
 17 25  1  0
 18 26  4  0
 19 29  4  0
 20 29  4  0
 21 23  1  0
 21 25  1  0
 27 29  4  0
M  END
$$$$

 Created by Python create_sdf_string function

 29 32  0  0  0  0  0  0  0  0999 V2000
    5.4450    8.7154   22.6662 C   0  0  0  0  0  0  0  0  0  0  0  0
   10.9154    5.4574   20.5483 C   0  0  0  0  0  0  0  0  0  0  0  0
    7.2709    4.5089   22.7542 C   0  0  0  0  0  0  0  0  0  0  0  0
    5.9698    7.6329   24.6581 C   0  0  0  0  0  0  0  0  0  0  0  0
    4.5542    8.9057   21.7104 O   0  0  0  0  0  0  0  0  0  0  0  0
    6.9895    3.2085   23.0690 C   0  0  0  0  0  0  0  0  0  0  0  0
    7.8391    2.2253   22.7260 N   0  0  0  0  0  0  0  0  0  0  0  0
    8.6968    9.8373   23.6359 C   0  0  0  0  0  0  0  0  0  0  0  0
   12.5135    6.5957   21.8396 C   0  0  0  0  0  0  0  0  0  0  0  0
   10.9406    8.2330   21.1350 C   0  0  0  0  0  0  0  0  0  0  0  0
    9.6648    8.5956   21.7310 C   0  0  0  0  0  0  0  0  0  0  0  0
   10.8829    1.7153   20.9865 C   0  0  0  0  0  0  0  0  0  0  0  0
    5.7768    2.8533   23.7910 C   0  0  0  0  0  0  0  0  0  0  0  0
    9.7977    1.4791   21.6912 N   0  0  0  0  0  0  0  0  0  0  0  0
    6.5976    9.3401   22.6478 N   0  0  0  0  0  0  0  0  0  0  0  0
   11.2031    3.0042   20.6246 C   0  0  0  0  0  0  0  0  0  0  0  0
   12.8688    7.7370   22.7287 C   0  0  0  0  0  0  0  0  0  0  0  0
    7.4487    9.1361   23.6506 C   0  0  0  0  0  0  0  0  0  0  0  0
    8.9772    2.5025   22.0273 C   0  0  0  0  0  0  0  0  0  0  0  0
   10.4859    4.0901   20.9730 C   0  0  0  0  0  0  0  0  0  0  0  0
   11.0962    9.3293   23.5072 C   0  0  0  0  0  0  0  0  0  0  0  0
    5.1273    7.8529   23.6208 N   0  0  0  0  0  0  0  0  0  0  0  0
    9.7552    9.2338   23.0171 N   0  0  0  0  0  0  0  0  0  0  0  0
   11.1797    6.7591   21.3326 N   0  0  0  0  0  0  0  0  0  0  0  0
   11.7728    8.0337   23.7267 C   0  0  0  0  0  0  0  0  0  0  0  0
    7.1194    8.3344   24.6775 C   0  0  0  0  0  0  0  0  0  0  0  0
    8.4311    4.7963   22.0500 C   0  0  0  0  0  0  0  0  0  0  0  0
    8.7393   10.8706   24.1871 O   0  0  0  0  0  0  0  0  0  0  0  0
    9.3093    3.8166   21.6712 C   0  0  0  0  0  0  0  0  0  0  0  0
  1  5  1  0
  1 15  4  0
  1 22  4  0
  2 20  1  0
  2 24  1  0
  3  6  4  0
  3 27  4  0
  4 22  4  0
  4 26  4  0
  6  7  4  0
  6 13  1  0
  7 19  4  0
  8 18  1  0
  8 23  1  0
  8 28  2  0
  9 17  1  0
  9 24  1  0
 10 11  1  0
 10 24  1  0
 11 23  1  0
 12 14  4  0
 12 16  4  0
 14 19  4  0
 15 18  4  0
 16 20  4  0
 17 25  1  0
 18 26  4  0
 19 29  4  0
 20 29  4  0
 21 23  1  0
 21 25  1  0
 27 29  4  0
M  END
$$$$

 Created by Python create_sdf_string function

 29 32  0  0  0  0  0  0  0  0999 V2000
    5.4450    8.7154   22.6662 C   0  0  0  0  0  0  0  0  0  0  0  0
   10.9154    5.4574   20.5483 C   0  0  0  0  0  0  0  0  0  0  0  0
    7.2709    4.5089   22.7542 C   0  0  0  0  0  0  0  0  0  0  0  0
    5.9698    7.6329   24.6581 C   0  0  0  0  0  0  0  0  0  0  0  0
    4.5542    8.9057   21.7104 O   0  0  0  0  0  0  0  0  0  0  0  0
    6.9895    3.2085   23.0690 C   0  0  0  0  0  0  0  0  0  0  0  0
    7.8391    2.2253   22.7260 N   0  0  0  0  0  0  0  0  0  0  0  0
    8.6968    9.8373   23.6359 C   0  0  0  0  0  0  0  0  0  0  0  0
   12.5135    6.5957   21.8396 C   0  0  0  0  0  0  0  0  0  0  0  0
   10.9406    8.2330   21.1350 C   0  0  0  0  0  0  0  0  0  0  0  0
    9.6648    8.5956   21.7310 C   0  0  0  0  0  0  0  0  0  0  0  0
   10.8829    1.7153   20.9865 C   0  0  0  0  0  0  0  0  0  0  0  0
    5.7768    2.8533   23.7910 C   0  0  0  0  0  0  0  0  0  0  0  0
    9.7977    1.4791   21.6912 N   0  0  0  0  0  0  0  0  0  0  0  0
    6.5976    9.3401   22.6478 N   0  0  0  0  0  0  0  0  0  0  0  0
   11.2031    3.0042   20.6246 C   0  0  0  0  0  0  0  0  0  0  0  0
   12.8688    7.7370   22.7287 C   0  0  0  0  0  0  0  0  0  0  0  0
    7.4487    9.1361   23.6506 C   0  0  0  0  0  0  0  0  0  0  0  0
    8.9772    2.5025   22.0273 C   0  0  0  0  0  0  0  0  0  0  0  0
   10.4859    4.0901   20.9730 C   0  0  0  0  0  0  0  0  0  0  0  0
   11.0962    9.3293   23.5072 C   0  0  0  0  0  0  0  0  0  0  0  0
    5.1273    7.8529   23.6208 N   0  0  0  0  0  0  0  0  0  0  0  0
    9.7552    9.2338   23.0171 N   0  0  0  0  0  0  0  0  0  0  0  0
   11.1797    6.7591   21.3326 N   0  0  0  0  0  0  0  0  0  0  0  0
   11.7728    8.0337   23.7267 C   0  0  0  0  0  0  0  0  0  0  0  0
    7.1194    8.3344   24.6775 C   0  0  0  0  0  0  0  0  0  0  0  0
    8.4311    4.7963   22.0500 C   0  0  0  0  0  0  0  0  0  0  0  0
    8.7393   10.8706   24.1871 O   0  0  0  0  0  0  0  0  0  0  0  0
    9.3093    3.8166   21.6712 C   0  0  0  0  0  0  0  0  0  0  0  0
  1  5  1  0
  1 15  4  0
  1 22  4  0
  2 20  1  0
  2 24  1  0
  3  6  4  0
  3 27  4  0
  4 22  4  0
  4 26  4  0
  6  7  4  0
  6 13  1  0
  7 19  4  0
  8 18  1  0
  8 23  1  0
  8 28  2  0
  9 17  1  0
  9 24  1  0
 10 11  1  0
 10 24  1  0
 11 23  1  0
 12 14  4  0
 12 16  4  0
 14 19  4  0
 15 18  4  0
 16 20  4  0
 17 25  1  0
 18 26  4  0
 19 29  4  0
 20 29  4  0
 21 23  1  0
 21 25  1  0
 27 29  4  0
M  END
$$$$

 Created by Python create_sdf_string function

 29 32  0  0  0  0  0  0  0  0999 V2000
    5.4450    8.7154   22.6662 C   0  0  0  0  0  0  0  0  0  0  0  0
   10.9154    5.4574   20.5483 C   0  0  0  0  0  0  0  0  0  0  0  0
    7.2709    4.5089   22.7542 C   0  0  0  0  0  0  0  0  0  0  0  0
    5.9698    7.6329   24.6581 C   0  0  0  0  0  0  0  0  0  0  0  0
    4.5542    8.9057   21.7104 O   0  0  0  0  0  0  0  0  0  0  0  0
    6.9895    3.2085   23.0690 C   0  0  0  0  0  0  0  0  0  0  0  0
    7.8391    2.2253   22.7260 N   0  0  0  0  0  0  0  0  0  0  0  0
    8.6968    9.8373   23.6359 C   0  0  0  0  0  0  0  0  0  0  0  0
   12.5135    6.5957   21.8396 C   0  0  0  0  0  0  0  0  0  0  0  0
   10.9406    8.2330   21.1350 C   0  0  0  0  0  0  0  0  0  0  0  0
    9.6648    8.5956   21.7310 C   0  0  0  0  0  0  0  0  0  0  0  0
   10.8829    1.7153   20.9865 C   0  0  0  0  0  0  0  0  0  0  0  0
    5.7768    2.8533   23.7910 C   0  0  0  0  0  0  0  0  0  0  0  0
    9.7977    1.4791   21.6912 N   0  0  0  0  0  0  0  0  0  0  0  0
    6.5976    9.3401   22.6478 N   0  0  0  0  0  0  0  0  0  0  0  0
   11.2031    3.0042   20.6246 C   0  0  0  0  0  0  0  0  0  0  0  0
   12.8688    7.7370   22.7287 C   0  0  0  0  0  0  0  0  0  0  0  0
    7.4487    9.1361   23.6506 C   0  0  0  0  0  0  0  0  0  0  0  0
    8.9772    2.5025   22.0273 C   0  0  0  0  0  0  0  0  0  0  0  0
   10.4859    4.0901   20.9730 C   0  0  0  0  0  0  0  0  0  0  0  0
   11.0962    9.3293   23.5072 C   0  0  0  0  0  0  0  0  0  0  0  0
    5.1273    7.8529   23.6208 N   0  0  0  0  0  0  0  0  0  0  0  0
    9.7552    9.2338   23.0171 N   0  0  0  0  0  0  0  0  0  0  0  0
   11.1797    6.7591   21.3326 N   0  0  0  0  0  0  0  0  0  0  0  0
   11.7728    8.0337   23.7267 C   0  0  0  0  0  0  0  0  0  0  0  0
    7.1194    8.3344   24.6775 C   0  0  0  0  0  0  0  0  0  0  0  0
    8.4311    4.7963   22.0500 C   0  0  0  0  0  0  0  0  0  0  0  0
    8.7393   10.8706   24.1871 O   0  0  0  0  0  0  0  0  0  0  0  0
    9.3093    3.8166   21.6712 C   0  0  0  0  0  0  0  0  0  0  0  0
  1  5  1  0
  1 15  4  0
  1 22  4  0
  2 20  1  0
  2 24  1  0
  3  6  4  0
  3 27  4  0
  4 22  4  0
  4 26  4  0
  6  7  4  0
  6 13  1  0
  7 19  4  0
  8 18  1  0
  8 23  1  0
  8 28  2  0
  9 17  1  0
  9 24  1  0
 10 11  1  0
 10 24  1  0
 11 23  1  0
 12 14  4  0
 12 16  4  0
 14 19  4  0
 15 18  4  0
 16 20  4  0
 17 25  1  0
 18 26  4  0
 19 29  4  0
 20 29  4  0
 21 23  1  0
 21 25  1  0
 27 29  4  0
M  END
$$$$

 Created by Python create_sdf_string function

 29 32  0  0  0  0  0  0  0  0999 V2000
    5.4450    8.7154   22.6662 C   0  0  0  0  0  0  0  0  0  0  0  0
   10.9154    5.4574   20.5483 C   0  0  0  0  0  0  0  0  0  0  0  0
    7.2709    4.5089   22.7542 C   0  0  0  0  0  0  0  0  0  0  0  0
    5.9698    7.6329   24.6581 C   0  0  0  0  0  0  0  0  0  0  0  0
    4.5542    8.9057   21.7104 O   0  0  0  0  0  0  0  0  0  0  0  0
    6.9895    3.2085   23.0690 C   0  0  0  0  0  0  0  0  0  0  0  0
    7.8391    2.2253   22.7260 N   0  0  0  0  0  0  0  0  0  0  0  0
    8.6968    9.8373   23.6359 C   0  0  0  0  0  0  0  0  0  0  0  0
   12.5135    6.5957   21.8396 C   0  0  0  0  0  0  0  0  0  0  0  0
   10.9406    8.2330   21.1350 C   0  0  0  0  0  0  0  0  0  0  0  0
    9.6648    8.5956   21.7310 C   0  0  0  0  0  0  0  0  0  0  0  0
   10.8829    1.7153   20.9865 C   0  0  0  0  0  0  0  0  0  0  0  0
    5.7768    2.8533   23.7910 C   0  0  0  0  0  0  0  0  0  0  0  0
    9.7977    1.4791   21.6912 N   0  0  0  0  0  0  0  0  0  0  0  0
    6.5976    9.3401   22.6478 N   0  0  0  0  0  0  0  0  0  0  0  0
   11.2031    3.0042   20.6246 C   0  0  0  0  0  0  0  0  0  0  0  0
   12.8688    7.7370   22.7287 C   0  0  0  0  0  0  0  0  0  0  0  0
    7.4487    9.1361   23.6506 C   0  0  0  0  0  0  0  0  0  0  0  0
    8.9772    2.5025   22.0273 C   0  0  0  0  0  0  0  0  0  0  0  0
   10.4859    4.0901   20.9730 C   0  0  0  0  0  0  0  0  0  0  0  0
   11.0962    9.3293   23.5072 C   0  0  0  0  0  0  0  0  0  0  0  0
    5.1273    7.8529   23.6208 N   0  0  0  0  0  0  0  0  0  0  0  0
    9.7552    9.2338   23.0171 N   0  0  0  0  0  0  0  0  0  0  0  0
   11.1797    6.7591   21.3326 N   0  0  0  0  0  0  0  0  0  0  0  0
   11.7728    8.0337   23.7267 C   0  0  0  0  0  0  0  0  0  0  0  0
    7.1194    8.3344   24.6775 C   0  0  0  0  0  0  0  0  0  0  0  0
    8.4311    4.7963   22.0500 C   0  0  0  0  0  0  0  0  0  0  0  0
    8.7393   10.8706   24.1871 O   0  0  0  0  0  0  0  0  0  0  0  0
    9.3093    3.8166   21.6712 C   0  0  0  0  0  0  0  0  0  0  0  0
  1  5  1  0
  1 15  4  0
  1 22  4  0
  2 20  1  0
  2 24  1  0
  3  6  4  0
  3 27  4  0
  4 22  4  0
  4 26  4  0
  6  7  4  0
  6 13  1  0
  7 19  4  0
  8 18  1  0
  8 23  1  0
  8 28  2  0
  9 17  1  0
  9 24  1  0
 10 11  1  0
 10 24  1  0
 11 23  1  0
 12 14  4  0
 12 16  4  0
 14 19  4  0
 15 18  4  0
 16 20  4  0
 17 25  1  0
 18 26  4  0
 19 29  4  0
 20 29  4  0
 21 23  1  0
 21 25  1  0
 27 29  4  0
M  END
$$$$

 Created by Python create_sdf_string function

 29 32  0  0  0  0  0  0  0  0999 V2000
    5.4450    8.7154   22.6662 C   0  0  0  0  0  0  0  0  0  0  0  0
   10.9154    5.4574   20.5483 C   0  0  0  0  0  0  0  0  0  0  0  0
    7.2709    4.5089   22.7542 C   0  0  0  0  0  0  0  0  0  0  0  0
    5.9698    7.6329   24.6581 C   0  0  0  0  0  0  0  0  0  0  0  0
    4.5542    8.9057   21.7104 O   0  0  0  0  0  0  0  0  0  0  0  0
    6.9895    3.2085   23.0690 C   0  0  0  0  0  0  0  0  0  0  0  0
    7.8391    2.2253   22.7260 N   0  0  0  0  0  0  0  0  0  0  0  0
    8.6968    9.8373   23.6359 C   0  0  0  0  0  0  0  0  0  0  0  0
   12.5135    6.5957   21.8396 C   0  0  0  0  0  0  0  0  0  0  0  0
   10.9406    8.2330   21.1350 C   0  0  0  0  0  0  0  0  0  0  0  0
    9.6648    8.5956   21.7310 C   0  0  0  0  0  0  0  0  0  0  0  0
   10.8829    1.7153   20.9865 C   0  0  0  0  0  0  0  0  0  0  0  0
    5.7768    2.8533   23.7910 C   0  0  0  0  0  0  0  0  0  0  0  0
    9.7977    1.4791   21.6912 N   0  0  0  0  0  0  0  0  0  0  0  0
    6.5976    9.3401   22.6478 N   0  0  0  0  0  0  0  0  0  0  0  0
   11.2031    3.0042   20.6246 C   0  0  0  0  0  0  0  0  0  0  0  0
   12.8688    7.7370   22.7287 C   0  0  0  0  0  0  0  0  0  0  0  0
    7.4487    9.1361   23.6506 C   0  0  0  0  0  0  0  0  0  0  0  0
    8.9772    2.5025   22.0273 C   0  0  0  0  0  0  0  0  0  0  0  0
   10.4859    4.0901   20.9730 C   0  0  0  0  0  0  0  0  0  0  0  0
   11.0962    9.3293   23.5072 C   0  0  0  0  0  0  0  0  0  0  0  0
    5.1273    7.8529   23.6208 N   0  0  0  0  0  0  0  0  0  0  0  0
    9.7552    9.2338   23.0171 N   0  0  0  0  0  0  0  0  0  0  0  0
   11.1797    6.7591   21.3326 N   0  0  0  0  0  0  0  0  0  0  0  0
   11.7728    8.0337   23.7267 C   0  0  0  0  0  0  0  0  0  0  0  0
    7.1194    8.3344   24.6775 C   0  0  0  0  0  0  0  0  0  0  0  0
    8.4311    4.7963   22.0500 C   0  0  0  0  0  0  0  0  0  0  0  0
    8.7393   10.8706   24.1871 O   0  0  0  0  0  0  0  0  0  0  0  0
    9.3093    3.8166   21.6712 C   0  0  0  0  0  0  0  0  0  0  0  0
  1  5  1  0
  1 15  4  0
  1 22  4  0
  2 20  1  0
  2 24  1  0
  3  6  4  0
  3 27  4  0
  4 22  4  0
  4 26  4  0
  6  7  4  0
  6 13  1  0
  7 19  4  0
  8 18  1  0
  8 23  1  0
  8 28  2  0
  9 17  1  0
  9 24  1  0
 10 11  1  0
 10 24  1  0
 11 23  1  0
 12 14  4  0
 12 16  4  0
 14 19  4  0
 15 18  4  0
 16 20  4  0
 17 25  1  0
 18 26  4  0
 19 29  4  0
 20 29  4  0
 21 23  1  0
 21 25  1  0
 27 29  4  0
M  END
$$$$

 Created by Python create_sdf_string function

 29 32  0  0  0  0  0  0  0  0999 V2000
    5.4450    8.7154   22.6662 C   0  0  0  0  0  0  0  0  0  0  0  0
   10.9154    5.4574   20.5483 C   0  0  0  0  0  0  0  0  0  0  0  0
    7.2709    4.5089   22.7542 C   0  0  0  0  0  0  0  0  0  0  0  0
    5.9698    7.6329   24.6581 C   0  0  0  0  0  0  0  0  0  0  0  0
    4.5542    8.9057   21.7104 O   0  0  0  0  0  0  0  0  0  0  0  0
    6.9895    3.2085   23.0690 C   0  0  0  0  0  0  0  0  0  0  0  0
    7.8391    2.2253   22.7260 N   0  0  0  0  0  0  0  0  0  0  0  0
    8.6968    9.8373   23.6359 C   0  0  0  0  0  0  0  0  0  0  0  0
   12.5135    6.5957   21.8396 C   0  0  0  0  0  0  0  0  0  0  0  0
   10.9406    8.2330   21.1350 C   0  0  0  0  0  0  0  0  0  0  0  0
    9.6648    8.5956   21.7310 C   0  0  0  0  0  0  0  0  0  0  0  0
   10.8829    1.7153   20.9865 C   0  0  0  0  0  0  0  0  0  0  0  0
    5.7768    2.8533   23.7910 C   0  0  0  0  0  0  0  0  0  0  0  0
    9.7977    1.4791   21.6912 N   0  0  0  0  0  0  0  0  0  0  0  0
    6.5976    9.3401   22.6478 N   0  0  0  0  0  0  0  0  0  0  0  0
   11.2031    3.0042   20.6246 C   0  0  0  0  0  0  0  0  0  0  0  0
   12.8688    7.7370   22.7287 C   0  0  0  0  0  0  0  0  0  0  0  0
    7.4487    9.1361   23.6506 C   0  0  0  0  0  0  0  0  0  0  0  0
    8.9772    2.5025   22.0273 C   0  0  0  0  0  0  0  0  0  0  0  0
   10.4859    4.0901   20.9730 C   0  0  0  0  0  0  0  0  0  0  0  0
   11.0962    9.3293   23.5072 C   0  0  0  0  0  0  0  0  0  0  0  0
    5.1273    7.8529   23.6208 N   0  0  0  0  0  0  0  0  0  0  0  0
    9.7552    9.2338   23.0171 N   0  0  0  0  0  0  0  0  0  0  0  0
   11.1797    6.7591   21.3326 N   0  0  0  0  0  0  0  0  0  0  0  0
   11.7728    8.0337   23.7267 C   0  0  0  0  0  0  0  0  0  0  0  0
    7.1194    8.3344   24.6775 C   0  0  0  0  0  0  0  0  0  0  0  0
    8.4311    4.7963   22.0500 C   0  0  0  0  0  0  0  0  0  0  0  0
    8.7393   10.8706   24.1871 O   0  0  0  0  0  0  0  0  0  0  0  0
    9.3093    3.8166   21.6712 C   0  0  0  0  0  0  0  0  0  0  0  0
  1  5  1  0
  1 15  4  0
  1 22  4  0
  2 20  1  0
  2 24  1  0
  3  6  4  0
  3 27  4  0
  4 22  4  0
  4 26  4  0
  6  7  4  0
  6 13  1  0
  7 19  4  0
  8 18  1  0
  8 23  1  0
  8 28  2  0
  9 17  1  0
  9 24  1  0
 10 11  1  0
 10 24  1  0
 11 23  1  0
 12 14  4  0
 12 16  4  0
 14 19  4  0
 15 18  4  0
 16 20  4  0
 17 25  1  0
 18 26  4  0
 19 29  4  0
 20 29  4  0
 21 23  1  0
 21 25  1  0
 27 29  4  0
M  END
$$$$

 Created by Python create_sdf_string function

 29 32  0  0  0  0  0  0  0  0999 V2000
    5.4450    8.7154   22.6662 C   0  0  0  0  0  0  0  0  0  0  0  0
   10.9154    5.4574   20.5483 C   0  0  0  0  0  0  0  0  0  0  0  0
    7.2709    4.5089   22.7542 C   0  0  0  0  0  0  0  0  0  0  0  0
    5.9698    7.6329   24.6581 C   0  0  0  0  0  0  0  0  0  0  0  0
    4.5542    8.9057   21.7104 O   0  0  0  0  0  0  0  0  0  0  0  0
    6.9895    3.2085   23.0690 C   0  0  0  0  0  0  0  0  0  0  0  0
    7.8391    2.2253   22.7260 N   0  0  0  0  0  0  0  0  0  0  0  0
    8.6968    9.8373   23.6359 C   0  0  0  0  0  0  0  0  0  0  0  0
   12.5135    6.5957   21.8396 C   0  0  0  0  0  0  0  0  0  0  0  0
   10.9406    8.2330   21.1350 C   0  0  0  0  0  0  0  0  0  0  0  0
    9.6648    8.5956   21.7310 C   0  0  0  0  0  0  0  0  0  0  0  0
   10.8829    1.7153   20.9865 C   0  0  0  0  0  0  0  0  0  0  0  0
    5.7768    2.8533   23.7910 C   0  0  0  0  0  0  0  0  0  0  0  0
    9.7977    1.4791   21.6912 N   0  0  0  0  0  0  0  0  0  0  0  0
    6.5976    9.3401   22.6478 N   0  0  0  0  0  0  0  0  0  0  0  0
   11.2031    3.0042   20.6246 C   0  0  0  0  0  0  0  0  0  0  0  0
   12.8688    7.7370   22.7287 C   0  0  0  0  0  0  0  0  0  0  0  0
    7.4487    9.1361   23.6506 C   0  0  0  0  0  0  0  0  0  0  0  0
    8.9772    2.5025   22.0273 C   0  0  0  0  0  0  0  0  0  0  0  0
   10.4859    4.0901   20.9730 C   0  0  0  0  0  0  0  0  0  0  0  0
   11.0962    9.3293   23.5072 C   0  0  0  0  0  0  0  0  0  0  0  0
    5.1273    7.8529   23.6208 N   0  0  0  0  0  0  0  0  0  0  0  0
    9.7552    9.2338   23.0171 N   0  0  0  0  0  0  0  0  0  0  0  0
   11.1797    6.7591   21.3326 N   0  0  0  0  0  0  0  0  0  0  0  0
   11.7728    8.0337   23.7267 C   0  0  0  0  0  0  0  0  0  0  0  0
    7.1194    8.3344   24.6775 C   0  0  0  0  0  0  0  0  0  0  0  0
    8.4311    4.7963   22.0500 C   0  0  0  0  0  0  0  0  0  0  0  0
    8.7393   10.8706   24.1871 O   0  0  0  0  0  0  0  0  0  0  0  0
    9.3093    3.8166   21.6712 C   0  0  0  0  0  0  0  0  0  0  0  0
  1  5  1  0
  1 15  4  0
  1 22  4  0
  2 20  1  0
  2 24  1  0
  3  6  4  0
  3 27  4  0
  4 22  4  0
  4 26  4  0
  6  7  4  0
  6 13  1  0
  7 19  4  0
  8 18  1  0
  8 23  1  0
  8 28  2  0
  9 17  1  0
  9 24  1  0
 10 11  1  0
 10 24  1  0
 11 23  1  0
 12 14  4  0
 12 16  4  0
 14 19  4  0
 15 18  4  0
 16 20  4  0
 17 25  1  0
 18 26  4  0
 19 29  4  0
 20 29  4  0
 21 23  1  0
 21 25  1  0
 27 29  4  0
M  END
$$$$

 Created by Python create_sdf_string function

 29 32  0  0  0  0  0  0  0  0999 V2000
    5.4450    8.7154   22.6662 C   0  0  0  0  0  0  0  0  0  0  0  0
   10.9154    5.4574   20.5483 C   0  0  0  0  0  0  0  0  0  0  0  0
    7.2709    4.5089   22.7542 C   0  0  0  0  0  0  0  0  0  0  0  0
    5.9698    7.6329   24.6581 C   0  0  0  0  0  0  0  0  0  0  0  0
    4.5542    8.9057   21.7104 O   0  0  0  0  0  0  0  0  0  0  0  0
    6.9895    3.2085   23.0690 C   0  0  0  0  0  0  0  0  0  0  0  0
    7.8391    2.2253   22.7260 N   0  0  0  0  0  0  0  0  0  0  0  0
    8.6968    9.8373   23.6359 C   0  0  0  0  0  0  0  0  0  0  0  0
   12.5135    6.5957   21.8396 C   0  0  0  0  0  0  0  0  0  0  0  0
   10.9406    8.2330   21.1350 C   0  0  0  0  0  0  0  0  0  0  0  0
    9.6648    8.5956   21.7310 C   0  0  0  0  0  0  0  0  0  0  0  0
   10.8829    1.7153   20.9865 C   0  0  0  0  0  0  0  0  0  0  0  0
    5.7768    2.8533   23.7910 C   0  0  0  0  0  0  0  0  0  0  0  0
    9.7977    1.4791   21.6912 N   0  0  0  0  0  0  0  0  0  0  0  0
    6.5976    9.3401   22.6478 N   0  0  0  0  0  0  0  0  0  0  0  0
   11.2031    3.0042   20.6246 C   0  0  0  0  0  0  0  0  0  0  0  0
   12.8688    7.7370   22.7287 C   0  0  0  0  0  0  0  0  0  0  0  0
    7.4487    9.1361   23.6506 C   0  0  0  0  0  0  0  0  0  0  0  0
    8.9772    2.5025   22.0273 C   0  0  0  0  0  0  0  0  0  0  0  0
   10.4859    4.0901   20.9730 C   0  0  0  0  0  0  0  0  0  0  0  0
   11.0962    9.3293   23.5072 C   0  0  0  0  0  0  0  0  0  0  0  0
    5.1273    7.8529   23.6208 N   0  0  0  0  0  0  0  0  0  0  0  0
    9.7552    9.2338   23.0171 N   0  0  0  0  0  0  0  0  0  0  0  0
   11.1797    6.7591   21.3326 N   0  0  0  0  0  0  0  0  0  0  0  0
   11.7728    8.0337   23.7267 C   0  0  0  0  0  0  0  0  0  0  0  0
    7.1194    8.3344   24.6775 C   0  0  0  0  0  0  0  0  0  0  0  0
    8.4311    4.7963   22.0500 C   0  0  0  0  0  0  0  0  0  0  0  0
    8.7393   10.8706   24.1871 O   0  0  0  0  0  0  0  0  0  0  0  0
    9.3093    3.8166   21.6712 C   0  0  0  0  0  0  0  0  0  0  0  0
  1  5  1  0
  1 15  4  0
  1 22  4  0
  2 20  1  0
  2 24  1  0
  3  6  4  0
  3 27  4  0
  4 22  4  0
  4 26  4  0
  6  7  4  0
  6 13  1  0
  7 19  4  0
  8 18  1  0
  8 23  1  0
  8 28  2  0
  9 17  1  0
  9 24  1  0
 10 11  1  0
 10 24  1  0
 11 23  1  0
 12 14  4  0
 12 16  4  0
 14 19  4  0
 15 18  4  0
 16 20  4  0
 17 25  1  0
 18 26  4  0
 19 29  4  0
 20 29  4  0
 21 23  1  0
 21 25  1  0
 27 29  4  0
M  END
$$$$

 Created by Python create_sdf_string function

 29 32  0  0  0  0  0  0  0  0999 V2000
    5.4450    8.7154   22.6662 C   0  0  0  0  0  0  0  0  0  0  0  0
   10.9154    5.4574   20.5483 C   0  0  0  0  0  0  0  0  0  0  0  0
    7.2709    4.5089   22.7542 C   0  0  0  0  0  0  0  0  0  0  0  0
    5.9698    7.6329   24.6581 C   0  0  0  0  0  0  0  0  0  0  0  0
    4.5542    8.9057   21.7104 O   0  0  0  0  0  0  0  0  0  0  0  0
    6.9895    3.2085   23.0690 C   0  0  0  0  0  0  0  0  0  0  0  0
    7.8391    2.2253   22.7260 N   0  0  0  0  0  0  0  0  0  0  0  0
    8.6968    9.8373   23.6359 C   0  0  0  0  0  0  0  0  0  0  0  0
   12.5135    6.5957   21.8396 C   0  0  0  0  0  0  0  0  0  0  0  0
   10.9406    8.2330   21.1350 C   0  0  0  0  0  0  0  0  0  0  0  0
    9.6648    8.5956   21.7310 C   0  0  0  0  0  0  0  0  0  0  0  0
   10.8829    1.7153   20.9865 C   0  0  0  0  0  0  0  0  0  0  0  0
    5.7768    2.8533   23.7910 C   0  0  0  0  0  0  0  0  0  0  0  0
    9.7977    1.4791   21.6912 N   0  0  0  0  0  0  0  0  0  0  0  0
    6.5976    9.3401   22.6478 N   0  0  0  0  0  0  0  0  0  0  0  0
   11.2031    3.0042   20.6246 C   0  0  0  0  0  0  0  0  0  0  0  0
   12.8688    7.7370   22.7287 C   0  0  0  0  0  0  0  0  0  0  0  0
    7.4487    9.1361   23.6506 C   0  0  0  0  0  0  0  0  0  0  0  0
    8.9772    2.5025   22.0273 C   0  0  0  0  0  0  0  0  0  0  0  0
   10.4859    4.0901   20.9730 C   0  0  0  0  0  0  0  0  0  0  0  0
   11.0962    9.3293   23.5072 C   0  0  0  0  0  0  0  0  0  0  0  0
    5.1273    7.8529   23.6208 N   0  0  0  0  0  0  0  0  0  0  0  0
    9.7552    9.2338   23.0171 N   0  0  0  0  0  0  0  0  0  0  0  0
   11.1797    6.7591   21.3326 N   0  0  0  0  0  0  0  0  0  0  0  0
   11.7728    8.0337   23.7267 C   0  0  0  0  0  0  0  0  0  0  0  0
    7.1194    8.3344   24.6775 C   0  0  0  0  0  0  0  0  0  0  0  0
    8.4311    4.7963   22.0500 C   0  0  0  0  0  0  0  0  0  0  0  0
    8.7393   10.8706   24.1871 O   0  0  0  0  0  0  0  0  0  0  0  0
    9.3093    3.8166   21.6712 C   0  0  0  0  0  0  0  0  0  0  0  0
  1  5  1  0
  1 15  4  0
  1 22  4  0
  2 20  1  0
  2 24  1  0
  3  6  4  0
  3 27  4  0
  4 22  4  0
  4 26  4  0
  6  7  4  0
  6 13  1  0
  7 19  4  0
  8 18  1  0
  8 23  1  0
  8 28  2  0
  9 17  1  0
  9 24  1  0
 10 11  1  0
 10 24  1  0
 11 23  1  0
 12 14  4  0
 12 16  4  0
 14 19  4  0
 15 18  4  0
 16 20  4  0
 17 25  1  0
 18 26  4  0
 19 29  4  0
 20 29  4  0
 21 23  1  0
 21 25  1  0
 27 29  4  0
M  END
$$$$

 Created by Python create_sdf_string function

 29 32  0  0  0  0  0  0  0  0999 V2000
    5.4450    8.7154   22.6662 C   0  0  0  0  0  0  0  0  0  0  0  0
   10.9154    5.4574   20.5483 C   0  0  0  0  0  0  0  0  0  0  0  0
    7.2709    4.5089   22.7542 C   0  0  0  0  0  0  0  0  0  0  0  0
    5.9698    7.6329   24.6581 C   0  0  0  0  0  0  0  0  0  0  0  0
    4.5542    8.9057   21.7104 O   0  0  0  0  0  0  0  0  0  0  0  0
    6.9895    3.2085   23.0690 C   0  0  0  0  0  0  0  0  0  0  0  0
    7.8391    2.2253   22.7260 N   0  0  0  0  0  0  0  0  0  0  0  0
    8.6968    9.8373   23.6359 C   0  0  0  0  0  0  0  0  0  0  0  0
   12.5135    6.5957   21.8396 C   0  0  0  0  0  0  0  0  0  0  0  0
   10.9406    8.2330   21.1350 C   0  0  0  0  0  0  0  0  0  0  0  0
    9.6648    8.5956   21.7310 C   0  0  0  0  0  0  0  0  0  0  0  0
   10.8829    1.7153   20.9865 C   0  0  0  0  0  0  0  0  0  0  0  0
    5.7768    2.8533   23.7910 C   0  0  0  0  0  0  0  0  0  0  0  0
    9.7977    1.4791   21.6912 N   0  0  0  0  0  0  0  0  0  0  0  0
    6.5976    9.3401   22.6478 N   0  0  0  0  0  0  0  0  0  0  0  0
   11.2031    3.0042   20.6246 C   0  0  0  0  0  0  0  0  0  0  0  0
   12.8688    7.7370   22.7287 C   0  0  0  0  0  0  0  0  0  0  0  0
    7.4487    9.1361   23.6506 C   0  0  0  0  0  0  0  0  0  0  0  0
    8.9772    2.5025   22.0273 C   0  0  0  0  0  0  0  0  0  0  0  0
   10.4859    4.0901   20.9730 C   0  0  0  0  0  0  0  0  0  0  0  0
   11.0962    9.3293   23.5072 C   0  0  0  0  0  0  0  0  0  0  0  0
    5.1273    7.8529   23.6208 N   0  0  0  0  0  0  0  0  0  0  0  0
    9.7552    9.2338   23.0171 N   0  0  0  0  0  0  0  0  0  0  0  0
   11.1797    6.7591   21.3326 N   0  0  0  0  0  0  0  0  0  0  0  0
   11.7728    8.0337   23.7267 C   0  0  0  0  0  0  0  0  0  0  0  0
    7.1194    8.3344   24.6775 C   0  0  0  0  0  0  0  0  0  0  0  0
    8.4311    4.7963   22.0500 C   0  0  0  0  0  0  0  0  0  0  0  0
    8.7393   10.8706   24.1871 O   0  0  0  0  0  0  0  0  0  0  0  0
    9.3093    3.8166   21.6712 C   0  0  0  0  0  0  0  0  0  0  0  0
  1  5  1  0
  1 15  4  0
  1 22  4  0
  2 20  1  0
  2 24  1  0
  3  6  4  0
  3 27  4  0
  4 22  4  0
  4 26  4  0
  6  7  4  0
  6 13  1  0
  7 19  4  0
  8 18  1  0
  8 23  1  0
  8 28  2  0
  9 17  1  0
  9 24  1  0
 10 11  1  0
 10 24  1  0
 11 23  1  0
 12 14  4  0
 12 16  4  0
 14 19  4  0
 15 18  4  0
 16 20  4  0
 17 25  1  0
 18 26  4  0
 19 29  4  0
 20 29  4  0
 21 23  1  0
 21 25  1  0
 27 29  4  0
M  END
$$$$

 Created by Python create_sdf_string function

 29 32  0  0  0  0  0  0  0  0999 V2000
    5.4450    8.7154   22.6662 C   0  0  0  0  0  0  0  0  0  0  0  0
   10.9154    5.4574   20.5483 C   0  0  0  0  0  0  0  0  0  0  0  0
    7.2709    4.5089   22.7542 C   0  0  0  0  0  0  0  0  0  0  0  0
    5.9698    7.6329   24.6581 C   0  0  0  0  0  0  0  0  0  0  0  0
    4.5542    8.9057   21.7104 O   0  0  0  0  0  0  0  0  0  0  0  0
    6.9895    3.2085   23.0690 C   0  0  0  0  0  0  0  0  0  0  0  0
    7.8391    2.2253   22.7260 N   0  0  0  0  0  0  0  0  0  0  0  0
    8.6968    9.8373   23.6359 C   0  0  0  0  0  0  0  0  0  0  0  0
   12.5135    6.5957   21.8396 C   0  0  0  0  0  0  0  0  0  0  0  0
   10.9406    8.2330   21.1350 C   0  0  0  0  0  0  0  0  0  0  0  0
    9.6648    8.5956   21.7310 C   0  0  0  0  0  0  0  0  0  0  0  0
   10.8829    1.7153   20.9865 C   0  0  0  0  0  0  0  0  0  0  0  0
    5.7768    2.8533   23.7910 C   0  0  0  0  0  0  0  0  0  0  0  0
    9.7977    1.4791   21.6912 N   0  0  0  0  0  0  0  0  0  0  0  0
    6.5976    9.3401   22.6478 N   0  0  0  0  0  0  0  0  0  0  0  0
   11.2031    3.0042   20.6246 C   0  0  0  0  0  0  0  0  0  0  0  0
   12.8688    7.7370   22.7287 C   0  0  0  0  0  0  0  0  0  0  0  0
    7.4487    9.1361   23.6506 C   0  0  0  0  0  0  0  0  0  0  0  0
    8.9772    2.5025   22.0273 C   0  0  0  0  0  0  0  0  0  0  0  0
   10.4859    4.0901   20.9730 C   0  0  0  0  0  0  0  0  0  0  0  0
   11.0962    9.3293   23.5072 C   0  0  0  0  0  0  0  0  0  0  0  0
    5.1273    7.8529   23.6208 N   0  0  0  0  0  0  0  0  0  0  0  0
    9.7552    9.2338   23.0171 N   0  0  0  0  0  0  0  0  0  0  0  0
   11.1797    6.7591   21.3326 N   0  0  0  0  0  0  0  0  0  0  0  0
   11.7728    8.0337   23.7267 C   0  0  0  0  0  0  0  0  0  0  0  0
    7.1194    8.3344   24.6775 C   0  0  0  0  0  0  0  0  0  0  0  0
    8.4311    4.7963   22.0500 C   0  0  0  0  0  0  0  0  0  0  0  0
    8.7393   10.8706   24.1871 O   0  0  0  0  0  0  0  0  0  0  0  0
    9.3093    3.8166   21.6712 C   0  0  0  0  0  0  0  0  0  0  0  0
  1  5  1  0
  1 15  4  0
  1 22  4  0
  2 20  1  0
  2 24  1  0
  3  6  4  0
  3 27  4  0
  4 22  4  0
  4 26  4  0
  6  7  4  0
  6 13  1  0
  7 19  4  0
  8 18  1  0
  8 23  1  0
  8 28  2  0
  9 17  1  0
  9 24  1  0
 10 11  1  0
 10 24  1  0
 11 23  1  0
 12 14  4  0
 12 16  4  0
 14 19  4  0
 15 18  4  0
 16 20  4  0
 17 25  1  0
 18 26  4  0
 19 29  4  0
 20 29  4  0
 21 23  1  0
 21 25  1  0
 27 29  4  0
M  END
$$$$

 Created by Python create_sdf_string function

 29 32  0  0  0  0  0  0  0  0999 V2000
    5.4450    8.7154   22.6662 C   0  0  0  0  0  0  0  0  0  0  0  0
   10.9154    5.4574   20.5483 C   0  0  0  0  0  0  0  0  0  0  0  0
    7.2709    4.5089   22.7542 C   0  0  0  0  0  0  0  0  0  0  0  0
    5.9698    7.6329   24.6581 C   0  0  0  0  0  0  0  0  0  0  0  0
    4.5542    8.9057   21.7104 O   0  0  0  0  0  0  0  0  0  0  0  0
    6.9895    3.2085   23.0690 C   0  0  0  0  0  0  0  0  0  0  0  0
    7.8391    2.2253   22.7260 N   0  0  0  0  0  0  0  0  0  0  0  0
    8.6968    9.8373   23.6359 C   0  0  0  0  0  0  0  0  0  0  0  0
   12.5135    6.5957   21.8396 C   0  0  0  0  0  0  0  0  0  0  0  0
   10.9406    8.2330   21.1350 C   0  0  0  0  0  0  0  0  0  0  0  0
    9.6648    8.5956   21.7310 C   0  0  0  0  0  0  0  0  0  0  0  0
   10.8829    1.7153   20.9865 C   0  0  0  0  0  0  0  0  0  0  0  0
    5.7768    2.8533   23.7910 C   0  0  0  0  0  0  0  0  0  0  0  0
    9.7977    1.4791   21.6912 N   0  0  0  0  0  0  0  0  0  0  0  0
    6.5976    9.3401   22.6478 N   0  0  0  0  0  0  0  0  0  0  0  0
   11.2031    3.0042   20.6246 C   0  0  0  0  0  0  0  0  0  0  0  0
   12.8688    7.7370   22.7287 C   0  0  0  0  0  0  0  0  0  0  0  0
    7.4487    9.1361   23.6506 C   0  0  0  0  0  0  0  0  0  0  0  0
    8.9772    2.5025   22.0273 C   0  0  0  0  0  0  0  0  0  0  0  0
   10.4859    4.0901   20.9730 C   0  0  0  0  0  0  0  0  0  0  0  0
   11.0962    9.3293   23.5072 C   0  0  0  0  0  0  0  0  0  0  0  0
    5.1273    7.8529   23.6208 N   0  0  0  0  0  0  0  0  0  0  0  0
    9.7552    9.2338   23.0171 N   0  0  0  0  0  0  0  0  0  0  0  0
   11.1797    6.7591   21.3326 N   0  0  0  0  0  0  0  0  0  0  0  0
   11.7728    8.0337   23.7267 C   0  0  0  0  0  0  0  0  0  0  0  0
    7.1194    8.3344   24.6775 C   0  0  0  0  0  0  0  0  0  0  0  0
    8.4311    4.7963   22.0500 C   0  0  0  0  0  0  0  0  0  0  0  0
    8.7393   10.8706   24.1871 O   0  0  0  0  0  0  0  0  0  0  0  0
    9.3093    3.8166   21.6712 C   0  0  0  0  0  0  0  0  0  0  0  0
  1  5  1  0
  1 15  4  0
  1 22  4  0
  2 20  1  0
  2 24  1  0
  3  6  4  0
  3 27  4  0
  4 22  4  0
  4 26  4  0
  6  7  4  0
  6 13  1  0
  7 19  4  0
  8 18  1  0
  8 23  1  0
  8 28  2  0
  9 17  1  0
  9 24  1  0
 10 11  1  0
 10 24  1  0
 11 23  1  0
 12 14  4  0
 12 16  4  0
 14 19  4  0
 15 18  4  0
 16 20  4  0
 17 25  1  0
 18 26  4  0
 19 29  4  0
 20 29  4  0
 21 23  1  0
 21 25  1  0
 27 29  4  0
M  END
$$$$

 Created by Python create_sdf_string function

 29 32  0  0  0  0  0  0  0  0999 V2000
    5.4450    8.7154   22.6662 C   0  0  0  0  0  0  0  0  0  0  0  0
   10.9154    5.4574   20.5483 C   0  0  0  0  0  0  0  0  0  0  0  0
    7.2709    4.5089   22.7542 C   0  0  0  0  0  0  0  0  0  0  0  0
    5.9698    7.6329   24.6581 C   0  0  0  0  0  0  0  0  0  0  0  0
    4.5542    8.9057   21.7104 O   0  0  0  0  0  0  0  0  0  0  0  0
    6.9895    3.2085   23.0690 C   0  0  0  0  0  0  0  0  0  0  0  0
    7.8391    2.2253   22.7260 N   0  0  0  0  0  0  0  0  0  0  0  0
    8.6968    9.8373   23.6359 C   0  0  0  0  0  0  0  0  0  0  0  0
   12.5135    6.5957   21.8396 C   0  0  0  0  0  0  0  0  0  0  0  0
   10.9406    8.2330   21.1350 C   0  0  0  0  0  0  0  0  0  0  0  0
    9.6648    8.5956   21.7310 C   0  0  0  0  0  0  0  0  0  0  0  0
   10.8829    1.7153   20.9865 C   0  0  0  0  0  0  0  0  0  0  0  0
    5.7768    2.8533   23.7910 C   0  0  0  0  0  0  0  0  0  0  0  0
    9.7977    1.4791   21.6912 N   0  0  0  0  0  0  0  0  0  0  0  0
    6.5976    9.3401   22.6478 N   0  0  0  0  0  0  0  0  0  0  0  0
   11.2031    3.0042   20.6246 C   0  0  0  0  0  0  0  0  0  0  0  0
   12.8688    7.7370   22.7287 C   0  0  0  0  0  0  0  0  0  0  0  0
    7.4487    9.1361   23.6506 C   0  0  0  0  0  0  0  0  0  0  0  0
    8.9772    2.5025   22.0273 C   0  0  0  0  0  0  0  0  0  0  0  0
   10.4859    4.0901   20.9730 C   0  0  0  0  0  0  0  0  0  0  0  0
   11.0962    9.3293   23.5072 C   0  0  0  0  0  0  0  0  0  0  0  0
    5.1273    7.8529   23.6208 N   0  0  0  0  0  0  0  0  0  0  0  0
    9.7552    9.2338   23.0171 N   0  0  0  0  0  0  0  0  0  0  0  0
   11.1797    6.7591   21.3326 N   0  0  0  0  0  0  0  0  0  0  0  0
   11.7728    8.0337   23.7267 C   0  0  0  0  0  0  0  0  0  0  0  0
    7.1194    8.3344   24.6775 C   0  0  0  0  0  0  0  0  0  0  0  0
    8.4311    4.7963   22.0500 C   0  0  0  0  0  0  0  0  0  0  0  0
    8.7393   10.8706   24.1871 O   0  0  0  0  0  0  0  0  0  0  0  0
    9.3093    3.8166   21.6712 C   0  0  0  0  0  0  0  0  0  0  0  0
  1  5  1  0
  1 15  4  0
  1 22  4  0
  2 20  1  0
  2 24  1  0
  3  6  4  0
  3 27  4  0
  4 22  4  0
  4 26  4  0
  6  7  4  0
  6 13  1  0
  7 19  4  0
  8 18  1  0
  8 23  1  0
  8 28  2  0
  9 17  1  0
  9 24  1  0
 10 11  1  0
 10 24  1  0
 11 23  1  0
 12 14  4  0
 12 16  4  0
 14 19  4  0
 15 18  4  0
 16 20  4  0
 17 25  1  0
 18 26  4  0
 19 29  4  0
 20 29  4  0
 21 23  1  0
 21 25  1  0
 27 29  4  0
M  END
$$$$

 Created by Python create_sdf_string function

 29 32  0  0  0  0  0  0  0  0999 V2000
    5.4450    8.7154   22.6662 C   0  0  0  0  0  0  0  0  0  0  0  0
   10.9154    5.4574   20.5483 C   0  0  0  0  0  0  0  0  0  0  0  0
    7.2709    4.5089   22.7542 C   0  0  0  0  0  0  0  0  0  0  0  0
    5.9698    7.6329   24.6581 C   0  0  0  0  0  0  0  0  0  0  0  0
    4.5542    8.9057   21.7104 O   0  0  0  0  0  0  0  0  0  0  0  0
    6.9895    3.2085   23.0690 C   0  0  0  0  0  0  0  0  0  0  0  0
    7.8391    2.2253   22.7260 N   0  0  0  0  0  0  0  0  0  0  0  0
    8.6968    9.8373   23.6359 C   0  0  0  0  0  0  0  0  0  0  0  0
   12.5135    6.5957   21.8396 C   0  0  0  0  0  0  0  0  0  0  0  0
   10.9406    8.2330   21.1350 C   0  0  0  0  0  0  0  0  0  0  0  0
    9.6648    8.5956   21.7310 C   0  0  0  0  0  0  0  0  0  0  0  0
   10.8829    1.7153   20.9865 C   0  0  0  0  0  0  0  0  0  0  0  0
    5.7768    2.8533   23.7910 C   0  0  0  0  0  0  0  0  0  0  0  0
    9.7977    1.4791   21.6912 N   0  0  0  0  0  0  0  0  0  0  0  0
    6.5976    9.3401   22.6478 N   0  0  0  0  0  0  0  0  0  0  0  0
   11.2031    3.0042   20.6246 C   0  0  0  0  0  0  0  0  0  0  0  0
   12.8688    7.7370   22.7287 C   0  0  0  0  0  0  0  0  0  0  0  0
    7.4487    9.1361   23.6506 C   0  0  0  0  0  0  0  0  0  0  0  0
    8.9772    2.5025   22.0273 C   0  0  0  0  0  0  0  0  0  0  0  0
   10.4859    4.0901   20.9730 C   0  0  0  0  0  0  0  0  0  0  0  0
   11.0962    9.3293   23.5072 C   0  0  0  0  0  0  0  0  0  0  0  0
    5.1273    7.8529   23.6208 N   0  0  0  0  0  0  0  0  0  0  0  0
    9.7552    9.2338   23.0171 N   0  0  0  0  0  0  0  0  0  0  0  0
   11.1797    6.7591   21.3326 N   0  0  0  0  0  0  0  0  0  0  0  0
   11.7728    8.0337   23.7267 C   0  0  0  0  0  0  0  0  0  0  0  0
    7.1194    8.3344   24.6775 C   0  0  0  0  0  0  0  0  0  0  0  0
    8.4311    4.7963   22.0500 C   0  0  0  0  0  0  0  0  0  0  0  0
    8.7393   10.8706   24.1871 O   0  0  0  0  0  0  0  0  0  0  0  0
    9.3093    3.8166   21.6712 C   0  0  0  0  0  0  0  0  0  0  0  0
  1  5  1  0
  1 15  4  0
  1 22  4  0
  2 20  1  0
  2 24  1  0
  3  6  4  0
  3 27  4  0
  4 22  4  0
  4 26  4  0
  6  7  4  0
  6 13  1  0
  7 19  4  0
  8 18  1  0
  8 23  1  0
  8 28  2  0
  9 17  1  0
  9 24  1  0
 10 11  1  0
 10 24  1  0
 11 23  1  0
 12 14  4  0
 12 16  4  0
 14 19  4  0
 15 18  4  0
 16 20  4  0
 17 25  1  0
 18 26  4  0
 19 29  4  0
 20 29  4  0
 21 23  1  0
 21 25  1  0
 27 29  4  0
M  END
$$$$

 Created by Python create_sdf_string function

 29 32  0  0  0  0  0  0  0  0999 V2000
    5.4450    8.7154   22.6662 C   0  0  0  0  0  0  0  0  0  0  0  0
   10.9154    5.4574   20.5483 C   0  0  0  0  0  0  0  0  0  0  0  0
    7.2709    4.5089   22.7542 C   0  0  0  0  0  0  0  0  0  0  0  0
    5.9698    7.6329   24.6581 C   0  0  0  0  0  0  0  0  0  0  0  0
    4.5542    8.9057   21.7104 O   0  0  0  0  0  0  0  0  0  0  0  0
    6.9895    3.2085   23.0690 C   0  0  0  0  0  0  0  0  0  0  0  0
    7.8391    2.2253   22.7260 N   0  0  0  0  0  0  0  0  0  0  0  0
    8.6968    9.8373   23.6359 C   0  0  0  0  0  0  0  0  0  0  0  0
   12.5135    6.5957   21.8396 C   0  0  0  0  0  0  0  0  0  0  0  0
   10.9406    8.2330   21.1350 C   0  0  0  0  0  0  0  0  0  0  0  0
    9.6648    8.5956   21.7310 C   0  0  0  0  0  0  0  0  0  0  0  0
   10.8829    1.7153   20.9865 C   0  0  0  0  0  0  0  0  0  0  0  0
    5.7768    2.8533   23.7910 C   0  0  0  0  0  0  0  0  0  0  0  0
    9.7977    1.4791   21.6912 N   0  0  0  0  0  0  0  0  0  0  0  0
    6.5976    9.3401   22.6478 N   0  0  0  0  0  0  0  0  0  0  0  0
   11.2031    3.0042   20.6246 C   0  0  0  0  0  0  0  0  0  0  0  0
   12.8688    7.7370   22.7287 C   0  0  0  0  0  0  0  0  0  0  0  0
    7.4487    9.1361   23.6506 C   0  0  0  0  0  0  0  0  0  0  0  0
    8.9772    2.5025   22.0273 C   0  0  0  0  0  0  0  0  0  0  0  0
   10.4859    4.0901   20.9730 C   0  0  0  0  0  0  0  0  0  0  0  0
   11.0962    9.3293   23.5072 C   0  0  0  0  0  0  0  0  0  0  0  0
    5.1273    7.8529   23.6208 N   0  0  0  0  0  0  0  0  0  0  0  0
    9.7552    9.2338   23.0171 N   0  0  0  0  0  0  0  0  0  0  0  0
   11.1797    6.7591   21.3326 N   0  0  0  0  0  0  0  0  0  0  0  0
   11.7728    8.0337   23.7267 C   0  0  0  0  0  0  0  0  0  0  0  0
    7.1194    8.3344   24.6775 C   0  0  0  0  0  0  0  0  0  0  0  0
    8.4311    4.7963   22.0500 C   0  0  0  0  0  0  0  0  0  0  0  0
    8.7393   10.8706   24.1871 O   0  0  0  0  0  0  0  0  0  0  0  0
    9.3093    3.8166   21.6712 C   0  0  0  0  0  0  0  0  0  0  0  0
  1  5  1  0
  1 15  4  0
  1 22  4  0
  2 20  1  0
  2 24  1  0
  3  6  4  0
  3 27  4  0
  4 22  4  0
  4 26  4  0
  6  7  4  0
  6 13  1  0
  7 19  4  0
  8 18  1  0
  8 23  1  0
  8 28  2  0
  9 17  1  0
  9 24  1  0
 10 11  1  0
 10 24  1  0
 11 23  1  0
 12 14  4  0
 12 16  4  0
 14 19  4  0
 15 18  4  0
 16 20  4  0
 17 25  1  0
 18 26  4  0
 19 29  4  0
 20 29  4  0
 21 23  1  0
 21 25  1  0
 27 29  4  0
M  END
$$$$

 Created by Python create_sdf_string function

 29 32  0  0  0  0  0  0  0  0999 V2000
    5.4450    8.7154   22.6662 C   0  0  0  0  0  0  0  0  0  0  0  0
   10.9154    5.4574   20.5483 C   0  0  0  0  0  0  0  0  0  0  0  0
    7.2709    4.5089   22.7542 C   0  0  0  0  0  0  0  0  0  0  0  0
    5.9698    7.6329   24.6581 C   0  0  0  0  0  0  0  0  0  0  0  0
    4.5542    8.9057   21.7104 O   0  0  0  0  0  0  0  0  0  0  0  0
    6.9895    3.2085   23.0690 C   0  0  0  0  0  0  0  0  0  0  0  0
    7.8391    2.2253   22.7260 N   0  0  0  0  0  0  0  0  0  0  0  0
    8.6968    9.8373   23.6359 C   0  0  0  0  0  0  0  0  0  0  0  0
   12.5135    6.5957   21.8396 C   0  0  0  0  0  0  0  0  0  0  0  0
   10.9406    8.2330   21.1350 C   0  0  0  0  0  0  0  0  0  0  0  0
    9.6648    8.5956   21.7310 C   0  0  0  0  0  0  0  0  0  0  0  0
   10.8829    1.7153   20.9865 C   0  0  0  0  0  0  0  0  0  0  0  0
    5.7768    2.8533   23.7910 C   0  0  0  0  0  0  0  0  0  0  0  0
    9.7977    1.4791   21.6912 N   0  0  0  0  0  0  0  0  0  0  0  0
    6.5976    9.3401   22.6478 N   0  0  0  0  0  0  0  0  0  0  0  0
   11.2031    3.0042   20.6246 C   0  0  0  0  0  0  0  0  0  0  0  0
   12.8688    7.7370   22.7287 C   0  0  0  0  0  0  0  0  0  0  0  0
    7.4487    9.1361   23.6506 C   0  0  0  0  0  0  0  0  0  0  0  0
    8.9772    2.5025   22.0273 C   0  0  0  0  0  0  0  0  0  0  0  0
   10.4859    4.0901   20.9730 C   0  0  0  0  0  0  0  0  0  0  0  0
   11.0962    9.3293   23.5072 C   0  0  0  0  0  0  0  0  0  0  0  0
    5.1273    7.8529   23.6208 N   0  0  0  0  0  0  0  0  0  0  0  0
    9.7552    9.2338   23.0171 N   0  0  0  0  0  0  0  0  0  0  0  0
   11.1797    6.7591   21.3326 N   0  0  0  0  0  0  0  0  0  0  0  0
   11.7728    8.0337   23.7267 C   0  0  0  0  0  0  0  0  0  0  0  0
    7.1194    8.3344   24.6775 C   0  0  0  0  0  0  0  0  0  0  0  0
    8.4311    4.7963   22.0500 C   0  0  0  0  0  0  0  0  0  0  0  0
    8.7393   10.8706   24.1871 O   0  0  0  0  0  0  0  0  0  0  0  0
    9.3093    3.8166   21.6712 C   0  0  0  0  0  0  0  0  0  0  0  0
  1  5  1  0
  1 15  4  0
  1 22  4  0
  2 20  1  0
  2 24  1  0
  3  6  4  0
  3 27  4  0
  4 22  4  0
  4 26  4  0
  6  7  4  0
  6 13  1  0
  7 19  4  0
  8 18  1  0
  8 23  1  0
  8 28  2  0
  9 17  1  0
  9 24  1  0
 10 11  1  0
 10 24  1  0
 11 23  1  0
 12 14  4  0
 12 16  4  0
 14 19  4  0
 15 18  4  0
 16 20  4  0
 17 25  1  0
 18 26  4  0
 19 29  4  0
 20 29  4  0
 21 23  1  0
 21 25  1  0
 27 29  4  0
M  END
$$$$

 Created by Python create_sdf_string function

 29 32  0  0  0  0  0  0  0  0999 V2000
    5.4450    8.7154   22.6662 C   0  0  0  0  0  0  0  0  0  0  0  0
   10.9154    5.4574   20.5483 C   0  0  0  0  0  0  0  0  0  0  0  0
    7.2709    4.5089   22.7542 C   0  0  0  0  0  0  0  0  0  0  0  0
    5.9698    7.6329   24.6581 C   0  0  0  0  0  0  0  0  0  0  0  0
    4.5542    8.9057   21.7104 O   0  0  0  0  0  0  0  0  0  0  0  0
    6.9895    3.2085   23.0690 C   0  0  0  0  0  0  0  0  0  0  0  0
    7.8391    2.2253   22.7260 N   0  0  0  0  0  0  0  0  0  0  0  0
    8.6968    9.8373   23.6359 C   0  0  0  0  0  0  0  0  0  0  0  0
   12.5135    6.5957   21.8396 C   0  0  0  0  0  0  0  0  0  0  0  0
   10.9406    8.2330   21.1350 C   0  0  0  0  0  0  0  0  0  0  0  0
    9.6648    8.5956   21.7310 C   0  0  0  0  0  0  0  0  0  0  0  0
   10.8829    1.7153   20.9865 C   0  0  0  0  0  0  0  0  0  0  0  0
    5.7768    2.8533   23.7910 C   0  0  0  0  0  0  0  0  0  0  0  0
    9.7977    1.4791   21.6912 N   0  0  0  0  0  0  0  0  0  0  0  0
    6.5976    9.3401   22.6478 N   0  0  0  0  0  0  0  0  0  0  0  0
   11.2031    3.0042   20.6246 C   0  0  0  0  0  0  0  0  0  0  0  0
   12.8688    7.7370   22.7287 C   0  0  0  0  0  0  0  0  0  0  0  0
    7.4487    9.1361   23.6506 C   0  0  0  0  0  0  0  0  0  0  0  0
    8.9772    2.5025   22.0273 C   0  0  0  0  0  0  0  0  0  0  0  0
   10.4859    4.0901   20.9730 C   0  0  0  0  0  0  0  0  0  0  0  0
   11.0962    9.3293   23.5072 C   0  0  0  0  0  0  0  0  0  0  0  0
    5.1273    7.8529   23.6208 N   0  0  0  0  0  0  0  0  0  0  0  0
    9.7552    9.2338   23.0171 N   0  0  0  0  0  0  0  0  0  0  0  0
   11.1797    6.7591   21.3326 N   0  0  0  0  0  0  0  0  0  0  0  0
   11.7728    8.0337   23.7267 C   0  0  0  0  0  0  0  0  0  0  0  0
    7.1194    8.3344   24.6775 C   0  0  0  0  0  0  0  0  0  0  0  0
    8.4311    4.7963   22.0500 C   0  0  0  0  0  0  0  0  0  0  0  0
    8.7393   10.8706   24.1871 O   0  0  0  0  0  0  0  0  0  0  0  0
    9.3093    3.8166   21.6712 C   0  0  0  0  0  0  0  0  0  0  0  0
  1  5  1  0
  1 15  4  0
  1 22  4  0
  2 20  1  0
  2 24  1  0
  3  6  4  0
  3 27  4  0
  4 22  4  0
  4 26  4  0
  6  7  4  0
  6 13  1  0
  7 19  4  0
  8 18  1  0
  8 23  1  0
  8 28  2  0
  9 17  1  0
  9 24  1  0
 10 11  1  0
 10 24  1  0
 11 23  1  0
 12 14  4  0
 12 16  4  0
 14 19  4  0
 15 18  4  0
 16 20  4  0
 17 25  1  0
 18 26  4  0
 19 29  4  0
 20 29  4  0
 21 23  1  0
 21 25  1  0
 27 29  4  0
M  END
$$$$

 Created by Python create_sdf_string function

 29 32  0  0  0  0  0  0  0  0999 V2000
    5.4450    8.7154   22.6662 C   0  0  0  0  0  0  0  0  0  0  0  0
   10.9154    5.4574   20.5483 C   0  0  0  0  0  0  0  0  0  0  0  0
    7.2709    4.5089   22.7542 C   0  0  0  0  0  0  0  0  0  0  0  0
    5.9698    7.6329   24.6581 C   0  0  0  0  0  0  0  0  0  0  0  0
    4.5542    8.9057   21.7104 O   0  0  0  0  0  0  0  0  0  0  0  0
    6.9895    3.2085   23.0690 C   0  0  0  0  0  0  0  0  0  0  0  0
    7.8391    2.2253   22.7260 N   0  0  0  0  0  0  0  0  0  0  0  0
    8.6968    9.8373   23.6359 C   0  0  0  0  0  0  0  0  0  0  0  0
   12.5135    6.5957   21.8396 C   0  0  0  0  0  0  0  0  0  0  0  0
   10.9406    8.2330   21.1350 C   0  0  0  0  0  0  0  0  0  0  0  0
    9.6648    8.5956   21.7310 C   0  0  0  0  0  0  0  0  0  0  0  0
   10.8829    1.7153   20.9865 C   0  0  0  0  0  0  0  0  0  0  0  0
    5.7768    2.8533   23.7910 C   0  0  0  0  0  0  0  0  0  0  0  0
    9.7977    1.4791   21.6912 N   0  0  0  0  0  0  0  0  0  0  0  0
    6.5976    9.3401   22.6478 N   0  0  0  0  0  0  0  0  0  0  0  0
   11.2031    3.0042   20.6246 C   0  0  0  0  0  0  0  0  0  0  0  0
   12.8688    7.7370   22.7287 C   0  0  0  0  0  0  0  0  0  0  0  0
    7.4487    9.1361   23.6506 C   0  0  0  0  0  0  0  0  0  0  0  0
    8.9772    2.5025   22.0273 C   0  0  0  0  0  0  0  0  0  0  0  0
   10.4859    4.0901   20.9730 C   0  0  0  0  0  0  0  0  0  0  0  0
   11.0962    9.3293   23.5072 C   0  0  0  0  0  0  0  0  0  0  0  0
    5.1273    7.8529   23.6208 N   0  0  0  0  0  0  0  0  0  0  0  0
    9.7552    9.2338   23.0171 N   0  0  0  0  0  0  0  0  0  0  0  0
   11.1797    6.7591   21.3326 N   0  0  0  0  0  0  0  0  0  0  0  0
   11.7728    8.0337   23.7267 C   0  0  0  0  0  0  0  0  0  0  0  0
    7.1194    8.3344   24.6775 C   0  0  0  0  0  0  0  0  0  0  0  0
    8.4311    4.7963   22.0500 C   0  0  0  0  0  0  0  0  0  0  0  0
    8.7393   10.8706   24.1871 O   0  0  0  0  0  0  0  0  0  0  0  0
    9.3093    3.8166   21.6712 C   0  0  0  0  0  0  0  0  0  0  0  0
  1  5  1  0
  1 15  4  0
  1 22  4  0
  2 20  1  0
  2 24  1  0
  3  6  4  0
  3 27  4  0
  4 22  4  0
  4 26  4  0
  6  7  4  0
  6 13  1  0
  7 19  4  0
  8 18  1  0
  8 23  1  0
  8 28  2  0
  9 17  1  0
  9 24  1  0
 10 11  1  0
 10 24  1  0
 11 23  1  0
 12 14  4  0
 12 16  4  0
 14 19  4  0
 15 18  4  0
 16 20  4  0
 17 25  1  0
 18 26  4  0
 19 29  4  0
 20 29  4  0
 21 23  1  0
 21 25  1  0
 27 29  4  0
M  END
$$$$

 Created by Python create_sdf_string function

 29 32  0  0  0  0  0  0  0  0999 V2000
    5.4450    8.7154   22.6662 C   0  0  0  0  0  0  0  0  0  0  0  0
   10.9154    5.4574   20.5483 C   0  0  0  0  0  0  0  0  0  0  0  0
    7.2709    4.5089   22.7542 C   0  0  0  0  0  0  0  0  0  0  0  0
    5.9698    7.6329   24.6581 C   0  0  0  0  0  0  0  0  0  0  0  0
    4.5542    8.9057   21.7104 O   0  0  0  0  0  0  0  0  0  0  0  0
    6.9895    3.2085   23.0690 C   0  0  0  0  0  0  0  0  0  0  0  0
    7.8391    2.2253   22.7260 N   0  0  0  0  0  0  0  0  0  0  0  0
    8.6968    9.8373   23.6359 C   0  0  0  0  0  0  0  0  0  0  0  0
   12.5135    6.5957   21.8396 C   0  0  0  0  0  0  0  0  0  0  0  0
   10.9406    8.2330   21.1350 C   0  0  0  0  0  0  0  0  0  0  0  0
    9.6648    8.5956   21.7310 C   0  0  0  0  0  0  0  0  0  0  0  0
   10.8829    1.7153   20.9865 C   0  0  0  0  0  0  0  0  0  0  0  0
    5.7768    2.8533   23.7910 C   0  0  0  0  0  0  0  0  0  0  0  0
    9.7977    1.4791   21.6912 N   0  0  0  0  0  0  0  0  0  0  0  0
    6.5976    9.3401   22.6478 N   0  0  0  0  0  0  0  0  0  0  0  0
   11.2031    3.0042   20.6246 C   0  0  0  0  0  0  0  0  0  0  0  0
   12.8688    7.7370   22.7287 C   0  0  0  0  0  0  0  0  0  0  0  0
    7.4487    9.1361   23.6506 C   0  0  0  0  0  0  0  0  0  0  0  0
    8.9772    2.5025   22.0273 C   0  0  0  0  0  0  0  0  0  0  0  0
   10.4859    4.0901   20.9730 C   0  0  0  0  0  0  0  0  0  0  0  0
   11.0962    9.3293   23.5072 C   0  0  0  0  0  0  0  0  0  0  0  0
    5.1273    7.8529   23.6208 N   0  0  0  0  0  0  0  0  0  0  0  0
    9.7552    9.2338   23.0171 N   0  0  0  0  0  0  0  0  0  0  0  0
   11.1797    6.7591   21.3326 N   0  0  0  0  0  0  0  0  0  0  0  0
   11.7728    8.0337   23.7267 C   0  0  0  0  0  0  0  0  0  0  0  0
    7.1194    8.3344   24.6775 C   0  0  0  0  0  0  0  0  0  0  0  0
    8.4311    4.7963   22.0500 C   0  0  0  0  0  0  0  0  0  0  0  0
    8.7393   10.8706   24.1871 O   0  0  0  0  0  0  0  0  0  0  0  0
    9.3093    3.8166   21.6712 C   0  0  0  0  0  0  0  0  0  0  0  0
  1  5  1  0
  1 15  4  0
  1 22  4  0
  2 20  1  0
  2 24  1  0
  3  6  4  0
  3 27  4  0
  4 22  4  0
  4 26  4  0
  6  7  4  0
  6 13  1  0
  7 19  4  0
  8 18  1  0
  8 23  1  0
  8 28  2  0
  9 17  1  0
  9 24  1  0
 10 11  1  0
 10 24  1  0
 11 23  1  0
 12 14  4  0
 12 16  4  0
 14 19  4  0
 15 18  4  0
 16 20  4  0
 17 25  1  0
 18 26  4  0
 19 29  4  0
 20 29  4  0
 21 23  1  0
 21 25  1  0
 27 29  4  0
M  END
$$$$

 Created by Python create_sdf_string function

 29 32  0  0  0  0  0  0  0  0999 V2000
    5.4450    8.7154   22.6662 C   0  0  0  0  0  0  0  0  0  0  0  0
   10.9154    5.4574   20.5483 C   0  0  0  0  0  0  0  0  0  0  0  0
    7.2709    4.5089   22.7542 C   0  0  0  0  0  0  0  0  0  0  0  0
    5.9698    7.6329   24.6581 C   0  0  0  0  0  0  0  0  0  0  0  0
    4.5542    8.9057   21.7104 O   0  0  0  0  0  0  0  0  0  0  0  0
    6.9895    3.2085   23.0690 C   0  0  0  0  0  0  0  0  0  0  0  0
    7.8391    2.2253   22.7260 N   0  0  0  0  0  0  0  0  0  0  0  0
    8.6968    9.8373   23.6359 C   0  0  0  0  0  0  0  0  0  0  0  0
   12.5135    6.5957   21.8396 C   0  0  0  0  0  0  0  0  0  0  0  0
   10.9406    8.2330   21.1350 C   0  0  0  0  0  0  0  0  0  0  0  0
    9.6648    8.5956   21.7310 C   0  0  0  0  0  0  0  0  0  0  0  0
   10.8829    1.7153   20.9865 C   0  0  0  0  0  0  0  0  0  0  0  0
    5.7768    2.8533   23.7910 C   0  0  0  0  0  0  0  0  0  0  0  0
    9.7977    1.4791   21.6912 N   0  0  0  0  0  0  0  0  0  0  0  0
    6.5976    9.3401   22.6478 N   0  0  0  0  0  0  0  0  0  0  0  0
   11.2031    3.0042   20.6246 C   0  0  0  0  0  0  0  0  0  0  0  0
   12.8688    7.7370   22.7287 C   0  0  0  0  0  0  0  0  0  0  0  0
    7.4487    9.1361   23.6506 C   0  0  0  0  0  0  0  0  0  0  0  0
    8.9772    2.5025   22.0273 C   0  0  0  0  0  0  0  0  0  0  0  0
   10.4859    4.0901   20.9730 C   0  0  0  0  0  0  0  0  0  0  0  0
   11.0962    9.3293   23.5072 C   0  0  0  0  0  0  0  0  0  0  0  0
    5.1273    7.8529   23.6208 N   0  0  0  0  0  0  0  0  0  0  0  0
    9.7552    9.2338   23.0171 N   0  0  0  0  0  0  0  0  0  0  0  0
   11.1797    6.7591   21.3326 N   0  0  0  0  0  0  0  0  0  0  0  0
   11.7728    8.0337   23.7267 C   0  0  0  0  0  0  0  0  0  0  0  0
    7.1194    8.3344   24.6775 C   0  0  0  0  0  0  0  0  0  0  0  0
    8.4311    4.7963   22.0500 C   0  0  0  0  0  0  0  0  0  0  0  0
    8.7393   10.8706   24.1871 O   0  0  0  0  0  0  0  0  0  0  0  0
    9.3093    3.8166   21.6712 C   0  0  0  0  0  0  0  0  0  0  0  0
  1  5  1  0
  1 15  4  0
  1 22  4  0
  2 20  1  0
  2 24  1  0
  3  6  4  0
  3 27  4  0
  4 22  4  0
  4 26  4  0
  6  7  4  0
  6 13  1  0
  7 19  4  0
  8 18  1  0
  8 23  1  0
  8 28  2  0
  9 17  1  0
  9 24  1  0
 10 11  1  0
 10 24  1  0
 11 23  1  0
 12 14  4  0
 12 16  4  0
 14 19  4  0
 15 18  4  0
 16 20  4  0
 17 25  1  0
 18 26  4  0
 19 29  4  0
 20 29  4  0
 21 23  1  0
 21 25  1  0
 27 29  4  0
M  END
$$$$

 Created by Python create_sdf_string function

 29 32  0  0  0  0  0  0  0  0999 V2000
    5.4450    8.7154   22.6662 C   0  0  0  0  0  0  0  0  0  0  0  0
   10.9154    5.4574   20.5483 C   0  0  0  0  0  0  0  0  0  0  0  0
    7.2709    4.5089   22.7542 C   0  0  0  0  0  0  0  0  0  0  0  0
    5.9698    7.6329   24.6581 C   0  0  0  0  0  0  0  0  0  0  0  0
    4.5542    8.9057   21.7104 O   0  0  0  0  0  0  0  0  0  0  0  0
    6.9895    3.2085   23.0690 C   0  0  0  0  0  0  0  0  0  0  0  0
    7.8391    2.2253   22.7260 N   0  0  0  0  0  0  0  0  0  0  0  0
    8.6968    9.8373   23.6359 C   0  0  0  0  0  0  0  0  0  0  0  0
   12.5135    6.5957   21.8396 C   0  0  0  0  0  0  0  0  0  0  0  0
   10.9406    8.2330   21.1350 C   0  0  0  0  0  0  0  0  0  0  0  0
    9.6648    8.5956   21.7310 C   0  0  0  0  0  0  0  0  0  0  0  0
   10.8829    1.7153   20.9865 C   0  0  0  0  0  0  0  0  0  0  0  0
    5.7768    2.8533   23.7910 C   0  0  0  0  0  0  0  0  0  0  0  0
    9.7977    1.4791   21.6912 N   0  0  0  0  0  0  0  0  0  0  0  0
    6.5976    9.3401   22.6478 N   0  0  0  0  0  0  0  0  0  0  0  0
   11.2031    3.0042   20.6246 C   0  0  0  0  0  0  0  0  0  0  0  0
   12.8688    7.7370   22.7287 C   0  0  0  0  0  0  0  0  0  0  0  0
    7.4487    9.1361   23.6506 C   0  0  0  0  0  0  0  0  0  0  0  0
    8.9772    2.5025   22.0273 C   0  0  0  0  0  0  0  0  0  0  0  0
   10.4859    4.0901   20.9730 C   0  0  0  0  0  0  0  0  0  0  0  0
   11.0962    9.3293   23.5072 C   0  0  0  0  0  0  0  0  0  0  0  0
    5.1273    7.8529   23.6208 N   0  0  0  0  0  0  0  0  0  0  0  0
    9.7552    9.2338   23.0171 N   0  0  0  0  0  0  0  0  0  0  0  0
   11.1797    6.7591   21.3326 N   0  0  0  0  0  0  0  0  0  0  0  0
   11.7728    8.0337   23.7267 C   0  0  0  0  0  0  0  0  0  0  0  0
    7.1194    8.3344   24.6775 C   0  0  0  0  0  0  0  0  0  0  0  0
    8.4311    4.7963   22.0500 C   0  0  0  0  0  0  0  0  0  0  0  0
    8.7393   10.8706   24.1871 O   0  0  0  0  0  0  0  0  0  0  0  0
    9.3093    3.8166   21.6712 C   0  0  0  0  0  0  0  0  0  0  0  0
  1  5  1  0
  1 15  4  0
  1 22  4  0
  2 20  1  0
  2 24  1  0
  3  6  4  0
  3 27  4  0
  4 22  4  0
  4 26  4  0
  6  7  4  0
  6 13  1  0
  7 19  4  0
  8 18  1  0
  8 23  1  0
  8 28  2  0
  9 17  1  0
  9 24  1  0
 10 11  1  0
 10 24  1  0
 11 23  1  0
 12 14  4  0
 12 16  4  0
 14 19  4  0
 15 18  4  0
 16 20  4  0
 17 25  1  0
 18 26  4  0
 19 29  4  0
 20 29  4  0
 21 23  1  0
 21 25  1  0
 27 29  4  0
M  END
$$$$

 Created by Python create_sdf_string function

 29 32  0  0  0  0  0  0  0  0999 V2000
    5.4450    8.7154   22.6662 C   0  0  0  0  0  0  0  0  0  0  0  0
   10.9154    5.4574   20.5483 C   0  0  0  0  0  0  0  0  0  0  0  0
    7.2709    4.5089   22.7542 C   0  0  0  0  0  0  0  0  0  0  0  0
    5.9698    7.6329   24.6581 C   0  0  0  0  0  0  0  0  0  0  0  0
    4.5542    8.9057   21.7104 O   0  0  0  0  0  0  0  0  0  0  0  0
    6.9895    3.2085   23.0690 C   0  0  0  0  0  0  0  0  0  0  0  0
    7.8391    2.2253   22.7260 N   0  0  0  0  0  0  0  0  0  0  0  0
    8.6968    9.8373   23.6359 C   0  0  0  0  0  0  0  0  0  0  0  0
   12.5135    6.5957   21.8396 C   0  0  0  0  0  0  0  0  0  0  0  0
   10.9406    8.2330   21.1350 C   0  0  0  0  0  0  0  0  0  0  0  0
    9.6648    8.5956   21.7310 C   0  0  0  0  0  0  0  0  0  0  0  0
   10.8829    1.7153   20.9865 C   0  0  0  0  0  0  0  0  0  0  0  0
    5.7768    2.8533   23.7910 C   0  0  0  0  0  0  0  0  0  0  0  0
    9.7977    1.4791   21.6912 N   0  0  0  0  0  0  0  0  0  0  0  0
    6.5976    9.3401   22.6478 N   0  0  0  0  0  0  0  0  0  0  0  0
   11.2031    3.0042   20.6246 C   0  0  0  0  0  0  0  0  0  0  0  0
   12.8688    7.7370   22.7287 C   0  0  0  0  0  0  0  0  0  0  0  0
    7.4487    9.1361   23.6506 C   0  0  0  0  0  0  0  0  0  0  0  0
    8.9772    2.5025   22.0273 C   0  0  0  0  0  0  0  0  0  0  0  0
   10.4859    4.0901   20.9730 C   0  0  0  0  0  0  0  0  0  0  0  0
   11.0962    9.3293   23.5072 C   0  0  0  0  0  0  0  0  0  0  0  0
    5.1273    7.8529   23.6208 N   0  0  0  0  0  0  0  0  0  0  0  0
    9.7552    9.2338   23.0171 N   0  0  0  0  0  0  0  0  0  0  0  0
   11.1797    6.7591   21.3326 N   0  0  0  0  0  0  0  0  0  0  0  0
   11.7728    8.0337   23.7267 C   0  0  0  0  0  0  0  0  0  0  0  0
    7.1194    8.3344   24.6775 C   0  0  0  0  0  0  0  0  0  0  0  0
    8.4311    4.7963   22.0500 C   0  0  0  0  0  0  0  0  0  0  0  0
    8.7393   10.8706   24.1871 O   0  0  0  0  0  0  0  0  0  0  0  0
    9.3093    3.8166   21.6712 C   0  0  0  0  0  0  0  0  0  0  0  0
  1  5  1  0
  1 15  4  0
  1 22  4  0
  2 20  1  0
  2 24  1  0
  3  6  4  0
  3 27  4  0
  4 22  4  0
  4 26  4  0
  6  7  4  0
  6 13  1  0
  7 19  4  0
  8 18  1  0
  8 23  1  0
  8 28  2  0
  9 17  1  0
  9 24  1  0
 10 11  1  0
 10 24  1  0
 11 23  1  0
 12 14  4  0
 12 16  4  0
 14 19  4  0
 15 18  4  0
 16 20  4  0
 17 25  1  0
 18 26  4  0
 19 29  4  0
 20 29  4  0
 21 23  1  0
 21 25  1  0
 27 29  4  0
M  END
$$$$

 Created by Python create_sdf_string function

 29 32  0  0  0  0  0  0  0  0999 V2000
    5.4450    8.7154   22.6662 C   0  0  0  0  0  0  0  0  0  0  0  0
   10.9154    5.4574   20.5483 C   0  0  0  0  0  0  0  0  0  0  0  0
    7.2709    4.5089   22.7542 C   0  0  0  0  0  0  0  0  0  0  0  0
    5.9698    7.6329   24.6581 C   0  0  0  0  0  0  0  0  0  0  0  0
    4.5542    8.9057   21.7104 O   0  0  0  0  0  0  0  0  0  0  0  0
    6.9895    3.2085   23.0690 C   0  0  0  0  0  0  0  0  0  0  0  0
    7.8391    2.2253   22.7260 N   0  0  0  0  0  0  0  0  0  0  0  0
    8.6968    9.8373   23.6359 C   0  0  0  0  0  0  0  0  0  0  0  0
   12.5135    6.5957   21.8396 C   0  0  0  0  0  0  0  0  0  0  0  0
   10.9406    8.2330   21.1350 C   0  0  0  0  0  0  0  0  0  0  0  0
    9.6648    8.5956   21.7310 C   0  0  0  0  0  0  0  0  0  0  0  0
   10.8829    1.7153   20.9865 C   0  0  0  0  0  0  0  0  0  0  0  0
    5.7768    2.8533   23.7910 C   0  0  0  0  0  0  0  0  0  0  0  0
    9.7977    1.4791   21.6912 N   0  0  0  0  0  0  0  0  0  0  0  0
    6.5976    9.3401   22.6478 N   0  0  0  0  0  0  0  0  0  0  0  0
   11.2031    3.0042   20.6246 C   0  0  0  0  0  0  0  0  0  0  0  0
   12.8688    7.7370   22.7287 C   0  0  0  0  0  0  0  0  0  0  0  0
    7.4487    9.1361   23.6506 C   0  0  0  0  0  0  0  0  0  0  0  0
    8.9772    2.5025   22.0273 C   0  0  0  0  0  0  0  0  0  0  0  0
   10.4859    4.0901   20.9730 C   0  0  0  0  0  0  0  0  0  0  0  0
   11.0962    9.3293   23.5072 C   0  0  0  0  0  0  0  0  0  0  0  0
    5.1273    7.8529   23.6208 N   0  0  0  0  0  0  0  0  0  0  0  0
    9.7552    9.2338   23.0171 N   0  0  0  0  0  0  0  0  0  0  0  0
   11.1797    6.7591   21.3326 N   0  0  0  0  0  0  0  0  0  0  0  0
   11.7728    8.0337   23.7267 C   0  0  0  0  0  0  0  0  0  0  0  0
    7.1194    8.3344   24.6775 C   0  0  0  0  0  0  0  0  0  0  0  0
    8.4311    4.7963   22.0500 C   0  0  0  0  0  0  0  0  0  0  0  0
    8.7393   10.8706   24.1871 O   0  0  0  0  0  0  0  0  0  0  0  0
    9.3093    3.8166   21.6712 C   0  0  0  0  0  0  0  0  0  0  0  0
  1  5  1  0
  1 15  4  0
  1 22  4  0
  2 20  1  0
  2 24  1  0
  3  6  4  0
  3 27  4  0
  4 22  4  0
  4 26  4  0
  6  7  4  0
  6 13  1  0
  7 19  4  0
  8 18  1  0
  8 23  1  0
  8 28  2  0
  9 17  1  0
  9 24  1  0
 10 11  1  0
 10 24  1  0
 11 23  1  0
 12 14  4  0
 12 16  4  0
 14 19  4  0
 15 18  4  0
 16 20  4  0
 17 25  1  0
 18 26  4  0
 19 29  4  0
 20 29  4  0
 21 23  1  0
 21 25  1  0
 27 29  4  0
M  END
$$$$

 Created by Python create_sdf_string function

 29 32  0  0  0  0  0  0  0  0999 V2000
    5.4450    8.7154   22.6662 C   0  0  0  0  0  0  0  0  0  0  0  0
   10.9154    5.4574   20.5483 C   0  0  0  0  0  0  0  0  0  0  0  0
    7.2709    4.5089   22.7542 C   0  0  0  0  0  0  0  0  0  0  0  0
    5.9698    7.6329   24.6581 C   0  0  0  0  0  0  0  0  0  0  0  0
    4.5542    8.9057   21.7104 O   0  0  0  0  0  0  0  0  0  0  0  0
    6.9895    3.2085   23.0690 C   0  0  0  0  0  0  0  0  0  0  0  0
    7.8391    2.2253   22.7260 N   0  0  0  0  0  0  0  0  0  0  0  0
    8.6968    9.8373   23.6359 C   0  0  0  0  0  0  0  0  0  0  0  0
   12.5135    6.5957   21.8396 C   0  0  0  0  0  0  0  0  0  0  0  0
   10.9406    8.2330   21.1350 C   0  0  0  0  0  0  0  0  0  0  0  0
    9.6648    8.5956   21.7310 C   0  0  0  0  0  0  0  0  0  0  0  0
   10.8829    1.7153   20.9865 C   0  0  0  0  0  0  0  0  0  0  0  0
    5.7768    2.8533   23.7910 C   0  0  0  0  0  0  0  0  0  0  0  0
    9.7977    1.4791   21.6912 N   0  0  0  0  0  0  0  0  0  0  0  0
    6.5976    9.3401   22.6478 N   0  0  0  0  0  0  0  0  0  0  0  0
   11.2031    3.0042   20.6246 C   0  0  0  0  0  0  0  0  0  0  0  0
   12.8688    7.7370   22.7287 C   0  0  0  0  0  0  0  0  0  0  0  0
    7.4487    9.1361   23.6506 C   0  0  0  0  0  0  0  0  0  0  0  0
    8.9772    2.5025   22.0273 C   0  0  0  0  0  0  0  0  0  0  0  0
   10.4859    4.0901   20.9730 C   0  0  0  0  0  0  0  0  0  0  0  0
   11.0962    9.3293   23.5072 C   0  0  0  0  0  0  0  0  0  0  0  0
    5.1273    7.8529   23.6208 N   0  0  0  0  0  0  0  0  0  0  0  0
    9.7552    9.2338   23.0171 N   0  0  0  0  0  0  0  0  0  0  0  0
   11.1797    6.7591   21.3326 N   0  0  0  0  0  0  0  0  0  0  0  0
   11.7728    8.0337   23.7267 C   0  0  0  0  0  0  0  0  0  0  0  0
    7.1194    8.3344   24.6775 C   0  0  0  0  0  0  0  0  0  0  0  0
    8.4311    4.7963   22.0500 C   0  0  0  0  0  0  0  0  0  0  0  0
    8.7393   10.8706   24.1871 O   0  0  0  0  0  0  0  0  0  0  0  0
    9.3093    3.8166   21.6712 C   0  0  0  0  0  0  0  0  0  0  0  0
  1  5  1  0
  1 15  4  0
  1 22  4  0
  2 20  1  0
  2 24  1  0
  3  6  4  0
  3 27  4  0
  4 22  4  0
  4 26  4  0
  6  7  4  0
  6 13  1  0
  7 19  4  0
  8 18  1  0
  8 23  1  0
  8 28  2  0
  9 17  1  0
  9 24  1  0
 10 11  1  0
 10 24  1  0
 11 23  1  0
 12 14  4  0
 12 16  4  0
 14 19  4  0
 15 18  4  0
 16 20  4  0
 17 25  1  0
 18 26  4  0
 19 29  4  0
 20 29  4  0
 21 23  1  0
 21 25  1  0
 27 29  4  0
M  END
$$$$

 Created by Python create_sdf_string function

 29 32  0  0  0  0  0  0  0  0999 V2000
    5.4450    8.7154   22.6662 C   0  0  0  0  0  0  0  0  0  0  0  0
   10.9154    5.4574   20.5483 C   0  0  0  0  0  0  0  0  0  0  0  0
    7.2709    4.5089   22.7542 C   0  0  0  0  0  0  0  0  0  0  0  0
    5.9698    7.6329   24.6581 C   0  0  0  0  0  0  0  0  0  0  0  0
    4.5542    8.9057   21.7104 O   0  0  0  0  0  0  0  0  0  0  0  0
    6.9895    3.2085   23.0690 C   0  0  0  0  0  0  0  0  0  0  0  0
    7.8391    2.2253   22.7260 N   0  0  0  0  0  0  0  0  0  0  0  0
    8.6968    9.8373   23.6359 C   0  0  0  0  0  0  0  0  0  0  0  0
   12.5135    6.5957   21.8396 C   0  0  0  0  0  0  0  0  0  0  0  0
   10.9406    8.2330   21.1350 C   0  0  0  0  0  0  0  0  0  0  0  0
    9.6648    8.5956   21.7310 C   0  0  0  0  0  0  0  0  0  0  0  0
   10.8829    1.7153   20.9865 C   0  0  0  0  0  0  0  0  0  0  0  0
    5.7768    2.8533   23.7910 C   0  0  0  0  0  0  0  0  0  0  0  0
    9.7977    1.4791   21.6912 N   0  0  0  0  0  0  0  0  0  0  0  0
    6.5976    9.3401   22.6478 N   0  0  0  0  0  0  0  0  0  0  0  0
   11.2031    3.0042   20.6246 C   0  0  0  0  0  0  0  0  0  0  0  0
   12.8688    7.7370   22.7287 C   0  0  0  0  0  0  0  0  0  0  0  0
    7.4487    9.1361   23.6506 C   0  0  0  0  0  0  0  0  0  0  0  0
    8.9772    2.5025   22.0273 C   0  0  0  0  0  0  0  0  0  0  0  0
   10.4859    4.0901   20.9730 C   0  0  0  0  0  0  0  0  0  0  0  0
   11.0962    9.3293   23.5072 C   0  0  0  0  0  0  0  0  0  0  0  0
    5.1273    7.8529   23.6208 N   0  0  0  0  0  0  0  0  0  0  0  0
    9.7552    9.2338   23.0171 N   0  0  0  0  0  0  0  0  0  0  0  0
   11.1797    6.7591   21.3326 N   0  0  0  0  0  0  0  0  0  0  0  0
   11.7728    8.0337   23.7267 C   0  0  0  0  0  0  0  0  0  0  0  0
    7.1194    8.3344   24.6775 C   0  0  0  0  0  0  0  0  0  0  0  0
    8.4311    4.7963   22.0500 C   0  0  0  0  0  0  0  0  0  0  0  0
    8.7393   10.8706   24.1871 O   0  0  0  0  0  0  0  0  0  0  0  0
    9.3093    3.8166   21.6712 C   0  0  0  0  0  0  0  0  0  0  0  0
  1  5  1  0
  1 15  4  0
  1 22  4  0
  2 20  1  0
  2 24  1  0
  3  6  4  0
  3 27  4  0
  4 22  4  0
  4 26  4  0
  6  7  4  0
  6 13  1  0
  7 19  4  0
  8 18  1  0
  8 23  1  0
  8 28  2  0
  9 17  1  0
  9 24  1  0
 10 11  1  0
 10 24  1  0
 11 23  1  0
 12 14  4  0
 12 16  4  0
 14 19  4  0
 15 18  4  0
 16 20  4  0
 17 25  1  0
 18 26  4  0
 19 29  4  0
 20 29  4  0
 21 23  1  0
 21 25  1  0
 27 29  4  0
M  END
$$$$

 Created by Python create_sdf_string function

 29 32  0  0  0  0  0  0  0  0999 V2000
    5.4450    8.7154   22.6662 C   0  0  0  0  0  0  0  0  0  0  0  0
   10.9154    5.4574   20.5483 C   0  0  0  0  0  0  0  0  0  0  0  0
    7.2709    4.5089   22.7542 C   0  0  0  0  0  0  0  0  0  0  0  0
    5.9698    7.6329   24.6581 C   0  0  0  0  0  0  0  0  0  0  0  0
    4.5542    8.9057   21.7104 O   0  0  0  0  0  0  0  0  0  0  0  0
    6.9895    3.2085   23.0690 C   0  0  0  0  0  0  0  0  0  0  0  0
    7.8391    2.2253   22.7260 N   0  0  0  0  0  0  0  0  0  0  0  0
    8.6968    9.8373   23.6359 C   0  0  0  0  0  0  0  0  0  0  0  0
   12.5135    6.5957   21.8396 C   0  0  0  0  0  0  0  0  0  0  0  0
   10.9406    8.2330   21.1350 C   0  0  0  0  0  0  0  0  0  0  0  0
    9.6648    8.5956   21.7310 C   0  0  0  0  0  0  0  0  0  0  0  0
   10.8829    1.7153   20.9865 C   0  0  0  0  0  0  0  0  0  0  0  0
    5.7768    2.8533   23.7910 C   0  0  0  0  0  0  0  0  0  0  0  0
    9.7977    1.4791   21.6912 N   0  0  0  0  0  0  0  0  0  0  0  0
    6.5976    9.3401   22.6478 N   0  0  0  0  0  0  0  0  0  0  0  0
   11.2031    3.0042   20.6246 C   0  0  0  0  0  0  0  0  0  0  0  0
   12.8688    7.7370   22.7287 C   0  0  0  0  0  0  0  0  0  0  0  0
    7.4487    9.1361   23.6506 C   0  0  0  0  0  0  0  0  0  0  0  0
    8.9772    2.5025   22.0273 C   0  0  0  0  0  0  0  0  0  0  0  0
   10.4859    4.0901   20.9730 C   0  0  0  0  0  0  0  0  0  0  0  0
   11.0962    9.3293   23.5072 C   0  0  0  0  0  0  0  0  0  0  0  0
    5.1273    7.8529   23.6208 N   0  0  0  0  0  0  0  0  0  0  0  0
    9.7552    9.2338   23.0171 N   0  0  0  0  0  0  0  0  0  0  0  0
   11.1797    6.7591   21.3326 N   0  0  0  0  0  0  0  0  0  0  0  0
   11.7728    8.0337   23.7267 C   0  0  0  0  0  0  0  0  0  0  0  0
    7.1194    8.3344   24.6775 C   0  0  0  0  0  0  0  0  0  0  0  0
    8.4311    4.7963   22.0500 C   0  0  0  0  0  0  0  0  0  0  0  0
    8.7393   10.8706   24.1871 O   0  0  0  0  0  0  0  0  0  0  0  0
    9.3093    3.8166   21.6712 C   0  0  0  0  0  0  0  0  0  0  0  0
  1  5  1  0
  1 15  4  0
  1 22  4  0
  2 20  1  0
  2 24  1  0
  3  6  4  0
  3 27  4  0
  4 22  4  0
  4 26  4  0
  6  7  4  0
  6 13  1  0
  7 19  4  0
  8 18  1  0
  8 23  1  0
  8 28  2  0
  9 17  1  0
  9 24  1  0
 10 11  1  0
 10 24  1  0
 11 23  1  0
 12 14  4  0
 12 16  4  0
 14 19  4  0
 15 18  4  0
 16 20  4  0
 17 25  1  0
 18 26  4  0
 19 29  4  0
 20 29  4  0
 21 23  1  0
 21 25  1  0
 27 29  4  0
M  END
$$$$

 Created by Python create_sdf_string function

 29 32  0  0  0  0  0  0  0  0999 V2000
    5.4450    8.7154   22.6662 C   0  0  0  0  0  0  0  0  0  0  0  0
   10.9154    5.4574   20.5483 C   0  0  0  0  0  0  0  0  0  0  0  0
    7.2709    4.5089   22.7542 C   0  0  0  0  0  0  0  0  0  0  0  0
    5.9698    7.6329   24.6581 C   0  0  0  0  0  0  0  0  0  0  0  0
    4.5542    8.9057   21.7104 O   0  0  0  0  0  0  0  0  0  0  0  0
    6.9895    3.2085   23.0690 C   0  0  0  0  0  0  0  0  0  0  0  0
    7.8391    2.2253   22.7260 N   0  0  0  0  0  0  0  0  0  0  0  0
    8.6968    9.8373   23.6359 C   0  0  0  0  0  0  0  0  0  0  0  0
   12.5135    6.5957   21.8396 C   0  0  0  0  0  0  0  0  0  0  0  0
   10.9406    8.2330   21.1350 C   0  0  0  0  0  0  0  0  0  0  0  0
    9.6648    8.5956   21.7310 C   0  0  0  0  0  0  0  0  0  0  0  0
   10.8829    1.7153   20.9865 C   0  0  0  0  0  0  0  0  0  0  0  0
    5.7768    2.8533   23.7910 C   0  0  0  0  0  0  0  0  0  0  0  0
    9.7977    1.4791   21.6912 N   0  0  0  0  0  0  0  0  0  0  0  0
    6.5976    9.3401   22.6478 N   0  0  0  0  0  0  0  0  0  0  0  0
   11.2031    3.0042   20.6246 C   0  0  0  0  0  0  0  0  0  0  0  0
   12.8688    7.7370   22.7287 C   0  0  0  0  0  0  0  0  0  0  0  0
    7.4487    9.1361   23.6506 C   0  0  0  0  0  0  0  0  0  0  0  0
    8.9772    2.5025   22.0273 C   0  0  0  0  0  0  0  0  0  0  0  0
   10.4859    4.0901   20.9730 C   0  0  0  0  0  0  0  0  0  0  0  0
   11.0962    9.3293   23.5072 C   0  0  0  0  0  0  0  0  0  0  0  0
    5.1273    7.8529   23.6208 N   0  0  0  0  0  0  0  0  0  0  0  0
    9.7552    9.2338   23.0171 N   0  0  0  0  0  0  0  0  0  0  0  0
   11.1797    6.7591   21.3326 N   0  0  0  0  0  0  0  0  0  0  0  0
   11.7728    8.0337   23.7267 C   0  0  0  0  0  0  0  0  0  0  0  0
    7.1194    8.3344   24.6775 C   0  0  0  0  0  0  0  0  0  0  0  0
    8.4311    4.7963   22.0500 C   0  0  0  0  0  0  0  0  0  0  0  0
    8.7393   10.8706   24.1871 O   0  0  0  0  0  0  0  0  0  0  0  0
    9.3093    3.8166   21.6712 C   0  0  0  0  0  0  0  0  0  0  0  0
  1  5  1  0
  1 15  4  0
  1 22  4  0
  2 20  1  0
  2 24  1  0
  3  6  4  0
  3 27  4  0
  4 22  4  0
  4 26  4  0
  6  7  4  0
  6 13  1  0
  7 19  4  0
  8 18  1  0
  8 23  1  0
  8 28  2  0
  9 17  1  0
  9 24  1  0
 10 11  1  0
 10 24  1  0
 11 23  1  0
 12 14  4  0
 12 16  4  0
 14 19  4  0
 15 18  4  0
 16 20  4  0
 17 25  1  0
 18 26  4  0
 19 29  4  0
 20 29  4  0
 21 23  1  0
 21 25  1  0
 27 29  4  0
M  END
$$$$

 Created by Python create_sdf_string function

 29 32  0  0  0  0  0  0  0  0999 V2000
    5.4450    8.7154   22.6662 C   0  0  0  0  0  0  0  0  0  0  0  0
   10.9154    5.4574   20.5483 C   0  0  0  0  0  0  0  0  0  0  0  0
    7.2709    4.5089   22.7542 C   0  0  0  0  0  0  0  0  0  0  0  0
    5.9698    7.6329   24.6581 C   0  0  0  0  0  0  0  0  0  0  0  0
    4.5542    8.9057   21.7104 O   0  0  0  0  0  0  0  0  0  0  0  0
    6.9895    3.2085   23.0690 C   0  0  0  0  0  0  0  0  0  0  0  0
    7.8391    2.2253   22.7260 N   0  0  0  0  0  0  0  0  0  0  0  0
    8.6968    9.8373   23.6359 C   0  0  0  0  0  0  0  0  0  0  0  0
   12.5135    6.5957   21.8396 C   0  0  0  0  0  0  0  0  0  0  0  0
   10.9406    8.2330   21.1350 C   0  0  0  0  0  0  0  0  0  0  0  0
    9.6648    8.5956   21.7310 C   0  0  0  0  0  0  0  0  0  0  0  0
   10.8829    1.7153   20.9865 C   0  0  0  0  0  0  0  0  0  0  0  0
    5.7768    2.8533   23.7910 C   0  0  0  0  0  0  0  0  0  0  0  0
    9.7977    1.4791   21.6912 N   0  0  0  0  0  0  0  0  0  0  0  0
    6.5976    9.3401   22.6478 N   0  0  0  0  0  0  0  0  0  0  0  0
   11.2031    3.0042   20.6246 C   0  0  0  0  0  0  0  0  0  0  0  0
   12.8688    7.7370   22.7287 C   0  0  0  0  0  0  0  0  0  0  0  0
    7.4487    9.1361   23.6506 C   0  0  0  0  0  0  0  0  0  0  0  0
    8.9772    2.5025   22.0273 C   0  0  0  0  0  0  0  0  0  0  0  0
   10.4859    4.0901   20.9730 C   0  0  0  0  0  0  0  0  0  0  0  0
   11.0962    9.3293   23.5072 C   0  0  0  0  0  0  0  0  0  0  0  0
    5.1273    7.8529   23.6208 N   0  0  0  0  0  0  0  0  0  0  0  0
    9.7552    9.2338   23.0171 N   0  0  0  0  0  0  0  0  0  0  0  0
   11.1797    6.7591   21.3326 N   0  0  0  0  0  0  0  0  0  0  0  0
   11.7728    8.0337   23.7267 C   0  0  0  0  0  0  0  0  0  0  0  0
    7.1194    8.3344   24.6775 C   0  0  0  0  0  0  0  0  0  0  0  0
    8.4311    4.7963   22.0500 C   0  0  0  0  0  0  0  0  0  0  0  0
    8.7393   10.8706   24.1871 O   0  0  0  0  0  0  0  0  0  0  0  0
    9.3093    3.8166   21.6712 C   0  0  0  0  0  0  0  0  0  0  0  0
  1  5  1  0
  1 15  4  0
  1 22  4  0
  2 20  1  0
  2 24  1  0
  3  6  4  0
  3 27  4  0
  4 22  4  0
  4 26  4  0
  6  7  4  0
  6 13  1  0
  7 19  4  0
  8 18  1  0
  8 23  1  0
  8 28  2  0
  9 17  1  0
  9 24  1  0
 10 11  1  0
 10 24  1  0
 11 23  1  0
 12 14  4  0
 12 16  4  0
 14 19  4  0
 15 18  4  0
 16 20  4  0
 17 25  1  0
 18 26  4  0
 19 29  4  0
 20 29  4  0
 21 23  1  0
 21 25  1  0
 27 29  4  0
M  END
$$$$

 Created by Python create_sdf_string function

 29 32  0  0  0  0  0  0  0  0999 V2000
    5.4450    8.7154   22.6662 C   0  0  0  0  0  0  0  0  0  0  0  0
   10.9154    5.4574   20.5483 C   0  0  0  0  0  0  0  0  0  0  0  0
    7.2709    4.5089   22.7542 C   0  0  0  0  0  0  0  0  0  0  0  0
    5.9698    7.6329   24.6581 C   0  0  0  0  0  0  0  0  0  0  0  0
    4.5542    8.9057   21.7104 O   0  0  0  0  0  0  0  0  0  0  0  0
    6.9895    3.2085   23.0690 C   0  0  0  0  0  0  0  0  0  0  0  0
    7.8391    2.2253   22.7260 N   0  0  0  0  0  0  0  0  0  0  0  0
    8.6968    9.8373   23.6359 C   0  0  0  0  0  0  0  0  0  0  0  0
   12.5135    6.5957   21.8396 C   0  0  0  0  0  0  0  0  0  0  0  0
   10.9406    8.2330   21.1350 C   0  0  0  0  0  0  0  0  0  0  0  0
    9.6648    8.5956   21.7310 C   0  0  0  0  0  0  0  0  0  0  0  0
   10.8829    1.7153   20.9865 C   0  0  0  0  0  0  0  0  0  0  0  0
    5.7768    2.8533   23.7910 C   0  0  0  0  0  0  0  0  0  0  0  0
    9.7977    1.4791   21.6912 N   0  0  0  0  0  0  0  0  0  0  0  0
    6.5976    9.3401   22.6478 N   0  0  0  0  0  0  0  0  0  0  0  0
   11.2031    3.0042   20.6246 C   0  0  0  0  0  0  0  0  0  0  0  0
   12.8688    7.7370   22.7287 C   0  0  0  0  0  0  0  0  0  0  0  0
    7.4487    9.1361   23.6506 C   0  0  0  0  0  0  0  0  0  0  0  0
    8.9772    2.5025   22.0273 C   0  0  0  0  0  0  0  0  0  0  0  0
   10.4859    4.0901   20.9730 C   0  0  0  0  0  0  0  0  0  0  0  0
   11.0962    9.3293   23.5072 C   0  0  0  0  0  0  0  0  0  0  0  0
    5.1273    7.8529   23.6208 N   0  0  0  0  0  0  0  0  0  0  0  0
    9.7552    9.2338   23.0171 N   0  0  0  0  0  0  0  0  0  0  0  0
   11.1797    6.7591   21.3326 N   0  0  0  0  0  0  0  0  0  0  0  0
   11.7728    8.0337   23.7267 C   0  0  0  0  0  0  0  0  0  0  0  0
    7.1194    8.3344   24.6775 C   0  0  0  0  0  0  0  0  0  0  0  0
    8.4311    4.7963   22.0500 C   0  0  0  0  0  0  0  0  0  0  0  0
    8.7393   10.8706   24.1871 O   0  0  0  0  0  0  0  0  0  0  0  0
    9.3093    3.8166   21.6712 C   0  0  0  0  0  0  0  0  0  0  0  0
  1  5  1  0
  1 15  4  0
  1 22  4  0
  2 20  1  0
  2 24  1  0
  3  6  4  0
  3 27  4  0
  4 22  4  0
  4 26  4  0
  6  7  4  0
  6 13  1  0
  7 19  4  0
  8 18  1  0
  8 23  1  0
  8 28  2  0
  9 17  1  0
  9 24  1  0
 10 11  1  0
 10 24  1  0
 11 23  1  0
 12 14  4  0
 12 16  4  0
 14 19  4  0
 15 18  4  0
 16 20  4  0
 17 25  1  0
 18 26  4  0
 19 29  4  0
 20 29  4  0
 21 23  1  0
 21 25  1  0
 27 29  4  0
M  END
$$$$

 Created by Python create_sdf_string function

 29 32  0  0  0  0  0  0  0  0999 V2000
    5.4450    8.7154   22.6662 C   0  0  0  0  0  0  0  0  0  0  0  0
   10.9154    5.4574   20.5483 C   0  0  0  0  0  0  0  0  0  0  0  0
    7.2709    4.5089   22.7542 C   0  0  0  0  0  0  0  0  0  0  0  0
    5.9698    7.6329   24.6581 C   0  0  0  0  0  0  0  0  0  0  0  0
    4.5542    8.9057   21.7104 O   0  0  0  0  0  0  0  0  0  0  0  0
    6.9895    3.2085   23.0690 C   0  0  0  0  0  0  0  0  0  0  0  0
    7.8391    2.2253   22.7260 N   0  0  0  0  0  0  0  0  0  0  0  0
    8.6968    9.8373   23.6359 C   0  0  0  0  0  0  0  0  0  0  0  0
   12.5135    6.5957   21.8396 C   0  0  0  0  0  0  0  0  0  0  0  0
   10.9406    8.2330   21.1350 C   0  0  0  0  0  0  0  0  0  0  0  0
    9.6648    8.5956   21.7310 C   0  0  0  0  0  0  0  0  0  0  0  0
   10.8829    1.7153   20.9865 C   0  0  0  0  0  0  0  0  0  0  0  0
    5.7768    2.8533   23.7910 C   0  0  0  0  0  0  0  0  0  0  0  0
    9.7977    1.4791   21.6912 N   0  0  0  0  0  0  0  0  0  0  0  0
    6.5976    9.3401   22.6478 N   0  0  0  0  0  0  0  0  0  0  0  0
   11.2031    3.0042   20.6246 C   0  0  0  0  0  0  0  0  0  0  0  0
   12.8688    7.7370   22.7287 C   0  0  0  0  0  0  0  0  0  0  0  0
    7.4487    9.1361   23.6506 C   0  0  0  0  0  0  0  0  0  0  0  0
    8.9772    2.5025   22.0273 C   0  0  0  0  0  0  0  0  0  0  0  0
   10.4859    4.0901   20.9730 C   0  0  0  0  0  0  0  0  0  0  0  0
   11.0962    9.3293   23.5072 C   0  0  0  0  0  0  0  0  0  0  0  0
    5.1273    7.8529   23.6208 N   0  0  0  0  0  0  0  0  0  0  0  0
    9.7552    9.2338   23.0171 N   0  0  0  0  0  0  0  0  0  0  0  0
   11.1797    6.7591   21.3326 N   0  0  0  0  0  0  0  0  0  0  0  0
   11.7728    8.0337   23.7267 C   0  0  0  0  0  0  0  0  0  0  0  0
    7.1194    8.3344   24.6775 C   0  0  0  0  0  0  0  0  0  0  0  0
    8.4311    4.7963   22.0500 C   0  0  0  0  0  0  0  0  0  0  0  0
    8.7393   10.8706   24.1871 O   0  0  0  0  0  0  0  0  0  0  0  0
    9.3093    3.8166   21.6712 C   0  0  0  0  0  0  0  0  0  0  0  0
  1  5  1  0
  1 15  4  0
  1 22  4  0
  2 20  1  0
  2 24  1  0
  3  6  4  0
  3 27  4  0
  4 22  4  0
  4 26  4  0
  6  7  4  0
  6 13  1  0
  7 19  4  0
  8 18  1  0
  8 23  1  0
  8 28  2  0
  9 17  1  0
  9 24  1  0
 10 11  1  0
 10 24  1  0
 11 23  1  0
 12 14  4  0
 12 16  4  0
 14 19  4  0
 15 18  4  0
 16 20  4  0
 17 25  1  0
 18 26  4  0
 19 29  4  0
 20 29  4  0
 21 23  1  0
 21 25  1  0
 27 29  4  0
M  END
$$$$

 Created by Python create_sdf_string function

 29 32  0  0  0  0  0  0  0  0999 V2000
    5.4450    8.7154   22.6662 C   0  0  0  0  0  0  0  0  0  0  0  0
   10.9154    5.4574   20.5483 C   0  0  0  0  0  0  0  0  0  0  0  0
    7.2709    4.5089   22.7542 C   0  0  0  0  0  0  0  0  0  0  0  0
    5.9698    7.6329   24.6581 C   0  0  0  0  0  0  0  0  0  0  0  0
    4.5542    8.9057   21.7104 O   0  0  0  0  0  0  0  0  0  0  0  0
    6.9895    3.2085   23.0690 C   0  0  0  0  0  0  0  0  0  0  0  0
    7.8391    2.2253   22.7260 N   0  0  0  0  0  0  0  0  0  0  0  0
    8.6968    9.8373   23.6359 C   0  0  0  0  0  0  0  0  0  0  0  0
   12.5135    6.5957   21.8396 C   0  0  0  0  0  0  0  0  0  0  0  0
   10.9406    8.2330   21.1350 C   0  0  0  0  0  0  0  0  0  0  0  0
    9.6648    8.5956   21.7310 C   0  0  0  0  0  0  0  0  0  0  0  0
   10.8829    1.7153   20.9865 C   0  0  0  0  0  0  0  0  0  0  0  0
    5.7768    2.8533   23.7910 C   0  0  0  0  0  0  0  0  0  0  0  0
    9.7977    1.4791   21.6912 N   0  0  0  0  0  0  0  0  0  0  0  0
    6.5976    9.3401   22.6478 N   0  0  0  0  0  0  0  0  0  0  0  0
   11.2031    3.0042   20.6246 C   0  0  0  0  0  0  0  0  0  0  0  0
   12.8688    7.7370   22.7287 C   0  0  0  0  0  0  0  0  0  0  0  0
    7.4487    9.1361   23.6506 C   0  0  0  0  0  0  0  0  0  0  0  0
    8.9772    2.5025   22.0273 C   0  0  0  0  0  0  0  0  0  0  0  0
   10.4859    4.0901   20.9730 C   0  0  0  0  0  0  0  0  0  0  0  0
   11.0962    9.3293   23.5072 C   0  0  0  0  0  0  0  0  0  0  0  0
    5.1273    7.8529   23.6208 N   0  0  0  0  0  0  0  0  0  0  0  0
    9.7552    9.2338   23.0171 N   0  0  0  0  0  0  0  0  0  0  0  0
   11.1797    6.7591   21.3326 N   0  0  0  0  0  0  0  0  0  0  0  0
   11.7728    8.0337   23.7267 C   0  0  0  0  0  0  0  0  0  0  0  0
    7.1194    8.3344   24.6775 C   0  0  0  0  0  0  0  0  0  0  0  0
    8.4311    4.7963   22.0500 C   0  0  0  0  0  0  0  0  0  0  0  0
    8.7393   10.8706   24.1871 O   0  0  0  0  0  0  0  0  0  0  0  0
    9.3093    3.8166   21.6712 C   0  0  0  0  0  0  0  0  0  0  0  0
  1  5  1  0
  1 15  4  0
  1 22  4  0
  2 20  1  0
  2 24  1  0
  3  6  4  0
  3 27  4  0
  4 22  4  0
  4 26  4  0
  6  7  4  0
  6 13  1  0
  7 19  4  0
  8 18  1  0
  8 23  1  0
  8 28  2  0
  9 17  1  0
  9 24  1  0
 10 11  1  0
 10 24  1  0
 11 23  1  0
 12 14  4  0
 12 16  4  0
 14 19  4  0
 15 18  4  0
 16 20  4  0
 17 25  1  0
 18 26  4  0
 19 29  4  0
 20 29  4  0
 21 23  1  0
 21 25  1  0
 27 29  4  0
M  END
$$$$

 Created by Python create_sdf_string function

 29 32  0  0  0  0  0  0  0  0999 V2000
    5.4450    8.7154   22.6662 C   0  0  0  0  0  0  0  0  0  0  0  0
   10.9154    5.4574   20.5483 C   0  0  0  0  0  0  0  0  0  0  0  0
    7.2709    4.5089   22.7542 C   0  0  0  0  0  0  0  0  0  0  0  0
    5.9698    7.6329   24.6581 C   0  0  0  0  0  0  0  0  0  0  0  0
    4.5542    8.9057   21.7104 O   0  0  0  0  0  0  0  0  0  0  0  0
    6.9895    3.2085   23.0690 C   0  0  0  0  0  0  0  0  0  0  0  0
    7.8391    2.2253   22.7260 N   0  0  0  0  0  0  0  0  0  0  0  0
    8.6968    9.8373   23.6359 C   0  0  0  0  0  0  0  0  0  0  0  0
   12.5135    6.5957   21.8396 C   0  0  0  0  0  0  0  0  0  0  0  0
   10.9406    8.2330   21.1350 C   0  0  0  0  0  0  0  0  0  0  0  0
    9.6648    8.5956   21.7310 C   0  0  0  0  0  0  0  0  0  0  0  0
   10.8829    1.7153   20.9865 C   0  0  0  0  0  0  0  0  0  0  0  0
    5.7768    2.8533   23.7910 C   0  0  0  0  0  0  0  0  0  0  0  0
    9.7977    1.4791   21.6912 N   0  0  0  0  0  0  0  0  0  0  0  0
    6.5976    9.3401   22.6478 N   0  0  0  0  0  0  0  0  0  0  0  0
   11.2031    3.0042   20.6246 C   0  0  0  0  0  0  0  0  0  0  0  0
   12.8688    7.7370   22.7287 C   0  0  0  0  0  0  0  0  0  0  0  0
    7.4487    9.1361   23.6506 C   0  0  0  0  0  0  0  0  0  0  0  0
    8.9772    2.5025   22.0273 C   0  0  0  0  0  0  0  0  0  0  0  0
   10.4859    4.0901   20.9730 C   0  0  0  0  0  0  0  0  0  0  0  0
   11.0962    9.3293   23.5072 C   0  0  0  0  0  0  0  0  0  0  0  0
    5.1273    7.8529   23.6208 N   0  0  0  0  0  0  0  0  0  0  0  0
    9.7552    9.2338   23.0171 N   0  0  0  0  0  0  0  0  0  0  0  0
   11.1797    6.7591   21.3326 N   0  0  0  0  0  0  0  0  0  0  0  0
   11.7728    8.0337   23.7267 C   0  0  0  0  0  0  0  0  0  0  0  0
    7.1194    8.3344   24.6775 C   0  0  0  0  0  0  0  0  0  0  0  0
    8.4311    4.7963   22.0500 C   0  0  0  0  0  0  0  0  0  0  0  0
    8.7393   10.8706   24.1871 O   0  0  0  0  0  0  0  0  0  0  0  0
    9.3093    3.8166   21.6712 C   0  0  0  0  0  0  0  0  0  0  0  0
  1  5  1  0
  1 15  4  0
  1 22  4  0
  2 20  1  0
  2 24  1  0
  3  6  4  0
  3 27  4  0
  4 22  4  0
  4 26  4  0
  6  7  4  0
  6 13  1  0
  7 19  4  0
  8 18  1  0
  8 23  1  0
  8 28  2  0
  9 17  1  0
  9 24  1  0
 10 11  1  0
 10 24  1  0
 11 23  1  0
 12 14  4  0
 12 16  4  0
 14 19  4  0
 15 18  4  0
 16 20  4  0
 17 25  1  0
 18 26  4  0
 19 29  4  0
 20 29  4  0
 21 23  1  0
 21 25  1  0
 27 29  4  0
M  END
$$$$

 Created by Python create_sdf_string function

 29 32  0  0  0  0  0  0  0  0999 V2000
    5.4450    8.7154   22.6662 C   0  0  0  0  0  0  0  0  0  0  0  0
   10.9154    5.4574   20.5483 C   0  0  0  0  0  0  0  0  0  0  0  0
    7.2709    4.5089   22.7542 C   0  0  0  0  0  0  0  0  0  0  0  0
    5.9698    7.6329   24.6581 C   0  0  0  0  0  0  0  0  0  0  0  0
    4.5542    8.9057   21.7104 O   0  0  0  0  0  0  0  0  0  0  0  0
    6.9895    3.2085   23.0690 C   0  0  0  0  0  0  0  0  0  0  0  0
    7.8391    2.2253   22.7260 N   0  0  0  0  0  0  0  0  0  0  0  0
    8.6968    9.8373   23.6359 C   0  0  0  0  0  0  0  0  0  0  0  0
   12.5135    6.5957   21.8396 C   0  0  0  0  0  0  0  0  0  0  0  0
   10.9406    8.2330   21.1350 C   0  0  0  0  0  0  0  0  0  0  0  0
    9.6648    8.5956   21.7310 C   0  0  0  0  0  0  0  0  0  0  0  0
   10.8829    1.7153   20.9865 C   0  0  0  0  0  0  0  0  0  0  0  0
    5.7768    2.8533   23.7910 C   0  0  0  0  0  0  0  0  0  0  0  0
    9.7977    1.4791   21.6912 N   0  0  0  0  0  0  0  0  0  0  0  0
    6.5976    9.3401   22.6478 N   0  0  0  0  0  0  0  0  0  0  0  0
   11.2031    3.0042   20.6246 C   0  0  0  0  0  0  0  0  0  0  0  0
   12.8688    7.7370   22.7287 C   0  0  0  0  0  0  0  0  0  0  0  0
    7.4487    9.1361   23.6506 C   0  0  0  0  0  0  0  0  0  0  0  0
    8.9772    2.5025   22.0273 C   0  0  0  0  0  0  0  0  0  0  0  0
   10.4859    4.0901   20.9730 C   0  0  0  0  0  0  0  0  0  0  0  0
   11.0962    9.3293   23.5072 C   0  0  0  0  0  0  0  0  0  0  0  0
    5.1273    7.8529   23.6208 N   0  0  0  0  0  0  0  0  0  0  0  0
    9.7552    9.2338   23.0171 N   0  0  0  0  0  0  0  0  0  0  0  0
   11.1797    6.7591   21.3326 N   0  0  0  0  0  0  0  0  0  0  0  0
   11.7728    8.0337   23.7267 C   0  0  0  0  0  0  0  0  0  0  0  0
    7.1194    8.3344   24.6775 C   0  0  0  0  0  0  0  0  0  0  0  0
    8.4311    4.7963   22.0500 C   0  0  0  0  0  0  0  0  0  0  0  0
    8.7393   10.8706   24.1871 O   0  0  0  0  0  0  0  0  0  0  0  0
    9.3093    3.8166   21.6712 C   0  0  0  0  0  0  0  0  0  0  0  0
  1  5  1  0
  1 15  4  0
  1 22  4  0
  2 20  1  0
  2 24  1  0
  3  6  4  0
  3 27  4  0
  4 22  4  0
  4 26  4  0
  6  7  4  0
  6 13  1  0
  7 19  4  0
  8 18  1  0
  8 23  1  0
  8 28  2  0
  9 17  1  0
  9 24  1  0
 10 11  1  0
 10 24  1  0
 11 23  1  0
 12 14  4  0
 12 16  4  0
 14 19  4  0
 15 18  4  0
 16 20  4  0
 17 25  1  0
 18 26  4  0
 19 29  4  0
 20 29  4  0
 21 23  1  0
 21 25  1  0
 27 29  4  0
M  END
$$$$

 Created by Python create_sdf_string function

 29 32  0  0  0  0  0  0  0  0999 V2000
    5.4450    8.7154   22.6662 C   0  0  0  0  0  0  0  0  0  0  0  0
   10.9154    5.4574   20.5483 C   0  0  0  0  0  0  0  0  0  0  0  0
    7.2709    4.5089   22.7542 C   0  0  0  0  0  0  0  0  0  0  0  0
    5.9698    7.6329   24.6581 C   0  0  0  0  0  0  0  0  0  0  0  0
    4.5542    8.9057   21.7104 O   0  0  0  0  0  0  0  0  0  0  0  0
    6.9895    3.2085   23.0690 C   0  0  0  0  0  0  0  0  0  0  0  0
    7.8391    2.2253   22.7260 N   0  0  0  0  0  0  0  0  0  0  0  0
    8.6968    9.8373   23.6359 C   0  0  0  0  0  0  0  0  0  0  0  0
   12.5135    6.5957   21.8396 C   0  0  0  0  0  0  0  0  0  0  0  0
   10.9406    8.2330   21.1350 C   0  0  0  0  0  0  0  0  0  0  0  0
    9.6648    8.5956   21.7310 C   0  0  0  0  0  0  0  0  0  0  0  0
   10.8829    1.7153   20.9865 C   0  0  0  0  0  0  0  0  0  0  0  0
    5.7768    2.8533   23.7910 C   0  0  0  0  0  0  0  0  0  0  0  0
    9.7977    1.4791   21.6912 N   0  0  0  0  0  0  0  0  0  0  0  0
    6.5976    9.3401   22.6478 N   0  0  0  0  0  0  0  0  0  0  0  0
   11.2031    3.0042   20.6246 C   0  0  0  0  0  0  0  0  0  0  0  0
   12.8688    7.7370   22.7287 C   0  0  0  0  0  0  0  0  0  0  0  0
    7.4487    9.1361   23.6506 C   0  0  0  0  0  0  0  0  0  0  0  0
    8.9772    2.5025   22.0273 C   0  0  0  0  0  0  0  0  0  0  0  0
   10.4859    4.0901   20.9730 C   0  0  0  0  0  0  0  0  0  0  0  0
   11.0962    9.3293   23.5072 C   0  0  0  0  0  0  0  0  0  0  0  0
    5.1273    7.8529   23.6208 N   0  0  0  0  0  0  0  0  0  0  0  0
    9.7552    9.2338   23.0171 N   0  0  0  0  0  0  0  0  0  0  0  0
   11.1797    6.7591   21.3326 N   0  0  0  0  0  0  0  0  0  0  0  0
   11.7728    8.0337   23.7267 C   0  0  0  0  0  0  0  0  0  0  0  0
    7.1194    8.3344   24.6775 C   0  0  0  0  0  0  0  0  0  0  0  0
    8.4311    4.7963   22.0500 C   0  0  0  0  0  0  0  0  0  0  0  0
    8.7393   10.8706   24.1871 O   0  0  0  0  0  0  0  0  0  0  0  0
    9.3093    3.8166   21.6712 C   0  0  0  0  0  0  0  0  0  0  0  0
  1  5  1  0
  1 15  4  0
  1 22  4  0
  2 20  1  0
  2 24  1  0
  3  6  4  0
  3 27  4  0
  4 22  4  0
  4 26  4  0
  6  7  4  0
  6 13  1  0
  7 19  4  0
  8 18  1  0
  8 23  1  0
  8 28  2  0
  9 17  1  0
  9 24  1  0
 10 11  1  0
 10 24  1  0
 11 23  1  0
 12 14  4  0
 12 16  4  0
 14 19  4  0
 15 18  4  0
 16 20  4  0
 17 25  1  0
 18 26  4  0
 19 29  4  0
 20 29  4  0
 21 23  1  0
 21 25  1  0
 27 29  4  0
M  END
$$$$

 Created by Python create_sdf_string function

 29 32  0  0  0  0  0  0  0  0999 V2000
    5.4450    8.7154   22.6662 C   0  0  0  0  0  0  0  0  0  0  0  0
   10.9154    5.4574   20.5483 C   0  0  0  0  0  0  0  0  0  0  0  0
    7.2709    4.5089   22.7542 C   0  0  0  0  0  0  0  0  0  0  0  0
    5.9698    7.6329   24.6581 C   0  0  0  0  0  0  0  0  0  0  0  0
    4.5542    8.9057   21.7104 O   0  0  0  0  0  0  0  0  0  0  0  0
    6.9895    3.2085   23.0690 C   0  0  0  0  0  0  0  0  0  0  0  0
    7.8391    2.2253   22.7260 N   0  0  0  0  0  0  0  0  0  0  0  0
    8.6968    9.8373   23.6359 C   0  0  0  0  0  0  0  0  0  0  0  0
   12.5135    6.5957   21.8396 C   0  0  0  0  0  0  0  0  0  0  0  0
   10.9406    8.2330   21.1350 C   0  0  0  0  0  0  0  0  0  0  0  0
    9.6648    8.5956   21.7310 C   0  0  0  0  0  0  0  0  0  0  0  0
   10.8829    1.7153   20.9865 C   0  0  0  0  0  0  0  0  0  0  0  0
    5.7768    2.8533   23.7910 C   0  0  0  0  0  0  0  0  0  0  0  0
    9.7977    1.4791   21.6912 N   0  0  0  0  0  0  0  0  0  0  0  0
    6.5976    9.3401   22.6478 N   0  0  0  0  0  0  0  0  0  0  0  0
   11.2031    3.0042   20.6246 C   0  0  0  0  0  0  0  0  0  0  0  0
   12.8688    7.7370   22.7287 C   0  0  0  0  0  0  0  0  0  0  0  0
    7.4487    9.1361   23.6506 C   0  0  0  0  0  0  0  0  0  0  0  0
    8.9772    2.5025   22.0273 C   0  0  0  0  0  0  0  0  0  0  0  0
   10.4859    4.0901   20.9730 C   0  0  0  0  0  0  0  0  0  0  0  0
   11.0962    9.3293   23.5072 C   0  0  0  0  0  0  0  0  0  0  0  0
    5.1273    7.8529   23.6208 N   0  0  0  0  0  0  0  0  0  0  0  0
    9.7552    9.2338   23.0171 N   0  0  0  0  0  0  0  0  0  0  0  0
   11.1797    6.7591   21.3326 N   0  0  0  0  0  0  0  0  0  0  0  0
   11.7728    8.0337   23.7267 C   0  0  0  0  0  0  0  0  0  0  0  0
    7.1194    8.3344   24.6775 C   0  0  0  0  0  0  0  0  0  0  0  0
    8.4311    4.7963   22.0500 C   0  0  0  0  0  0  0  0  0  0  0  0
    8.7393   10.8706   24.1871 O   0  0  0  0  0  0  0  0  0  0  0  0
    9.3093    3.8166   21.6712 C   0  0  0  0  0  0  0  0  0  0  0  0
  1  5  1  0
  1 15  4  0
  1 22  4  0
  2 20  1  0
  2 24  1  0
  3  6  4  0
  3 27  4  0
  4 22  4  0
  4 26  4  0
  6  7  4  0
  6 13  1  0
  7 19  4  0
  8 18  1  0
  8 23  1  0
  8 28  2  0
  9 17  1  0
  9 24  1  0
 10 11  1  0
 10 24  1  0
 11 23  1  0
 12 14  4  0
 12 16  4  0
 14 19  4  0
 15 18  4  0
 16 20  4  0
 17 25  1  0
 18 26  4  0
 19 29  4  0
 20 29  4  0
 21 23  1  0
 21 25  1  0
 27 29  4  0
M  END
$$$$

 Created by Python create_sdf_string function

 29 32  0  0  0  0  0  0  0  0999 V2000
    5.4450    8.7154   22.6662 C   0  0  0  0  0  0  0  0  0  0  0  0
   10.9154    5.4574   20.5483 C   0  0  0  0  0  0  0  0  0  0  0  0
    7.2709    4.5089   22.7542 C   0  0  0  0  0  0  0  0  0  0  0  0
    5.9698    7.6329   24.6581 C   0  0  0  0  0  0  0  0  0  0  0  0
    4.5542    8.9057   21.7104 O   0  0  0  0  0  0  0  0  0  0  0  0
    6.9895    3.2085   23.0690 C   0  0  0  0  0  0  0  0  0  0  0  0
    7.8391    2.2253   22.7260 N   0  0  0  0  0  0  0  0  0  0  0  0
    8.6968    9.8373   23.6359 C   0  0  0  0  0  0  0  0  0  0  0  0
   12.5135    6.5957   21.8396 C   0  0  0  0  0  0  0  0  0  0  0  0
   10.9406    8.2330   21.1350 C   0  0  0  0  0  0  0  0  0  0  0  0
    9.6648    8.5956   21.7310 C   0  0  0  0  0  0  0  0  0  0  0  0
   10.8829    1.7153   20.9865 C   0  0  0  0  0  0  0  0  0  0  0  0
    5.7768    2.8533   23.7910 C   0  0  0  0  0  0  0  0  0  0  0  0
    9.7977    1.4791   21.6912 N   0  0  0  0  0  0  0  0  0  0  0  0
    6.5976    9.3401   22.6478 N   0  0  0  0  0  0  0  0  0  0  0  0
   11.2031    3.0042   20.6246 C   0  0  0  0  0  0  0  0  0  0  0  0
   12.8688    7.7370   22.7287 C   0  0  0  0  0  0  0  0  0  0  0  0
    7.4487    9.1361   23.6506 C   0  0  0  0  0  0  0  0  0  0  0  0
    8.9772    2.5025   22.0273 C   0  0  0  0  0  0  0  0  0  0  0  0
   10.4859    4.0901   20.9730 C   0  0  0  0  0  0  0  0  0  0  0  0
   11.0962    9.3293   23.5072 C   0  0  0  0  0  0  0  0  0  0  0  0
    5.1273    7.8529   23.6208 N   0  0  0  0  0  0  0  0  0  0  0  0
    9.7552    9.2338   23.0171 N   0  0  0  0  0  0  0  0  0  0  0  0
   11.1797    6.7591   21.3326 N   0  0  0  0  0  0  0  0  0  0  0  0
   11.7728    8.0337   23.7267 C   0  0  0  0  0  0  0  0  0  0  0  0
    7.1194    8.3344   24.6775 C   0  0  0  0  0  0  0  0  0  0  0  0
    8.4311    4.7963   22.0500 C   0  0  0  0  0  0  0  0  0  0  0  0
    8.7393   10.8706   24.1871 O   0  0  0  0  0  0  0  0  0  0  0  0
    9.3093    3.8166   21.6712 C   0  0  0  0  0  0  0  0  0  0  0  0
  1  5  1  0
  1 15  4  0
  1 22  4  0
  2 20  1  0
  2 24  1  0
  3  6  4  0
  3 27  4  0
  4 22  4  0
  4 26  4  0
  6  7  4  0
  6 13  1  0
  7 19  4  0
  8 18  1  0
  8 23  1  0
  8 28  2  0
  9 17  1  0
  9 24  1  0
 10 11  1  0
 10 24  1  0
 11 23  1  0
 12 14  4  0
 12 16  4  0
 14 19  4  0
 15 18  4  0
 16 20  4  0
 17 25  1  0
 18 26  4  0
 19 29  4  0
 20 29  4  0
 21 23  1  0
 21 25  1  0
 27 29  4  0
M  END
$$$$

 Created by Python create_sdf_string function

 29 32  0  0  0  0  0  0  0  0999 V2000
    5.4450    8.7154   22.6662 C   0  0  0  0  0  0  0  0  0  0  0  0
   10.9154    5.4574   20.5483 C   0  0  0  0  0  0  0  0  0  0  0  0
    7.2709    4.5089   22.7542 C   0  0  0  0  0  0  0  0  0  0  0  0
    5.9698    7.6329   24.6581 C   0  0  0  0  0  0  0  0  0  0  0  0
    4.5542    8.9057   21.7104 O   0  0  0  0  0  0  0  0  0  0  0  0
    6.9895    3.2085   23.0690 C   0  0  0  0  0  0  0  0  0  0  0  0
    7.8391    2.2253   22.7260 N   0  0  0  0  0  0  0  0  0  0  0  0
    8.6968    9.8373   23.6359 C   0  0  0  0  0  0  0  0  0  0  0  0
   12.5135    6.5957   21.8396 C   0  0  0  0  0  0  0  0  0  0  0  0
   10.9406    8.2330   21.1350 C   0  0  0  0  0  0  0  0  0  0  0  0
    9.6648    8.5956   21.7310 C   0  0  0  0  0  0  0  0  0  0  0  0
   10.8829    1.7153   20.9865 C   0  0  0  0  0  0  0  0  0  0  0  0
    5.7768    2.8533   23.7910 C   0  0  0  0  0  0  0  0  0  0  0  0
    9.7977    1.4791   21.6912 N   0  0  0  0  0  0  0  0  0  0  0  0
    6.5976    9.3401   22.6478 N   0  0  0  0  0  0  0  0  0  0  0  0
   11.2031    3.0042   20.6246 C   0  0  0  0  0  0  0  0  0  0  0  0
   12.8688    7.7370   22.7287 C   0  0  0  0  0  0  0  0  0  0  0  0
    7.4487    9.1361   23.6506 C   0  0  0  0  0  0  0  0  0  0  0  0
    8.9772    2.5025   22.0273 C   0  0  0  0  0  0  0  0  0  0  0  0
   10.4859    4.0901   20.9730 C   0  0  0  0  0  0  0  0  0  0  0  0
   11.0962    9.3293   23.5072 C   0  0  0  0  0  0  0  0  0  0  0  0
    5.1273    7.8529   23.6208 N   0  0  0  0  0  0  0  0  0  0  0  0
    9.7552    9.2338   23.0171 N   0  0  0  0  0  0  0  0  0  0  0  0
   11.1797    6.7591   21.3326 N   0  0  0  0  0  0  0  0  0  0  0  0
   11.7728    8.0337   23.7267 C   0  0  0  0  0  0  0  0  0  0  0  0
    7.1194    8.3344   24.6775 C   0  0  0  0  0  0  0  0  0  0  0  0
    8.4311    4.7963   22.0500 C   0  0  0  0  0  0  0  0  0  0  0  0
    8.7393   10.8706   24.1871 O   0  0  0  0  0  0  0  0  0  0  0  0
    9.3093    3.8166   21.6712 C   0  0  0  0  0  0  0  0  0  0  0  0
  1  5  1  0
  1 15  4  0
  1 22  4  0
  2 20  1  0
  2 24  1  0
  3  6  4  0
  3 27  4  0
  4 22  4  0
  4 26  4  0
  6  7  4  0
  6 13  1  0
  7 19  4  0
  8 18  1  0
  8 23  1  0
  8 28  2  0
  9 17  1  0
  9 24  1  0
 10 11  1  0
 10 24  1  0
 11 23  1  0
 12 14  4  0
 12 16  4  0
 14 19  4  0
 15 18  4  0
 16 20  4  0
 17 25  1  0
 18 26  4  0
 19 29  4  0
 20 29  4  0
 21 23  1  0
 21 25  1  0
 27 29  4  0
M  END
$$$$

 Created by Python create_sdf_string function

 29 32  0  0  0  0  0  0  0  0999 V2000
    5.4450    8.7154   22.6662 C   0  0  0  0  0  0  0  0  0  0  0  0
   10.9154    5.4574   20.5483 C   0  0  0  0  0  0  0  0  0  0  0  0
    7.2709    4.5089   22.7542 C   0  0  0  0  0  0  0  0  0  0  0  0
    5.9698    7.6329   24.6581 C   0  0  0  0  0  0  0  0  0  0  0  0
    4.5542    8.9057   21.7104 O   0  0  0  0  0  0  0  0  0  0  0  0
    6.9895    3.2085   23.0690 C   0  0  0  0  0  0  0  0  0  0  0  0
    7.8391    2.2253   22.7260 N   0  0  0  0  0  0  0  0  0  0  0  0
    8.6968    9.8373   23.6359 C   0  0  0  0  0  0  0  0  0  0  0  0
   12.5135    6.5957   21.8396 C   0  0  0  0  0  0  0  0  0  0  0  0
   10.9406    8.2330   21.1350 C   0  0  0  0  0  0  0  0  0  0  0  0
    9.6648    8.5956   21.7310 C   0  0  0  0  0  0  0  0  0  0  0  0
   10.8829    1.7153   20.9865 C   0  0  0  0  0  0  0  0  0  0  0  0
    5.7768    2.8533   23.7910 C   0  0  0  0  0  0  0  0  0  0  0  0
    9.7977    1.4791   21.6912 N   0  0  0  0  0  0  0  0  0  0  0  0
    6.5976    9.3401   22.6478 N   0  0  0  0  0  0  0  0  0  0  0  0
   11.2031    3.0042   20.6246 C   0  0  0  0  0  0  0  0  0  0  0  0
   12.8688    7.7370   22.7287 C   0  0  0  0  0  0  0  0  0  0  0  0
    7.4487    9.1361   23.6506 C   0  0  0  0  0  0  0  0  0  0  0  0
    8.9772    2.5025   22.0273 C   0  0  0  0  0  0  0  0  0  0  0  0
   10.4859    4.0901   20.9730 C   0  0  0  0  0  0  0  0  0  0  0  0
   11.0962    9.3293   23.5072 C   0  0  0  0  0  0  0  0  0  0  0  0
    5.1273    7.8529   23.6208 N   0  0  0  0  0  0  0  0  0  0  0  0
    9.7552    9.2338   23.0171 N   0  0  0  0  0  0  0  0  0  0  0  0
   11.1797    6.7591   21.3326 N   0  0  0  0  0  0  0  0  0  0  0  0
   11.7728    8.0337   23.7267 C   0  0  0  0  0  0  0  0  0  0  0  0
    7.1194    8.3344   24.6775 C   0  0  0  0  0  0  0  0  0  0  0  0
    8.4311    4.7963   22.0500 C   0  0  0  0  0  0  0  0  0  0  0  0
    8.7393   10.8706   24.1871 O   0  0  0  0  0  0  0  0  0  0  0  0
    9.3093    3.8166   21.6712 C   0  0  0  0  0  0  0  0  0  0  0  0
  1  5  1  0
  1 15  4  0
  1 22  4  0
  2 20  1  0
  2 24  1  0
  3  6  4  0
  3 27  4  0
  4 22  4  0
  4 26  4  0
  6  7  4  0
  6 13  1  0
  7 19  4  0
  8 18  1  0
  8 23  1  0
  8 28  2  0
  9 17  1  0
  9 24  1  0
 10 11  1  0
 10 24  1  0
 11 23  1  0
 12 14  4  0
 12 16  4  0
 14 19  4  0
 15 18  4  0
 16 20  4  0
 17 25  1  0
 18 26  4  0
 19 29  4  0
 20 29  4  0
 21 23  1  0
 21 25  1  0
 27 29  4  0
M  END
$$$$

 Created by Python create_sdf_string function

 29 32  0  0  0  0  0  0  0  0999 V2000
    5.4450    8.7154   22.6662 C   0  0  0  0  0  0  0  0  0  0  0  0
   10.9154    5.4574   20.5483 C   0  0  0  0  0  0  0  0  0  0  0  0
    7.2709    4.5089   22.7542 C   0  0  0  0  0  0  0  0  0  0  0  0
    5.9698    7.6329   24.6581 C   0  0  0  0  0  0  0  0  0  0  0  0
    4.5542    8.9057   21.7104 O   0  0  0  0  0  0  0  0  0  0  0  0
    6.9895    3.2085   23.0690 C   0  0  0  0  0  0  0  0  0  0  0  0
    7.8391    2.2253   22.7260 N   0  0  0  0  0  0  0  0  0  0  0  0
    8.6968    9.8373   23.6359 C   0  0  0  0  0  0  0  0  0  0  0  0
   12.5135    6.5957   21.8396 C   0  0  0  0  0  0  0  0  0  0  0  0
   10.9406    8.2330   21.1350 C   0  0  0  0  0  0  0  0  0  0  0  0
    9.6648    8.5956   21.7310 C   0  0  0  0  0  0  0  0  0  0  0  0
   10.8829    1.7153   20.9865 C   0  0  0  0  0  0  0  0  0  0  0  0
    5.7768    2.8533   23.7910 C   0  0  0  0  0  0  0  0  0  0  0  0
    9.7977    1.4791   21.6912 N   0  0  0  0  0  0  0  0  0  0  0  0
    6.5976    9.3401   22.6478 N   0  0  0  0  0  0  0  0  0  0  0  0
   11.2031    3.0042   20.6246 C   0  0  0  0  0  0  0  0  0  0  0  0
   12.8688    7.7370   22.7287 C   0  0  0  0  0  0  0  0  0  0  0  0
    7.4487    9.1361   23.6506 C   0  0  0  0  0  0  0  0  0  0  0  0
    8.9772    2.5025   22.0273 C   0  0  0  0  0  0  0  0  0  0  0  0
   10.4859    4.0901   20.9730 C   0  0  0  0  0  0  0  0  0  0  0  0
   11.0962    9.3293   23.5072 C   0  0  0  0  0  0  0  0  0  0  0  0
    5.1273    7.8529   23.6208 N   0  0  0  0  0  0  0  0  0  0  0  0
    9.7552    9.2338   23.0171 N   0  0  0  0  0  0  0  0  0  0  0  0
   11.1797    6.7591   21.3326 N   0  0  0  0  0  0  0  0  0  0  0  0
   11.7728    8.0337   23.7267 C   0  0  0  0  0  0  0  0  0  0  0  0
    7.1194    8.3344   24.6775 C   0  0  0  0  0  0  0  0  0  0  0  0
    8.4311    4.7963   22.0500 C   0  0  0  0  0  0  0  0  0  0  0  0
    8.7393   10.8706   24.1871 O   0  0  0  0  0  0  0  0  0  0  0  0
    9.3093    3.8166   21.6712 C   0  0  0  0  0  0  0  0  0  0  0  0
  1  5  1  0
  1 15  4  0
  1 22  4  0
  2 20  1  0
  2 24  1  0
  3  6  4  0
  3 27  4  0
  4 22  4  0
  4 26  4  0
  6  7  4  0
  6 13  1  0
  7 19  4  0
  8 18  1  0
  8 23  1  0
  8 28  2  0
  9 17  1  0
  9 24  1  0
 10 11  1  0
 10 24  1  0
 11 23  1  0
 12 14  4  0
 12 16  4  0
 14 19  4  0
 15 18  4  0
 16 20  4  0
 17 25  1  0
 18 26  4  0
 19 29  4  0
 20 29  4  0
 21 23  1  0
 21 25  1  0
 27 29  4  0
M  END
$$$$

 Created by Python create_sdf_string function

 29 32  0  0  0  0  0  0  0  0999 V2000
    5.4450    8.7154   22.6662 C   0  0  0  0  0  0  0  0  0  0  0  0
   10.9154    5.4574   20.5483 C   0  0  0  0  0  0  0  0  0  0  0  0
    7.2709    4.5089   22.7542 C   0  0  0  0  0  0  0  0  0  0  0  0
    5.9698    7.6329   24.6581 C   0  0  0  0  0  0  0  0  0  0  0  0
    4.5542    8.9057   21.7104 O   0  0  0  0  0  0  0  0  0  0  0  0
    6.9895    3.2085   23.0690 C   0  0  0  0  0  0  0  0  0  0  0  0
    7.8391    2.2253   22.7260 N   0  0  0  0  0  0  0  0  0  0  0  0
    8.6968    9.8373   23.6359 C   0  0  0  0  0  0  0  0  0  0  0  0
   12.5135    6.5957   21.8396 C   0  0  0  0  0  0  0  0  0  0  0  0
   10.9406    8.2330   21.1350 C   0  0  0  0  0  0  0  0  0  0  0  0
    9.6648    8.5956   21.7310 C   0  0  0  0  0  0  0  0  0  0  0  0
   10.8829    1.7153   20.9865 C   0  0  0  0  0  0  0  0  0  0  0  0
    5.7768    2.8533   23.7910 C   0  0  0  0  0  0  0  0  0  0  0  0
    9.7977    1.4791   21.6912 N   0  0  0  0  0  0  0  0  0  0  0  0
    6.5976    9.3401   22.6478 N   0  0  0  0  0  0  0  0  0  0  0  0
   11.2031    3.0042   20.6246 C   0  0  0  0  0  0  0  0  0  0  0  0
   12.8688    7.7370   22.7287 C   0  0  0  0  0  0  0  0  0  0  0  0
    7.4487    9.1361   23.6506 C   0  0  0  0  0  0  0  0  0  0  0  0
    8.9772    2.5025   22.0273 C   0  0  0  0  0  0  0  0  0  0  0  0
   10.4859    4.0901   20.9730 C   0  0  0  0  0  0  0  0  0  0  0  0
   11.0962    9.3293   23.5072 C   0  0  0  0  0  0  0  0  0  0  0  0
    5.1273    7.8529   23.6208 N   0  0  0  0  0  0  0  0  0  0  0  0
    9.7552    9.2338   23.0171 N   0  0  0  0  0  0  0  0  0  0  0  0
   11.1797    6.7591   21.3326 N   0  0  0  0  0  0  0  0  0  0  0  0
   11.7728    8.0337   23.7267 C   0  0  0  0  0  0  0  0  0  0  0  0
    7.1194    8.3344   24.6775 C   0  0  0  0  0  0  0  0  0  0  0  0
    8.4311    4.7963   22.0500 C   0  0  0  0  0  0  0  0  0  0  0  0
    8.7393   10.8706   24.1871 O   0  0  0  0  0  0  0  0  0  0  0  0
    9.3093    3.8166   21.6712 C   0  0  0  0  0  0  0  0  0  0  0  0
  1  5  1  0
  1 15  4  0
  1 22  4  0
  2 20  1  0
  2 24  1  0
  3  6  4  0
  3 27  4  0
  4 22  4  0
  4 26  4  0
  6  7  4  0
  6 13  1  0
  7 19  4  0
  8 18  1  0
  8 23  1  0
  8 28  2  0
  9 17  1  0
  9 24  1  0
 10 11  1  0
 10 24  1  0
 11 23  1  0
 12 14  4  0
 12 16  4  0
 14 19  4  0
 15 18  4  0
 16 20  4  0
 17 25  1  0
 18 26  4  0
 19 29  4  0
 20 29  4  0
 21 23  1  0
 21 25  1  0
 27 29  4  0
M  END
$$$$

 Created by Python create_sdf_string function

 29 32  0  0  0  0  0  0  0  0999 V2000
    5.4450    8.7154   22.6662 C   0  0  0  0  0  0  0  0  0  0  0  0
   10.9154    5.4574   20.5483 C   0  0  0  0  0  0  0  0  0  0  0  0
    7.2709    4.5089   22.7542 C   0  0  0  0  0  0  0  0  0  0  0  0
    5.9698    7.6329   24.6581 C   0  0  0  0  0  0  0  0  0  0  0  0
    4.5542    8.9057   21.7104 O   0  0  0  0  0  0  0  0  0  0  0  0
    6.9895    3.2085   23.0690 C   0  0  0  0  0  0  0  0  0  0  0  0
    7.8391    2.2253   22.7260 N   0  0  0  0  0  0  0  0  0  0  0  0
    8.6968    9.8373   23.6359 C   0  0  0  0  0  0  0  0  0  0  0  0
   12.5135    6.5957   21.8396 C   0  0  0  0  0  0  0  0  0  0  0  0
   10.9406    8.2330   21.1350 C   0  0  0  0  0  0  0  0  0  0  0  0
    9.6648    8.5956   21.7310 C   0  0  0  0  0  0  0  0  0  0  0  0
   10.8829    1.7153   20.9865 C   0  0  0  0  0  0  0  0  0  0  0  0
    5.7768    2.8533   23.7910 C   0  0  0  0  0  0  0  0  0  0  0  0
    9.7977    1.4791   21.6912 N   0  0  0  0  0  0  0  0  0  0  0  0
    6.5976    9.3401   22.6478 N   0  0  0  0  0  0  0  0  0  0  0  0
   11.2031    3.0042   20.6246 C   0  0  0  0  0  0  0  0  0  0  0  0
   12.8688    7.7370   22.7287 C   0  0  0  0  0  0  0  0  0  0  0  0
    7.4487    9.1361   23.6506 C   0  0  0  0  0  0  0  0  0  0  0  0
    8.9772    2.5025   22.0273 C   0  0  0  0  0  0  0  0  0  0  0  0
   10.4859    4.0901   20.9730 C   0  0  0  0  0  0  0  0  0  0  0  0
   11.0962    9.3293   23.5072 C   0  0  0  0  0  0  0  0  0  0  0  0
    5.1273    7.8529   23.6208 N   0  0  0  0  0  0  0  0  0  0  0  0
    9.7552    9.2338   23.0171 N   0  0  0  0  0  0  0  0  0  0  0  0
   11.1797    6.7591   21.3326 N   0  0  0  0  0  0  0  0  0  0  0  0
   11.7728    8.0337   23.7267 C   0  0  0  0  0  0  0  0  0  0  0  0
    7.1194    8.3344   24.6775 C   0  0  0  0  0  0  0  0  0  0  0  0
    8.4311    4.7963   22.0500 C   0  0  0  0  0  0  0  0  0  0  0  0
    8.7393   10.8706   24.1871 O   0  0  0  0  0  0  0  0  0  0  0  0
    9.3093    3.8166   21.6712 C   0  0  0  0  0  0  0  0  0  0  0  0
  1  5  1  0
  1 15  4  0
  1 22  4  0
  2 20  1  0
  2 24  1  0
  3  6  4  0
  3 27  4  0
  4 22  4  0
  4 26  4  0
  6  7  4  0
  6 13  1  0
  7 19  4  0
  8 18  1  0
  8 23  1  0
  8 28  2  0
  9 17  1  0
  9 24  1  0
 10 11  1  0
 10 24  1  0
 11 23  1  0
 12 14  4  0
 12 16  4  0
 14 19  4  0
 15 18  4  0
 16 20  4  0
 17 25  1  0
 18 26  4  0
 19 29  4  0
 20 29  4  0
 21 23  1  0
 21 25  1  0
 27 29  4  0
M  END
$$$$

 Created by Python create_sdf_string function

 29 32  0  0  0  0  0  0  0  0999 V2000
    5.4450    8.7154   22.6662 C   0  0  0  0  0  0  0  0  0  0  0  0
   10.9154    5.4574   20.5483 C   0  0  0  0  0  0  0  0  0  0  0  0
    7.2709    4.5089   22.7542 C   0  0  0  0  0  0  0  0  0  0  0  0
    5.9698    7.6329   24.6581 C   0  0  0  0  0  0  0  0  0  0  0  0
    4.5542    8.9057   21.7104 O   0  0  0  0  0  0  0  0  0  0  0  0
    6.9895    3.2085   23.0690 C   0  0  0  0  0  0  0  0  0  0  0  0
    7.8391    2.2253   22.7260 N   0  0  0  0  0  0  0  0  0  0  0  0
    8.6968    9.8373   23.6359 C   0  0  0  0  0  0  0  0  0  0  0  0
   12.5135    6.5957   21.8396 C   0  0  0  0  0  0  0  0  0  0  0  0
   10.9406    8.2330   21.1350 C   0  0  0  0  0  0  0  0  0  0  0  0
    9.6648    8.5956   21.7310 C   0  0  0  0  0  0  0  0  0  0  0  0
   10.8829    1.7153   20.9865 C   0  0  0  0  0  0  0  0  0  0  0  0
    5.7768    2.8533   23.7910 C   0  0  0  0  0  0  0  0  0  0  0  0
    9.7977    1.4791   21.6912 N   0  0  0  0  0  0  0  0  0  0  0  0
    6.5976    9.3401   22.6478 N   0  0  0  0  0  0  0  0  0  0  0  0
   11.2031    3.0042   20.6246 C   0  0  0  0  0  0  0  0  0  0  0  0
   12.8688    7.7370   22.7287 C   0  0  0  0  0  0  0  0  0  0  0  0
    7.4487    9.1361   23.6506 C   0  0  0  0  0  0  0  0  0  0  0  0
    8.9772    2.5025   22.0273 C   0  0  0  0  0  0  0  0  0  0  0  0
   10.4859    4.0901   20.9730 C   0  0  0  0  0  0  0  0  0  0  0  0
   11.0962    9.3293   23.5072 C   0  0  0  0  0  0  0  0  0  0  0  0
    5.1273    7.8529   23.6208 N   0  0  0  0  0  0  0  0  0  0  0  0
    9.7552    9.2338   23.0171 N   0  0  0  0  0  0  0  0  0  0  0  0
   11.1797    6.7591   21.3326 N   0  0  0  0  0  0  0  0  0  0  0  0
   11.7728    8.0337   23.7267 C   0  0  0  0  0  0  0  0  0  0  0  0
    7.1194    8.3344   24.6775 C   0  0  0  0  0  0  0  0  0  0  0  0
    8.4311    4.7963   22.0500 C   0  0  0  0  0  0  0  0  0  0  0  0
    8.7393   10.8706   24.1871 O   0  0  0  0  0  0  0  0  0  0  0  0
    9.3093    3.8166   21.6712 C   0  0  0  0  0  0  0  0  0  0  0  0
  1  5  1  0
  1 15  4  0
  1 22  4  0
  2 20  1  0
  2 24  1  0
  3  6  4  0
  3 27  4  0
  4 22  4  0
  4 26  4  0
  6  7  4  0
  6 13  1  0
  7 19  4  0
  8 18  1  0
  8 23  1  0
  8 28  2  0
  9 17  1  0
  9 24  1  0
 10 11  1  0
 10 24  1  0
 11 23  1  0
 12 14  4  0
 12 16  4  0
 14 19  4  0
 15 18  4  0
 16 20  4  0
 17 25  1  0
 18 26  4  0
 19 29  4  0
 20 29  4  0
 21 23  1  0
 21 25  1  0
 27 29  4  0
M  END
$$$$

 Created by Python create_sdf_string function

 29 32  0  0  0  0  0  0  0  0999 V2000
    5.4450    8.7154   22.6662 C   0  0  0  0  0  0  0  0  0  0  0  0
   10.9154    5.4574   20.5483 C   0  0  0  0  0  0  0  0  0  0  0  0
    7.2709    4.5089   22.7542 C   0  0  0  0  0  0  0  0  0  0  0  0
    5.9698    7.6329   24.6581 C   0  0  0  0  0  0  0  0  0  0  0  0
    4.5542    8.9057   21.7104 O   0  0  0  0  0  0  0  0  0  0  0  0
    6.9895    3.2085   23.0690 C   0  0  0  0  0  0  0  0  0  0  0  0
    7.8391    2.2253   22.7260 N   0  0  0  0  0  0  0  0  0  0  0  0
    8.6968    9.8373   23.6359 C   0  0  0  0  0  0  0  0  0  0  0  0
   12.5135    6.5957   21.8396 C   0  0  0  0  0  0  0  0  0  0  0  0
   10.9406    8.2330   21.1350 C   0  0  0  0  0  0  0  0  0  0  0  0
    9.6648    8.5956   21.7310 C   0  0  0  0  0  0  0  0  0  0  0  0
   10.8829    1.7153   20.9865 C   0  0  0  0  0  0  0  0  0  0  0  0
    5.7768    2.8533   23.7910 C   0  0  0  0  0  0  0  0  0  0  0  0
    9.7977    1.4791   21.6912 N   0  0  0  0  0  0  0  0  0  0  0  0
    6.5976    9.3401   22.6478 N   0  0  0  0  0  0  0  0  0  0  0  0
   11.2031    3.0042   20.6246 C   0  0  0  0  0  0  0  0  0  0  0  0
   12.8688    7.7370   22.7287 C   0  0  0  0  0  0  0  0  0  0  0  0
    7.4487    9.1361   23.6506 C   0  0  0  0  0  0  0  0  0  0  0  0
    8.9772    2.5025   22.0273 C   0  0  0  0  0  0  0  0  0  0  0  0
   10.4859    4.0901   20.9730 C   0  0  0  0  0  0  0  0  0  0  0  0
   11.0962    9.3293   23.5072 C   0  0  0  0  0  0  0  0  0  0  0  0
    5.1273    7.8529   23.6208 N   0  0  0  0  0  0  0  0  0  0  0  0
    9.7552    9.2338   23.0171 N   0  0  0  0  0  0  0  0  0  0  0  0
   11.1797    6.7591   21.3326 N   0  0  0  0  0  0  0  0  0  0  0  0
   11.7728    8.0337   23.7267 C   0  0  0  0  0  0  0  0  0  0  0  0
    7.1194    8.3344   24.6775 C   0  0  0  0  0  0  0  0  0  0  0  0
    8.4311    4.7963   22.0500 C   0  0  0  0  0  0  0  0  0  0  0  0
    8.7393   10.8706   24.1871 O   0  0  0  0  0  0  0  0  0  0  0  0
    9.3093    3.8166   21.6712 C   0  0  0  0  0  0  0  0  0  0  0  0
  1  5  1  0
  1 15  4  0
  1 22  4  0
  2 20  1  0
  2 24  1  0
  3  6  4  0
  3 27  4  0
  4 22  4  0
  4 26  4  0
  6  7  4  0
  6 13  1  0
  7 19  4  0
  8 18  1  0
  8 23  1  0
  8 28  2  0
  9 17  1  0
  9 24  1  0
 10 11  1  0
 10 24  1  0
 11 23  1  0
 12 14  4  0
 12 16  4  0
 14 19  4  0
 15 18  4  0
 16 20  4  0
 17 25  1  0
 18 26  4  0
 19 29  4  0
 20 29  4  0
 21 23  1  0
 21 25  1  0
 27 29  4  0
M  END
$$$$

 Created by Python create_sdf_string function

 29 32  0  0  0  0  0  0  0  0999 V2000
    5.4450    8.7154   22.6662 C   0  0  0  0  0  0  0  0  0  0  0  0
   10.9154    5.4574   20.5483 C   0  0  0  0  0  0  0  0  0  0  0  0
    7.2709    4.5089   22.7542 C   0  0  0  0  0  0  0  0  0  0  0  0
    5.9698    7.6329   24.6581 C   0  0  0  0  0  0  0  0  0  0  0  0
    4.5542    8.9057   21.7104 O   0  0  0  0  0  0  0  0  0  0  0  0
    6.9895    3.2085   23.0690 C   0  0  0  0  0  0  0  0  0  0  0  0
    7.8391    2.2253   22.7260 N   0  0  0  0  0  0  0  0  0  0  0  0
    8.6968    9.8373   23.6359 C   0  0  0  0  0  0  0  0  0  0  0  0
   12.5135    6.5957   21.8396 C   0  0  0  0  0  0  0  0  0  0  0  0
   10.9406    8.2330   21.1350 C   0  0  0  0  0  0  0  0  0  0  0  0
    9.6648    8.5956   21.7310 C   0  0  0  0  0  0  0  0  0  0  0  0
   10.8829    1.7153   20.9865 C   0  0  0  0  0  0  0  0  0  0  0  0
    5.7768    2.8533   23.7910 C   0  0  0  0  0  0  0  0  0  0  0  0
    9.7977    1.4791   21.6912 N   0  0  0  0  0  0  0  0  0  0  0  0
    6.5976    9.3401   22.6478 N   0  0  0  0  0  0  0  0  0  0  0  0
   11.2031    3.0042   20.6246 C   0  0  0  0  0  0  0  0  0  0  0  0
   12.8688    7.7370   22.7287 C   0  0  0  0  0  0  0  0  0  0  0  0
    7.4487    9.1361   23.6506 C   0  0  0  0  0  0  0  0  0  0  0  0
    8.9772    2.5025   22.0273 C   0  0  0  0  0  0  0  0  0  0  0  0
   10.4859    4.0901   20.9730 C   0  0  0  0  0  0  0  0  0  0  0  0
   11.0962    9.3293   23.5072 C   0  0  0  0  0  0  0  0  0  0  0  0
    5.1273    7.8529   23.6208 N   0  0  0  0  0  0  0  0  0  0  0  0
    9.7552    9.2338   23.0171 N   0  0  0  0  0  0  0  0  0  0  0  0
   11.1797    6.7591   21.3326 N   0  0  0  0  0  0  0  0  0  0  0  0
   11.7728    8.0337   23.7267 C   0  0  0  0  0  0  0  0  0  0  0  0
    7.1194    8.3344   24.6775 C   0  0  0  0  0  0  0  0  0  0  0  0
    8.4311    4.7963   22.0500 C   0  0  0  0  0  0  0  0  0  0  0  0
    8.7393   10.8706   24.1871 O   0  0  0  0  0  0  0  0  0  0  0  0
    9.3093    3.8166   21.6712 C   0  0  0  0  0  0  0  0  0  0  0  0
  1  5  1  0
  1 15  4  0
  1 22  4  0
  2 20  1  0
  2 24  1  0
  3  6  4  0
  3 27  4  0
  4 22  4  0
  4 26  4  0
  6  7  4  0
  6 13  1  0
  7 19  4  0
  8 18  1  0
  8 23  1  0
  8 28  2  0
  9 17  1  0
  9 24  1  0
 10 11  1  0
 10 24  1  0
 11 23  1  0
 12 14  4  0
 12 16  4  0
 14 19  4  0
 15 18  4  0
 16 20  4  0
 17 25  1  0
 18 26  4  0
 19 29  4  0
 20 29  4  0
 21 23  1  0
 21 25  1  0
 27 29  4  0
M  END
$$$$

 Created by Python create_sdf_string function

 29 32  0  0  0  0  0  0  0  0999 V2000
    5.4450    8.7154   22.6662 C   0  0  0  0  0  0  0  0  0  0  0  0
   10.9154    5.4574   20.5483 C   0  0  0  0  0  0  0  0  0  0  0  0
    7.2709    4.5089   22.7542 C   0  0  0  0  0  0  0  0  0  0  0  0
    5.9698    7.6329   24.6581 C   0  0  0  0  0  0  0  0  0  0  0  0
    4.5542    8.9057   21.7104 O   0  0  0  0  0  0  0  0  0  0  0  0
    6.9895    3.2085   23.0690 C   0  0  0  0  0  0  0  0  0  0  0  0
    7.8391    2.2253   22.7260 N   0  0  0  0  0  0  0  0  0  0  0  0
    8.6968    9.8373   23.6359 C   0  0  0  0  0  0  0  0  0  0  0  0
   12.5135    6.5957   21.8396 C   0  0  0  0  0  0  0  0  0  0  0  0
   10.9406    8.2330   21.1350 C   0  0  0  0  0  0  0  0  0  0  0  0
    9.6648    8.5956   21.7310 C   0  0  0  0  0  0  0  0  0  0  0  0
   10.8829    1.7153   20.9865 C   0  0  0  0  0  0  0  0  0  0  0  0
    5.7768    2.8533   23.7910 C   0  0  0  0  0  0  0  0  0  0  0  0
    9.7977    1.4791   21.6912 N   0  0  0  0  0  0  0  0  0  0  0  0
    6.5976    9.3401   22.6478 N   0  0  0  0  0  0  0  0  0  0  0  0
   11.2031    3.0042   20.6246 C   0  0  0  0  0  0  0  0  0  0  0  0
   12.8688    7.7370   22.7287 C   0  0  0  0  0  0  0  0  0  0  0  0
    7.4487    9.1361   23.6506 C   0  0  0  0  0  0  0  0  0  0  0  0
    8.9772    2.5025   22.0273 C   0  0  0  0  0  0  0  0  0  0  0  0
   10.4859    4.0901   20.9730 C   0  0  0  0  0  0  0  0  0  0  0  0
   11.0962    9.3293   23.5072 C   0  0  0  0  0  0  0  0  0  0  0  0
    5.1273    7.8529   23.6208 N   0  0  0  0  0  0  0  0  0  0  0  0
    9.7552    9.2338   23.0171 N   0  0  0  0  0  0  0  0  0  0  0  0
   11.1797    6.7591   21.3326 N   0  0  0  0  0  0  0  0  0  0  0  0
   11.7728    8.0337   23.7267 C   0  0  0  0  0  0  0  0  0  0  0  0
    7.1194    8.3344   24.6775 C   0  0  0  0  0  0  0  0  0  0  0  0
    8.4311    4.7963   22.0500 C   0  0  0  0  0  0  0  0  0  0  0  0
    8.7393   10.8706   24.1871 O   0  0  0  0  0  0  0  0  0  0  0  0
    9.3093    3.8166   21.6712 C   0  0  0  0  0  0  0  0  0  0  0  0
  1  5  1  0
  1 15  4  0
  1 22  4  0
  2 20  1  0
  2 24  1  0
  3  6  4  0
  3 27  4  0
  4 22  4  0
  4 26  4  0
  6  7  4  0
  6 13  1  0
  7 19  4  0
  8 18  1  0
  8 23  1  0
  8 28  2  0
  9 17  1  0
  9 24  1  0
 10 11  1  0
 10 24  1  0
 11 23  1  0
 12 14  4  0
 12 16  4  0
 14 19  4  0
 15 18  4  0
 16 20  4  0
 17 25  1  0
 18 26  4  0
 19 29  4  0
 20 29  4  0
 21 23  1  0
 21 25  1  0
 27 29  4  0
M  END
$$$$

 Created by Python create_sdf_string function

 29 32  0  0  0  0  0  0  0  0999 V2000
    5.4450    8.7154   22.6662 C   0  0  0  0  0  0  0  0  0  0  0  0
   10.9154    5.4574   20.5483 C   0  0  0  0  0  0  0  0  0  0  0  0
    7.2709    4.5089   22.7542 C   0  0  0  0  0  0  0  0  0  0  0  0
    5.9698    7.6329   24.6581 C   0  0  0  0  0  0  0  0  0  0  0  0
    4.5542    8.9057   21.7104 O   0  0  0  0  0  0  0  0  0  0  0  0
    6.9895    3.2085   23.0690 C   0  0  0  0  0  0  0  0  0  0  0  0
    7.8391    2.2253   22.7260 N   0  0  0  0  0  0  0  0  0  0  0  0
    8.6968    9.8373   23.6359 C   0  0  0  0  0  0  0  0  0  0  0  0
   12.5135    6.5957   21.8396 C   0  0  0  0  0  0  0  0  0  0  0  0
   10.9406    8.2330   21.1350 C   0  0  0  0  0  0  0  0  0  0  0  0
    9.6648    8.5956   21.7310 C   0  0  0  0  0  0  0  0  0  0  0  0
   10.8829    1.7153   20.9865 C   0  0  0  0  0  0  0  0  0  0  0  0
    5.7768    2.8533   23.7910 C   0  0  0  0  0  0  0  0  0  0  0  0
    9.7977    1.4791   21.6912 N   0  0  0  0  0  0  0  0  0  0  0  0
    6.5976    9.3401   22.6478 N   0  0  0  0  0  0  0  0  0  0  0  0
   11.2031    3.0042   20.6246 C   0  0  0  0  0  0  0  0  0  0  0  0
   12.8688    7.7370   22.7287 C   0  0  0  0  0  0  0  0  0  0  0  0
    7.4487    9.1361   23.6506 C   0  0  0  0  0  0  0  0  0  0  0  0
    8.9772    2.5025   22.0273 C   0  0  0  0  0  0  0  0  0  0  0  0
   10.4859    4.0901   20.9730 C   0  0  0  0  0  0  0  0  0  0  0  0
   11.0962    9.3293   23.5072 C   0  0  0  0  0  0  0  0  0  0  0  0
    5.1273    7.8529   23.6208 N   0  0  0  0  0  0  0  0  0  0  0  0
    9.7552    9.2338   23.0171 N   0  0  0  0  0  0  0  0  0  0  0  0
   11.1797    6.7591   21.3326 N   0  0  0  0  0  0  0  0  0  0  0  0
   11.7728    8.0337   23.7267 C   0  0  0  0  0  0  0  0  0  0  0  0
    7.1194    8.3344   24.6775 C   0  0  0  0  0  0  0  0  0  0  0  0
    8.4311    4.7963   22.0500 C   0  0  0  0  0  0  0  0  0  0  0  0
    8.7393   10.8706   24.1871 O   0  0  0  0  0  0  0  0  0  0  0  0
    9.3093    3.8166   21.6712 C   0  0  0  0  0  0  0  0  0  0  0  0
  1  5  1  0
  1 15  4  0
  1 22  4  0
  2 20  1  0
  2 24  1  0
  3  6  4  0
  3 27  4  0
  4 22  4  0
  4 26  4  0
  6  7  4  0
  6 13  1  0
  7 19  4  0
  8 18  1  0
  8 23  1  0
  8 28  2  0
  9 17  1  0
  9 24  1  0
 10 11  1  0
 10 24  1  0
 11 23  1  0
 12 14  4  0
 12 16  4  0
 14 19  4  0
 15 18  4  0
 16 20  4  0
 17 25  1  0
 18 26  4  0
 19 29  4  0
 20 29  4  0
 21 23  1  0
 21 25  1  0
 27 29  4  0
M  END
$$$$

 Created by Python create_sdf_string function

 29 32  0  0  0  0  0  0  0  0999 V2000
    5.4450    8.7154   22.6662 C   0  0  0  0  0  0  0  0  0  0  0  0
   10.9154    5.4574   20.5483 C   0  0  0  0  0  0  0  0  0  0  0  0
    7.2709    4.5089   22.7542 C   0  0  0  0  0  0  0  0  0  0  0  0
    5.9698    7.6329   24.6581 C   0  0  0  0  0  0  0  0  0  0  0  0
    4.5542    8.9057   21.7104 O   0  0  0  0  0  0  0  0  0  0  0  0
    6.9895    3.2085   23.0690 C   0  0  0  0  0  0  0  0  0  0  0  0
    7.8391    2.2253   22.7260 N   0  0  0  0  0  0  0  0  0  0  0  0
    8.6968    9.8373   23.6359 C   0  0  0  0  0  0  0  0  0  0  0  0
   12.5135    6.5957   21.8396 C   0  0  0  0  0  0  0  0  0  0  0  0
   10.9406    8.2330   21.1350 C   0  0  0  0  0  0  0  0  0  0  0  0
    9.6648    8.5956   21.7310 C   0  0  0  0  0  0  0  0  0  0  0  0
   10.8829    1.7153   20.9865 C   0  0  0  0  0  0  0  0  0  0  0  0
    5.7768    2.8533   23.7910 C   0  0  0  0  0  0  0  0  0  0  0  0
    9.7977    1.4791   21.6912 N   0  0  0  0  0  0  0  0  0  0  0  0
    6.5976    9.3401   22.6478 N   0  0  0  0  0  0  0  0  0  0  0  0
   11.2031    3.0042   20.6246 C   0  0  0  0  0  0  0  0  0  0  0  0
   12.8688    7.7370   22.7287 C   0  0  0  0  0  0  0  0  0  0  0  0
    7.4487    9.1361   23.6506 C   0  0  0  0  0  0  0  0  0  0  0  0
    8.9772    2.5025   22.0273 C   0  0  0  0  0  0  0  0  0  0  0  0
   10.4859    4.0901   20.9730 C   0  0  0  0  0  0  0  0  0  0  0  0
   11.0962    9.3293   23.5072 C   0  0  0  0  0  0  0  0  0  0  0  0
    5.1273    7.8529   23.6208 N   0  0  0  0  0  0  0  0  0  0  0  0
    9.7552    9.2338   23.0171 N   0  0  0  0  0  0  0  0  0  0  0  0
   11.1797    6.7591   21.3326 N   0  0  0  0  0  0  0  0  0  0  0  0
   11.7728    8.0337   23.7267 C   0  0  0  0  0  0  0  0  0  0  0  0
    7.1194    8.3344   24.6775 C   0  0  0  0  0  0  0  0  0  0  0  0
    8.4311    4.7963   22.0500 C   0  0  0  0  0  0  0  0  0  0  0  0
    8.7393   10.8706   24.1871 O   0  0  0  0  0  0  0  0  0  0  0  0
    9.3093    3.8166   21.6712 C   0  0  0  0  0  0  0  0  0  0  0  0
  1  5  1  0
  1 15  4  0
  1 22  4  0
  2 20  1  0
  2 24  1  0
  3  6  4  0
  3 27  4  0
  4 22  4  0
  4 26  4  0
  6  7  4  0
  6 13  1  0
  7 19  4  0
  8 18  1  0
  8 23  1  0
  8 28  2  0
  9 17  1  0
  9 24  1  0
 10 11  1  0
 10 24  1  0
 11 23  1  0
 12 14  4  0
 12 16  4  0
 14 19  4  0
 15 18  4  0
 16 20  4  0
 17 25  1  0
 18 26  4  0
 19 29  4  0
 20 29  4  0
 21 23  1  0
 21 25  1  0
 27 29  4  0
M  END
$$$$

 Created by Python create_sdf_string function

 29 32  0  0  0  0  0  0  0  0999 V2000
    5.4450    8.7154   22.6662 C   0  0  0  0  0  0  0  0  0  0  0  0
   10.9154    5.4574   20.5483 C   0  0  0  0  0  0  0  0  0  0  0  0
    7.2709    4.5089   22.7542 C   0  0  0  0  0  0  0  0  0  0  0  0
    5.9698    7.6329   24.6581 C   0  0  0  0  0  0  0  0  0  0  0  0
    4.5542    8.9057   21.7104 O   0  0  0  0  0  0  0  0  0  0  0  0
    6.9895    3.2085   23.0690 C   0  0  0  0  0  0  0  0  0  0  0  0
    7.8391    2.2253   22.7260 N   0  0  0  0  0  0  0  0  0  0  0  0
    8.6968    9.8373   23.6359 C   0  0  0  0  0  0  0  0  0  0  0  0
   12.5135    6.5957   21.8396 C   0  0  0  0  0  0  0  0  0  0  0  0
   10.9406    8.2330   21.1350 C   0  0  0  0  0  0  0  0  0  0  0  0
    9.6648    8.5956   21.7310 C   0  0  0  0  0  0  0  0  0  0  0  0
   10.8829    1.7153   20.9865 C   0  0  0  0  0  0  0  0  0  0  0  0
    5.7768    2.8533   23.7910 C   0  0  0  0  0  0  0  0  0  0  0  0
    9.7977    1.4791   21.6912 N   0  0  0  0  0  0  0  0  0  0  0  0
    6.5976    9.3401   22.6478 N   0  0  0  0  0  0  0  0  0  0  0  0
   11.2031    3.0042   20.6246 C   0  0  0  0  0  0  0  0  0  0  0  0
   12.8688    7.7370   22.7287 C   0  0  0  0  0  0  0  0  0  0  0  0
    7.4487    9.1361   23.6506 C   0  0  0  0  0  0  0  0  0  0  0  0
    8.9772    2.5025   22.0273 C   0  0  0  0  0  0  0  0  0  0  0  0
   10.4859    4.0901   20.9730 C   0  0  0  0  0  0  0  0  0  0  0  0
   11.0962    9.3293   23.5072 C   0  0  0  0  0  0  0  0  0  0  0  0
    5.1273    7.8529   23.6208 N   0  0  0  0  0  0  0  0  0  0  0  0
    9.7552    9.2338   23.0171 N   0  0  0  0  0  0  0  0  0  0  0  0
   11.1797    6.7591   21.3326 N   0  0  0  0  0  0  0  0  0  0  0  0
   11.7728    8.0337   23.7267 C   0  0  0  0  0  0  0  0  0  0  0  0
    7.1194    8.3344   24.6775 C   0  0  0  0  0  0  0  0  0  0  0  0
    8.4311    4.7963   22.0500 C   0  0  0  0  0  0  0  0  0  0  0  0
    8.7393   10.8706   24.1871 O   0  0  0  0  0  0  0  0  0  0  0  0
    9.3093    3.8166   21.6712 C   0  0  0  0  0  0  0  0  0  0  0  0
  1  5  1  0
  1 15  4  0
  1 22  4  0
  2 20  1  0
  2 24  1  0
  3  6  4  0
  3 27  4  0
  4 22  4  0
  4 26  4  0
  6  7  4  0
  6 13  1  0
  7 19  4  0
  8 18  1  0
  8 23  1  0
  8 28  2  0
  9 17  1  0
  9 24  1  0
 10 11  1  0
 10 24  1  0
 11 23  1  0
 12 14  4  0
 12 16  4  0
 14 19  4  0
 15 18  4  0
 16 20  4  0
 17 25  1  0
 18 26  4  0
 19 29  4  0
 20 29  4  0
 21 23  1  0
 21 25  1  0
 27 29  4  0
M  END
$$$$

 Created by Python create_sdf_string function

 29 32  0  0  0  0  0  0  0  0999 V2000
    5.4450    8.7154   22.6662 C   0  0  0  0  0  0  0  0  0  0  0  0
   10.9154    5.4574   20.5483 C   0  0  0  0  0  0  0  0  0  0  0  0
    7.2709    4.5089   22.7542 C   0  0  0  0  0  0  0  0  0  0  0  0
    5.9698    7.6329   24.6581 C   0  0  0  0  0  0  0  0  0  0  0  0
    4.5542    8.9057   21.7104 O   0  0  0  0  0  0  0  0  0  0  0  0
    6.9895    3.2085   23.0690 C   0  0  0  0  0  0  0  0  0  0  0  0
    7.8391    2.2253   22.7260 N   0  0  0  0  0  0  0  0  0  0  0  0
    8.6968    9.8373   23.6359 C   0  0  0  0  0  0  0  0  0  0  0  0
   12.5135    6.5957   21.8396 C   0  0  0  0  0  0  0  0  0  0  0  0
   10.9406    8.2330   21.1350 C   0  0  0  0  0  0  0  0  0  0  0  0
    9.6648    8.5956   21.7310 C   0  0  0  0  0  0  0  0  0  0  0  0
   10.8829    1.7153   20.9865 C   0  0  0  0  0  0  0  0  0  0  0  0
    5.7768    2.8533   23.7910 C   0  0  0  0  0  0  0  0  0  0  0  0
    9.7977    1.4791   21.6912 N   0  0  0  0  0  0  0  0  0  0  0  0
    6.5976    9.3401   22.6478 N   0  0  0  0  0  0  0  0  0  0  0  0
   11.2031    3.0042   20.6246 C   0  0  0  0  0  0  0  0  0  0  0  0
   12.8688    7.7370   22.7287 C   0  0  0  0  0  0  0  0  0  0  0  0
    7.4487    9.1361   23.6506 C   0  0  0  0  0  0  0  0  0  0  0  0
    8.9772    2.5025   22.0273 C   0  0  0  0  0  0  0  0  0  0  0  0
   10.4859    4.0901   20.9730 C   0  0  0  0  0  0  0  0  0  0  0  0
   11.0962    9.3293   23.5072 C   0  0  0  0  0  0  0  0  0  0  0  0
    5.1273    7.8529   23.6208 N   0  0  0  0  0  0  0  0  0  0  0  0
    9.7552    9.2338   23.0171 N   0  0  0  0  0  0  0  0  0  0  0  0
   11.1797    6.7591   21.3326 N   0  0  0  0  0  0  0  0  0  0  0  0
   11.7728    8.0337   23.7267 C   0  0  0  0  0  0  0  0  0  0  0  0
    7.1194    8.3344   24.6775 C   0  0  0  0  0  0  0  0  0  0  0  0
    8.4311    4.7963   22.0500 C   0  0  0  0  0  0  0  0  0  0  0  0
    8.7393   10.8706   24.1871 O   0  0  0  0  0  0  0  0  0  0  0  0
    9.3093    3.8166   21.6712 C   0  0  0  0  0  0  0  0  0  0  0  0
  1  5  1  0
  1 15  4  0
  1 22  4  0
  2 20  1  0
  2 24  1  0
  3  6  4  0
  3 27  4  0
  4 22  4  0
  4 26  4  0
  6  7  4  0
  6 13  1  0
  7 19  4  0
  8 18  1  0
  8 23  1  0
  8 28  2  0
  9 17  1  0
  9 24  1  0
 10 11  1  0
 10 24  1  0
 11 23  1  0
 12 14  4  0
 12 16  4  0
 14 19  4  0
 15 18  4  0
 16 20  4  0
 17 25  1  0
 18 26  4  0
 19 29  4  0
 20 29  4  0
 21 23  1  0
 21 25  1  0
 27 29  4  0
M  END
$$$$

 Created by Python create_sdf_string function

 29 32  0  0  0  0  0  0  0  0999 V2000
    5.4450    8.7154   22.6662 C   0  0  0  0  0  0  0  0  0  0  0  0
   10.9154    5.4574   20.5483 C   0  0  0  0  0  0  0  0  0  0  0  0
    7.2709    4.5089   22.7542 C   0  0  0  0  0  0  0  0  0  0  0  0
    5.9698    7.6329   24.6581 C   0  0  0  0  0  0  0  0  0  0  0  0
    4.5542    8.9057   21.7104 O   0  0  0  0  0  0  0  0  0  0  0  0
    6.9895    3.2085   23.0690 C   0  0  0  0  0  0  0  0  0  0  0  0
    7.8391    2.2253   22.7260 N   0  0  0  0  0  0  0  0  0  0  0  0
    8.6968    9.8373   23.6359 C   0  0  0  0  0  0  0  0  0  0  0  0
   12.5135    6.5957   21.8396 C   0  0  0  0  0  0  0  0  0  0  0  0
   10.9406    8.2330   21.1350 C   0  0  0  0  0  0  0  0  0  0  0  0
    9.6648    8.5956   21.7310 C   0  0  0  0  0  0  0  0  0  0  0  0
   10.8829    1.7153   20.9865 C   0  0  0  0  0  0  0  0  0  0  0  0
    5.7768    2.8533   23.7910 C   0  0  0  0  0  0  0  0  0  0  0  0
    9.7977    1.4791   21.6912 N   0  0  0  0  0  0  0  0  0  0  0  0
    6.5976    9.3401   22.6478 N   0  0  0  0  0  0  0  0  0  0  0  0
   11.2031    3.0042   20.6246 C   0  0  0  0  0  0  0  0  0  0  0  0
   12.8688    7.7370   22.7287 C   0  0  0  0  0  0  0  0  0  0  0  0
    7.4487    9.1361   23.6506 C   0  0  0  0  0  0  0  0  0  0  0  0
    8.9772    2.5025   22.0273 C   0  0  0  0  0  0  0  0  0  0  0  0
   10.4859    4.0901   20.9730 C   0  0  0  0  0  0  0  0  0  0  0  0
   11.0962    9.3293   23.5072 C   0  0  0  0  0  0  0  0  0  0  0  0
    5.1273    7.8529   23.6208 N   0  0  0  0  0  0  0  0  0  0  0  0
    9.7552    9.2338   23.0171 N   0  0  0  0  0  0  0  0  0  0  0  0
   11.1797    6.7591   21.3326 N   0  0  0  0  0  0  0  0  0  0  0  0
   11.7728    8.0337   23.7267 C   0  0  0  0  0  0  0  0  0  0  0  0
    7.1194    8.3344   24.6775 C   0  0  0  0  0  0  0  0  0  0  0  0
    8.4311    4.7963   22.0500 C   0  0  0  0  0  0  0  0  0  0  0  0
    8.7393   10.8706   24.1871 O   0  0  0  0  0  0  0  0  0  0  0  0
    9.3093    3.8166   21.6712 C   0  0  0  0  0  0  0  0  0  0  0  0
  1  5  1  0
  1 15  4  0
  1 22  4  0
  2 20  1  0
  2 24  1  0
  3  6  4  0
  3 27  4  0
  4 22  4  0
  4 26  4  0
  6  7  4  0
  6 13  1  0
  7 19  4  0
  8 18  1  0
  8 23  1  0
  8 28  2  0
  9 17  1  0
  9 24  1  0
 10 11  1  0
 10 24  1  0
 11 23  1  0
 12 14  4  0
 12 16  4  0
 14 19  4  0
 15 18  4  0
 16 20  4  0
 17 25  1  0
 18 26  4  0
 19 29  4  0
 20 29  4  0
 21 23  1  0
 21 25  1  0
 27 29  4  0
M  END
$$$$

 Created by Python create_sdf_string function

 29 32  0  0  0  0  0  0  0  0999 V2000
    5.4450    8.7154   22.6662 C   0  0  0  0  0  0  0  0  0  0  0  0
   10.9154    5.4574   20.5483 C   0  0  0  0  0  0  0  0  0  0  0  0
    7.2709    4.5089   22.7542 C   0  0  0  0  0  0  0  0  0  0  0  0
    5.9698    7.6329   24.6581 C   0  0  0  0  0  0  0  0  0  0  0  0
    4.5542    8.9057   21.7104 O   0  0  0  0  0  0  0  0  0  0  0  0
    6.9895    3.2085   23.0690 C   0  0  0  0  0  0  0  0  0  0  0  0
    7.8391    2.2253   22.7260 N   0  0  0  0  0  0  0  0  0  0  0  0
    8.6968    9.8373   23.6359 C   0  0  0  0  0  0  0  0  0  0  0  0
   12.5135    6.5957   21.8396 C   0  0  0  0  0  0  0  0  0  0  0  0
   10.9406    8.2330   21.1350 C   0  0  0  0  0  0  0  0  0  0  0  0
    9.6648    8.5956   21.7310 C   0  0  0  0  0  0  0  0  0  0  0  0
   10.8829    1.7153   20.9865 C   0  0  0  0  0  0  0  0  0  0  0  0
    5.7768    2.8533   23.7910 C   0  0  0  0  0  0  0  0  0  0  0  0
    9.7977    1.4791   21.6912 N   0  0  0  0  0  0  0  0  0  0  0  0
    6.5976    9.3401   22.6478 N   0  0  0  0  0  0  0  0  0  0  0  0
   11.2031    3.0042   20.6246 C   0  0  0  0  0  0  0  0  0  0  0  0
   12.8688    7.7370   22.7287 C   0  0  0  0  0  0  0  0  0  0  0  0
    7.4487    9.1361   23.6506 C   0  0  0  0  0  0  0  0  0  0  0  0
    8.9772    2.5025   22.0273 C   0  0  0  0  0  0  0  0  0  0  0  0
   10.4859    4.0901   20.9730 C   0  0  0  0  0  0  0  0  0  0  0  0
   11.0962    9.3293   23.5072 C   0  0  0  0  0  0  0  0  0  0  0  0
    5.1273    7.8529   23.6208 N   0  0  0  0  0  0  0  0  0  0  0  0
    9.7552    9.2338   23.0171 N   0  0  0  0  0  0  0  0  0  0  0  0
   11.1797    6.7591   21.3326 N   0  0  0  0  0  0  0  0  0  0  0  0
   11.7728    8.0337   23.7267 C   0  0  0  0  0  0  0  0  0  0  0  0
    7.1194    8.3344   24.6775 C   0  0  0  0  0  0  0  0  0  0  0  0
    8.4311    4.7963   22.0500 C   0  0  0  0  0  0  0  0  0  0  0  0
    8.7393   10.8706   24.1871 O   0  0  0  0  0  0  0  0  0  0  0  0
    9.3093    3.8166   21.6712 C   0  0  0  0  0  0  0  0  0  0  0  0
  1  5  1  0
  1 15  4  0
  1 22  4  0
  2 20  1  0
  2 24  1  0
  3  6  4  0
  3 27  4  0
  4 22  4  0
  4 26  4  0
  6  7  4  0
  6 13  1  0
  7 19  4  0
  8 18  1  0
  8 23  1  0
  8 28  2  0
  9 17  1  0
  9 24  1  0
 10 11  1  0
 10 24  1  0
 11 23  1  0
 12 14  4  0
 12 16  4  0
 14 19  4  0
 15 18  4  0
 16 20  4  0
 17 25  1  0
 18 26  4  0
 19 29  4  0
 20 29  4  0
 21 23  1  0
 21 25  1  0
 27 29  4  0
M  END
$$$$

 Created by Python create_sdf_string function

 29 32  0  0  0  0  0  0  0  0999 V2000
    5.4450    8.7154   22.6662 C   0  0  0  0  0  0  0  0  0  0  0  0
   10.9154    5.4574   20.5483 C   0  0  0  0  0  0  0  0  0  0  0  0
    7.2709    4.5089   22.7542 C   0  0  0  0  0  0  0  0  0  0  0  0
    5.9698    7.6329   24.6581 C   0  0  0  0  0  0  0  0  0  0  0  0
    4.5542    8.9057   21.7104 O   0  0  0  0  0  0  0  0  0  0  0  0
    6.9895    3.2085   23.0690 C   0  0  0  0  0  0  0  0  0  0  0  0
    7.8391    2.2253   22.7260 N   0  0  0  0  0  0  0  0  0  0  0  0
    8.6968    9.8373   23.6359 C   0  0  0  0  0  0  0  0  0  0  0  0
   12.5135    6.5957   21.8396 C   0  0  0  0  0  0  0  0  0  0  0  0
   10.9406    8.2330   21.1350 C   0  0  0  0  0  0  0  0  0  0  0  0
    9.6648    8.5956   21.7310 C   0  0  0  0  0  0  0  0  0  0  0  0
   10.8829    1.7153   20.9865 C   0  0  0  0  0  0  0  0  0  0  0  0
    5.7768    2.8533   23.7910 C   0  0  0  0  0  0  0  0  0  0  0  0
    9.7977    1.4791   21.6912 N   0  0  0  0  0  0  0  0  0  0  0  0
    6.5976    9.3401   22.6478 N   0  0  0  0  0  0  0  0  0  0  0  0
   11.2031    3.0042   20.6246 C   0  0  0  0  0  0  0  0  0  0  0  0
   12.8688    7.7370   22.7287 C   0  0  0  0  0  0  0  0  0  0  0  0
    7.4487    9.1361   23.6506 C   0  0  0  0  0  0  0  0  0  0  0  0
    8.9772    2.5025   22.0273 C   0  0  0  0  0  0  0  0  0  0  0  0
   10.4859    4.0901   20.9730 C   0  0  0  0  0  0  0  0  0  0  0  0
   11.0962    9.3293   23.5072 C   0  0  0  0  0  0  0  0  0  0  0  0
    5.1273    7.8529   23.6208 N   0  0  0  0  0  0  0  0  0  0  0  0
    9.7552    9.2338   23.0171 N   0  0  0  0  0  0  0  0  0  0  0  0
   11.1797    6.7591   21.3326 N   0  0  0  0  0  0  0  0  0  0  0  0
   11.7728    8.0337   23.7267 C   0  0  0  0  0  0  0  0  0  0  0  0
    7.1194    8.3344   24.6775 C   0  0  0  0  0  0  0  0  0  0  0  0
    8.4311    4.7963   22.0500 C   0  0  0  0  0  0  0  0  0  0  0  0
    8.7393   10.8706   24.1871 O   0  0  0  0  0  0  0  0  0  0  0  0
    9.3093    3.8166   21.6712 C   0  0  0  0  0  0  0  0  0  0  0  0
  1  5  1  0
  1 15  4  0
  1 22  4  0
  2 20  1  0
  2 24  1  0
  3  6  4  0
  3 27  4  0
  4 22  4  0
  4 26  4  0
  6  7  4  0
  6 13  1  0
  7 19  4  0
  8 18  1  0
  8 23  1  0
  8 28  2  0
  9 17  1  0
  9 24  1  0
 10 11  1  0
 10 24  1  0
 11 23  1  0
 12 14  4  0
 12 16  4  0
 14 19  4  0
 15 18  4  0
 16 20  4  0
 17 25  1  0
 18 26  4  0
 19 29  4  0
 20 29  4  0
 21 23  1  0
 21 25  1  0
 27 29  4  0
M  END
$$$$

 Created by Python create_sdf_string function

 29 32  0  0  0  0  0  0  0  0999 V2000
    5.4450    8.7154   22.6662 C   0  0  0  0  0  0  0  0  0  0  0  0
   10.9154    5.4574   20.5483 C   0  0  0  0  0  0  0  0  0  0  0  0
    7.2709    4.5089   22.7542 C   0  0  0  0  0  0  0  0  0  0  0  0
    5.9698    7.6329   24.6581 C   0  0  0  0  0  0  0  0  0  0  0  0
    4.5542    8.9057   21.7104 O   0  0  0  0  0  0  0  0  0  0  0  0
    6.9895    3.2085   23.0690 C   0  0  0  0  0  0  0  0  0  0  0  0
    7.8391    2.2253   22.7260 N   0  0  0  0  0  0  0  0  0  0  0  0
    8.6968    9.8373   23.6359 C   0  0  0  0  0  0  0  0  0  0  0  0
   12.5135    6.5957   21.8396 C   0  0  0  0  0  0  0  0  0  0  0  0
   10.9406    8.2330   21.1350 C   0  0  0  0  0  0  0  0  0  0  0  0
    9.6648    8.5956   21.7310 C   0  0  0  0  0  0  0  0  0  0  0  0
   10.8829    1.7153   20.9865 C   0  0  0  0  0  0  0  0  0  0  0  0
    5.7768    2.8533   23.7910 C   0  0  0  0  0  0  0  0  0  0  0  0
    9.7977    1.4791   21.6912 N   0  0  0  0  0  0  0  0  0  0  0  0
    6.5976    9.3401   22.6478 N   0  0  0  0  0  0  0  0  0  0  0  0
   11.2031    3.0042   20.6246 C   0  0  0  0  0  0  0  0  0  0  0  0
   12.8688    7.7370   22.7287 C   0  0  0  0  0  0  0  0  0  0  0  0
    7.4487    9.1361   23.6506 C   0  0  0  0  0  0  0  0  0  0  0  0
    8.9772    2.5025   22.0273 C   0  0  0  0  0  0  0  0  0  0  0  0
   10.4859    4.0901   20.9730 C   0  0  0  0  0  0  0  0  0  0  0  0
   11.0962    9.3293   23.5072 C   0  0  0  0  0  0  0  0  0  0  0  0
    5.1273    7.8529   23.6208 N   0  0  0  0  0  0  0  0  0  0  0  0
    9.7552    9.2338   23.0171 N   0  0  0  0  0  0  0  0  0  0  0  0
   11.1797    6.7591   21.3326 N   0  0  0  0  0  0  0  0  0  0  0  0
   11.7728    8.0337   23.7267 C   0  0  0  0  0  0  0  0  0  0  0  0
    7.1194    8.3344   24.6775 C   0  0  0  0  0  0  0  0  0  0  0  0
    8.4311    4.7963   22.0500 C   0  0  0  0  0  0  0  0  0  0  0  0
    8.7393   10.8706   24.1871 O   0  0  0  0  0  0  0  0  0  0  0  0
    9.3093    3.8166   21.6712 C   0  0  0  0  0  0  0  0  0  0  0  0
  1  5  1  0
  1 15  4  0
  1 22  4  0
  2 20  1  0
  2 24  1  0
  3  6  4  0
  3 27  4  0
  4 22  4  0
  4 26  4  0
  6  7  4  0
  6 13  1  0
  7 19  4  0
  8 18  1  0
  8 23  1  0
  8 28  2  0
  9 17  1  0
  9 24  1  0
 10 11  1  0
 10 24  1  0
 11 23  1  0
 12 14  4  0
 12 16  4  0
 14 19  4  0
 15 18  4  0
 16 20  4  0
 17 25  1  0
 18 26  4  0
 19 29  4  0
 20 29  4  0
 21 23  1  0
 21 25  1  0
 27 29  4  0
M  END
$$$$

 Created by Python create_sdf_string function

 29 32  0  0  0  0  0  0  0  0999 V2000
    5.4450    8.7154   22.6662 C   0  0  0  0  0  0  0  0  0  0  0  0
   10.9154    5.4574   20.5483 C   0  0  0  0  0  0  0  0  0  0  0  0
    7.2709    4.5089   22.7542 C   0  0  0  0  0  0  0  0  0  0  0  0
    5.9698    7.6329   24.6581 C   0  0  0  0  0  0  0  0  0  0  0  0
    4.5542    8.9057   21.7104 O   0  0  0  0  0  0  0  0  0  0  0  0
    6.9895    3.2085   23.0690 C   0  0  0  0  0  0  0  0  0  0  0  0
    7.8391    2.2253   22.7260 N   0  0  0  0  0  0  0  0  0  0  0  0
    8.6968    9.8373   23.6359 C   0  0  0  0  0  0  0  0  0  0  0  0
   12.5135    6.5957   21.8396 C   0  0  0  0  0  0  0  0  0  0  0  0
   10.9406    8.2330   21.1350 C   0  0  0  0  0  0  0  0  0  0  0  0
    9.6648    8.5956   21.7310 C   0  0  0  0  0  0  0  0  0  0  0  0
   10.8829    1.7153   20.9865 C   0  0  0  0  0  0  0  0  0  0  0  0
    5.7768    2.8533   23.7910 C   0  0  0  0  0  0  0  0  0  0  0  0
    9.7977    1.4791   21.6912 N   0  0  0  0  0  0  0  0  0  0  0  0
    6.5976    9.3401   22.6478 N   0  0  0  0  0  0  0  0  0  0  0  0
   11.2031    3.0042   20.6246 C   0  0  0  0  0  0  0  0  0  0  0  0
   12.8688    7.7370   22.7287 C   0  0  0  0  0  0  0  0  0  0  0  0
    7.4487    9.1361   23.6506 C   0  0  0  0  0  0  0  0  0  0  0  0
    8.9772    2.5025   22.0273 C   0  0  0  0  0  0  0  0  0  0  0  0
   10.4859    4.0901   20.9730 C   0  0  0  0  0  0  0  0  0  0  0  0
   11.0962    9.3293   23.5072 C   0  0  0  0  0  0  0  0  0  0  0  0
    5.1273    7.8529   23.6208 N   0  0  0  0  0  0  0  0  0  0  0  0
    9.7552    9.2338   23.0171 N   0  0  0  0  0  0  0  0  0  0  0  0
   11.1797    6.7591   21.3326 N   0  0  0  0  0  0  0  0  0  0  0  0
   11.7728    8.0337   23.7267 C   0  0  0  0  0  0  0  0  0  0  0  0
    7.1194    8.3344   24.6775 C   0  0  0  0  0  0  0  0  0  0  0  0
    8.4311    4.7963   22.0500 C   0  0  0  0  0  0  0  0  0  0  0  0
    8.7393   10.8706   24.1871 O   0  0  0  0  0  0  0  0  0  0  0  0
    9.3093    3.8166   21.6712 C   0  0  0  0  0  0  0  0  0  0  0  0
  1  5  1  0
  1 15  4  0
  1 22  4  0
  2 20  1  0
  2 24  1  0
  3  6  4  0
  3 27  4  0
  4 22  4  0
  4 26  4  0
  6  7  4  0
  6 13  1  0
  7 19  4  0
  8 18  1  0
  8 23  1  0
  8 28  2  0
  9 17  1  0
  9 24  1  0
 10 11  1  0
 10 24  1  0
 11 23  1  0
 12 14  4  0
 12 16  4  0
 14 19  4  0
 15 18  4  0
 16 20  4  0
 17 25  1  0
 18 26  4  0
 19 29  4  0
 20 29  4  0
 21 23  1  0
 21 25  1  0
 27 29  4  0
M  END
$$$$

 Created by Python create_sdf_string function

 29 32  0  0  0  0  0  0  0  0999 V2000
    5.4450    8.7154   22.6662 C   0  0  0  0  0  0  0  0  0  0  0  0
   10.9154    5.4574   20.5483 C   0  0  0  0  0  0  0  0  0  0  0  0
    7.2709    4.5089   22.7542 C   0  0  0  0  0  0  0  0  0  0  0  0
    5.9698    7.6329   24.6581 C   0  0  0  0  0  0  0  0  0  0  0  0
    4.5542    8.9057   21.7104 O   0  0  0  0  0  0  0  0  0  0  0  0
    6.9895    3.2085   23.0690 C   0  0  0  0  0  0  0  0  0  0  0  0
    7.8391    2.2253   22.7260 N   0  0  0  0  0  0  0  0  0  0  0  0
    8.6968    9.8373   23.6359 C   0  0  0  0  0  0  0  0  0  0  0  0
   12.5135    6.5957   21.8396 C   0  0  0  0  0  0  0  0  0  0  0  0
   10.9406    8.2330   21.1350 C   0  0  0  0  0  0  0  0  0  0  0  0
    9.6648    8.5956   21.7310 C   0  0  0  0  0  0  0  0  0  0  0  0
   10.8829    1.7153   20.9865 C   0  0  0  0  0  0  0  0  0  0  0  0
    5.7768    2.8533   23.7910 C   0  0  0  0  0  0  0  0  0  0  0  0
    9.7977    1.4791   21.6912 N   0  0  0  0  0  0  0  0  0  0  0  0
    6.5976    9.3401   22.6478 N   0  0  0  0  0  0  0  0  0  0  0  0
   11.2031    3.0042   20.6246 C   0  0  0  0  0  0  0  0  0  0  0  0
   12.8688    7.7370   22.7287 C   0  0  0  0  0  0  0  0  0  0  0  0
    7.4487    9.1361   23.6506 C   0  0  0  0  0  0  0  0  0  0  0  0
    8.9772    2.5025   22.0273 C   0  0  0  0  0  0  0  0  0  0  0  0
   10.4859    4.0901   20.9730 C   0  0  0  0  0  0  0  0  0  0  0  0
   11.0962    9.3293   23.5072 C   0  0  0  0  0  0  0  0  0  0  0  0
    5.1273    7.8529   23.6208 N   0  0  0  0  0  0  0  0  0  0  0  0
    9.7552    9.2338   23.0171 N   0  0  0  0  0  0  0  0  0  0  0  0
   11.1797    6.7591   21.3326 N   0  0  0  0  0  0  0  0  0  0  0  0
   11.7728    8.0337   23.7267 C   0  0  0  0  0  0  0  0  0  0  0  0
    7.1194    8.3344   24.6775 C   0  0  0  0  0  0  0  0  0  0  0  0
    8.4311    4.7963   22.0500 C   0  0  0  0  0  0  0  0  0  0  0  0
    8.7393   10.8706   24.1871 O   0  0  0  0  0  0  0  0  0  0  0  0
    9.3093    3.8166   21.6712 C   0  0  0  0  0  0  0  0  0  0  0  0
  1  5  1  0
  1 15  4  0
  1 22  4  0
  2 20  1  0
  2 24  1  0
  3  6  4  0
  3 27  4  0
  4 22  4  0
  4 26  4  0
  6  7  4  0
  6 13  1  0
  7 19  4  0
  8 18  1  0
  8 23  1  0
  8 28  2  0
  9 17  1  0
  9 24  1  0
 10 11  1  0
 10 24  1  0
 11 23  1  0
 12 14  4  0
 12 16  4  0
 14 19  4  0
 15 18  4  0
 16 20  4  0
 17 25  1  0
 18 26  4  0
 19 29  4  0
 20 29  4  0
 21 23  1  0
 21 25  1  0
 27 29  4  0
M  END
$$$$

 Created by Python create_sdf_string function

 29 32  0  0  0  0  0  0  0  0999 V2000
    5.4450    8.7154   22.6662 C   0  0  0  0  0  0  0  0  0  0  0  0
   10.9154    5.4574   20.5483 C   0  0  0  0  0  0  0  0  0  0  0  0
    7.2709    4.5089   22.7542 C   0  0  0  0  0  0  0  0  0  0  0  0
    5.9698    7.6329   24.6581 C   0  0  0  0  0  0  0  0  0  0  0  0
    4.5542    8.9057   21.7104 O   0  0  0  0  0  0  0  0  0  0  0  0
    6.9895    3.2085   23.0690 C   0  0  0  0  0  0  0  0  0  0  0  0
    7.8391    2.2253   22.7260 N   0  0  0  0  0  0  0  0  0  0  0  0
    8.6968    9.8373   23.6359 C   0  0  0  0  0  0  0  0  0  0  0  0
   12.5135    6.5957   21.8396 C   0  0  0  0  0  0  0  0  0  0  0  0
   10.9406    8.2330   21.1350 C   0  0  0  0  0  0  0  0  0  0  0  0
    9.6648    8.5956   21.7310 C   0  0  0  0  0  0  0  0  0  0  0  0
   10.8829    1.7153   20.9865 C   0  0  0  0  0  0  0  0  0  0  0  0
    5.7768    2.8533   23.7910 C   0  0  0  0  0  0  0  0  0  0  0  0
    9.7977    1.4791   21.6912 N   0  0  0  0  0  0  0  0  0  0  0  0
    6.5976    9.3401   22.6478 N   0  0  0  0  0  0  0  0  0  0  0  0
   11.2031    3.0042   20.6246 C   0  0  0  0  0  0  0  0  0  0  0  0
   12.8688    7.7370   22.7287 C   0  0  0  0  0  0  0  0  0  0  0  0
    7.4487    9.1361   23.6506 C   0  0  0  0  0  0  0  0  0  0  0  0
    8.9772    2.5025   22.0273 C   0  0  0  0  0  0  0  0  0  0  0  0
   10.4859    4.0901   20.9730 C   0  0  0  0  0  0  0  0  0  0  0  0
   11.0962    9.3293   23.5072 C   0  0  0  0  0  0  0  0  0  0  0  0
    5.1273    7.8529   23.6208 N   0  0  0  0  0  0  0  0  0  0  0  0
    9.7552    9.2338   23.0171 N   0  0  0  0  0  0  0  0  0  0  0  0
   11.1797    6.7591   21.3326 N   0  0  0  0  0  0  0  0  0  0  0  0
   11.7728    8.0337   23.7267 C   0  0  0  0  0  0  0  0  0  0  0  0
    7.1194    8.3344   24.6775 C   0  0  0  0  0  0  0  0  0  0  0  0
    8.4311    4.7963   22.0500 C   0  0  0  0  0  0  0  0  0  0  0  0
    8.7393   10.8706   24.1871 O   0  0  0  0  0  0  0  0  0  0  0  0
    9.3093    3.8166   21.6712 C   0  0  0  0  0  0  0  0  0  0  0  0
  1  5  1  0
  1 15  4  0
  1 22  4  0
  2 20  1  0
  2 24  1  0
  3  6  4  0
  3 27  4  0
  4 22  4  0
  4 26  4  0
  6  7  4  0
  6 13  1  0
  7 19  4  0
  8 18  1  0
  8 23  1  0
  8 28  2  0
  9 17  1  0
  9 24  1  0
 10 11  1  0
 10 24  1  0
 11 23  1  0
 12 14  4  0
 12 16  4  0
 14 19  4  0
 15 18  4  0
 16 20  4  0
 17 25  1  0
 18 26  4  0
 19 29  4  0
 20 29  4  0
 21 23  1  0
 21 25  1  0
 27 29  4  0
M  END
$$$$

 Created by Python create_sdf_string function

 29 32  0  0  0  0  0  0  0  0999 V2000
    5.4450    8.7154   22.6662 C   0  0  0  0  0  0  0  0  0  0  0  0
   10.9154    5.4574   20.5483 C   0  0  0  0  0  0  0  0  0  0  0  0
    7.2709    4.5089   22.7542 C   0  0  0  0  0  0  0  0  0  0  0  0
    5.9698    7.6329   24.6581 C   0  0  0  0  0  0  0  0  0  0  0  0
    4.5542    8.9057   21.7104 O   0  0  0  0  0  0  0  0  0  0  0  0
    6.9895    3.2085   23.0690 C   0  0  0  0  0  0  0  0  0  0  0  0
    7.8391    2.2253   22.7260 N   0  0  0  0  0  0  0  0  0  0  0  0
    8.6968    9.8373   23.6359 C   0  0  0  0  0  0  0  0  0  0  0  0
   12.5135    6.5957   21.8396 C   0  0  0  0  0  0  0  0  0  0  0  0
   10.9406    8.2330   21.1350 C   0  0  0  0  0  0  0  0  0  0  0  0
    9.6648    8.5956   21.7310 C   0  0  0  0  0  0  0  0  0  0  0  0
   10.8829    1.7153   20.9865 C   0  0  0  0  0  0  0  0  0  0  0  0
    5.7768    2.8533   23.7910 C   0  0  0  0  0  0  0  0  0  0  0  0
    9.7977    1.4791   21.6912 N   0  0  0  0  0  0  0  0  0  0  0  0
    6.5976    9.3401   22.6478 N   0  0  0  0  0  0  0  0  0  0  0  0
   11.2031    3.0042   20.6246 C   0  0  0  0  0  0  0  0  0  0  0  0
   12.8688    7.7370   22.7287 C   0  0  0  0  0  0  0  0  0  0  0  0
    7.4487    9.1361   23.6506 C   0  0  0  0  0  0  0  0  0  0  0  0
    8.9772    2.5025   22.0273 C   0  0  0  0  0  0  0  0  0  0  0  0
   10.4859    4.0901   20.9730 C   0  0  0  0  0  0  0  0  0  0  0  0
   11.0962    9.3293   23.5072 C   0  0  0  0  0  0  0  0  0  0  0  0
    5.1273    7.8529   23.6208 N   0  0  0  0  0  0  0  0  0  0  0  0
    9.7552    9.2338   23.0171 N   0  0  0  0  0  0  0  0  0  0  0  0
   11.1797    6.7591   21.3326 N   0  0  0  0  0  0  0  0  0  0  0  0
   11.7728    8.0337   23.7267 C   0  0  0  0  0  0  0  0  0  0  0  0
    7.1194    8.3344   24.6775 C   0  0  0  0  0  0  0  0  0  0  0  0
    8.4311    4.7963   22.0500 C   0  0  0  0  0  0  0  0  0  0  0  0
    8.7393   10.8706   24.1871 O   0  0  0  0  0  0  0  0  0  0  0  0
    9.3093    3.8166   21.6712 C   0  0  0  0  0  0  0  0  0  0  0  0
  1  5  1  0
  1 15  4  0
  1 22  4  0
  2 20  1  0
  2 24  1  0
  3  6  4  0
  3 27  4  0
  4 22  4  0
  4 26  4  0
  6  7  4  0
  6 13  1  0
  7 19  4  0
  8 18  1  0
  8 23  1  0
  8 28  2  0
  9 17  1  0
  9 24  1  0
 10 11  1  0
 10 24  1  0
 11 23  1  0
 12 14  4  0
 12 16  4  0
 14 19  4  0
 15 18  4  0
 16 20  4  0
 17 25  1  0
 18 26  4  0
 19 29  4  0
 20 29  4  0
 21 23  1  0
 21 25  1  0
 27 29  4  0
M  END
$$$$

 Created by Python create_sdf_string function

 29 32  0  0  0  0  0  0  0  0999 V2000
    5.4450    8.7154   22.6662 C   0  0  0  0  0  0  0  0  0  0  0  0
   10.9154    5.4574   20.5483 C   0  0  0  0  0  0  0  0  0  0  0  0
    7.2709    4.5089   22.7542 C   0  0  0  0  0  0  0  0  0  0  0  0
    5.9698    7.6329   24.6581 C   0  0  0  0  0  0  0  0  0  0  0  0
    4.5542    8.9057   21.7104 O   0  0  0  0  0  0  0  0  0  0  0  0
    6.9895    3.2085   23.0690 C   0  0  0  0  0  0  0  0  0  0  0  0
    7.8391    2.2253   22.7260 N   0  0  0  0  0  0  0  0  0  0  0  0
    8.6968    9.8373   23.6359 C   0  0  0  0  0  0  0  0  0  0  0  0
   12.5135    6.5957   21.8396 C   0  0  0  0  0  0  0  0  0  0  0  0
   10.9406    8.2330   21.1350 C   0  0  0  0  0  0  0  0  0  0  0  0
    9.6648    8.5956   21.7310 C   0  0  0  0  0  0  0  0  0  0  0  0
   10.8829    1.7153   20.9865 C   0  0  0  0  0  0  0  0  0  0  0  0
    5.7768    2.8533   23.7910 C   0  0  0  0  0  0  0  0  0  0  0  0
    9.7977    1.4791   21.6912 N   0  0  0  0  0  0  0  0  0  0  0  0
    6.5976    9.3401   22.6478 N   0  0  0  0  0  0  0  0  0  0  0  0
   11.2031    3.0042   20.6246 C   0  0  0  0  0  0  0  0  0  0  0  0
   12.8688    7.7370   22.7287 C   0  0  0  0  0  0  0  0  0  0  0  0
    7.4487    9.1361   23.6506 C   0  0  0  0  0  0  0  0  0  0  0  0
    8.9772    2.5025   22.0273 C   0  0  0  0  0  0  0  0  0  0  0  0
   10.4859    4.0901   20.9730 C   0  0  0  0  0  0  0  0  0  0  0  0
   11.0962    9.3293   23.5072 C   0  0  0  0  0  0  0  0  0  0  0  0
    5.1273    7.8529   23.6208 N   0  0  0  0  0  0  0  0  0  0  0  0
    9.7552    9.2338   23.0171 N   0  0  0  0  0  0  0  0  0  0  0  0
   11.1797    6.7591   21.3326 N   0  0  0  0  0  0  0  0  0  0  0  0
   11.7728    8.0337   23.7267 C   0  0  0  0  0  0  0  0  0  0  0  0
    7.1194    8.3344   24.6775 C   0  0  0  0  0  0  0  0  0  0  0  0
    8.4311    4.7963   22.0500 C   0  0  0  0  0  0  0  0  0  0  0  0
    8.7393   10.8706   24.1871 O   0  0  0  0  0  0  0  0  0  0  0  0
    9.3093    3.8166   21.6712 C   0  0  0  0  0  0  0  0  0  0  0  0
  1  5  1  0
  1 15  4  0
  1 22  4  0
  2 20  1  0
  2 24  1  0
  3  6  4  0
  3 27  4  0
  4 22  4  0
  4 26  4  0
  6  7  4  0
  6 13  1  0
  7 19  4  0
  8 18  1  0
  8 23  1  0
  8 28  2  0
  9 17  1  0
  9 24  1  0
 10 11  1  0
 10 24  1  0
 11 23  1  0
 12 14  4  0
 12 16  4  0
 14 19  4  0
 15 18  4  0
 16 20  4  0
 17 25  1  0
 18 26  4  0
 19 29  4  0
 20 29  4  0
 21 23  1  0
 21 25  1  0
 27 29  4  0
M  END
$$$$

 Created by Python create_sdf_string function

 29 32  0  0  0  0  0  0  0  0999 V2000
    5.4450    8.7154   22.6662 C   0  0  0  0  0  0  0  0  0  0  0  0
   10.9154    5.4574   20.5483 C   0  0  0  0  0  0  0  0  0  0  0  0
    7.2709    4.5089   22.7542 C   0  0  0  0  0  0  0  0  0  0  0  0
    5.9698    7.6329   24.6581 C   0  0  0  0  0  0  0  0  0  0  0  0
    4.5542    8.9057   21.7104 O   0  0  0  0  0  0  0  0  0  0  0  0
    6.9895    3.2085   23.0690 C   0  0  0  0  0  0  0  0  0  0  0  0
    7.8391    2.2253   22.7260 N   0  0  0  0  0  0  0  0  0  0  0  0
    8.6968    9.8373   23.6359 C   0  0  0  0  0  0  0  0  0  0  0  0
   12.5135    6.5957   21.8396 C   0  0  0  0  0  0  0  0  0  0  0  0
   10.9406    8.2330   21.1350 C   0  0  0  0  0  0  0  0  0  0  0  0
    9.6648    8.5956   21.7310 C   0  0  0  0  0  0  0  0  0  0  0  0
   10.8829    1.7153   20.9865 C   0  0  0  0  0  0  0  0  0  0  0  0
    5.7768    2.8533   23.7910 C   0  0  0  0  0  0  0  0  0  0  0  0
    9.7977    1.4791   21.6912 N   0  0  0  0  0  0  0  0  0  0  0  0
    6.5976    9.3401   22.6478 N   0  0  0  0  0  0  0  0  0  0  0  0
   11.2031    3.0042   20.6246 C   0  0  0  0  0  0  0  0  0  0  0  0
   12.8688    7.7370   22.7287 C   0  0  0  0  0  0  0  0  0  0  0  0
    7.4487    9.1361   23.6506 C   0  0  0  0  0  0  0  0  0  0  0  0
    8.9772    2.5025   22.0273 C   0  0  0  0  0  0  0  0  0  0  0  0
   10.4859    4.0901   20.9730 C   0  0  0  0  0  0  0  0  0  0  0  0
   11.0962    9.3293   23.5072 C   0  0  0  0  0  0  0  0  0  0  0  0
    5.1273    7.8529   23.6208 N   0  0  0  0  0  0  0  0  0  0  0  0
    9.7552    9.2338   23.0171 N   0  0  0  0  0  0  0  0  0  0  0  0
   11.1797    6.7591   21.3326 N   0  0  0  0  0  0  0  0  0  0  0  0
   11.7728    8.0337   23.7267 C   0  0  0  0  0  0  0  0  0  0  0  0
    7.1194    8.3344   24.6775 C   0  0  0  0  0  0  0  0  0  0  0  0
    8.4311    4.7963   22.0500 C   0  0  0  0  0  0  0  0  0  0  0  0
    8.7393   10.8706   24.1871 O   0  0  0  0  0  0  0  0  0  0  0  0
    9.3093    3.8166   21.6712 C   0  0  0  0  0  0  0  0  0  0  0  0
  1  5  1  0
  1 15  4  0
  1 22  4  0
  2 20  1  0
  2 24  1  0
  3  6  4  0
  3 27  4  0
  4 22  4  0
  4 26  4  0
  6  7  4  0
  6 13  1  0
  7 19  4  0
  8 18  1  0
  8 23  1  0
  8 28  2  0
  9 17  1  0
  9 24  1  0
 10 11  1  0
 10 24  1  0
 11 23  1  0
 12 14  4  0
 12 16  4  0
 14 19  4  0
 15 18  4  0
 16 20  4  0
 17 25  1  0
 18 26  4  0
 19 29  4  0
 20 29  4  0
 21 23  1  0
 21 25  1  0
 27 29  4  0
M  END
$$$$

 Created by Python create_sdf_string function

 29 32  0  0  0  0  0  0  0  0999 V2000
    5.4450    8.7154   22.6662 C   0  0  0  0  0  0  0  0  0  0  0  0
   10.9154    5.4574   20.5483 C   0  0  0  0  0  0  0  0  0  0  0  0
    7.2709    4.5089   22.7542 C   0  0  0  0  0  0  0  0  0  0  0  0
    5.9698    7.6329   24.6581 C   0  0  0  0  0  0  0  0  0  0  0  0
    4.5542    8.9057   21.7104 O   0  0  0  0  0  0  0  0  0  0  0  0
    6.9895    3.2085   23.0690 C   0  0  0  0  0  0  0  0  0  0  0  0
    7.8391    2.2253   22.7260 N   0  0  0  0  0  0  0  0  0  0  0  0
    8.6968    9.8373   23.6359 C   0  0  0  0  0  0  0  0  0  0  0  0
   12.5135    6.5957   21.8396 C   0  0  0  0  0  0  0  0  0  0  0  0
   10.9406    8.2330   21.1350 C   0  0  0  0  0  0  0  0  0  0  0  0
    9.6648    8.5956   21.7310 C   0  0  0  0  0  0  0  0  0  0  0  0
   10.8829    1.7153   20.9865 C   0  0  0  0  0  0  0  0  0  0  0  0
    5.7768    2.8533   23.7910 C   0  0  0  0  0  0  0  0  0  0  0  0
    9.7977    1.4791   21.6912 N   0  0  0  0  0  0  0  0  0  0  0  0
    6.5976    9.3401   22.6478 N   0  0  0  0  0  0  0  0  0  0  0  0
   11.2031    3.0042   20.6246 C   0  0  0  0  0  0  0  0  0  0  0  0
   12.8688    7.7370   22.7287 C   0  0  0  0  0  0  0  0  0  0  0  0
    7.4487    9.1361   23.6506 C   0  0  0  0  0  0  0  0  0  0  0  0
    8.9772    2.5025   22.0273 C   0  0  0  0  0  0  0  0  0  0  0  0
   10.4859    4.0901   20.9730 C   0  0  0  0  0  0  0  0  0  0  0  0
   11.0962    9.3293   23.5072 C   0  0  0  0  0  0  0  0  0  0  0  0
    5.1273    7.8529   23.6208 N   0  0  0  0  0  0  0  0  0  0  0  0
    9.7552    9.2338   23.0171 N   0  0  0  0  0  0  0  0  0  0  0  0
   11.1797    6.7591   21.3326 N   0  0  0  0  0  0  0  0  0  0  0  0
   11.7728    8.0337   23.7267 C   0  0  0  0  0  0  0  0  0  0  0  0
    7.1194    8.3344   24.6775 C   0  0  0  0  0  0  0  0  0  0  0  0
    8.4311    4.7963   22.0500 C   0  0  0  0  0  0  0  0  0  0  0  0
    8.7393   10.8706   24.1871 O   0  0  0  0  0  0  0  0  0  0  0  0
    9.3093    3.8166   21.6712 C   0  0  0  0  0  0  0  0  0  0  0  0
  1  5  1  0
  1 15  4  0
  1 22  4  0
  2 20  1  0
  2 24  1  0
  3  6  4  0
  3 27  4  0
  4 22  4  0
  4 26  4  0
  6  7  4  0
  6 13  1  0
  7 19  4  0
  8 18  1  0
  8 23  1  0
  8 28  2  0
  9 17  1  0
  9 24  1  0
 10 11  1  0
 10 24  1  0
 11 23  1  0
 12 14  4  0
 12 16  4  0
 14 19  4  0
 15 18  4  0
 16 20  4  0
 17 25  1  0
 18 26  4  0
 19 29  4  0
 20 29  4  0
 21 23  1  0
 21 25  1  0
 27 29  4  0
M  END
$$$$

 Created by Python create_sdf_string function

 29 32  0  0  0  0  0  0  0  0999 V2000
    5.4450    8.7154   22.6662 C   0  0  0  0  0  0  0  0  0  0  0  0
   10.9154    5.4574   20.5483 C   0  0  0  0  0  0  0  0  0  0  0  0
    7.2709    4.5089   22.7542 C   0  0  0  0  0  0  0  0  0  0  0  0
    5.9698    7.6329   24.6581 C   0  0  0  0  0  0  0  0  0  0  0  0
    4.5542    8.9057   21.7104 O   0  0  0  0  0  0  0  0  0  0  0  0
    6.9895    3.2085   23.0690 C   0  0  0  0  0  0  0  0  0  0  0  0
    7.8391    2.2253   22.7260 N   0  0  0  0  0  0  0  0  0  0  0  0
    8.6968    9.8373   23.6359 C   0  0  0  0  0  0  0  0  0  0  0  0
   12.5135    6.5957   21.8396 C   0  0  0  0  0  0  0  0  0  0  0  0
   10.9406    8.2330   21.1350 C   0  0  0  0  0  0  0  0  0  0  0  0
    9.6648    8.5956   21.7310 C   0  0  0  0  0  0  0  0  0  0  0  0
   10.8829    1.7153   20.9865 C   0  0  0  0  0  0  0  0  0  0  0  0
    5.7768    2.8533   23.7910 C   0  0  0  0  0  0  0  0  0  0  0  0
    9.7977    1.4791   21.6912 N   0  0  0  0  0  0  0  0  0  0  0  0
    6.5976    9.3401   22.6478 N   0  0  0  0  0  0  0  0  0  0  0  0
   11.2031    3.0042   20.6246 C   0  0  0  0  0  0  0  0  0  0  0  0
   12.8688    7.7370   22.7287 C   0  0  0  0  0  0  0  0  0  0  0  0
    7.4487    9.1361   23.6506 C   0  0  0  0  0  0  0  0  0  0  0  0
    8.9772    2.5025   22.0273 C   0  0  0  0  0  0  0  0  0  0  0  0
   10.4859    4.0901   20.9730 C   0  0  0  0  0  0  0  0  0  0  0  0
   11.0962    9.3293   23.5072 C   0  0  0  0  0  0  0  0  0  0  0  0
    5.1273    7.8529   23.6208 N   0  0  0  0  0  0  0  0  0  0  0  0
    9.7552    9.2338   23.0171 N   0  0  0  0  0  0  0  0  0  0  0  0
   11.1797    6.7591   21.3326 N   0  0  0  0  0  0  0  0  0  0  0  0
   11.7728    8.0337   23.7267 C   0  0  0  0  0  0  0  0  0  0  0  0
    7.1194    8.3344   24.6775 C   0  0  0  0  0  0  0  0  0  0  0  0
    8.4311    4.7963   22.0500 C   0  0  0  0  0  0  0  0  0  0  0  0
    8.7393   10.8706   24.1871 O   0  0  0  0  0  0  0  0  0  0  0  0
    9.3093    3.8166   21.6712 C   0  0  0  0  0  0  0  0  0  0  0  0
  1  5  1  0
  1 15  4  0
  1 22  4  0
  2 20  1  0
  2 24  1  0
  3  6  4  0
  3 27  4  0
  4 22  4  0
  4 26  4  0
  6  7  4  0
  6 13  1  0
  7 19  4  0
  8 18  1  0
  8 23  1  0
  8 28  2  0
  9 17  1  0
  9 24  1  0
 10 11  1  0
 10 24  1  0
 11 23  1  0
 12 14  4  0
 12 16  4  0
 14 19  4  0
 15 18  4  0
 16 20  4  0
 17 25  1  0
 18 26  4  0
 19 29  4  0
 20 29  4  0
 21 23  1  0
 21 25  1  0
 27 29  4  0
M  END
$$$$

 Created by Python create_sdf_string function

 29 32  0  0  0  0  0  0  0  0999 V2000
    5.4450    8.7154   22.6662 C   0  0  0  0  0  0  0  0  0  0  0  0
   10.9154    5.4574   20.5483 C   0  0  0  0  0  0  0  0  0  0  0  0
    7.2709    4.5089   22.7542 C   0  0  0  0  0  0  0  0  0  0  0  0
    5.9698    7.6329   24.6581 C   0  0  0  0  0  0  0  0  0  0  0  0
    4.5542    8.9057   21.7104 O   0  0  0  0  0  0  0  0  0  0  0  0
    6.9895    3.2085   23.0690 C   0  0  0  0  0  0  0  0  0  0  0  0
    7.8391    2.2253   22.7260 N   0  0  0  0  0  0  0  0  0  0  0  0
    8.6968    9.8373   23.6359 C   0  0  0  0  0  0  0  0  0  0  0  0
   12.5135    6.5957   21.8396 C   0  0  0  0  0  0  0  0  0  0  0  0
   10.9406    8.2330   21.1350 C   0  0  0  0  0  0  0  0  0  0  0  0
    9.6648    8.5956   21.7310 C   0  0  0  0  0  0  0  0  0  0  0  0
   10.8829    1.7153   20.9865 C   0  0  0  0  0  0  0  0  0  0  0  0
    5.7768    2.8533   23.7910 C   0  0  0  0  0  0  0  0  0  0  0  0
    9.7977    1.4791   21.6912 N   0  0  0  0  0  0  0  0  0  0  0  0
    6.5976    9.3401   22.6478 N   0  0  0  0  0  0  0  0  0  0  0  0
   11.2031    3.0042   20.6246 C   0  0  0  0  0  0  0  0  0  0  0  0
   12.8688    7.7370   22.7287 C   0  0  0  0  0  0  0  0  0  0  0  0
    7.4487    9.1361   23.6506 C   0  0  0  0  0  0  0  0  0  0  0  0
    8.9772    2.5025   22.0273 C   0  0  0  0  0  0  0  0  0  0  0  0
   10.4859    4.0901   20.9730 C   0  0  0  0  0  0  0  0  0  0  0  0
   11.0962    9.3293   23.5072 C   0  0  0  0  0  0  0  0  0  0  0  0
    5.1273    7.8529   23.6208 N   0  0  0  0  0  0  0  0  0  0  0  0
    9.7552    9.2338   23.0171 N   0  0  0  0  0  0  0  0  0  0  0  0
   11.1797    6.7591   21.3326 N   0  0  0  0  0  0  0  0  0  0  0  0
   11.7728    8.0337   23.7267 C   0  0  0  0  0  0  0  0  0  0  0  0
    7.1194    8.3344   24.6775 C   0  0  0  0  0  0  0  0  0  0  0  0
    8.4311    4.7963   22.0500 C   0  0  0  0  0  0  0  0  0  0  0  0
    8.7393   10.8706   24.1871 O   0  0  0  0  0  0  0  0  0  0  0  0
    9.3093    3.8166   21.6712 C   0  0  0  0  0  0  0  0  0  0  0  0
  1  5  1  0
  1 15  4  0
  1 22  4  0
  2 20  1  0
  2 24  1  0
  3  6  4  0
  3 27  4  0
  4 22  4  0
  4 26  4  0
  6  7  4  0
  6 13  1  0
  7 19  4  0
  8 18  1  0
  8 23  1  0
  8 28  2  0
  9 17  1  0
  9 24  1  0
 10 11  1  0
 10 24  1  0
 11 23  1  0
 12 14  4  0
 12 16  4  0
 14 19  4  0
 15 18  4  0
 16 20  4  0
 17 25  1  0
 18 26  4  0
 19 29  4  0
 20 29  4  0
 21 23  1  0
 21 25  1  0
 27 29  4  0
M  END
$$$$

 Created by Python create_sdf_string function

 29 32  0  0  0  0  0  0  0  0999 V2000
    5.4450    8.7154   22.6662 C   0  0  0  0  0  0  0  0  0  0  0  0
   10.9154    5.4574   20.5483 C   0  0  0  0  0  0  0  0  0  0  0  0
    7.2709    4.5089   22.7542 C   0  0  0  0  0  0  0  0  0  0  0  0
    5.9698    7.6329   24.6581 C   0  0  0  0  0  0  0  0  0  0  0  0
    4.5542    8.9057   21.7104 O   0  0  0  0  0  0  0  0  0  0  0  0
    6.9895    3.2085   23.0690 C   0  0  0  0  0  0  0  0  0  0  0  0
    7.8391    2.2253   22.7260 N   0  0  0  0  0  0  0  0  0  0  0  0
    8.6968    9.8373   23.6359 C   0  0  0  0  0  0  0  0  0  0  0  0
   12.5135    6.5957   21.8396 C   0  0  0  0  0  0  0  0  0  0  0  0
   10.9406    8.2330   21.1350 C   0  0  0  0  0  0  0  0  0  0  0  0
    9.6648    8.5956   21.7310 C   0  0  0  0  0  0  0  0  0  0  0  0
   10.8829    1.7153   20.9865 C   0  0  0  0  0  0  0  0  0  0  0  0
    5.7768    2.8533   23.7910 C   0  0  0  0  0  0  0  0  0  0  0  0
    9.7977    1.4791   21.6912 N   0  0  0  0  0  0  0  0  0  0  0  0
    6.5976    9.3401   22.6478 N   0  0  0  0  0  0  0  0  0  0  0  0
   11.2031    3.0042   20.6246 C   0  0  0  0  0  0  0  0  0  0  0  0
   12.8688    7.7370   22.7287 C   0  0  0  0  0  0  0  0  0  0  0  0
    7.4487    9.1361   23.6506 C   0  0  0  0  0  0  0  0  0  0  0  0
    8.9772    2.5025   22.0273 C   0  0  0  0  0  0  0  0  0  0  0  0
   10.4859    4.0901   20.9730 C   0  0  0  0  0  0  0  0  0  0  0  0
   11.0962    9.3293   23.5072 C   0  0  0  0  0  0  0  0  0  0  0  0
    5.1273    7.8529   23.6208 N   0  0  0  0  0  0  0  0  0  0  0  0
    9.7552    9.2338   23.0171 N   0  0  0  0  0  0  0  0  0  0  0  0
   11.1797    6.7591   21.3326 N   0  0  0  0  0  0  0  0  0  0  0  0
   11.7728    8.0337   23.7267 C   0  0  0  0  0  0  0  0  0  0  0  0
    7.1194    8.3344   24.6775 C   0  0  0  0  0  0  0  0  0  0  0  0
    8.4311    4.7963   22.0500 C   0  0  0  0  0  0  0  0  0  0  0  0
    8.7393   10.8706   24.1871 O   0  0  0  0  0  0  0  0  0  0  0  0
    9.3093    3.8166   21.6712 C   0  0  0  0  0  0  0  0  0  0  0  0
  1  5  1  0
  1 15  4  0
  1 22  4  0
  2 20  1  0
  2 24  1  0
  3  6  4  0
  3 27  4  0
  4 22  4  0
  4 26  4  0
  6  7  4  0
  6 13  1  0
  7 19  4  0
  8 18  1  0
  8 23  1  0
  8 28  2  0
  9 17  1  0
  9 24  1  0
 10 11  1  0
 10 24  1  0
 11 23  1  0
 12 14  4  0
 12 16  4  0
 14 19  4  0
 15 18  4  0
 16 20  4  0
 17 25  1  0
 18 26  4  0
 19 29  4  0
 20 29  4  0
 21 23  1  0
 21 25  1  0
 27 29  4  0
M  END
$$$$

 Created by Python create_sdf_string function

 29 32  0  0  0  0  0  0  0  0999 V2000
    5.4450    8.7154   22.6662 C   0  0  0  0  0  0  0  0  0  0  0  0
   10.9154    5.4574   20.5483 C   0  0  0  0  0  0  0  0  0  0  0  0
    7.2709    4.5089   22.7542 C   0  0  0  0  0  0  0  0  0  0  0  0
    5.9698    7.6329   24.6581 C   0  0  0  0  0  0  0  0  0  0  0  0
    4.5542    8.9057   21.7104 O   0  0  0  0  0  0  0  0  0  0  0  0
    6.9895    3.2085   23.0690 C   0  0  0  0  0  0  0  0  0  0  0  0
    7.8391    2.2253   22.7260 N   0  0  0  0  0  0  0  0  0  0  0  0
    8.6968    9.8373   23.6359 C   0  0  0  0  0  0  0  0  0  0  0  0
   12.5135    6.5957   21.8396 C   0  0  0  0  0  0  0  0  0  0  0  0
   10.9406    8.2330   21.1350 C   0  0  0  0  0  0  0  0  0  0  0  0
    9.6648    8.5956   21.7310 C   0  0  0  0  0  0  0  0  0  0  0  0
   10.8829    1.7153   20.9865 C   0  0  0  0  0  0  0  0  0  0  0  0
    5.7768    2.8533   23.7910 C   0  0  0  0  0  0  0  0  0  0  0  0
    9.7977    1.4791   21.6912 N   0  0  0  0  0  0  0  0  0  0  0  0
    6.5976    9.3401   22.6478 N   0  0  0  0  0  0  0  0  0  0  0  0
   11.2031    3.0042   20.6246 C   0  0  0  0  0  0  0  0  0  0  0  0
   12.8688    7.7370   22.7287 C   0  0  0  0  0  0  0  0  0  0  0  0
    7.4487    9.1361   23.6506 C   0  0  0  0  0  0  0  0  0  0  0  0
    8.9772    2.5025   22.0273 C   0  0  0  0  0  0  0  0  0  0  0  0
   10.4859    4.0901   20.9730 C   0  0  0  0  0  0  0  0  0  0  0  0
   11.0962    9.3293   23.5072 C   0  0  0  0  0  0  0  0  0  0  0  0
    5.1273    7.8529   23.6208 N   0  0  0  0  0  0  0  0  0  0  0  0
    9.7552    9.2338   23.0171 N   0  0  0  0  0  0  0  0  0  0  0  0
   11.1797    6.7591   21.3326 N   0  0  0  0  0  0  0  0  0  0  0  0
   11.7728    8.0337   23.7267 C   0  0  0  0  0  0  0  0  0  0  0  0
    7.1194    8.3344   24.6775 C   0  0  0  0  0  0  0  0  0  0  0  0
    8.4311    4.7963   22.0500 C   0  0  0  0  0  0  0  0  0  0  0  0
    8.7393   10.8706   24.1871 O   0  0  0  0  0  0  0  0  0  0  0  0
    9.3093    3.8166   21.6712 C   0  0  0  0  0  0  0  0  0  0  0  0
  1  5  1  0
  1 15  4  0
  1 22  4  0
  2 20  1  0
  2 24  1  0
  3  6  4  0
  3 27  4  0
  4 22  4  0
  4 26  4  0
  6  7  4  0
  6 13  1  0
  7 19  4  0
  8 18  1  0
  8 23  1  0
  8 28  2  0
  9 17  1  0
  9 24  1  0
 10 11  1  0
 10 24  1  0
 11 23  1  0
 12 14  4  0
 12 16  4  0
 14 19  4  0
 15 18  4  0
 16 20  4  0
 17 25  1  0
 18 26  4  0
 19 29  4  0
 20 29  4  0
 21 23  1  0
 21 25  1  0
 27 29  4  0
M  END
$$$$

 Created by Python create_sdf_string function

 29 32  0  0  0  0  0  0  0  0999 V2000
    5.4450    8.7154   22.6662 C   0  0  0  0  0  0  0  0  0  0  0  0
   10.9154    5.4574   20.5483 C   0  0  0  0  0  0  0  0  0  0  0  0
    7.2709    4.5089   22.7542 C   0  0  0  0  0  0  0  0  0  0  0  0
    5.9698    7.6329   24.6581 C   0  0  0  0  0  0  0  0  0  0  0  0
    4.5542    8.9057   21.7104 O   0  0  0  0  0  0  0  0  0  0  0  0
    6.9895    3.2085   23.0690 C   0  0  0  0  0  0  0  0  0  0  0  0
    7.8391    2.2253   22.7260 N   0  0  0  0  0  0  0  0  0  0  0  0
    8.6968    9.8373   23.6359 C   0  0  0  0  0  0  0  0  0  0  0  0
   12.5135    6.5957   21.8396 C   0  0  0  0  0  0  0  0  0  0  0  0
   10.9406    8.2330   21.1350 C   0  0  0  0  0  0  0  0  0  0  0  0
    9.6648    8.5956   21.7310 C   0  0  0  0  0  0  0  0  0  0  0  0
   10.8829    1.7153   20.9865 C   0  0  0  0  0  0  0  0  0  0  0  0
    5.7768    2.8533   23.7910 C   0  0  0  0  0  0  0  0  0  0  0  0
    9.7977    1.4791   21.6912 N   0  0  0  0  0  0  0  0  0  0  0  0
    6.5976    9.3401   22.6478 N   0  0  0  0  0  0  0  0  0  0  0  0
   11.2031    3.0042   20.6246 C   0  0  0  0  0  0  0  0  0  0  0  0
   12.8688    7.7370   22.7287 C   0  0  0  0  0  0  0  0  0  0  0  0
    7.4487    9.1361   23.6506 C   0  0  0  0  0  0  0  0  0  0  0  0
    8.9772    2.5025   22.0273 C   0  0  0  0  0  0  0  0  0  0  0  0
   10.4859    4.0901   20.9730 C   0  0  0  0  0  0  0  0  0  0  0  0
   11.0962    9.3293   23.5072 C   0  0  0  0  0  0  0  0  0  0  0  0
    5.1273    7.8529   23.6208 N   0  0  0  0  0  0  0  0  0  0  0  0
    9.7552    9.2338   23.0171 N   0  0  0  0  0  0  0  0  0  0  0  0
   11.1797    6.7591   21.3326 N   0  0  0  0  0  0  0  0  0  0  0  0
   11.7728    8.0337   23.7267 C   0  0  0  0  0  0  0  0  0  0  0  0
    7.1194    8.3344   24.6775 C   0  0  0  0  0  0  0  0  0  0  0  0
    8.4311    4.7963   22.0500 C   0  0  0  0  0  0  0  0  0  0  0  0
    8.7393   10.8706   24.1871 O   0  0  0  0  0  0  0  0  0  0  0  0
    9.3093    3.8166   21.6712 C   0  0  0  0  0  0  0  0  0  0  0  0
  1  5  1  0
  1 15  4  0
  1 22  4  0
  2 20  1  0
  2 24  1  0
  3  6  4  0
  3 27  4  0
  4 22  4  0
  4 26  4  0
  6  7  4  0
  6 13  1  0
  7 19  4  0
  8 18  1  0
  8 23  1  0
  8 28  2  0
  9 17  1  0
  9 24  1  0
 10 11  1  0
 10 24  1  0
 11 23  1  0
 12 14  4  0
 12 16  4  0
 14 19  4  0
 15 18  4  0
 16 20  4  0
 17 25  1  0
 18 26  4  0
 19 29  4  0
 20 29  4  0
 21 23  1  0
 21 25  1  0
 27 29  4  0
M  END
$$$$

 Created by Python create_sdf_string function

 29 32  0  0  0  0  0  0  0  0999 V2000
    5.4450    8.7154   22.6662 C   0  0  0  0  0  0  0  0  0  0  0  0
   10.9154    5.4574   20.5483 C   0  0  0  0  0  0  0  0  0  0  0  0
    7.2709    4.5089   22.7542 C   0  0  0  0  0  0  0  0  0  0  0  0
    5.9698    7.6329   24.6581 C   0  0  0  0  0  0  0  0  0  0  0  0
    4.5542    8.9057   21.7104 O   0  0  0  0  0  0  0  0  0  0  0  0
    6.9895    3.2085   23.0690 C   0  0  0  0  0  0  0  0  0  0  0  0
    7.8391    2.2253   22.7260 N   0  0  0  0  0  0  0  0  0  0  0  0
    8.6968    9.8373   23.6359 C   0  0  0  0  0  0  0  0  0  0  0  0
   12.5135    6.5957   21.8396 C   0  0  0  0  0  0  0  0  0  0  0  0
   10.9406    8.2330   21.1350 C   0  0  0  0  0  0  0  0  0  0  0  0
    9.6648    8.5956   21.7310 C   0  0  0  0  0  0  0  0  0  0  0  0
   10.8829    1.7153   20.9865 C   0  0  0  0  0  0  0  0  0  0  0  0
    5.7768    2.8533   23.7910 C   0  0  0  0  0  0  0  0  0  0  0  0
    9.7977    1.4791   21.6912 N   0  0  0  0  0  0  0  0  0  0  0  0
    6.5976    9.3401   22.6478 N   0  0  0  0  0  0  0  0  0  0  0  0
   11.2031    3.0042   20.6246 C   0  0  0  0  0  0  0  0  0  0  0  0
   12.8688    7.7370   22.7287 C   0  0  0  0  0  0  0  0  0  0  0  0
    7.4487    9.1361   23.6506 C   0  0  0  0  0  0  0  0  0  0  0  0
    8.9772    2.5025   22.0273 C   0  0  0  0  0  0  0  0  0  0  0  0
   10.4859    4.0901   20.9730 C   0  0  0  0  0  0  0  0  0  0  0  0
   11.0962    9.3293   23.5072 C   0  0  0  0  0  0  0  0  0  0  0  0
    5.1273    7.8529   23.6208 N   0  0  0  0  0  0  0  0  0  0  0  0
    9.7552    9.2338   23.0171 N   0  0  0  0  0  0  0  0  0  0  0  0
   11.1797    6.7591   21.3326 N   0  0  0  0  0  0  0  0  0  0  0  0
   11.7728    8.0337   23.7267 C   0  0  0  0  0  0  0  0  0  0  0  0
    7.1194    8.3344   24.6775 C   0  0  0  0  0  0  0  0  0  0  0  0
    8.4311    4.7963   22.0500 C   0  0  0  0  0  0  0  0  0  0  0  0
    8.7393   10.8706   24.1871 O   0  0  0  0  0  0  0  0  0  0  0  0
    9.3093    3.8166   21.6712 C   0  0  0  0  0  0  0  0  0  0  0  0
  1  5  1  0
  1 15  4  0
  1 22  4  0
  2 20  1  0
  2 24  1  0
  3  6  4  0
  3 27  4  0
  4 22  4  0
  4 26  4  0
  6  7  4  0
  6 13  1  0
  7 19  4  0
  8 18  1  0
  8 23  1  0
  8 28  2  0
  9 17  1  0
  9 24  1  0
 10 11  1  0
 10 24  1  0
 11 23  1  0
 12 14  4  0
 12 16  4  0
 14 19  4  0
 15 18  4  0
 16 20  4  0
 17 25  1  0
 18 26  4  0
 19 29  4  0
 20 29  4  0
 21 23  1  0
 21 25  1  0
 27 29  4  0
M  END
$$$$

 Created by Python create_sdf_string function

 29 32  0  0  0  0  0  0  0  0999 V2000
    5.4450    8.7154   22.6662 C   0  0  0  0  0  0  0  0  0  0  0  0
   10.9154    5.4574   20.5483 C   0  0  0  0  0  0  0  0  0  0  0  0
    7.2709    4.5089   22.7542 C   0  0  0  0  0  0  0  0  0  0  0  0
    5.9698    7.6329   24.6581 C   0  0  0  0  0  0  0  0  0  0  0  0
    4.5542    8.9057   21.7104 O   0  0  0  0  0  0  0  0  0  0  0  0
    6.9895    3.2085   23.0690 C   0  0  0  0  0  0  0  0  0  0  0  0
    7.8391    2.2253   22.7260 N   0  0  0  0  0  0  0  0  0  0  0  0
    8.6968    9.8373   23.6359 C   0  0  0  0  0  0  0  0  0  0  0  0
   12.5135    6.5957   21.8396 C   0  0  0  0  0  0  0  0  0  0  0  0
   10.9406    8.2330   21.1350 C   0  0  0  0  0  0  0  0  0  0  0  0
    9.6648    8.5956   21.7310 C   0  0  0  0  0  0  0  0  0  0  0  0
   10.8829    1.7153   20.9865 C   0  0  0  0  0  0  0  0  0  0  0  0
    5.7768    2.8533   23.7910 C   0  0  0  0  0  0  0  0  0  0  0  0
    9.7977    1.4791   21.6912 N   0  0  0  0  0  0  0  0  0  0  0  0
    6.5976    9.3401   22.6478 N   0  0  0  0  0  0  0  0  0  0  0  0
   11.2031    3.0042   20.6246 C   0  0  0  0  0  0  0  0  0  0  0  0
   12.8688    7.7370   22.7287 C   0  0  0  0  0  0  0  0  0  0  0  0
    7.4487    9.1361   23.6506 C   0  0  0  0  0  0  0  0  0  0  0  0
    8.9772    2.5025   22.0273 C   0  0  0  0  0  0  0  0  0  0  0  0
   10.4859    4.0901   20.9730 C   0  0  0  0  0  0  0  0  0  0  0  0
   11.0962    9.3293   23.5072 C   0  0  0  0  0  0  0  0  0  0  0  0
    5.1273    7.8529   23.6208 N   0  0  0  0  0  0  0  0  0  0  0  0
    9.7552    9.2338   23.0171 N   0  0  0  0  0  0  0  0  0  0  0  0
   11.1797    6.7591   21.3326 N   0  0  0  0  0  0  0  0  0  0  0  0
   11.7728    8.0337   23.7267 C   0  0  0  0  0  0  0  0  0  0  0  0
    7.1194    8.3344   24.6775 C   0  0  0  0  0  0  0  0  0  0  0  0
    8.4311    4.7963   22.0500 C   0  0  0  0  0  0  0  0  0  0  0  0
    8.7393   10.8706   24.1871 O   0  0  0  0  0  0  0  0  0  0  0  0
    9.3093    3.8166   21.6712 C   0  0  0  0  0  0  0  0  0  0  0  0
  1  5  1  0
  1 15  4  0
  1 22  4  0
  2 20  1  0
  2 24  1  0
  3  6  4  0
  3 27  4  0
  4 22  4  0
  4 26  4  0
  6  7  4  0
  6 13  1  0
  7 19  4  0
  8 18  1  0
  8 23  1  0
  8 28  2  0
  9 17  1  0
  9 24  1  0
 10 11  1  0
 10 24  1  0
 11 23  1  0
 12 14  4  0
 12 16  4  0
 14 19  4  0
 15 18  4  0
 16 20  4  0
 17 25  1  0
 18 26  4  0
 19 29  4  0
 20 29  4  0
 21 23  1  0
 21 25  1  0
 27 29  4  0
M  END
$$$$

 Created by Python create_sdf_string function

 29 32  0  0  0  0  0  0  0  0999 V2000
    5.4450    8.7154   22.6662 C   0  0  0  0  0  0  0  0  0  0  0  0
   10.9154    5.4574   20.5483 C   0  0  0  0  0  0  0  0  0  0  0  0
    7.2709    4.5089   22.7542 C   0  0  0  0  0  0  0  0  0  0  0  0
    5.9698    7.6329   24.6581 C   0  0  0  0  0  0  0  0  0  0  0  0
    4.5542    8.9057   21.7104 O   0  0  0  0  0  0  0  0  0  0  0  0
    6.9895    3.2085   23.0690 C   0  0  0  0  0  0  0  0  0  0  0  0
    7.8391    2.2253   22.7260 N   0  0  0  0  0  0  0  0  0  0  0  0
    8.6968    9.8373   23.6359 C   0  0  0  0  0  0  0  0  0  0  0  0
   12.5135    6.5957   21.8396 C   0  0  0  0  0  0  0  0  0  0  0  0
   10.9406    8.2330   21.1350 C   0  0  0  0  0  0  0  0  0  0  0  0
    9.6648    8.5956   21.7310 C   0  0  0  0  0  0  0  0  0  0  0  0
   10.8829    1.7153   20.9865 C   0  0  0  0  0  0  0  0  0  0  0  0
    5.7768    2.8533   23.7910 C   0  0  0  0  0  0  0  0  0  0  0  0
    9.7977    1.4791   21.6912 N   0  0  0  0  0  0  0  0  0  0  0  0
    6.5976    9.3401   22.6478 N   0  0  0  0  0  0  0  0  0  0  0  0
   11.2031    3.0042   20.6246 C   0  0  0  0  0  0  0  0  0  0  0  0
   12.8688    7.7370   22.7287 C   0  0  0  0  0  0  0  0  0  0  0  0
    7.4487    9.1361   23.6506 C   0  0  0  0  0  0  0  0  0  0  0  0
    8.9772    2.5025   22.0273 C   0  0  0  0  0  0  0  0  0  0  0  0
   10.4859    4.0901   20.9730 C   0  0  0  0  0  0  0  0  0  0  0  0
   11.0962    9.3293   23.5072 C   0  0  0  0  0  0  0  0  0  0  0  0
    5.1273    7.8529   23.6208 N   0  0  0  0  0  0  0  0  0  0  0  0
    9.7552    9.2338   23.0171 N   0  0  0  0  0  0  0  0  0  0  0  0
   11.1797    6.7591   21.3326 N   0  0  0  0  0  0  0  0  0  0  0  0
   11.7728    8.0337   23.7267 C   0  0  0  0  0  0  0  0  0  0  0  0
    7.1194    8.3344   24.6775 C   0  0  0  0  0  0  0  0  0  0  0  0
    8.4311    4.7963   22.0500 C   0  0  0  0  0  0  0  0  0  0  0  0
    8.7393   10.8706   24.1871 O   0  0  0  0  0  0  0  0  0  0  0  0
    9.3093    3.8166   21.6712 C   0  0  0  0  0  0  0  0  0  0  0  0
  1  5  1  0
  1 15  4  0
  1 22  4  0
  2 20  1  0
  2 24  1  0
  3  6  4  0
  3 27  4  0
  4 22  4  0
  4 26  4  0
  6  7  4  0
  6 13  1  0
  7 19  4  0
  8 18  1  0
  8 23  1  0
  8 28  2  0
  9 17  1  0
  9 24  1  0
 10 11  1  0
 10 24  1  0
 11 23  1  0
 12 14  4  0
 12 16  4  0
 14 19  4  0
 15 18  4  0
 16 20  4  0
 17 25  1  0
 18 26  4  0
 19 29  4  0
 20 29  4  0
 21 23  1  0
 21 25  1  0
 27 29  4  0
M  END
$$$$

 Created by Python create_sdf_string function

 29 32  0  0  0  0  0  0  0  0999 V2000
    5.4450    8.7154   22.6662 C   0  0  0  0  0  0  0  0  0  0  0  0
   10.9154    5.4574   20.5483 C   0  0  0  0  0  0  0  0  0  0  0  0
    7.2709    4.5089   22.7542 C   0  0  0  0  0  0  0  0  0  0  0  0
    5.9698    7.6329   24.6581 C   0  0  0  0  0  0  0  0  0  0  0  0
    4.5542    8.9057   21.7104 O   0  0  0  0  0  0  0  0  0  0  0  0
    6.9895    3.2085   23.0690 C   0  0  0  0  0  0  0  0  0  0  0  0
    7.8391    2.2253   22.7260 N   0  0  0  0  0  0  0  0  0  0  0  0
    8.6968    9.8373   23.6359 C   0  0  0  0  0  0  0  0  0  0  0  0
   12.5135    6.5957   21.8396 C   0  0  0  0  0  0  0  0  0  0  0  0
   10.9406    8.2330   21.1350 C   0  0  0  0  0  0  0  0  0  0  0  0
    9.6648    8.5956   21.7310 C   0  0  0  0  0  0  0  0  0  0  0  0
   10.8829    1.7153   20.9865 C   0  0  0  0  0  0  0  0  0  0  0  0
    5.7768    2.8533   23.7910 C   0  0  0  0  0  0  0  0  0  0  0  0
    9.7977    1.4791   21.6912 N   0  0  0  0  0  0  0  0  0  0  0  0
    6.5976    9.3401   22.6478 N   0  0  0  0  0  0  0  0  0  0  0  0
   11.2031    3.0042   20.6246 C   0  0  0  0  0  0  0  0  0  0  0  0
   12.8688    7.7370   22.7287 C   0  0  0  0  0  0  0  0  0  0  0  0
    7.4487    9.1361   23.6506 C   0  0  0  0  0  0  0  0  0  0  0  0
    8.9772    2.5025   22.0273 C   0  0  0  0  0  0  0  0  0  0  0  0
   10.4859    4.0901   20.9730 C   0  0  0  0  0  0  0  0  0  0  0  0
   11.0962    9.3293   23.5072 C   0  0  0  0  0  0  0  0  0  0  0  0
    5.1273    7.8529   23.6208 N   0  0  0  0  0  0  0  0  0  0  0  0
    9.7552    9.2338   23.0171 N   0  0  0  0  0  0  0  0  0  0  0  0
   11.1797    6.7591   21.3326 N   0  0  0  0  0  0  0  0  0  0  0  0
   11.7728    8.0337   23.7267 C   0  0  0  0  0  0  0  0  0  0  0  0
    7.1194    8.3344   24.6775 C   0  0  0  0  0  0  0  0  0  0  0  0
    8.4311    4.7963   22.0500 C   0  0  0  0  0  0  0  0  0  0  0  0
    8.7393   10.8706   24.1871 O   0  0  0  0  0  0  0  0  0  0  0  0
    9.3093    3.8166   21.6712 C   0  0  0  0  0  0  0  0  0  0  0  0
  1  5  1  0
  1 15  4  0
  1 22  4  0
  2 20  1  0
  2 24  1  0
  3  6  4  0
  3 27  4  0
  4 22  4  0
  4 26  4  0
  6  7  4  0
  6 13  1  0
  7 19  4  0
  8 18  1  0
  8 23  1  0
  8 28  2  0
  9 17  1  0
  9 24  1  0
 10 11  1  0
 10 24  1  0
 11 23  1  0
 12 14  4  0
 12 16  4  0
 14 19  4  0
 15 18  4  0
 16 20  4  0
 17 25  1  0
 18 26  4  0
 19 29  4  0
 20 29  4  0
 21 23  1  0
 21 25  1  0
 27 29  4  0
M  END
$$$$

 Created by Python create_sdf_string function

 29 32  0  0  0  0  0  0  0  0999 V2000
    5.4450    8.7154   22.6662 C   0  0  0  0  0  0  0  0  0  0  0  0
   10.9154    5.4574   20.5483 C   0  0  0  0  0  0  0  0  0  0  0  0
    7.2709    4.5089   22.7542 C   0  0  0  0  0  0  0  0  0  0  0  0
    5.9698    7.6329   24.6581 C   0  0  0  0  0  0  0  0  0  0  0  0
    4.5542    8.9057   21.7104 O   0  0  0  0  0  0  0  0  0  0  0  0
    6.9895    3.2085   23.0690 C   0  0  0  0  0  0  0  0  0  0  0  0
    7.8391    2.2253   22.7260 N   0  0  0  0  0  0  0  0  0  0  0  0
    8.6968    9.8373   23.6359 C   0  0  0  0  0  0  0  0  0  0  0  0
   12.5135    6.5957   21.8396 C   0  0  0  0  0  0  0  0  0  0  0  0
   10.9406    8.2330   21.1350 C   0  0  0  0  0  0  0  0  0  0  0  0
    9.6648    8.5956   21.7310 C   0  0  0  0  0  0  0  0  0  0  0  0
   10.8829    1.7153   20.9865 C   0  0  0  0  0  0  0  0  0  0  0  0
    5.7768    2.8533   23.7910 C   0  0  0  0  0  0  0  0  0  0  0  0
    9.7977    1.4791   21.6912 N   0  0  0  0  0  0  0  0  0  0  0  0
    6.5976    9.3401   22.6478 N   0  0  0  0  0  0  0  0  0  0  0  0
   11.2031    3.0042   20.6246 C   0  0  0  0  0  0  0  0  0  0  0  0
   12.8688    7.7370   22.7287 C   0  0  0  0  0  0  0  0  0  0  0  0
    7.4487    9.1361   23.6506 C   0  0  0  0  0  0  0  0  0  0  0  0
    8.9772    2.5025   22.0273 C   0  0  0  0  0  0  0  0  0  0  0  0
   10.4859    4.0901   20.9730 C   0  0  0  0  0  0  0  0  0  0  0  0
   11.0962    9.3293   23.5072 C   0  0  0  0  0  0  0  0  0  0  0  0
    5.1273    7.8529   23.6208 N   0  0  0  0  0  0  0  0  0  0  0  0
    9.7552    9.2338   23.0171 N   0  0  0  0  0  0  0  0  0  0  0  0
   11.1797    6.7591   21.3326 N   0  0  0  0  0  0  0  0  0  0  0  0
   11.7728    8.0337   23.7267 C   0  0  0  0  0  0  0  0  0  0  0  0
    7.1194    8.3344   24.6775 C   0  0  0  0  0  0  0  0  0  0  0  0
    8.4311    4.7963   22.0500 C   0  0  0  0  0  0  0  0  0  0  0  0
    8.7393   10.8706   24.1871 O   0  0  0  0  0  0  0  0  0  0  0  0
    9.3093    3.8166   21.6712 C   0  0  0  0  0  0  0  0  0  0  0  0
  1  5  1  0
  1 15  4  0
  1 22  4  0
  2 20  1  0
  2 24  1  0
  3  6  4  0
  3 27  4  0
  4 22  4  0
  4 26  4  0
  6  7  4  0
  6 13  1  0
  7 19  4  0
  8 18  1  0
  8 23  1  0
  8 28  2  0
  9 17  1  0
  9 24  1  0
 10 11  1  0
 10 24  1  0
 11 23  1  0
 12 14  4  0
 12 16  4  0
 14 19  4  0
 15 18  4  0
 16 20  4  0
 17 25  1  0
 18 26  4  0
 19 29  4  0
 20 29  4  0
 21 23  1  0
 21 25  1  0
 27 29  4  0
M  END
$$$$

 Created by Python create_sdf_string function

 29 32  0  0  0  0  0  0  0  0999 V2000
    5.4450    8.7154   22.6662 C   0  0  0  0  0  0  0  0  0  0  0  0
   10.9154    5.4574   20.5483 C   0  0  0  0  0  0  0  0  0  0  0  0
    7.2709    4.5089   22.7542 C   0  0  0  0  0  0  0  0  0  0  0  0
    5.9698    7.6329   24.6581 C   0  0  0  0  0  0  0  0  0  0  0  0
    4.5542    8.9057   21.7104 O   0  0  0  0  0  0  0  0  0  0  0  0
    6.9895    3.2085   23.0690 C   0  0  0  0  0  0  0  0  0  0  0  0
    7.8391    2.2253   22.7260 N   0  0  0  0  0  0  0  0  0  0  0  0
    8.6968    9.8373   23.6359 C   0  0  0  0  0  0  0  0  0  0  0  0
   12.5135    6.5957   21.8396 C   0  0  0  0  0  0  0  0  0  0  0  0
   10.9406    8.2330   21.1350 C   0  0  0  0  0  0  0  0  0  0  0  0
    9.6648    8.5956   21.7310 C   0  0  0  0  0  0  0  0  0  0  0  0
   10.8829    1.7153   20.9865 C   0  0  0  0  0  0  0  0  0  0  0  0
    5.7768    2.8533   23.7910 C   0  0  0  0  0  0  0  0  0  0  0  0
    9.7977    1.4791   21.6912 N   0  0  0  0  0  0  0  0  0  0  0  0
    6.5976    9.3401   22.6478 N   0  0  0  0  0  0  0  0  0  0  0  0
   11.2031    3.0042   20.6246 C   0  0  0  0  0  0  0  0  0  0  0  0
   12.8688    7.7370   22.7287 C   0  0  0  0  0  0  0  0  0  0  0  0
    7.4487    9.1361   23.6506 C   0  0  0  0  0  0  0  0  0  0  0  0
    8.9772    2.5025   22.0273 C   0  0  0  0  0  0  0  0  0  0  0  0
   10.4859    4.0901   20.9730 C   0  0  0  0  0  0  0  0  0  0  0  0
   11.0962    9.3293   23.5072 C   0  0  0  0  0  0  0  0  0  0  0  0
    5.1273    7.8529   23.6208 N   0  0  0  0  0  0  0  0  0  0  0  0
    9.7552    9.2338   23.0171 N   0  0  0  0  0  0  0  0  0  0  0  0
   11.1797    6.7591   21.3326 N   0  0  0  0  0  0  0  0  0  0  0  0
   11.7728    8.0337   23.7267 C   0  0  0  0  0  0  0  0  0  0  0  0
    7.1194    8.3344   24.6775 C   0  0  0  0  0  0  0  0  0  0  0  0
    8.4311    4.7963   22.0500 C   0  0  0  0  0  0  0  0  0  0  0  0
    8.7393   10.8706   24.1871 O   0  0  0  0  0  0  0  0  0  0  0  0
    9.3093    3.8166   21.6712 C   0  0  0  0  0  0  0  0  0  0  0  0
  1  5  1  0
  1 15  4  0
  1 22  4  0
  2 20  1  0
  2 24  1  0
  3  6  4  0
  3 27  4  0
  4 22  4  0
  4 26  4  0
  6  7  4  0
  6 13  1  0
  7 19  4  0
  8 18  1  0
  8 23  1  0
  8 28  2  0
  9 17  1  0
  9 24  1  0
 10 11  1  0
 10 24  1  0
 11 23  1  0
 12 14  4  0
 12 16  4  0
 14 19  4  0
 15 18  4  0
 16 20  4  0
 17 25  1  0
 18 26  4  0
 19 29  4  0
 20 29  4  0
 21 23  1  0
 21 25  1  0
 27 29  4  0
M  END
$$$$

 Created by Python create_sdf_string function

 29 32  0  0  0  0  0  0  0  0999 V2000
    5.4450    8.7154   22.6662 C   0  0  0  0  0  0  0  0  0  0  0  0
   10.9154    5.4574   20.5483 C   0  0  0  0  0  0  0  0  0  0  0  0
    7.2709    4.5089   22.7542 C   0  0  0  0  0  0  0  0  0  0  0  0
    5.9698    7.6329   24.6581 C   0  0  0  0  0  0  0  0  0  0  0  0
    4.5542    8.9057   21.7104 O   0  0  0  0  0  0  0  0  0  0  0  0
    6.9895    3.2085   23.0690 C   0  0  0  0  0  0  0  0  0  0  0  0
    7.8391    2.2253   22.7260 N   0  0  0  0  0  0  0  0  0  0  0  0
    8.6968    9.8373   23.6359 C   0  0  0  0  0  0  0  0  0  0  0  0
   12.5135    6.5957   21.8396 C   0  0  0  0  0  0  0  0  0  0  0  0
   10.9406    8.2330   21.1350 C   0  0  0  0  0  0  0  0  0  0  0  0
    9.6648    8.5956   21.7310 C   0  0  0  0  0  0  0  0  0  0  0  0
   10.8829    1.7153   20.9865 C   0  0  0  0  0  0  0  0  0  0  0  0
    5.7768    2.8533   23.7910 C   0  0  0  0  0  0  0  0  0  0  0  0
    9.7977    1.4791   21.6912 N   0  0  0  0  0  0  0  0  0  0  0  0
    6.5976    9.3401   22.6478 N   0  0  0  0  0  0  0  0  0  0  0  0
   11.2031    3.0042   20.6246 C   0  0  0  0  0  0  0  0  0  0  0  0
   12.8688    7.7370   22.7287 C   0  0  0  0  0  0  0  0  0  0  0  0
    7.4487    9.1361   23.6506 C   0  0  0  0  0  0  0  0  0  0  0  0
    8.9772    2.5025   22.0273 C   0  0  0  0  0  0  0  0  0  0  0  0
   10.4859    4.0901   20.9730 C   0  0  0  0  0  0  0  0  0  0  0  0
   11.0962    9.3293   23.5072 C   0  0  0  0  0  0  0  0  0  0  0  0
    5.1273    7.8529   23.6208 N   0  0  0  0  0  0  0  0  0  0  0  0
    9.7552    9.2338   23.0171 N   0  0  0  0  0  0  0  0  0  0  0  0
   11.1797    6.7591   21.3326 N   0  0  0  0  0  0  0  0  0  0  0  0
   11.7728    8.0337   23.7267 C   0  0  0  0  0  0  0  0  0  0  0  0
    7.1194    8.3344   24.6775 C   0  0  0  0  0  0  0  0  0  0  0  0
    8.4311    4.7963   22.0500 C   0  0  0  0  0  0  0  0  0  0  0  0
    8.7393   10.8706   24.1871 O   0  0  0  0  0  0  0  0  0  0  0  0
    9.3093    3.8166   21.6712 C   0  0  0  0  0  0  0  0  0  0  0  0
  1  5  1  0
  1 15  4  0
  1 22  4  0
  2 20  1  0
  2 24  1  0
  3  6  4  0
  3 27  4  0
  4 22  4  0
  4 26  4  0
  6  7  4  0
  6 13  1  0
  7 19  4  0
  8 18  1  0
  8 23  1  0
  8 28  2  0
  9 17  1  0
  9 24  1  0
 10 11  1  0
 10 24  1  0
 11 23  1  0
 12 14  4  0
 12 16  4  0
 14 19  4  0
 15 18  4  0
 16 20  4  0
 17 25  1  0
 18 26  4  0
 19 29  4  0
 20 29  4  0
 21 23  1  0
 21 25  1  0
 27 29  4  0
M  END
$$$$

 Created by Python create_sdf_string function

 29 32  0  0  0  0  0  0  0  0999 V2000
    5.4450    8.7154   22.6662 C   0  0  0  0  0  0  0  0  0  0  0  0
   10.9154    5.4574   20.5483 C   0  0  0  0  0  0  0  0  0  0  0  0
    7.2709    4.5089   22.7542 C   0  0  0  0  0  0  0  0  0  0  0  0
    5.9698    7.6329   24.6581 C   0  0  0  0  0  0  0  0  0  0  0  0
    4.5542    8.9057   21.7104 O   0  0  0  0  0  0  0  0  0  0  0  0
    6.9895    3.2085   23.0690 C   0  0  0  0  0  0  0  0  0  0  0  0
    7.8391    2.2253   22.7260 N   0  0  0  0  0  0  0  0  0  0  0  0
    8.6968    9.8373   23.6359 C   0  0  0  0  0  0  0  0  0  0  0  0
   12.5135    6.5957   21.8396 C   0  0  0  0  0  0  0  0  0  0  0  0
   10.9406    8.2330   21.1350 C   0  0  0  0  0  0  0  0  0  0  0  0
    9.6648    8.5956   21.7310 C   0  0  0  0  0  0  0  0  0  0  0  0
   10.8829    1.7153   20.9865 C   0  0  0  0  0  0  0  0  0  0  0  0
    5.7768    2.8533   23.7910 C   0  0  0  0  0  0  0  0  0  0  0  0
    9.7977    1.4791   21.6912 N   0  0  0  0  0  0  0  0  0  0  0  0
    6.5976    9.3401   22.6478 N   0  0  0  0  0  0  0  0  0  0  0  0
   11.2031    3.0042   20.6246 C   0  0  0  0  0  0  0  0  0  0  0  0
   12.8688    7.7370   22.7287 C   0  0  0  0  0  0  0  0  0  0  0  0
    7.4487    9.1361   23.6506 C   0  0  0  0  0  0  0  0  0  0  0  0
    8.9772    2.5025   22.0273 C   0  0  0  0  0  0  0  0  0  0  0  0
   10.4859    4.0901   20.9730 C   0  0  0  0  0  0  0  0  0  0  0  0
   11.0962    9.3293   23.5072 C   0  0  0  0  0  0  0  0  0  0  0  0
    5.1273    7.8529   23.6208 N   0  0  0  0  0  0  0  0  0  0  0  0
    9.7552    9.2338   23.0171 N   0  0  0  0  0  0  0  0  0  0  0  0
   11.1797    6.7591   21.3326 N   0  0  0  0  0  0  0  0  0  0  0  0
   11.7728    8.0337   23.7267 C   0  0  0  0  0  0  0  0  0  0  0  0
    7.1194    8.3344   24.6775 C   0  0  0  0  0  0  0  0  0  0  0  0
    8.4311    4.7963   22.0500 C   0  0  0  0  0  0  0  0  0  0  0  0
    8.7393   10.8706   24.1871 O   0  0  0  0  0  0  0  0  0  0  0  0
    9.3093    3.8166   21.6712 C   0  0  0  0  0  0  0  0  0  0  0  0
  1  5  1  0
  1 15  4  0
  1 22  4  0
  2 20  1  0
  2 24  1  0
  3  6  4  0
  3 27  4  0
  4 22  4  0
  4 26  4  0
  6  7  4  0
  6 13  1  0
  7 19  4  0
  8 18  1  0
  8 23  1  0
  8 28  2  0
  9 17  1  0
  9 24  1  0
 10 11  1  0
 10 24  1  0
 11 23  1  0
 12 14  4  0
 12 16  4  0
 14 19  4  0
 15 18  4  0
 16 20  4  0
 17 25  1  0
 18 26  4  0
 19 29  4  0
 20 29  4  0
 21 23  1  0
 21 25  1  0
 27 29  4  0
M  END
$$$$

 Created by Python create_sdf_string function

 29 32  0  0  0  0  0  0  0  0999 V2000
    5.4450    8.7154   22.6662 C   0  0  0  0  0  0  0  0  0  0  0  0
   10.9154    5.4574   20.5483 C   0  0  0  0  0  0  0  0  0  0  0  0
    7.2709    4.5089   22.7542 C   0  0  0  0  0  0  0  0  0  0  0  0
    5.9698    7.6329   24.6581 C   0  0  0  0  0  0  0  0  0  0  0  0
    4.5542    8.9057   21.7104 O   0  0  0  0  0  0  0  0  0  0  0  0
    6.9895    3.2085   23.0690 C   0  0  0  0  0  0  0  0  0  0  0  0
    7.8391    2.2253   22.7260 N   0  0  0  0  0  0  0  0  0  0  0  0
    8.6968    9.8373   23.6359 C   0  0  0  0  0  0  0  0  0  0  0  0
   12.5135    6.5957   21.8396 C   0  0  0  0  0  0  0  0  0  0  0  0
   10.9406    8.2330   21.1350 C   0  0  0  0  0  0  0  0  0  0  0  0
    9.6648    8.5956   21.7310 C   0  0  0  0  0  0  0  0  0  0  0  0
   10.8829    1.7153   20.9865 C   0  0  0  0  0  0  0  0  0  0  0  0
    5.7768    2.8533   23.7910 C   0  0  0  0  0  0  0  0  0  0  0  0
    9.7977    1.4791   21.6912 N   0  0  0  0  0  0  0  0  0  0  0  0
    6.5976    9.3401   22.6478 N   0  0  0  0  0  0  0  0  0  0  0  0
   11.2031    3.0042   20.6246 C   0  0  0  0  0  0  0  0  0  0  0  0
   12.8688    7.7370   22.7287 C   0  0  0  0  0  0  0  0  0  0  0  0
    7.4487    9.1361   23.6506 C   0  0  0  0  0  0  0  0  0  0  0  0
    8.9772    2.5025   22.0273 C   0  0  0  0  0  0  0  0  0  0  0  0
   10.4859    4.0901   20.9730 C   0  0  0  0  0  0  0  0  0  0  0  0
   11.0962    9.3293   23.5072 C   0  0  0  0  0  0  0  0  0  0  0  0
    5.1273    7.8529   23.6208 N   0  0  0  0  0  0  0  0  0  0  0  0
    9.7552    9.2338   23.0171 N   0  0  0  0  0  0  0  0  0  0  0  0
   11.1797    6.7591   21.3326 N   0  0  0  0  0  0  0  0  0  0  0  0
   11.7728    8.0337   23.7267 C   0  0  0  0  0  0  0  0  0  0  0  0
    7.1194    8.3344   24.6775 C   0  0  0  0  0  0  0  0  0  0  0  0
    8.4311    4.7963   22.0500 C   0  0  0  0  0  0  0  0  0  0  0  0
    8.7393   10.8706   24.1871 O   0  0  0  0  0  0  0  0  0  0  0  0
    9.3093    3.8166   21.6712 C   0  0  0  0  0  0  0  0  0  0  0  0
  1  5  1  0
  1 15  4  0
  1 22  4  0
  2 20  1  0
  2 24  1  0
  3  6  4  0
  3 27  4  0
  4 22  4  0
  4 26  4  0
  6  7  4  0
  6 13  1  0
  7 19  4  0
  8 18  1  0
  8 23  1  0
  8 28  2  0
  9 17  1  0
  9 24  1  0
 10 11  1  0
 10 24  1  0
 11 23  1  0
 12 14  4  0
 12 16  4  0
 14 19  4  0
 15 18  4  0
 16 20  4  0
 17 25  1  0
 18 26  4  0
 19 29  4  0
 20 29  4  0
 21 23  1  0
 21 25  1  0
 27 29  4  0
M  END
$$$$

 Created by Python create_sdf_string function

 29 32  0  0  0  0  0  0  0  0999 V2000
    5.4450    8.7154   22.6662 C   0  0  0  0  0  0  0  0  0  0  0  0
   10.9154    5.4574   20.5483 C   0  0  0  0  0  0  0  0  0  0  0  0
    7.2709    4.5089   22.7542 C   0  0  0  0  0  0  0  0  0  0  0  0
    5.9698    7.6329   24.6581 C   0  0  0  0  0  0  0  0  0  0  0  0
    4.5542    8.9057   21.7104 O   0  0  0  0  0  0  0  0  0  0  0  0
    6.9895    3.2085   23.0690 C   0  0  0  0  0  0  0  0  0  0  0  0
    7.8391    2.2253   22.7260 N   0  0  0  0  0  0  0  0  0  0  0  0
    8.6968    9.8373   23.6359 C   0  0  0  0  0  0  0  0  0  0  0  0
   12.5135    6.5957   21.8396 C   0  0  0  0  0  0  0  0  0  0  0  0
   10.9406    8.2330   21.1350 C   0  0  0  0  0  0  0  0  0  0  0  0
    9.6648    8.5956   21.7310 C   0  0  0  0  0  0  0  0  0  0  0  0
   10.8829    1.7153   20.9865 C   0  0  0  0  0  0  0  0  0  0  0  0
    5.7768    2.8533   23.7910 C   0  0  0  0  0  0  0  0  0  0  0  0
    9.7977    1.4791   21.6912 N   0  0  0  0  0  0  0  0  0  0  0  0
    6.5976    9.3401   22.6478 N   0  0  0  0  0  0  0  0  0  0  0  0
   11.2031    3.0042   20.6246 C   0  0  0  0  0  0  0  0  0  0  0  0
   12.8688    7.7370   22.7287 C   0  0  0  0  0  0  0  0  0  0  0  0
    7.4487    9.1361   23.6506 C   0  0  0  0  0  0  0  0  0  0  0  0
    8.9772    2.5025   22.0273 C   0  0  0  0  0  0  0  0  0  0  0  0
   10.4859    4.0901   20.9730 C   0  0  0  0  0  0  0  0  0  0  0  0
   11.0962    9.3293   23.5072 C   0  0  0  0  0  0  0  0  0  0  0  0
    5.1273    7.8529   23.6208 N   0  0  0  0  0  0  0  0  0  0  0  0
    9.7552    9.2338   23.0171 N   0  0  0  0  0  0  0  0  0  0  0  0
   11.1797    6.7591   21.3326 N   0  0  0  0  0  0  0  0  0  0  0  0
   11.7728    8.0337   23.7267 C   0  0  0  0  0  0  0  0  0  0  0  0
    7.1194    8.3344   24.6775 C   0  0  0  0  0  0  0  0  0  0  0  0
    8.4311    4.7963   22.0500 C   0  0  0  0  0  0  0  0  0  0  0  0
    8.7393   10.8706   24.1871 O   0  0  0  0  0  0  0  0  0  0  0  0
    9.3093    3.8166   21.6712 C   0  0  0  0  0  0  0  0  0  0  0  0
  1  5  1  0
  1 15  4  0
  1 22  4  0
  2 20  1  0
  2 24  1  0
  3  6  4  0
  3 27  4  0
  4 22  4  0
  4 26  4  0
  6  7  4  0
  6 13  1  0
  7 19  4  0
  8 18  1  0
  8 23  1  0
  8 28  2  0
  9 17  1  0
  9 24  1  0
 10 11  1  0
 10 24  1  0
 11 23  1  0
 12 14  4  0
 12 16  4  0
 14 19  4  0
 15 18  4  0
 16 20  4  0
 17 25  1  0
 18 26  4  0
 19 29  4  0
 20 29  4  0
 21 23  1  0
 21 25  1  0
 27 29  4  0
M  END
$$$$

 Created by Python create_sdf_string function

 29 32  0  0  0  0  0  0  0  0999 V2000
    5.4450    8.7154   22.6662 C   0  0  0  0  0  0  0  0  0  0  0  0
   10.9154    5.4574   20.5483 C   0  0  0  0  0  0  0  0  0  0  0  0
    7.2709    4.5089   22.7542 C   0  0  0  0  0  0  0  0  0  0  0  0
    5.9698    7.6329   24.6581 C   0  0  0  0  0  0  0  0  0  0  0  0
    4.5542    8.9057   21.7104 O   0  0  0  0  0  0  0  0  0  0  0  0
    6.9895    3.2085   23.0690 C   0  0  0  0  0  0  0  0  0  0  0  0
    7.8391    2.2253   22.7260 N   0  0  0  0  0  0  0  0  0  0  0  0
    8.6968    9.8373   23.6359 C   0  0  0  0  0  0  0  0  0  0  0  0
   12.5135    6.5957   21.8396 C   0  0  0  0  0  0  0  0  0  0  0  0
   10.9406    8.2330   21.1350 C   0  0  0  0  0  0  0  0  0  0  0  0
    9.6648    8.5956   21.7310 C   0  0  0  0  0  0  0  0  0  0  0  0
   10.8829    1.7153   20.9865 C   0  0  0  0  0  0  0  0  0  0  0  0
    5.7768    2.8533   23.7910 C   0  0  0  0  0  0  0  0  0  0  0  0
    9.7977    1.4791   21.6912 N   0  0  0  0  0  0  0  0  0  0  0  0
    6.5976    9.3401   22.6478 N   0  0  0  0  0  0  0  0  0  0  0  0
   11.2031    3.0042   20.6246 C   0  0  0  0  0  0  0  0  0  0  0  0
   12.8688    7.7370   22.7287 C   0  0  0  0  0  0  0  0  0  0  0  0
    7.4487    9.1361   23.6506 C   0  0  0  0  0  0  0  0  0  0  0  0
    8.9772    2.5025   22.0273 C   0  0  0  0  0  0  0  0  0  0  0  0
   10.4859    4.0901   20.9730 C   0  0  0  0  0  0  0  0  0  0  0  0
   11.0962    9.3293   23.5072 C   0  0  0  0  0  0  0  0  0  0  0  0
    5.1273    7.8529   23.6208 N   0  0  0  0  0  0  0  0  0  0  0  0
    9.7552    9.2338   23.0171 N   0  0  0  0  0  0  0  0  0  0  0  0
   11.1797    6.7591   21.3326 N   0  0  0  0  0  0  0  0  0  0  0  0
   11.7728    8.0337   23.7267 C   0  0  0  0  0  0  0  0  0  0  0  0
    7.1194    8.3344   24.6775 C   0  0  0  0  0  0  0  0  0  0  0  0
    8.4311    4.7963   22.0500 C   0  0  0  0  0  0  0  0  0  0  0  0
    8.7393   10.8706   24.1871 O   0  0  0  0  0  0  0  0  0  0  0  0
    9.3093    3.8166   21.6712 C   0  0  0  0  0  0  0  0  0  0  0  0
  1  5  1  0
  1 15  4  0
  1 22  4  0
  2 20  1  0
  2 24  1  0
  3  6  4  0
  3 27  4  0
  4 22  4  0
  4 26  4  0
  6  7  4  0
  6 13  1  0
  7 19  4  0
  8 18  1  0
  8 23  1  0
  8 28  2  0
  9 17  1  0
  9 24  1  0
 10 11  1  0
 10 24  1  0
 11 23  1  0
 12 14  4  0
 12 16  4  0
 14 19  4  0
 15 18  4  0
 16 20  4  0
 17 25  1  0
 18 26  4  0
 19 29  4  0
 20 29  4  0
 21 23  1  0
 21 25  1  0
 27 29  4  0
M  END
$$$$

 Created by Python create_sdf_string function

 29 32  0  0  0  0  0  0  0  0999 V2000
    5.4450    8.7154   22.6662 C   0  0  0  0  0  0  0  0  0  0  0  0
   10.9154    5.4574   20.5483 C   0  0  0  0  0  0  0  0  0  0  0  0
    7.2709    4.5089   22.7542 C   0  0  0  0  0  0  0  0  0  0  0  0
    5.9698    7.6329   24.6581 C   0  0  0  0  0  0  0  0  0  0  0  0
    4.5542    8.9057   21.7104 O   0  0  0  0  0  0  0  0  0  0  0  0
    6.9895    3.2085   23.0690 C   0  0  0  0  0  0  0  0  0  0  0  0
    7.8391    2.2253   22.7260 N   0  0  0  0  0  0  0  0  0  0  0  0
    8.6968    9.8373   23.6359 C   0  0  0  0  0  0  0  0  0  0  0  0
   12.5135    6.5957   21.8396 C   0  0  0  0  0  0  0  0  0  0  0  0
   10.9406    8.2330   21.1350 C   0  0  0  0  0  0  0  0  0  0  0  0
    9.6648    8.5956   21.7310 C   0  0  0  0  0  0  0  0  0  0  0  0
   10.8829    1.7153   20.9865 C   0  0  0  0  0  0  0  0  0  0  0  0
    5.7768    2.8533   23.7910 C   0  0  0  0  0  0  0  0  0  0  0  0
    9.7977    1.4791   21.6912 N   0  0  0  0  0  0  0  0  0  0  0  0
    6.5976    9.3401   22.6478 N   0  0  0  0  0  0  0  0  0  0  0  0
   11.2031    3.0042   20.6246 C   0  0  0  0  0  0  0  0  0  0  0  0
   12.8688    7.7370   22.7287 C   0  0  0  0  0  0  0  0  0  0  0  0
    7.4487    9.1361   23.6506 C   0  0  0  0  0  0  0  0  0  0  0  0
    8.9772    2.5025   22.0273 C   0  0  0  0  0  0  0  0  0  0  0  0
   10.4859    4.0901   20.9730 C   0  0  0  0  0  0  0  0  0  0  0  0
   11.0962    9.3293   23.5072 C   0  0  0  0  0  0  0  0  0  0  0  0
    5.1273    7.8529   23.6208 N   0  0  0  0  0  0  0  0  0  0  0  0
    9.7552    9.2338   23.0171 N   0  0  0  0  0  0  0  0  0  0  0  0
   11.1797    6.7591   21.3326 N   0  0  0  0  0  0  0  0  0  0  0  0
   11.7728    8.0337   23.7267 C   0  0  0  0  0  0  0  0  0  0  0  0
    7.1194    8.3344   24.6775 C   0  0  0  0  0  0  0  0  0  0  0  0
    8.4311    4.7963   22.0500 C   0  0  0  0  0  0  0  0  0  0  0  0
    8.7393   10.8706   24.1871 O   0  0  0  0  0  0  0  0  0  0  0  0
    9.3093    3.8166   21.6712 C   0  0  0  0  0  0  0  0  0  0  0  0
  1  5  1  0
  1 15  4  0
  1 22  4  0
  2 20  1  0
  2 24  1  0
  3  6  4  0
  3 27  4  0
  4 22  4  0
  4 26  4  0
  6  7  4  0
  6 13  1  0
  7 19  4  0
  8 18  1  0
  8 23  1  0
  8 28  2  0
  9 17  1  0
  9 24  1  0
 10 11  1  0
 10 24  1  0
 11 23  1  0
 12 14  4  0
 12 16  4  0
 14 19  4  0
 15 18  4  0
 16 20  4  0
 17 25  1  0
 18 26  4  0
 19 29  4  0
 20 29  4  0
 21 23  1  0
 21 25  1  0
 27 29  4  0
M  END
$$$$

 Created by Python create_sdf_string function

 29 32  0  0  0  0  0  0  0  0999 V2000
    5.4450    8.7154   22.6662 C   0  0  0  0  0  0  0  0  0  0  0  0
   10.9154    5.4574   20.5483 C   0  0  0  0  0  0  0  0  0  0  0  0
    7.2709    4.5089   22.7542 C   0  0  0  0  0  0  0  0  0  0  0  0
    5.9698    7.6329   24.6581 C   0  0  0  0  0  0  0  0  0  0  0  0
    4.5542    8.9057   21.7104 O   0  0  0  0  0  0  0  0  0  0  0  0
    6.9895    3.2085   23.0690 C   0  0  0  0  0  0  0  0  0  0  0  0
    7.8391    2.2253   22.7260 N   0  0  0  0  0  0  0  0  0  0  0  0
    8.6968    9.8373   23.6359 C   0  0  0  0  0  0  0  0  0  0  0  0
   12.5135    6.5957   21.8396 C   0  0  0  0  0  0  0  0  0  0  0  0
   10.9406    8.2330   21.1350 C   0  0  0  0  0  0  0  0  0  0  0  0
    9.6648    8.5956   21.7310 C   0  0  0  0  0  0  0  0  0  0  0  0
   10.8829    1.7153   20.9865 C   0  0  0  0  0  0  0  0  0  0  0  0
    5.7768    2.8533   23.7910 C   0  0  0  0  0  0  0  0  0  0  0  0
    9.7977    1.4791   21.6912 N   0  0  0  0  0  0  0  0  0  0  0  0
    6.5976    9.3401   22.6478 N   0  0  0  0  0  0  0  0  0  0  0  0
   11.2031    3.0042   20.6246 C   0  0  0  0  0  0  0  0  0  0  0  0
   12.8688    7.7370   22.7287 C   0  0  0  0  0  0  0  0  0  0  0  0
    7.4487    9.1361   23.6506 C   0  0  0  0  0  0  0  0  0  0  0  0
    8.9772    2.5025   22.0273 C   0  0  0  0  0  0  0  0  0  0  0  0
   10.4859    4.0901   20.9730 C   0  0  0  0  0  0  0  0  0  0  0  0
   11.0962    9.3293   23.5072 C   0  0  0  0  0  0  0  0  0  0  0  0
    5.1273    7.8529   23.6208 N   0  0  0  0  0  0  0  0  0  0  0  0
    9.7552    9.2338   23.0171 N   0  0  0  0  0  0  0  0  0  0  0  0
   11.1797    6.7591   21.3326 N   0  0  0  0  0  0  0  0  0  0  0  0
   11.7728    8.0337   23.7267 C   0  0  0  0  0  0  0  0  0  0  0  0
    7.1194    8.3344   24.6775 C   0  0  0  0  0  0  0  0  0  0  0  0
    8.4311    4.7963   22.0500 C   0  0  0  0  0  0  0  0  0  0  0  0
    8.7393   10.8706   24.1871 O   0  0  0  0  0  0  0  0  0  0  0  0
    9.3093    3.8166   21.6712 C   0  0  0  0  0  0  0  0  0  0  0  0
  1  5  1  0
  1 15  4  0
  1 22  4  0
  2 20  1  0
  2 24  1  0
  3  6  4  0
  3 27  4  0
  4 22  4  0
  4 26  4  0
  6  7  4  0
  6 13  1  0
  7 19  4  0
  8 18  1  0
  8 23  1  0
  8 28  2  0
  9 17  1  0
  9 24  1  0
 10 11  1  0
 10 24  1  0
 11 23  1  0
 12 14  4  0
 12 16  4  0
 14 19  4  0
 15 18  4  0
 16 20  4  0
 17 25  1  0
 18 26  4  0
 19 29  4  0
 20 29  4  0
 21 23  1  0
 21 25  1  0
 27 29  4  0
M  END
$$$$

 Created by Python create_sdf_string function

 29 32  0  0  0  0  0  0  0  0999 V2000
    5.4450    8.7154   22.6662 C   0  0  0  0  0  0  0  0  0  0  0  0
   10.9154    5.4574   20.5483 C   0  0  0  0  0  0  0  0  0  0  0  0
    7.2709    4.5089   22.7542 C   0  0  0  0  0  0  0  0  0  0  0  0
    5.9698    7.6329   24.6581 C   0  0  0  0  0  0  0  0  0  0  0  0
    4.5542    8.9057   21.7104 O   0  0  0  0  0  0  0  0  0  0  0  0
    6.9895    3.2085   23.0690 C   0  0  0  0  0  0  0  0  0  0  0  0
    7.8391    2.2253   22.7260 N   0  0  0  0  0  0  0  0  0  0  0  0
    8.6968    9.8373   23.6359 C   0  0  0  0  0  0  0  0  0  0  0  0
   12.5135    6.5957   21.8396 C   0  0  0  0  0  0  0  0  0  0  0  0
   10.9406    8.2330   21.1350 C   0  0  0  0  0  0  0  0  0  0  0  0
    9.6648    8.5956   21.7310 C   0  0  0  0  0  0  0  0  0  0  0  0
   10.8829    1.7153   20.9865 C   0  0  0  0  0  0  0  0  0  0  0  0
    5.7768    2.8533   23.7910 C   0  0  0  0  0  0  0  0  0  0  0  0
    9.7977    1.4791   21.6912 N   0  0  0  0  0  0  0  0  0  0  0  0
    6.5976    9.3401   22.6478 N   0  0  0  0  0  0  0  0  0  0  0  0
   11.2031    3.0042   20.6246 C   0  0  0  0  0  0  0  0  0  0  0  0
   12.8688    7.7370   22.7287 C   0  0  0  0  0  0  0  0  0  0  0  0
    7.4487    9.1361   23.6506 C   0  0  0  0  0  0  0  0  0  0  0  0
    8.9772    2.5025   22.0273 C   0  0  0  0  0  0  0  0  0  0  0  0
   10.4859    4.0901   20.9730 C   0  0  0  0  0  0  0  0  0  0  0  0
   11.0962    9.3293   23.5072 C   0  0  0  0  0  0  0  0  0  0  0  0
    5.1273    7.8529   23.6208 N   0  0  0  0  0  0  0  0  0  0  0  0
    9.7552    9.2338   23.0171 N   0  0  0  0  0  0  0  0  0  0  0  0
   11.1797    6.7591   21.3326 N   0  0  0  0  0  0  0  0  0  0  0  0
   11.7728    8.0337   23.7267 C   0  0  0  0  0  0  0  0  0  0  0  0
    7.1194    8.3344   24.6775 C   0  0  0  0  0  0  0  0  0  0  0  0
    8.4311    4.7963   22.0500 C   0  0  0  0  0  0  0  0  0  0  0  0
    8.7393   10.8706   24.1871 O   0  0  0  0  0  0  0  0  0  0  0  0
    9.3093    3.8166   21.6712 C   0  0  0  0  0  0  0  0  0  0  0  0
  1  5  1  0
  1 15  4  0
  1 22  4  0
  2 20  1  0
  2 24  1  0
  3  6  4  0
  3 27  4  0
  4 22  4  0
  4 26  4  0
  6  7  4  0
  6 13  1  0
  7 19  4  0
  8 18  1  0
  8 23  1  0
  8 28  2  0
  9 17  1  0
  9 24  1  0
 10 11  1  0
 10 24  1  0
 11 23  1  0
 12 14  4  0
 12 16  4  0
 14 19  4  0
 15 18  4  0
 16 20  4  0
 17 25  1  0
 18 26  4  0
 19 29  4  0
 20 29  4  0
 21 23  1  0
 21 25  1  0
 27 29  4  0
M  END
$$$$

 Created by Python create_sdf_string function

 29 32  0  0  0  0  0  0  0  0999 V2000
    5.4450    8.7154   22.6662 C   0  0  0  0  0  0  0  0  0  0  0  0
   10.9154    5.4574   20.5483 C   0  0  0  0  0  0  0  0  0  0  0  0
    7.2709    4.5089   22.7542 C   0  0  0  0  0  0  0  0  0  0  0  0
    5.9698    7.6329   24.6581 C   0  0  0  0  0  0  0  0  0  0  0  0
    4.5542    8.9057   21.7104 O   0  0  0  0  0  0  0  0  0  0  0  0
    6.9895    3.2085   23.0690 C   0  0  0  0  0  0  0  0  0  0  0  0
    7.8391    2.2253   22.7260 N   0  0  0  0  0  0  0  0  0  0  0  0
    8.6968    9.8373   23.6359 C   0  0  0  0  0  0  0  0  0  0  0  0
   12.5135    6.5957   21.8396 C   0  0  0  0  0  0  0  0  0  0  0  0
   10.9406    8.2330   21.1350 C   0  0  0  0  0  0  0  0  0  0  0  0
    9.6648    8.5956   21.7310 C   0  0  0  0  0  0  0  0  0  0  0  0
   10.8829    1.7153   20.9865 C   0  0  0  0  0  0  0  0  0  0  0  0
    5.7768    2.8533   23.7910 C   0  0  0  0  0  0  0  0  0  0  0  0
    9.7977    1.4791   21.6912 N   0  0  0  0  0  0  0  0  0  0  0  0
    6.5976    9.3401   22.6478 N   0  0  0  0  0  0  0  0  0  0  0  0
   11.2031    3.0042   20.6246 C   0  0  0  0  0  0  0  0  0  0  0  0
   12.8688    7.7370   22.7287 C   0  0  0  0  0  0  0  0  0  0  0  0
    7.4487    9.1361   23.6506 C   0  0  0  0  0  0  0  0  0  0  0  0
    8.9772    2.5025   22.0273 C   0  0  0  0  0  0  0  0  0  0  0  0
   10.4859    4.0901   20.9730 C   0  0  0  0  0  0  0  0  0  0  0  0
   11.0962    9.3293   23.5072 C   0  0  0  0  0  0  0  0  0  0  0  0
    5.1273    7.8529   23.6208 N   0  0  0  0  0  0  0  0  0  0  0  0
    9.7552    9.2338   23.0171 N   0  0  0  0  0  0  0  0  0  0  0  0
   11.1797    6.7591   21.3326 N   0  0  0  0  0  0  0  0  0  0  0  0
   11.7728    8.0337   23.7267 C   0  0  0  0  0  0  0  0  0  0  0  0
    7.1194    8.3344   24.6775 C   0  0  0  0  0  0  0  0  0  0  0  0
    8.4311    4.7963   22.0500 C   0  0  0  0  0  0  0  0  0  0  0  0
    8.7393   10.8706   24.1871 O   0  0  0  0  0  0  0  0  0  0  0  0
    9.3093    3.8166   21.6712 C   0  0  0  0  0  0  0  0  0  0  0  0
  1  5  1  0
  1 15  4  0
  1 22  4  0
  2 20  1  0
  2 24  1  0
  3  6  4  0
  3 27  4  0
  4 22  4  0
  4 26  4  0
  6  7  4  0
  6 13  1  0
  7 19  4  0
  8 18  1  0
  8 23  1  0
  8 28  2  0
  9 17  1  0
  9 24  1  0
 10 11  1  0
 10 24  1  0
 11 23  1  0
 12 14  4  0
 12 16  4  0
 14 19  4  0
 15 18  4  0
 16 20  4  0
 17 25  1  0
 18 26  4  0
 19 29  4  0
 20 29  4  0
 21 23  1  0
 21 25  1  0
 27 29  4  0
M  END
$$$$

 Created by Python create_sdf_string function

 29 32  0  0  0  0  0  0  0  0999 V2000
    5.4450    8.7154   22.6662 C   0  0  0  0  0  0  0  0  0  0  0  0
   10.9154    5.4574   20.5483 C   0  0  0  0  0  0  0  0  0  0  0  0
    7.2709    4.5089   22.7542 C   0  0  0  0  0  0  0  0  0  0  0  0
    5.9698    7.6329   24.6581 C   0  0  0  0  0  0  0  0  0  0  0  0
    4.5542    8.9057   21.7104 O   0  0  0  0  0  0  0  0  0  0  0  0
    6.9895    3.2085   23.0690 C   0  0  0  0  0  0  0  0  0  0  0  0
    7.8391    2.2253   22.7260 N   0  0  0  0  0  0  0  0  0  0  0  0
    8.6968    9.8373   23.6359 C   0  0  0  0  0  0  0  0  0  0  0  0
   12.5135    6.5957   21.8396 C   0  0  0  0  0  0  0  0  0  0  0  0
   10.9406    8.2330   21.1350 C   0  0  0  0  0  0  0  0  0  0  0  0
    9.6648    8.5956   21.7310 C   0  0  0  0  0  0  0  0  0  0  0  0
   10.8829    1.7153   20.9865 C   0  0  0  0  0  0  0  0  0  0  0  0
    5.7768    2.8533   23.7910 C   0  0  0  0  0  0  0  0  0  0  0  0
    9.7977    1.4791   21.6912 N   0  0  0  0  0  0  0  0  0  0  0  0
    6.5976    9.3401   22.6478 N   0  0  0  0  0  0  0  0  0  0  0  0
   11.2031    3.0042   20.6246 C   0  0  0  0  0  0  0  0  0  0  0  0
   12.8688    7.7370   22.7287 C   0  0  0  0  0  0  0  0  0  0  0  0
    7.4487    9.1361   23.6506 C   0  0  0  0  0  0  0  0  0  0  0  0
    8.9772    2.5025   22.0273 C   0  0  0  0  0  0  0  0  0  0  0  0
   10.4859    4.0901   20.9730 C   0  0  0  0  0  0  0  0  0  0  0  0
   11.0962    9.3293   23.5072 C   0  0  0  0  0  0  0  0  0  0  0  0
    5.1273    7.8529   23.6208 N   0  0  0  0  0  0  0  0  0  0  0  0
    9.7552    9.2338   23.0171 N   0  0  0  0  0  0  0  0  0  0  0  0
   11.1797    6.7591   21.3326 N   0  0  0  0  0  0  0  0  0  0  0  0
   11.7728    8.0337   23.7267 C   0  0  0  0  0  0  0  0  0  0  0  0
    7.1194    8.3344   24.6775 C   0  0  0  0  0  0  0  0  0  0  0  0
    8.4311    4.7963   22.0500 C   0  0  0  0  0  0  0  0  0  0  0  0
    8.7393   10.8706   24.1871 O   0  0  0  0  0  0  0  0  0  0  0  0
    9.3093    3.8166   21.6712 C   0  0  0  0  0  0  0  0  0  0  0  0
  1  5  1  0
  1 15  4  0
  1 22  4  0
  2 20  1  0
  2 24  1  0
  3  6  4  0
  3 27  4  0
  4 22  4  0
  4 26  4  0
  6  7  4  0
  6 13  1  0
  7 19  4  0
  8 18  1  0
  8 23  1  0
  8 28  2  0
  9 17  1  0
  9 24  1  0
 10 11  1  0
 10 24  1  0
 11 23  1  0
 12 14  4  0
 12 16  4  0
 14 19  4  0
 15 18  4  0
 16 20  4  0
 17 25  1  0
 18 26  4  0
 19 29  4  0
 20 29  4  0
 21 23  1  0
 21 25  1  0
 27 29  4  0
M  END
$$$$

 Created by Python create_sdf_string function

 29 32  0  0  0  0  0  0  0  0999 V2000
    5.4450    8.7154   22.6662 C   0  0  0  0  0  0  0  0  0  0  0  0
   10.9154    5.4574   20.5483 C   0  0  0  0  0  0  0  0  0  0  0  0
    7.2709    4.5089   22.7542 C   0  0  0  0  0  0  0  0  0  0  0  0
    5.9698    7.6329   24.6581 C   0  0  0  0  0  0  0  0  0  0  0  0
    4.5542    8.9057   21.7104 O   0  0  0  0  0  0  0  0  0  0  0  0
    6.9895    3.2085   23.0690 C   0  0  0  0  0  0  0  0  0  0  0  0
    7.8391    2.2253   22.7260 N   0  0  0  0  0  0  0  0  0  0  0  0
    8.6968    9.8373   23.6359 C   0  0  0  0  0  0  0  0  0  0  0  0
   12.5135    6.5957   21.8396 C   0  0  0  0  0  0  0  0  0  0  0  0
   10.9406    8.2330   21.1350 C   0  0  0  0  0  0  0  0  0  0  0  0
    9.6648    8.5956   21.7310 C   0  0  0  0  0  0  0  0  0  0  0  0
   10.8829    1.7153   20.9865 C   0  0  0  0  0  0  0  0  0  0  0  0
    5.7768    2.8533   23.7910 C   0  0  0  0  0  0  0  0  0  0  0  0
    9.7977    1.4791   21.6912 N   0  0  0  0  0  0  0  0  0  0  0  0
    6.5976    9.3401   22.6478 N   0  0  0  0  0  0  0  0  0  0  0  0
   11.2031    3.0042   20.6246 C   0  0  0  0  0  0  0  0  0  0  0  0
   12.8688    7.7370   22.7287 C   0  0  0  0  0  0  0  0  0  0  0  0
    7.4487    9.1361   23.6506 C   0  0  0  0  0  0  0  0  0  0  0  0
    8.9772    2.5025   22.0273 C   0  0  0  0  0  0  0  0  0  0  0  0
   10.4859    4.0901   20.9730 C   0  0  0  0  0  0  0  0  0  0  0  0
   11.0962    9.3293   23.5072 C   0  0  0  0  0  0  0  0  0  0  0  0
    5.1273    7.8529   23.6208 N   0  0  0  0  0  0  0  0  0  0  0  0
    9.7552    9.2338   23.0171 N   0  0  0  0  0  0  0  0  0  0  0  0
   11.1797    6.7591   21.3326 N   0  0  0  0  0  0  0  0  0  0  0  0
   11.7728    8.0337   23.7267 C   0  0  0  0  0  0  0  0  0  0  0  0
    7.1194    8.3344   24.6775 C   0  0  0  0  0  0  0  0  0  0  0  0
    8.4311    4.7963   22.0500 C   0  0  0  0  0  0  0  0  0  0  0  0
    8.7393   10.8706   24.1871 O   0  0  0  0  0  0  0  0  0  0  0  0
    9.3093    3.8166   21.6712 C   0  0  0  0  0  0  0  0  0  0  0  0
  1  5  1  0
  1 15  4  0
  1 22  4  0
  2 20  1  0
  2 24  1  0
  3  6  4  0
  3 27  4  0
  4 22  4  0
  4 26  4  0
  6  7  4  0
  6 13  1  0
  7 19  4  0
  8 18  1  0
  8 23  1  0
  8 28  2  0
  9 17  1  0
  9 24  1  0
 10 11  1  0
 10 24  1  0
 11 23  1  0
 12 14  4  0
 12 16  4  0
 14 19  4  0
 15 18  4  0
 16 20  4  0
 17 25  1  0
 18 26  4  0
 19 29  4  0
 20 29  4  0
 21 23  1  0
 21 25  1  0
 27 29  4  0
M  END
$$$$

 Created by Python create_sdf_string function

 29 32  0  0  0  0  0  0  0  0999 V2000
    5.4450    8.7154   22.6662 C   0  0  0  0  0  0  0  0  0  0  0  0
   10.9154    5.4574   20.5483 C   0  0  0  0  0  0  0  0  0  0  0  0
    7.2709    4.5089   22.7542 C   0  0  0  0  0  0  0  0  0  0  0  0
    5.9698    7.6329   24.6581 C   0  0  0  0  0  0  0  0  0  0  0  0
    4.5542    8.9057   21.7104 O   0  0  0  0  0  0  0  0  0  0  0  0
    6.9895    3.2085   23.0690 C   0  0  0  0  0  0  0  0  0  0  0  0
    7.8391    2.2253   22.7260 N   0  0  0  0  0  0  0  0  0  0  0  0
    8.6968    9.8373   23.6359 C   0  0  0  0  0  0  0  0  0  0  0  0
   12.5135    6.5957   21.8396 C   0  0  0  0  0  0  0  0  0  0  0  0
   10.9406    8.2330   21.1350 C   0  0  0  0  0  0  0  0  0  0  0  0
    9.6648    8.5956   21.7310 C   0  0  0  0  0  0  0  0  0  0  0  0
   10.8829    1.7153   20.9865 C   0  0  0  0  0  0  0  0  0  0  0  0
    5.7768    2.8533   23.7910 C   0  0  0  0  0  0  0  0  0  0  0  0
    9.7977    1.4791   21.6912 N   0  0  0  0  0  0  0  0  0  0  0  0
    6.5976    9.3401   22.6478 N   0  0  0  0  0  0  0  0  0  0  0  0
   11.2031    3.0042   20.6246 C   0  0  0  0  0  0  0  0  0  0  0  0
   12.8688    7.7370   22.7287 C   0  0  0  0  0  0  0  0  0  0  0  0
    7.4487    9.1361   23.6506 C   0  0  0  0  0  0  0  0  0  0  0  0
    8.9772    2.5025   22.0273 C   0  0  0  0  0  0  0  0  0  0  0  0
   10.4859    4.0901   20.9730 C   0  0  0  0  0  0  0  0  0  0  0  0
   11.0962    9.3293   23.5072 C   0  0  0  0  0  0  0  0  0  0  0  0
    5.1273    7.8529   23.6208 N   0  0  0  0  0  0  0  0  0  0  0  0
    9.7552    9.2338   23.0171 N   0  0  0  0  0  0  0  0  0  0  0  0
   11.1797    6.7591   21.3326 N   0  0  0  0  0  0  0  0  0  0  0  0
   11.7728    8.0337   23.7267 C   0  0  0  0  0  0  0  0  0  0  0  0
    7.1194    8.3344   24.6775 C   0  0  0  0  0  0  0  0  0  0  0  0
    8.4311    4.7963   22.0500 C   0  0  0  0  0  0  0  0  0  0  0  0
    8.7393   10.8706   24.1871 O   0  0  0  0  0  0  0  0  0  0  0  0
    9.3093    3.8166   21.6712 C   0  0  0  0  0  0  0  0  0  0  0  0
  1  5  1  0
  1 15  4  0
  1 22  4  0
  2 20  1  0
  2 24  1  0
  3  6  4  0
  3 27  4  0
  4 22  4  0
  4 26  4  0
  6  7  4  0
  6 13  1  0
  7 19  4  0
  8 18  1  0
  8 23  1  0
  8 28  2  0
  9 17  1  0
  9 24  1  0
 10 11  1  0
 10 24  1  0
 11 23  1  0
 12 14  4  0
 12 16  4  0
 14 19  4  0
 15 18  4  0
 16 20  4  0
 17 25  1  0
 18 26  4  0
 19 29  4  0
 20 29  4  0
 21 23  1  0
 21 25  1  0
 27 29  4  0
M  END
$$$$

 Created by Python create_sdf_string function

 29 32  0  0  0  0  0  0  0  0999 V2000
    5.4450    8.7154   22.6662 C   0  0  0  0  0  0  0  0  0  0  0  0
   10.9154    5.4574   20.5483 C   0  0  0  0  0  0  0  0  0  0  0  0
    7.2709    4.5089   22.7542 C   0  0  0  0  0  0  0  0  0  0  0  0
    5.9698    7.6329   24.6581 C   0  0  0  0  0  0  0  0  0  0  0  0
    4.5542    8.9057   21.7104 O   0  0  0  0  0  0  0  0  0  0  0  0
    6.9895    3.2085   23.0690 C   0  0  0  0  0  0  0  0  0  0  0  0
    7.8391    2.2253   22.7260 N   0  0  0  0  0  0  0  0  0  0  0  0
    8.6968    9.8373   23.6359 C   0  0  0  0  0  0  0  0  0  0  0  0
   12.5135    6.5957   21.8396 C   0  0  0  0  0  0  0  0  0  0  0  0
   10.9406    8.2330   21.1350 C   0  0  0  0  0  0  0  0  0  0  0  0
    9.6648    8.5956   21.7310 C   0  0  0  0  0  0  0  0  0  0  0  0
   10.8829    1.7153   20.9865 C   0  0  0  0  0  0  0  0  0  0  0  0
    5.7768    2.8533   23.7910 C   0  0  0  0  0  0  0  0  0  0  0  0
    9.7977    1.4791   21.6912 N   0  0  0  0  0  0  0  0  0  0  0  0
    6.5976    9.3401   22.6478 N   0  0  0  0  0  0  0  0  0  0  0  0
   11.2031    3.0042   20.6246 C   0  0  0  0  0  0  0  0  0  0  0  0
   12.8688    7.7370   22.7287 C   0  0  0  0  0  0  0  0  0  0  0  0
    7.4487    9.1361   23.6506 C   0  0  0  0  0  0  0  0  0  0  0  0
    8.9772    2.5025   22.0273 C   0  0  0  0  0  0  0  0  0  0  0  0
   10.4859    4.0901   20.9730 C   0  0  0  0  0  0  0  0  0  0  0  0
   11.0962    9.3293   23.5072 C   0  0  0  0  0  0  0  0  0  0  0  0
    5.1273    7.8529   23.6208 N   0  0  0  0  0  0  0  0  0  0  0  0
    9.7552    9.2338   23.0171 N   0  0  0  0  0  0  0  0  0  0  0  0
   11.1797    6.7591   21.3326 N   0  0  0  0  0  0  0  0  0  0  0  0
   11.7728    8.0337   23.7267 C   0  0  0  0  0  0  0  0  0  0  0  0
    7.1194    8.3344   24.6775 C   0  0  0  0  0  0  0  0  0  0  0  0
    8.4311    4.7963   22.0500 C   0  0  0  0  0  0  0  0  0  0  0  0
    8.7393   10.8706   24.1871 O   0  0  0  0  0  0  0  0  0  0  0  0
    9.3093    3.8166   21.6712 C   0  0  0  0  0  0  0  0  0  0  0  0
  1  5  1  0
  1 15  4  0
  1 22  4  0
  2 20  1  0
  2 24  1  0
  3  6  4  0
  3 27  4  0
  4 22  4  0
  4 26  4  0
  6  7  4  0
  6 13  1  0
  7 19  4  0
  8 18  1  0
  8 23  1  0
  8 28  2  0
  9 17  1  0
  9 24  1  0
 10 11  1  0
 10 24  1  0
 11 23  1  0
 12 14  4  0
 12 16  4  0
 14 19  4  0
 15 18  4  0
 16 20  4  0
 17 25  1  0
 18 26  4  0
 19 29  4  0
 20 29  4  0
 21 23  1  0
 21 25  1  0
 27 29  4  0
M  END
$$$$

 Created by Python create_sdf_string function

 29 32  0  0  0  0  0  0  0  0999 V2000
    5.4450    8.7154   22.6662 C   0  0  0  0  0  0  0  0  0  0  0  0
   10.9154    5.4574   20.5483 C   0  0  0  0  0  0  0  0  0  0  0  0
    7.2709    4.5089   22.7542 C   0  0  0  0  0  0  0  0  0  0  0  0
    5.9698    7.6329   24.6581 C   0  0  0  0  0  0  0  0  0  0  0  0
    4.5542    8.9057   21.7104 O   0  0  0  0  0  0  0  0  0  0  0  0
    6.9895    3.2085   23.0690 C   0  0  0  0  0  0  0  0  0  0  0  0
    7.8391    2.2253   22.7260 N   0  0  0  0  0  0  0  0  0  0  0  0
    8.6968    9.8373   23.6359 C   0  0  0  0  0  0  0  0  0  0  0  0
   12.5135    6.5957   21.8396 C   0  0  0  0  0  0  0  0  0  0  0  0
   10.9406    8.2330   21.1350 C   0  0  0  0  0  0  0  0  0  0  0  0
    9.6648    8.5956   21.7310 C   0  0  0  0  0  0  0  0  0  0  0  0
   10.8829    1.7153   20.9865 C   0  0  0  0  0  0  0  0  0  0  0  0
    5.7768    2.8533   23.7910 C   0  0  0  0  0  0  0  0  0  0  0  0
    9.7977    1.4791   21.6912 N   0  0  0  0  0  0  0  0  0  0  0  0
    6.5976    9.3401   22.6478 N   0  0  0  0  0  0  0  0  0  0  0  0
   11.2031    3.0042   20.6246 C   0  0  0  0  0  0  0  0  0  0  0  0
   12.8688    7.7370   22.7287 C   0  0  0  0  0  0  0  0  0  0  0  0
    7.4487    9.1361   23.6506 C   0  0  0  0  0  0  0  0  0  0  0  0
    8.9772    2.5025   22.0273 C   0  0  0  0  0  0  0  0  0  0  0  0
   10.4859    4.0901   20.9730 C   0  0  0  0  0  0  0  0  0  0  0  0
   11.0962    9.3293   23.5072 C   0  0  0  0  0  0  0  0  0  0  0  0
    5.1273    7.8529   23.6208 N   0  0  0  0  0  0  0  0  0  0  0  0
    9.7552    9.2338   23.0171 N   0  0  0  0  0  0  0  0  0  0  0  0
   11.1797    6.7591   21.3326 N   0  0  0  0  0  0  0  0  0  0  0  0
   11.7728    8.0337   23.7267 C   0  0  0  0  0  0  0  0  0  0  0  0
    7.1194    8.3344   24.6775 C   0  0  0  0  0  0  0  0  0  0  0  0
    8.4311    4.7963   22.0500 C   0  0  0  0  0  0  0  0  0  0  0  0
    8.7393   10.8706   24.1871 O   0  0  0  0  0  0  0  0  0  0  0  0
    9.3093    3.8166   21.6712 C   0  0  0  0  0  0  0  0  0  0  0  0
  1  5  1  0
  1 15  4  0
  1 22  4  0
  2 20  1  0
  2 24  1  0
  3  6  4  0
  3 27  4  0
  4 22  4  0
  4 26  4  0
  6  7  4  0
  6 13  1  0
  7 19  4  0
  8 18  1  0
  8 23  1  0
  8 28  2  0
  9 17  1  0
  9 24  1  0
 10 11  1  0
 10 24  1  0
 11 23  1  0
 12 14  4  0
 12 16  4  0
 14 19  4  0
 15 18  4  0
 16 20  4  0
 17 25  1  0
 18 26  4  0
 19 29  4  0
 20 29  4  0
 21 23  1  0
 21 25  1  0
 27 29  4  0
M  END
$$$$

 Created by Python create_sdf_string function

 29 32  0  0  0  0  0  0  0  0999 V2000
    5.4450    8.7154   22.6662 C   0  0  0  0  0  0  0  0  0  0  0  0
   10.9154    5.4574   20.5483 C   0  0  0  0  0  0  0  0  0  0  0  0
    7.2709    4.5089   22.7542 C   0  0  0  0  0  0  0  0  0  0  0  0
    5.9698    7.6329   24.6581 C   0  0  0  0  0  0  0  0  0  0  0  0
    4.5542    8.9057   21.7104 O   0  0  0  0  0  0  0  0  0  0  0  0
    6.9895    3.2085   23.0690 C   0  0  0  0  0  0  0  0  0  0  0  0
    7.8391    2.2253   22.7260 N   0  0  0  0  0  0  0  0  0  0  0  0
    8.6968    9.8373   23.6359 C   0  0  0  0  0  0  0  0  0  0  0  0
   12.5135    6.5957   21.8396 C   0  0  0  0  0  0  0  0  0  0  0  0
   10.9406    8.2330   21.1350 C   0  0  0  0  0  0  0  0  0  0  0  0
    9.6648    8.5956   21.7310 C   0  0  0  0  0  0  0  0  0  0  0  0
   10.8829    1.7153   20.9865 C   0  0  0  0  0  0  0  0  0  0  0  0
    5.7768    2.8533   23.7910 C   0  0  0  0  0  0  0  0  0  0  0  0
    9.7977    1.4791   21.6912 N   0  0  0  0  0  0  0  0  0  0  0  0
    6.5976    9.3401   22.6478 N   0  0  0  0  0  0  0  0  0  0  0  0
   11.2031    3.0042   20.6246 C   0  0  0  0  0  0  0  0  0  0  0  0
   12.8688    7.7370   22.7287 C   0  0  0  0  0  0  0  0  0  0  0  0
    7.4487    9.1361   23.6506 C   0  0  0  0  0  0  0  0  0  0  0  0
    8.9772    2.5025   22.0273 C   0  0  0  0  0  0  0  0  0  0  0  0
   10.4859    4.0901   20.9730 C   0  0  0  0  0  0  0  0  0  0  0  0
   11.0962    9.3293   23.5072 C   0  0  0  0  0  0  0  0  0  0  0  0
    5.1273    7.8529   23.6208 N   0  0  0  0  0  0  0  0  0  0  0  0
    9.7552    9.2338   23.0171 N   0  0  0  0  0  0  0  0  0  0  0  0
   11.1797    6.7591   21.3326 N   0  0  0  0  0  0  0  0  0  0  0  0
   11.7728    8.0337   23.7267 C   0  0  0  0  0  0  0  0  0  0  0  0
    7.1194    8.3344   24.6775 C   0  0  0  0  0  0  0  0  0  0  0  0
    8.4311    4.7963   22.0500 C   0  0  0  0  0  0  0  0  0  0  0  0
    8.7393   10.8706   24.1871 O   0  0  0  0  0  0  0  0  0  0  0  0
    9.3093    3.8166   21.6712 C   0  0  0  0  0  0  0  0  0  0  0  0
  1  5  1  0
  1 15  4  0
  1 22  4  0
  2 20  1  0
  2 24  1  0
  3  6  4  0
  3 27  4  0
  4 22  4  0
  4 26  4  0
  6  7  4  0
  6 13  1  0
  7 19  4  0
  8 18  1  0
  8 23  1  0
  8 28  2  0
  9 17  1  0
  9 24  1  0
 10 11  1  0
 10 24  1  0
 11 23  1  0
 12 14  4  0
 12 16  4  0
 14 19  4  0
 15 18  4  0
 16 20  4  0
 17 25  1  0
 18 26  4  0
 19 29  4  0
 20 29  4  0
 21 23  1  0
 21 25  1  0
 27 29  4  0
M  END
$$$$

 Created by Python create_sdf_string function

 29 32  0  0  0  0  0  0  0  0999 V2000
    5.4450    8.7154   22.6662 C   0  0  0  0  0  0  0  0  0  0  0  0
   10.9154    5.4574   20.5483 C   0  0  0  0  0  0  0  0  0  0  0  0
    7.2709    4.5089   22.7542 C   0  0  0  0  0  0  0  0  0  0  0  0
    5.9698    7.6329   24.6581 C   0  0  0  0  0  0  0  0  0  0  0  0
    4.5542    8.9057   21.7104 O   0  0  0  0  0  0  0  0  0  0  0  0
    6.9895    3.2085   23.0690 C   0  0  0  0  0  0  0  0  0  0  0  0
    7.8391    2.2253   22.7260 N   0  0  0  0  0  0  0  0  0  0  0  0
    8.6968    9.8373   23.6359 C   0  0  0  0  0  0  0  0  0  0  0  0
   12.5135    6.5957   21.8396 C   0  0  0  0  0  0  0  0  0  0  0  0
   10.9406    8.2330   21.1350 C   0  0  0  0  0  0  0  0  0  0  0  0
    9.6648    8.5956   21.7310 C   0  0  0  0  0  0  0  0  0  0  0  0
   10.8829    1.7153   20.9865 C   0  0  0  0  0  0  0  0  0  0  0  0
    5.7768    2.8533   23.7910 C   0  0  0  0  0  0  0  0  0  0  0  0
    9.7977    1.4791   21.6912 N   0  0  0  0  0  0  0  0  0  0  0  0
    6.5976    9.3401   22.6478 N   0  0  0  0  0  0  0  0  0  0  0  0
   11.2031    3.0042   20.6246 C   0  0  0  0  0  0  0  0  0  0  0  0
   12.8688    7.7370   22.7287 C   0  0  0  0  0  0  0  0  0  0  0  0
    7.4487    9.1361   23.6506 C   0  0  0  0  0  0  0  0  0  0  0  0
    8.9772    2.5025   22.0273 C   0  0  0  0  0  0  0  0  0  0  0  0
   10.4859    4.0901   20.9730 C   0  0  0  0  0  0  0  0  0  0  0  0
   11.0962    9.3293   23.5072 C   0  0  0  0  0  0  0  0  0  0  0  0
    5.1273    7.8529   23.6208 N   0  0  0  0  0  0  0  0  0  0  0  0
    9.7552    9.2338   23.0171 N   0  0  0  0  0  0  0  0  0  0  0  0
   11.1797    6.7591   21.3326 N   0  0  0  0  0  0  0  0  0  0  0  0
   11.7728    8.0337   23.7267 C   0  0  0  0  0  0  0  0  0  0  0  0
    7.1194    8.3344   24.6775 C   0  0  0  0  0  0  0  0  0  0  0  0
    8.4311    4.7963   22.0500 C   0  0  0  0  0  0  0  0  0  0  0  0
    8.7393   10.8706   24.1871 O   0  0  0  0  0  0  0  0  0  0  0  0
    9.3093    3.8166   21.6712 C   0  0  0  0  0  0  0  0  0  0  0  0
  1  5  1  0
  1 15  4  0
  1 22  4  0
  2 20  1  0
  2 24  1  0
  3  6  4  0
  3 27  4  0
  4 22  4  0
  4 26  4  0
  6  7  4  0
  6 13  1  0
  7 19  4  0
  8 18  1  0
  8 23  1  0
  8 28  2  0
  9 17  1  0
  9 24  1  0
 10 11  1  0
 10 24  1  0
 11 23  1  0
 12 14  4  0
 12 16  4  0
 14 19  4  0
 15 18  4  0
 16 20  4  0
 17 25  1  0
 18 26  4  0
 19 29  4  0
 20 29  4  0
 21 23  1  0
 21 25  1  0
 27 29  4  0
M  END
$$$$

 Created by Python create_sdf_string function

 29 32  0  0  0  0  0  0  0  0999 V2000
    5.4450    8.7154   22.6662 C   0  0  0  0  0  0  0  0  0  0  0  0
   10.9154    5.4574   20.5483 C   0  0  0  0  0  0  0  0  0  0  0  0
    7.2709    4.5089   22.7542 C   0  0  0  0  0  0  0  0  0  0  0  0
    5.9698    7.6329   24.6581 C   0  0  0  0  0  0  0  0  0  0  0  0
    4.5542    8.9057   21.7104 O   0  0  0  0  0  0  0  0  0  0  0  0
    6.9895    3.2085   23.0690 C   0  0  0  0  0  0  0  0  0  0  0  0
    7.8391    2.2253   22.7260 N   0  0  0  0  0  0  0  0  0  0  0  0
    8.6968    9.8373   23.6359 C   0  0  0  0  0  0  0  0  0  0  0  0
   12.5135    6.5957   21.8396 C   0  0  0  0  0  0  0  0  0  0  0  0
   10.9406    8.2330   21.1350 C   0  0  0  0  0  0  0  0  0  0  0  0
    9.6648    8.5956   21.7310 C   0  0  0  0  0  0  0  0  0  0  0  0
   10.8829    1.7153   20.9865 C   0  0  0  0  0  0  0  0  0  0  0  0
    5.7768    2.8533   23.7910 C   0  0  0  0  0  0  0  0  0  0  0  0
    9.7977    1.4791   21.6912 N   0  0  0  0  0  0  0  0  0  0  0  0
    6.5976    9.3401   22.6478 N   0  0  0  0  0  0  0  0  0  0  0  0
   11.2031    3.0042   20.6246 C   0  0  0  0  0  0  0  0  0  0  0  0
   12.8688    7.7370   22.7287 C   0  0  0  0  0  0  0  0  0  0  0  0
    7.4487    9.1361   23.6506 C   0  0  0  0  0  0  0  0  0  0  0  0
    8.9772    2.5025   22.0273 C   0  0  0  0  0  0  0  0  0  0  0  0
   10.4859    4.0901   20.9730 C   0  0  0  0  0  0  0  0  0  0  0  0
   11.0962    9.3293   23.5072 C   0  0  0  0  0  0  0  0  0  0  0  0
    5.1273    7.8529   23.6208 N   0  0  0  0  0  0  0  0  0  0  0  0
    9.7552    9.2338   23.0171 N   0  0  0  0  0  0  0  0  0  0  0  0
   11.1797    6.7591   21.3326 N   0  0  0  0  0  0  0  0  0  0  0  0
   11.7728    8.0337   23.7267 C   0  0  0  0  0  0  0  0  0  0  0  0
    7.1194    8.3344   24.6775 C   0  0  0  0  0  0  0  0  0  0  0  0
    8.4311    4.7963   22.0500 C   0  0  0  0  0  0  0  0  0  0  0  0
    8.7393   10.8706   24.1871 O   0  0  0  0  0  0  0  0  0  0  0  0
    9.3093    3.8166   21.6712 C   0  0  0  0  0  0  0  0  0  0  0  0
  1  5  1  0
  1 15  4  0
  1 22  4  0
  2 20  1  0
  2 24  1  0
  3  6  4  0
  3 27  4  0
  4 22  4  0
  4 26  4  0
  6  7  4  0
  6 13  1  0
  7 19  4  0
  8 18  1  0
  8 23  1  0
  8 28  2  0
  9 17  1  0
  9 24  1  0
 10 11  1  0
 10 24  1  0
 11 23  1  0
 12 14  4  0
 12 16  4  0
 14 19  4  0
 15 18  4  0
 16 20  4  0
 17 25  1  0
 18 26  4  0
 19 29  4  0
 20 29  4  0
 21 23  1  0
 21 25  1  0
 27 29  4  0
M  END
$$$$

 Created by Python create_sdf_string function

 29 32  0  0  0  0  0  0  0  0999 V2000
    5.4450    8.7154   22.6662 C   0  0  0  0  0  0  0  0  0  0  0  0
   10.9154    5.4574   20.5483 C   0  0  0  0  0  0  0  0  0  0  0  0
    7.2709    4.5089   22.7542 C   0  0  0  0  0  0  0  0  0  0  0  0
    5.9698    7.6329   24.6581 C   0  0  0  0  0  0  0  0  0  0  0  0
    4.5542    8.9057   21.7104 O   0  0  0  0  0  0  0  0  0  0  0  0
    6.9895    3.2085   23.0690 C   0  0  0  0  0  0  0  0  0  0  0  0
    7.8391    2.2253   22.7260 N   0  0  0  0  0  0  0  0  0  0  0  0
    8.6968    9.8373   23.6359 C   0  0  0  0  0  0  0  0  0  0  0  0
   12.5135    6.5957   21.8396 C   0  0  0  0  0  0  0  0  0  0  0  0
   10.9406    8.2330   21.1350 C   0  0  0  0  0  0  0  0  0  0  0  0
    9.6648    8.5956   21.7310 C   0  0  0  0  0  0  0  0  0  0  0  0
   10.8829    1.7153   20.9865 C   0  0  0  0  0  0  0  0  0  0  0  0
    5.7768    2.8533   23.7910 C   0  0  0  0  0  0  0  0  0  0  0  0
    9.7977    1.4791   21.6912 N   0  0  0  0  0  0  0  0  0  0  0  0
    6.5976    9.3401   22.6478 N   0  0  0  0  0  0  0  0  0  0  0  0
   11.2031    3.0042   20.6246 C   0  0  0  0  0  0  0  0  0  0  0  0
   12.8688    7.7370   22.7287 C   0  0  0  0  0  0  0  0  0  0  0  0
    7.4487    9.1361   23.6506 C   0  0  0  0  0  0  0  0  0  0  0  0
    8.9772    2.5025   22.0273 C   0  0  0  0  0  0  0  0  0  0  0  0
   10.4859    4.0901   20.9730 C   0  0  0  0  0  0  0  0  0  0  0  0
   11.0962    9.3293   23.5072 C   0  0  0  0  0  0  0  0  0  0  0  0
    5.1273    7.8529   23.6208 N   0  0  0  0  0  0  0  0  0  0  0  0
    9.7552    9.2338   23.0171 N   0  0  0  0  0  0  0  0  0  0  0  0
   11.1797    6.7591   21.3326 N   0  0  0  0  0  0  0  0  0  0  0  0
   11.7728    8.0337   23.7267 C   0  0  0  0  0  0  0  0  0  0  0  0
    7.1194    8.3344   24.6775 C   0  0  0  0  0  0  0  0  0  0  0  0
    8.4311    4.7963   22.0500 C   0  0  0  0  0  0  0  0  0  0  0  0
    8.7393   10.8706   24.1871 O   0  0  0  0  0  0  0  0  0  0  0  0
    9.3093    3.8166   21.6712 C   0  0  0  0  0  0  0  0  0  0  0  0
  1  5  1  0
  1 15  4  0
  1 22  4  0
  2 20  1  0
  2 24  1  0
  3  6  4  0
  3 27  4  0
  4 22  4  0
  4 26  4  0
  6  7  4  0
  6 13  1  0
  7 19  4  0
  8 18  1  0
  8 23  1  0
  8 28  2  0
  9 17  1  0
  9 24  1  0
 10 11  1  0
 10 24  1  0
 11 23  1  0
 12 14  4  0
 12 16  4  0
 14 19  4  0
 15 18  4  0
 16 20  4  0
 17 25  1  0
 18 26  4  0
 19 29  4  0
 20 29  4  0
 21 23  1  0
 21 25  1  0
 27 29  4  0
M  END
$$$$

 Created by Python create_sdf_string function

 29 32  0  0  0  0  0  0  0  0999 V2000
    5.4450    8.7154   22.6662 C   0  0  0  0  0  0  0  0  0  0  0  0
   10.9154    5.4574   20.5483 C   0  0  0  0  0  0  0  0  0  0  0  0
    7.2709    4.5089   22.7542 C   0  0  0  0  0  0  0  0  0  0  0  0
    5.9698    7.6329   24.6581 C   0  0  0  0  0  0  0  0  0  0  0  0
    4.5542    8.9057   21.7104 O   0  0  0  0  0  0  0  0  0  0  0  0
    6.9895    3.2085   23.0690 C   0  0  0  0  0  0  0  0  0  0  0  0
    7.8391    2.2253   22.7260 N   0  0  0  0  0  0  0  0  0  0  0  0
    8.6968    9.8373   23.6359 C   0  0  0  0  0  0  0  0  0  0  0  0
   12.5135    6.5957   21.8396 C   0  0  0  0  0  0  0  0  0  0  0  0
   10.9406    8.2330   21.1350 C   0  0  0  0  0  0  0  0  0  0  0  0
    9.6648    8.5956   21.7310 C   0  0  0  0  0  0  0  0  0  0  0  0
   10.8829    1.7153   20.9865 C   0  0  0  0  0  0  0  0  0  0  0  0
    5.7768    2.8533   23.7910 C   0  0  0  0  0  0  0  0  0  0  0  0
    9.7977    1.4791   21.6912 N   0  0  0  0  0  0  0  0  0  0  0  0
    6.5976    9.3401   22.6478 N   0  0  0  0  0  0  0  0  0  0  0  0
   11.2031    3.0042   20.6246 C   0  0  0  0  0  0  0  0  0  0  0  0
   12.8688    7.7370   22.7287 C   0  0  0  0  0  0  0  0  0  0  0  0
    7.4487    9.1361   23.6506 C   0  0  0  0  0  0  0  0  0  0  0  0
    8.9772    2.5025   22.0273 C   0  0  0  0  0  0  0  0  0  0  0  0
   10.4859    4.0901   20.9730 C   0  0  0  0  0  0  0  0  0  0  0  0
   11.0962    9.3293   23.5072 C   0  0  0  0  0  0  0  0  0  0  0  0
    5.1273    7.8529   23.6208 N   0  0  0  0  0  0  0  0  0  0  0  0
    9.7552    9.2338   23.0171 N   0  0  0  0  0  0  0  0  0  0  0  0
   11.1797    6.7591   21.3326 N   0  0  0  0  0  0  0  0  0  0  0  0
   11.7728    8.0337   23.7267 C   0  0  0  0  0  0  0  0  0  0  0  0
    7.1194    8.3344   24.6775 C   0  0  0  0  0  0  0  0  0  0  0  0
    8.4311    4.7963   22.0500 C   0  0  0  0  0  0  0  0  0  0  0  0
    8.7393   10.8706   24.1871 O   0  0  0  0  0  0  0  0  0  0  0  0
    9.3093    3.8166   21.6712 C   0  0  0  0  0  0  0  0  0  0  0  0
  1  5  1  0
  1 15  4  0
  1 22  4  0
  2 20  1  0
  2 24  1  0
  3  6  4  0
  3 27  4  0
  4 22  4  0
  4 26  4  0
  6  7  4  0
  6 13  1  0
  7 19  4  0
  8 18  1  0
  8 23  1  0
  8 28  2  0
  9 17  1  0
  9 24  1  0
 10 11  1  0
 10 24  1  0
 11 23  1  0
 12 14  4  0
 12 16  4  0
 14 19  4  0
 15 18  4  0
 16 20  4  0
 17 25  1  0
 18 26  4  0
 19 29  4  0
 20 29  4  0
 21 23  1  0
 21 25  1  0
 27 29  4  0
M  END
$$$$

 Created by Python create_sdf_string function

 29 32  0  0  0  0  0  0  0  0999 V2000
    5.4450    8.7154   22.6662 C   0  0  0  0  0  0  0  0  0  0  0  0
   10.9154    5.4574   20.5483 C   0  0  0  0  0  0  0  0  0  0  0  0
    7.2709    4.5089   22.7542 C   0  0  0  0  0  0  0  0  0  0  0  0
    5.9698    7.6329   24.6581 C   0  0  0  0  0  0  0  0  0  0  0  0
    4.5542    8.9057   21.7104 O   0  0  0  0  0  0  0  0  0  0  0  0
    6.9895    3.2085   23.0690 C   0  0  0  0  0  0  0  0  0  0  0  0
    7.8391    2.2253   22.7260 N   0  0  0  0  0  0  0  0  0  0  0  0
    8.6968    9.8373   23.6359 C   0  0  0  0  0  0  0  0  0  0  0  0
   12.5135    6.5957   21.8396 C   0  0  0  0  0  0  0  0  0  0  0  0
   10.9406    8.2330   21.1350 C   0  0  0  0  0  0  0  0  0  0  0  0
    9.6648    8.5956   21.7310 C   0  0  0  0  0  0  0  0  0  0  0  0
   10.8829    1.7153   20.9865 C   0  0  0  0  0  0  0  0  0  0  0  0
    5.7768    2.8533   23.7910 C   0  0  0  0  0  0  0  0  0  0  0  0
    9.7977    1.4791   21.6912 N   0  0  0  0  0  0  0  0  0  0  0  0
    6.5976    9.3401   22.6478 N   0  0  0  0  0  0  0  0  0  0  0  0
   11.2031    3.0042   20.6246 C   0  0  0  0  0  0  0  0  0  0  0  0
   12.8688    7.7370   22.7287 C   0  0  0  0  0  0  0  0  0  0  0  0
    7.4487    9.1361   23.6506 C   0  0  0  0  0  0  0  0  0  0  0  0
    8.9772    2.5025   22.0273 C   0  0  0  0  0  0  0  0  0  0  0  0
   10.4859    4.0901   20.9730 C   0  0  0  0  0  0  0  0  0  0  0  0
   11.0962    9.3293   23.5072 C   0  0  0  0  0  0  0  0  0  0  0  0
    5.1273    7.8529   23.6208 N   0  0  0  0  0  0  0  0  0  0  0  0
    9.7552    9.2338   23.0171 N   0  0  0  0  0  0  0  0  0  0  0  0
   11.1797    6.7591   21.3326 N   0  0  0  0  0  0  0  0  0  0  0  0
   11.7728    8.0337   23.7267 C   0  0  0  0  0  0  0  0  0  0  0  0
    7.1194    8.3344   24.6775 C   0  0  0  0  0  0  0  0  0  0  0  0
    8.4311    4.7963   22.0500 C   0  0  0  0  0  0  0  0  0  0  0  0
    8.7393   10.8706   24.1871 O   0  0  0  0  0  0  0  0  0  0  0  0
    9.3093    3.8166   21.6712 C   0  0  0  0  0  0  0  0  0  0  0  0
  1  5  1  0
  1 15  4  0
  1 22  4  0
  2 20  1  0
  2 24  1  0
  3  6  4  0
  3 27  4  0
  4 22  4  0
  4 26  4  0
  6  7  4  0
  6 13  1  0
  7 19  4  0
  8 18  1  0
  8 23  1  0
  8 28  2  0
  9 17  1  0
  9 24  1  0
 10 11  1  0
 10 24  1  0
 11 23  1  0
 12 14  4  0
 12 16  4  0
 14 19  4  0
 15 18  4  0
 16 20  4  0
 17 25  1  0
 18 26  4  0
 19 29  4  0
 20 29  4  0
 21 23  1  0
 21 25  1  0
 27 29  4  0
M  END
$$$$

 Created by Python create_sdf_string function

 29 32  0  0  0  0  0  0  0  0999 V2000
    5.4450    8.7154   22.6662 C   0  0  0  0  0  0  0  0  0  0  0  0
   10.9154    5.4574   20.5483 C   0  0  0  0  0  0  0  0  0  0  0  0
    7.2709    4.5089   22.7542 C   0  0  0  0  0  0  0  0  0  0  0  0
    5.9698    7.6329   24.6581 C   0  0  0  0  0  0  0  0  0  0  0  0
    4.5542    8.9057   21.7104 O   0  0  0  0  0  0  0  0  0  0  0  0
    6.9895    3.2085   23.0690 C   0  0  0  0  0  0  0  0  0  0  0  0
    7.8391    2.2253   22.7260 N   0  0  0  0  0  0  0  0  0  0  0  0
    8.6968    9.8373   23.6359 C   0  0  0  0  0  0  0  0  0  0  0  0
   12.5135    6.5957   21.8396 C   0  0  0  0  0  0  0  0  0  0  0  0
   10.9406    8.2330   21.1350 C   0  0  0  0  0  0  0  0  0  0  0  0
    9.6648    8.5956   21.7310 C   0  0  0  0  0  0  0  0  0  0  0  0
   10.8829    1.7153   20.9865 C   0  0  0  0  0  0  0  0  0  0  0  0
    5.7768    2.8533   23.7910 C   0  0  0  0  0  0  0  0  0  0  0  0
    9.7977    1.4791   21.6912 N   0  0  0  0  0  0  0  0  0  0  0  0
    6.5976    9.3401   22.6478 N   0  0  0  0  0  0  0  0  0  0  0  0
   11.2031    3.0042   20.6246 C   0  0  0  0  0  0  0  0  0  0  0  0
   12.8688    7.7370   22.7287 C   0  0  0  0  0  0  0  0  0  0  0  0
    7.4487    9.1361   23.6506 C   0  0  0  0  0  0  0  0  0  0  0  0
    8.9772    2.5025   22.0273 C   0  0  0  0  0  0  0  0  0  0  0  0
   10.4859    4.0901   20.9730 C   0  0  0  0  0  0  0  0  0  0  0  0
   11.0962    9.3293   23.5072 C   0  0  0  0  0  0  0  0  0  0  0  0
    5.1273    7.8529   23.6208 N   0  0  0  0  0  0  0  0  0  0  0  0
    9.7552    9.2338   23.0171 N   0  0  0  0  0  0  0  0  0  0  0  0
   11.1797    6.7591   21.3326 N   0  0  0  0  0  0  0  0  0  0  0  0
   11.7728    8.0337   23.7267 C   0  0  0  0  0  0  0  0  0  0  0  0
    7.1194    8.3344   24.6775 C   0  0  0  0  0  0  0  0  0  0  0  0
    8.4311    4.7963   22.0500 C   0  0  0  0  0  0  0  0  0  0  0  0
    8.7393   10.8706   24.1871 O   0  0  0  0  0  0  0  0  0  0  0  0
    9.3093    3.8166   21.6712 C   0  0  0  0  0  0  0  0  0  0  0  0
  1  5  1  0
  1 15  4  0
  1 22  4  0
  2 20  1  0
  2 24  1  0
  3  6  4  0
  3 27  4  0
  4 22  4  0
  4 26  4  0
  6  7  4  0
  6 13  1  0
  7 19  4  0
  8 18  1  0
  8 23  1  0
  8 28  2  0
  9 17  1  0
  9 24  1  0
 10 11  1  0
 10 24  1  0
 11 23  1  0
 12 14  4  0
 12 16  4  0
 14 19  4  0
 15 18  4  0
 16 20  4  0
 17 25  1  0
 18 26  4  0
 19 29  4  0
 20 29  4  0
 21 23  1  0
 21 25  1  0
 27 29  4  0
M  END
$$$$

 Created by Python create_sdf_string function

 29 32  0  0  0  0  0  0  0  0999 V2000
    5.4450    8.7154   22.6662 C   0  0  0  0  0  0  0  0  0  0  0  0
   10.9154    5.4574   20.5483 C   0  0  0  0  0  0  0  0  0  0  0  0
    7.2709    4.5089   22.7542 C   0  0  0  0  0  0  0  0  0  0  0  0
    5.9698    7.6329   24.6581 C   0  0  0  0  0  0  0  0  0  0  0  0
    4.5542    8.9057   21.7104 O   0  0  0  0  0  0  0  0  0  0  0  0
    6.9895    3.2085   23.0690 C   0  0  0  0  0  0  0  0  0  0  0  0
    7.8391    2.2253   22.7260 N   0  0  0  0  0  0  0  0  0  0  0  0
    8.6968    9.8373   23.6359 C   0  0  0  0  0  0  0  0  0  0  0  0
   12.5135    6.5957   21.8396 C   0  0  0  0  0  0  0  0  0  0  0  0
   10.9406    8.2330   21.1350 C   0  0  0  0  0  0  0  0  0  0  0  0
    9.6648    8.5956   21.7310 C   0  0  0  0  0  0  0  0  0  0  0  0
   10.8829    1.7153   20.9865 C   0  0  0  0  0  0  0  0  0  0  0  0
    5.7768    2.8533   23.7910 C   0  0  0  0  0  0  0  0  0  0  0  0
    9.7977    1.4791   21.6912 N   0  0  0  0  0  0  0  0  0  0  0  0
    6.5976    9.3401   22.6478 N   0  0  0  0  0  0  0  0  0  0  0  0
   11.2031    3.0042   20.6246 C   0  0  0  0  0  0  0  0  0  0  0  0
   12.8688    7.7370   22.7287 C   0  0  0  0  0  0  0  0  0  0  0  0
    7.4487    9.1361   23.6506 C   0  0  0  0  0  0  0  0  0  0  0  0
    8.9772    2.5025   22.0273 C   0  0  0  0  0  0  0  0  0  0  0  0
   10.4859    4.0901   20.9730 C   0  0  0  0  0  0  0  0  0  0  0  0
   11.0962    9.3293   23.5072 C   0  0  0  0  0  0  0  0  0  0  0  0
    5.1273    7.8529   23.6208 N   0  0  0  0  0  0  0  0  0  0  0  0
    9.7552    9.2338   23.0171 N   0  0  0  0  0  0  0  0  0  0  0  0
   11.1797    6.7591   21.3326 N   0  0  0  0  0  0  0  0  0  0  0  0
   11.7728    8.0337   23.7267 C   0  0  0  0  0  0  0  0  0  0  0  0
    7.1194    8.3344   24.6775 C   0  0  0  0  0  0  0  0  0  0  0  0
    8.4311    4.7963   22.0500 C   0  0  0  0  0  0  0  0  0  0  0  0
    8.7393   10.8706   24.1871 O   0  0  0  0  0  0  0  0  0  0  0  0
    9.3093    3.8166   21.6712 C   0  0  0  0  0  0  0  0  0  0  0  0
  1  5  1  0
  1 15  4  0
  1 22  4  0
  2 20  1  0
  2 24  1  0
  3  6  4  0
  3 27  4  0
  4 22  4  0
  4 26  4  0
  6  7  4  0
  6 13  1  0
  7 19  4  0
  8 18  1  0
  8 23  1  0
  8 28  2  0
  9 17  1  0
  9 24  1  0
 10 11  1  0
 10 24  1  0
 11 23  1  0
 12 14  4  0
 12 16  4  0
 14 19  4  0
 15 18  4  0
 16 20  4  0
 17 25  1  0
 18 26  4  0
 19 29  4  0
 20 29  4  0
 21 23  1  0
 21 25  1  0
 27 29  4  0
M  END
$$$$

 Created by Python create_sdf_string function

 29 32  0  0  0  0  0  0  0  0999 V2000
    5.4450    8.7154   22.6662 C   0  0  0  0  0  0  0  0  0  0  0  0
   10.9154    5.4574   20.5483 C   0  0  0  0  0  0  0  0  0  0  0  0
    7.2709    4.5089   22.7542 C   0  0  0  0  0  0  0  0  0  0  0  0
    5.9698    7.6329   24.6581 C   0  0  0  0  0  0  0  0  0  0  0  0
    4.5542    8.9057   21.7104 O   0  0  0  0  0  0  0  0  0  0  0  0
    6.9895    3.2085   23.0690 C   0  0  0  0  0  0  0  0  0  0  0  0
    7.8391    2.2253   22.7260 N   0  0  0  0  0  0  0  0  0  0  0  0
    8.6968    9.8373   23.6359 C   0  0  0  0  0  0  0  0  0  0  0  0
   12.5135    6.5957   21.8396 C   0  0  0  0  0  0  0  0  0  0  0  0
   10.9406    8.2330   21.1350 C   0  0  0  0  0  0  0  0  0  0  0  0
    9.6648    8.5956   21.7310 C   0  0  0  0  0  0  0  0  0  0  0  0
   10.8829    1.7153   20.9865 C   0  0  0  0  0  0  0  0  0  0  0  0
    5.7768    2.8533   23.7910 C   0  0  0  0  0  0  0  0  0  0  0  0
    9.7977    1.4791   21.6912 N   0  0  0  0  0  0  0  0  0  0  0  0
    6.5976    9.3401   22.6478 N   0  0  0  0  0  0  0  0  0  0  0  0
   11.2031    3.0042   20.6246 C   0  0  0  0  0  0  0  0  0  0  0  0
   12.8688    7.7370   22.7287 C   0  0  0  0  0  0  0  0  0  0  0  0
    7.4487    9.1361   23.6506 C   0  0  0  0  0  0  0  0  0  0  0  0
    8.9772    2.5025   22.0273 C   0  0  0  0  0  0  0  0  0  0  0  0
   10.4859    4.0901   20.9730 C   0  0  0  0  0  0  0  0  0  0  0  0
   11.0962    9.3293   23.5072 C   0  0  0  0  0  0  0  0  0  0  0  0
    5.1273    7.8529   23.6208 N   0  0  0  0  0  0  0  0  0  0  0  0
    9.7552    9.2338   23.0171 N   0  0  0  0  0  0  0  0  0  0  0  0
   11.1797    6.7591   21.3326 N   0  0  0  0  0  0  0  0  0  0  0  0
   11.7728    8.0337   23.7267 C   0  0  0  0  0  0  0  0  0  0  0  0
    7.1194    8.3344   24.6775 C   0  0  0  0  0  0  0  0  0  0  0  0
    8.4311    4.7963   22.0500 C   0  0  0  0  0  0  0  0  0  0  0  0
    8.7393   10.8706   24.1871 O   0  0  0  0  0  0  0  0  0  0  0  0
    9.3093    3.8166   21.6712 C   0  0  0  0  0  0  0  0  0  0  0  0
  1  5  1  0
  1 15  4  0
  1 22  4  0
  2 20  1  0
  2 24  1  0
  3  6  4  0
  3 27  4  0
  4 22  4  0
  4 26  4  0
  6  7  4  0
  6 13  1  0
  7 19  4  0
  8 18  1  0
  8 23  1  0
  8 28  2  0
  9 17  1  0
  9 24  1  0
 10 11  1  0
 10 24  1  0
 11 23  1  0
 12 14  4  0
 12 16  4  0
 14 19  4  0
 15 18  4  0
 16 20  4  0
 17 25  1  0
 18 26  4  0
 19 29  4  0
 20 29  4  0
 21 23  1  0
 21 25  1  0
 27 29  4  0
M  END
$$$$

 Created by Python create_sdf_string function

 29 32  0  0  0  0  0  0  0  0999 V2000
    5.4450    8.7154   22.6662 C   0  0  0  0  0  0  0  0  0  0  0  0
   10.9154    5.4574   20.5483 C   0  0  0  0  0  0  0  0  0  0  0  0
    7.2709    4.5089   22.7542 C   0  0  0  0  0  0  0  0  0  0  0  0
    5.9698    7.6329   24.6581 C   0  0  0  0  0  0  0  0  0  0  0  0
    4.5542    8.9057   21.7104 O   0  0  0  0  0  0  0  0  0  0  0  0
    6.9895    3.2085   23.0690 C   0  0  0  0  0  0  0  0  0  0  0  0
    7.8391    2.2253   22.7260 N   0  0  0  0  0  0  0  0  0  0  0  0
    8.6968    9.8373   23.6359 C   0  0  0  0  0  0  0  0  0  0  0  0
   12.5135    6.5957   21.8396 C   0  0  0  0  0  0  0  0  0  0  0  0
   10.9406    8.2330   21.1350 C   0  0  0  0  0  0  0  0  0  0  0  0
    9.6648    8.5956   21.7310 C   0  0  0  0  0  0  0  0  0  0  0  0
   10.8829    1.7153   20.9865 C   0  0  0  0  0  0  0  0  0  0  0  0
    5.7768    2.8533   23.7910 C   0  0  0  0  0  0  0  0  0  0  0  0
    9.7977    1.4791   21.6912 N   0  0  0  0  0  0  0  0  0  0  0  0
    6.5976    9.3401   22.6478 N   0  0  0  0  0  0  0  0  0  0  0  0
   11.2031    3.0042   20.6246 C   0  0  0  0  0  0  0  0  0  0  0  0
   12.8688    7.7370   22.7287 C   0  0  0  0  0  0  0  0  0  0  0  0
    7.4487    9.1361   23.6506 C   0  0  0  0  0  0  0  0  0  0  0  0
    8.9772    2.5025   22.0273 C   0  0  0  0  0  0  0  0  0  0  0  0
   10.4859    4.0901   20.9730 C   0  0  0  0  0  0  0  0  0  0  0  0
   11.0962    9.3293   23.5072 C   0  0  0  0  0  0  0  0  0  0  0  0
    5.1273    7.8529   23.6208 N   0  0  0  0  0  0  0  0  0  0  0  0
    9.7552    9.2338   23.0171 N   0  0  0  0  0  0  0  0  0  0  0  0
   11.1797    6.7591   21.3326 N   0  0  0  0  0  0  0  0  0  0  0  0
   11.7728    8.0337   23.7267 C   0  0  0  0  0  0  0  0  0  0  0  0
    7.1194    8.3344   24.6775 C   0  0  0  0  0  0  0  0  0  0  0  0
    8.4311    4.7963   22.0500 C   0  0  0  0  0  0  0  0  0  0  0  0
    8.7393   10.8706   24.1871 O   0  0  0  0  0  0  0  0  0  0  0  0
    9.3093    3.8166   21.6712 C   0  0  0  0  0  0  0  0  0  0  0  0
  1  5  1  0
  1 15  4  0
  1 22  4  0
  2 20  1  0
  2 24  1  0
  3  6  4  0
  3 27  4  0
  4 22  4  0
  4 26  4  0
  6  7  4  0
  6 13  1  0
  7 19  4  0
  8 18  1  0
  8 23  1  0
  8 28  2  0
  9 17  1  0
  9 24  1  0
 10 11  1  0
 10 24  1  0
 11 23  1  0
 12 14  4  0
 12 16  4  0
 14 19  4  0
 15 18  4  0
 16 20  4  0
 17 25  1  0
 18 26  4  0
 19 29  4  0
 20 29  4  0
 21 23  1  0
 21 25  1  0
 27 29  4  0
M  END
$$$$

 Created by Python create_sdf_string function

 29 32  0  0  0  0  0  0  0  0999 V2000
    5.4450    8.7154   22.6662 C   0  0  0  0  0  0  0  0  0  0  0  0
   10.9154    5.4574   20.5483 C   0  0  0  0  0  0  0  0  0  0  0  0
    7.2709    4.5089   22.7542 C   0  0  0  0  0  0  0  0  0  0  0  0
    5.9698    7.6329   24.6581 C   0  0  0  0  0  0  0  0  0  0  0  0
    4.5542    8.9057   21.7104 O   0  0  0  0  0  0  0  0  0  0  0  0
    6.9895    3.2085   23.0690 C   0  0  0  0  0  0  0  0  0  0  0  0
    7.8391    2.2253   22.7260 N   0  0  0  0  0  0  0  0  0  0  0  0
    8.6968    9.8373   23.6359 C   0  0  0  0  0  0  0  0  0  0  0  0
   12.5135    6.5957   21.8396 C   0  0  0  0  0  0  0  0  0  0  0  0
   10.9406    8.2330   21.1350 C   0  0  0  0  0  0  0  0  0  0  0  0
    9.6648    8.5956   21.7310 C   0  0  0  0  0  0  0  0  0  0  0  0
   10.8829    1.7153   20.9865 C   0  0  0  0  0  0  0  0  0  0  0  0
    5.7768    2.8533   23.7910 C   0  0  0  0  0  0  0  0  0  0  0  0
    9.7977    1.4791   21.6912 N   0  0  0  0  0  0  0  0  0  0  0  0
    6.5976    9.3401   22.6478 N   0  0  0  0  0  0  0  0  0  0  0  0
   11.2031    3.0042   20.6246 C   0  0  0  0  0  0  0  0  0  0  0  0
   12.8688    7.7370   22.7287 C   0  0  0  0  0  0  0  0  0  0  0  0
    7.4487    9.1361   23.6506 C   0  0  0  0  0  0  0  0  0  0  0  0
    8.9772    2.5025   22.0273 C   0  0  0  0  0  0  0  0  0  0  0  0
   10.4859    4.0901   20.9730 C   0  0  0  0  0  0  0  0  0  0  0  0
   11.0962    9.3293   23.5072 C   0  0  0  0  0  0  0  0  0  0  0  0
    5.1273    7.8529   23.6208 N   0  0  0  0  0  0  0  0  0  0  0  0
    9.7552    9.2338   23.0171 N   0  0  0  0  0  0  0  0  0  0  0  0
   11.1797    6.7591   21.3326 N   0  0  0  0  0  0  0  0  0  0  0  0
   11.7728    8.0337   23.7267 C   0  0  0  0  0  0  0  0  0  0  0  0
    7.1194    8.3344   24.6775 C   0  0  0  0  0  0  0  0  0  0  0  0
    8.4311    4.7963   22.0500 C   0  0  0  0  0  0  0  0  0  0  0  0
    8.7393   10.8706   24.1871 O   0  0  0  0  0  0  0  0  0  0  0  0
    9.3093    3.8166   21.6712 C   0  0  0  0  0  0  0  0  0  0  0  0
  1  5  1  0
  1 15  4  0
  1 22  4  0
  2 20  1  0
  2 24  1  0
  3  6  4  0
  3 27  4  0
  4 22  4  0
  4 26  4  0
  6  7  4  0
  6 13  1  0
  7 19  4  0
  8 18  1  0
  8 23  1  0
  8 28  2  0
  9 17  1  0
  9 24  1  0
 10 11  1  0
 10 24  1  0
 11 23  1  0
 12 14  4  0
 12 16  4  0
 14 19  4  0
 15 18  4  0
 16 20  4  0
 17 25  1  0
 18 26  4  0
 19 29  4  0
 20 29  4  0
 21 23  1  0
 21 25  1  0
 27 29  4  0
M  END
$$$$

 Created by Python create_sdf_string function

 29 32  0  0  0  0  0  0  0  0999 V2000
    5.4450    8.7154   22.6662 C   0  0  0  0  0  0  0  0  0  0  0  0
   10.9154    5.4574   20.5483 C   0  0  0  0  0  0  0  0  0  0  0  0
    7.2709    4.5089   22.7542 C   0  0  0  0  0  0  0  0  0  0  0  0
    5.9698    7.6329   24.6581 C   0  0  0  0  0  0  0  0  0  0  0  0
    4.5542    8.9057   21.7104 O   0  0  0  0  0  0  0  0  0  0  0  0
    6.9895    3.2085   23.0690 C   0  0  0  0  0  0  0  0  0  0  0  0
    7.8391    2.2253   22.7260 N   0  0  0  0  0  0  0  0  0  0  0  0
    8.6968    9.8373   23.6359 C   0  0  0  0  0  0  0  0  0  0  0  0
   12.5135    6.5957   21.8396 C   0  0  0  0  0  0  0  0  0  0  0  0
   10.9406    8.2330   21.1350 C   0  0  0  0  0  0  0  0  0  0  0  0
    9.6648    8.5956   21.7310 C   0  0  0  0  0  0  0  0  0  0  0  0
   10.8829    1.7153   20.9865 C   0  0  0  0  0  0  0  0  0  0  0  0
    5.7768    2.8533   23.7910 C   0  0  0  0  0  0  0  0  0  0  0  0
    9.7977    1.4791   21.6912 N   0  0  0  0  0  0  0  0  0  0  0  0
    6.5976    9.3401   22.6478 N   0  0  0  0  0  0  0  0  0  0  0  0
   11.2031    3.0042   20.6246 C   0  0  0  0  0  0  0  0  0  0  0  0
   12.8688    7.7370   22.7287 C   0  0  0  0  0  0  0  0  0  0  0  0
    7.4487    9.1361   23.6506 C   0  0  0  0  0  0  0  0  0  0  0  0
    8.9772    2.5025   22.0273 C   0  0  0  0  0  0  0  0  0  0  0  0
   10.4859    4.0901   20.9730 C   0  0  0  0  0  0  0  0  0  0  0  0
   11.0962    9.3293   23.5072 C   0  0  0  0  0  0  0  0  0  0  0  0
    5.1273    7.8529   23.6208 N   0  0  0  0  0  0  0  0  0  0  0  0
    9.7552    9.2338   23.0171 N   0  0  0  0  0  0  0  0  0  0  0  0
   11.1797    6.7591   21.3326 N   0  0  0  0  0  0  0  0  0  0  0  0
   11.7728    8.0337   23.7267 C   0  0  0  0  0  0  0  0  0  0  0  0
    7.1194    8.3344   24.6775 C   0  0  0  0  0  0  0  0  0  0  0  0
    8.4311    4.7963   22.0500 C   0  0  0  0  0  0  0  0  0  0  0  0
    8.7393   10.8706   24.1871 O   0  0  0  0  0  0  0  0  0  0  0  0
    9.3093    3.8166   21.6712 C   0  0  0  0  0  0  0  0  0  0  0  0
  1  5  1  0
  1 15  4  0
  1 22  4  0
  2 20  1  0
  2 24  1  0
  3  6  4  0
  3 27  4  0
  4 22  4  0
  4 26  4  0
  6  7  4  0
  6 13  1  0
  7 19  4  0
  8 18  1  0
  8 23  1  0
  8 28  2  0
  9 17  1  0
  9 24  1  0
 10 11  1  0
 10 24  1  0
 11 23  1  0
 12 14  4  0
 12 16  4  0
 14 19  4  0
 15 18  4  0
 16 20  4  0
 17 25  1  0
 18 26  4  0
 19 29  4  0
 20 29  4  0
 21 23  1  0
 21 25  1  0
 27 29  4  0
M  END
$$$$

 Created by Python create_sdf_string function

 29 32  0  0  0  0  0  0  0  0999 V2000
    5.4450    8.7154   22.6662 C   0  0  0  0  0  0  0  0  0  0  0  0
   10.9154    5.4574   20.5483 C   0  0  0  0  0  0  0  0  0  0  0  0
    7.2709    4.5089   22.7542 C   0  0  0  0  0  0  0  0  0  0  0  0
    5.9698    7.6329   24.6581 C   0  0  0  0  0  0  0  0  0  0  0  0
    4.5542    8.9057   21.7104 O   0  0  0  0  0  0  0  0  0  0  0  0
    6.9895    3.2085   23.0690 C   0  0  0  0  0  0  0  0  0  0  0  0
    7.8391    2.2253   22.7260 N   0  0  0  0  0  0  0  0  0  0  0  0
    8.6968    9.8373   23.6359 C   0  0  0  0  0  0  0  0  0  0  0  0
   12.5135    6.5957   21.8396 C   0  0  0  0  0  0  0  0  0  0  0  0
   10.9406    8.2330   21.1350 C   0  0  0  0  0  0  0  0  0  0  0  0
    9.6648    8.5956   21.7310 C   0  0  0  0  0  0  0  0  0  0  0  0
   10.8829    1.7153   20.9865 C   0  0  0  0  0  0  0  0  0  0  0  0
    5.7768    2.8533   23.7910 C   0  0  0  0  0  0  0  0  0  0  0  0
    9.7977    1.4791   21.6912 N   0  0  0  0  0  0  0  0  0  0  0  0
    6.5976    9.3401   22.6478 N   0  0  0  0  0  0  0  0  0  0  0  0
   11.2031    3.0042   20.6246 C   0  0  0  0  0  0  0  0  0  0  0  0
   12.8688    7.7370   22.7287 C   0  0  0  0  0  0  0  0  0  0  0  0
    7.4487    9.1361   23.6506 C   0  0  0  0  0  0  0  0  0  0  0  0
    8.9772    2.5025   22.0273 C   0  0  0  0  0  0  0  0  0  0  0  0
   10.4859    4.0901   20.9730 C   0  0  0  0  0  0  0  0  0  0  0  0
   11.0962    9.3293   23.5072 C   0  0  0  0  0  0  0  0  0  0  0  0
    5.1273    7.8529   23.6208 N   0  0  0  0  0  0  0  0  0  0  0  0
    9.7552    9.2338   23.0171 N   0  0  0  0  0  0  0  0  0  0  0  0
   11.1797    6.7591   21.3326 N   0  0  0  0  0  0  0  0  0  0  0  0
   11.7728    8.0337   23.7267 C   0  0  0  0  0  0  0  0  0  0  0  0
    7.1194    8.3344   24.6775 C   0  0  0  0  0  0  0  0  0  0  0  0
    8.4311    4.7963   22.0500 C   0  0  0  0  0  0  0  0  0  0  0  0
    8.7393   10.8706   24.1871 O   0  0  0  0  0  0  0  0  0  0  0  0
    9.3093    3.8166   21.6712 C   0  0  0  0  0  0  0  0  0  0  0  0
  1  5  1  0
  1 15  4  0
  1 22  4  0
  2 20  1  0
  2 24  1  0
  3  6  4  0
  3 27  4  0
  4 22  4  0
  4 26  4  0
  6  7  4  0
  6 13  1  0
  7 19  4  0
  8 18  1  0
  8 23  1  0
  8 28  2  0
  9 17  1  0
  9 24  1  0
 10 11  1  0
 10 24  1  0
 11 23  1  0
 12 14  4  0
 12 16  4  0
 14 19  4  0
 15 18  4  0
 16 20  4  0
 17 25  1  0
 18 26  4  0
 19 29  4  0
 20 29  4  0
 21 23  1  0
 21 25  1  0
 27 29  4  0
M  END
$$$$

 Created by Python create_sdf_string function

 29 32  0  0  0  0  0  0  0  0999 V2000
    5.4450    8.7154   22.6662 C   0  0  0  0  0  0  0  0  0  0  0  0
   10.9154    5.4574   20.5483 C   0  0  0  0  0  0  0  0  0  0  0  0
    7.2709    4.5089   22.7542 C   0  0  0  0  0  0  0  0  0  0  0  0
    5.9698    7.6329   24.6581 C   0  0  0  0  0  0  0  0  0  0  0  0
    4.5542    8.9057   21.7104 O   0  0  0  0  0  0  0  0  0  0  0  0
    6.9895    3.2085   23.0690 C   0  0  0  0  0  0  0  0  0  0  0  0
    7.8391    2.2253   22.7260 N   0  0  0  0  0  0  0  0  0  0  0  0
    8.6968    9.8373   23.6359 C   0  0  0  0  0  0  0  0  0  0  0  0
   12.5135    6.5957   21.8396 C   0  0  0  0  0  0  0  0  0  0  0  0
   10.9406    8.2330   21.1350 C   0  0  0  0  0  0  0  0  0  0  0  0
    9.6648    8.5956   21.7310 C   0  0  0  0  0  0  0  0  0  0  0  0
   10.8829    1.7153   20.9865 C   0  0  0  0  0  0  0  0  0  0  0  0
    5.7768    2.8533   23.7910 C   0  0  0  0  0  0  0  0  0  0  0  0
    9.7977    1.4791   21.6912 N   0  0  0  0  0  0  0  0  0  0  0  0
    6.5976    9.3401   22.6478 N   0  0  0  0  0  0  0  0  0  0  0  0
   11.2031    3.0042   20.6246 C   0  0  0  0  0  0  0  0  0  0  0  0
   12.8688    7.7370   22.7287 C   0  0  0  0  0  0  0  0  0  0  0  0
    7.4487    9.1361   23.6506 C   0  0  0  0  0  0  0  0  0  0  0  0
    8.9772    2.5025   22.0273 C   0  0  0  0  0  0  0  0  0  0  0  0
   10.4859    4.0901   20.9730 C   0  0  0  0  0  0  0  0  0  0  0  0
   11.0962    9.3293   23.5072 C   0  0  0  0  0  0  0  0  0  0  0  0
    5.1273    7.8529   23.6208 N   0  0  0  0  0  0  0  0  0  0  0  0
    9.7552    9.2338   23.0171 N   0  0  0  0  0  0  0  0  0  0  0  0
   11.1797    6.7591   21.3326 N   0  0  0  0  0  0  0  0  0  0  0  0
   11.7728    8.0337   23.7267 C   0  0  0  0  0  0  0  0  0  0  0  0
    7.1194    8.3344   24.6775 C   0  0  0  0  0  0  0  0  0  0  0  0
    8.4311    4.7963   22.0500 C   0  0  0  0  0  0  0  0  0  0  0  0
    8.7393   10.8706   24.1871 O   0  0  0  0  0  0  0  0  0  0  0  0
    9.3093    3.8166   21.6712 C   0  0  0  0  0  0  0  0  0  0  0  0
  1  5  1  0
  1 15  4  0
  1 22  4  0
  2 20  1  0
  2 24  1  0
  3  6  4  0
  3 27  4  0
  4 22  4  0
  4 26  4  0
  6  7  4  0
  6 13  1  0
  7 19  4  0
  8 18  1  0
  8 23  1  0
  8 28  2  0
  9 17  1  0
  9 24  1  0
 10 11  1  0
 10 24  1  0
 11 23  1  0
 12 14  4  0
 12 16  4  0
 14 19  4  0
 15 18  4  0
 16 20  4  0
 17 25  1  0
 18 26  4  0
 19 29  4  0
 20 29  4  0
 21 23  1  0
 21 25  1  0
 27 29  4  0
M  END
$$$$

 Created by Python create_sdf_string function

 29 32  0  0  0  0  0  0  0  0999 V2000
    5.4450    8.7154   22.6662 C   0  0  0  0  0  0  0  0  0  0  0  0
   10.9154    5.4574   20.5483 C   0  0  0  0  0  0  0  0  0  0  0  0
    7.2709    4.5089   22.7542 C   0  0  0  0  0  0  0  0  0  0  0  0
    5.9698    7.6329   24.6581 C   0  0  0  0  0  0  0  0  0  0  0  0
    4.5542    8.9057   21.7104 O   0  0  0  0  0  0  0  0  0  0  0  0
    6.9895    3.2085   23.0690 C   0  0  0  0  0  0  0  0  0  0  0  0
    7.8391    2.2253   22.7260 N   0  0  0  0  0  0  0  0  0  0  0  0
    8.6968    9.8373   23.6359 C   0  0  0  0  0  0  0  0  0  0  0  0
   12.5135    6.5957   21.8396 C   0  0  0  0  0  0  0  0  0  0  0  0
   10.9406    8.2330   21.1350 C   0  0  0  0  0  0  0  0  0  0  0  0
    9.6648    8.5956   21.7310 C   0  0  0  0  0  0  0  0  0  0  0  0
   10.8829    1.7153   20.9865 C   0  0  0  0  0  0  0  0  0  0  0  0
    5.7768    2.8533   23.7910 C   0  0  0  0  0  0  0  0  0  0  0  0
    9.7977    1.4791   21.6912 N   0  0  0  0  0  0  0  0  0  0  0  0
    6.5976    9.3401   22.6478 N   0  0  0  0  0  0  0  0  0  0  0  0
   11.2031    3.0042   20.6246 C   0  0  0  0  0  0  0  0  0  0  0  0
   12.8688    7.7370   22.7287 C   0  0  0  0  0  0  0  0  0  0  0  0
    7.4487    9.1361   23.6506 C   0  0  0  0  0  0  0  0  0  0  0  0
    8.9772    2.5025   22.0273 C   0  0  0  0  0  0  0  0  0  0  0  0
   10.4859    4.0901   20.9730 C   0  0  0  0  0  0  0  0  0  0  0  0
   11.0962    9.3293   23.5072 C   0  0  0  0  0  0  0  0  0  0  0  0
    5.1273    7.8529   23.6208 N   0  0  0  0  0  0  0  0  0  0  0  0
    9.7552    9.2338   23.0171 N   0  0  0  0  0  0  0  0  0  0  0  0
   11.1797    6.7591   21.3326 N   0  0  0  0  0  0  0  0  0  0  0  0
   11.7728    8.0337   23.7267 C   0  0  0  0  0  0  0  0  0  0  0  0
    7.1194    8.3344   24.6775 C   0  0  0  0  0  0  0  0  0  0  0  0
    8.4311    4.7963   22.0500 C   0  0  0  0  0  0  0  0  0  0  0  0
    8.7393   10.8706   24.1871 O   0  0  0  0  0  0  0  0  0  0  0  0
    9.3093    3.8166   21.6712 C   0  0  0  0  0  0  0  0  0  0  0  0
  1  5  1  0
  1 15  4  0
  1 22  4  0
  2 20  1  0
  2 24  1  0
  3  6  4  0
  3 27  4  0
  4 22  4  0
  4 26  4  0
  6  7  4  0
  6 13  1  0
  7 19  4  0
  8 18  1  0
  8 23  1  0
  8 28  2  0
  9 17  1  0
  9 24  1  0
 10 11  1  0
 10 24  1  0
 11 23  1  0
 12 14  4  0
 12 16  4  0
 14 19  4  0
 15 18  4  0
 16 20  4  0
 17 25  1  0
 18 26  4  0
 19 29  4  0
 20 29  4  0
 21 23  1  0
 21 25  1  0
 27 29  4  0
M  END
$$$$

 Created by Python create_sdf_string function

 29 32  0  0  0  0  0  0  0  0999 V2000
    5.4450    8.7154   22.6662 C   0  0  0  0  0  0  0  0  0  0  0  0
   10.9154    5.4574   20.5483 C   0  0  0  0  0  0  0  0  0  0  0  0
    7.2709    4.5089   22.7542 C   0  0  0  0  0  0  0  0  0  0  0  0
    5.9698    7.6329   24.6581 C   0  0  0  0  0  0  0  0  0  0  0  0
    4.5542    8.9057   21.7104 O   0  0  0  0  0  0  0  0  0  0  0  0
    6.9895    3.2085   23.0690 C   0  0  0  0  0  0  0  0  0  0  0  0
    7.8391    2.2253   22.7260 N   0  0  0  0  0  0  0  0  0  0  0  0
    8.6968    9.8373   23.6359 C   0  0  0  0  0  0  0  0  0  0  0  0
   12.5135    6.5957   21.8396 C   0  0  0  0  0  0  0  0  0  0  0  0
   10.9406    8.2330   21.1350 C   0  0  0  0  0  0  0  0  0  0  0  0
    9.6648    8.5956   21.7310 C   0  0  0  0  0  0  0  0  0  0  0  0
   10.8829    1.7153   20.9865 C   0  0  0  0  0  0  0  0  0  0  0  0
    5.7768    2.8533   23.7910 C   0  0  0  0  0  0  0  0  0  0  0  0
    9.7977    1.4791   21.6912 N   0  0  0  0  0  0  0  0  0  0  0  0
    6.5976    9.3401   22.6478 N   0  0  0  0  0  0  0  0  0  0  0  0
   11.2031    3.0042   20.6246 C   0  0  0  0  0  0  0  0  0  0  0  0
   12.8688    7.7370   22.7287 C   0  0  0  0  0  0  0  0  0  0  0  0
    7.4487    9.1361   23.6506 C   0  0  0  0  0  0  0  0  0  0  0  0
    8.9772    2.5025   22.0273 C   0  0  0  0  0  0  0  0  0  0  0  0
   10.4859    4.0901   20.9730 C   0  0  0  0  0  0  0  0  0  0  0  0
   11.0962    9.3293   23.5072 C   0  0  0  0  0  0  0  0  0  0  0  0
    5.1273    7.8529   23.6208 N   0  0  0  0  0  0  0  0  0  0  0  0
    9.7552    9.2338   23.0171 N   0  0  0  0  0  0  0  0  0  0  0  0
   11.1797    6.7591   21.3326 N   0  0  0  0  0  0  0  0  0  0  0  0
   11.7728    8.0337   23.7267 C   0  0  0  0  0  0  0  0  0  0  0  0
    7.1194    8.3344   24.6775 C   0  0  0  0  0  0  0  0  0  0  0  0
    8.4311    4.7963   22.0500 C   0  0  0  0  0  0  0  0  0  0  0  0
    8.7393   10.8706   24.1871 O   0  0  0  0  0  0  0  0  0  0  0  0
    9.3093    3.8166   21.6712 C   0  0  0  0  0  0  0  0  0  0  0  0
  1  5  1  0
  1 15  4  0
  1 22  4  0
  2 20  1  0
  2 24  1  0
  3  6  4  0
  3 27  4  0
  4 22  4  0
  4 26  4  0
  6  7  4  0
  6 13  1  0
  7 19  4  0
  8 18  1  0
  8 23  1  0
  8 28  2  0
  9 17  1  0
  9 24  1  0
 10 11  1  0
 10 24  1  0
 11 23  1  0
 12 14  4  0
 12 16  4  0
 14 19  4  0
 15 18  4  0
 16 20  4  0
 17 25  1  0
 18 26  4  0
 19 29  4  0
 20 29  4  0
 21 23  1  0
 21 25  1  0
 27 29  4  0
M  END
$$$$

 Created by Python create_sdf_string function

 29 32  0  0  0  0  0  0  0  0999 V2000
    5.4450    8.7154   22.6662 C   0  0  0  0  0  0  0  0  0  0  0  0
   10.9154    5.4574   20.5483 C   0  0  0  0  0  0  0  0  0  0  0  0
    7.2709    4.5089   22.7542 C   0  0  0  0  0  0  0  0  0  0  0  0
    5.9698    7.6329   24.6581 C   0  0  0  0  0  0  0  0  0  0  0  0
    4.5542    8.9057   21.7104 O   0  0  0  0  0  0  0  0  0  0  0  0
    6.9895    3.2085   23.0690 C   0  0  0  0  0  0  0  0  0  0  0  0
    7.8391    2.2253   22.7260 N   0  0  0  0  0  0  0  0  0  0  0  0
    8.6968    9.8373   23.6359 C   0  0  0  0  0  0  0  0  0  0  0  0
   12.5135    6.5957   21.8396 C   0  0  0  0  0  0  0  0  0  0  0  0
   10.9406    8.2330   21.1350 C   0  0  0  0  0  0  0  0  0  0  0  0
    9.6648    8.5956   21.7310 C   0  0  0  0  0  0  0  0  0  0  0  0
   10.8829    1.7153   20.9865 C   0  0  0  0  0  0  0  0  0  0  0  0
    5.7768    2.8533   23.7910 C   0  0  0  0  0  0  0  0  0  0  0  0
    9.7977    1.4791   21.6912 N   0  0  0  0  0  0  0  0  0  0  0  0
    6.5976    9.3401   22.6478 N   0  0  0  0  0  0  0  0  0  0  0  0
   11.2031    3.0042   20.6246 C   0  0  0  0  0  0  0  0  0  0  0  0
   12.8688    7.7370   22.7287 C   0  0  0  0  0  0  0  0  0  0  0  0
    7.4487    9.1361   23.6506 C   0  0  0  0  0  0  0  0  0  0  0  0
    8.9772    2.5025   22.0273 C   0  0  0  0  0  0  0  0  0  0  0  0
   10.4859    4.0901   20.9730 C   0  0  0  0  0  0  0  0  0  0  0  0
   11.0962    9.3293   23.5072 C   0  0  0  0  0  0  0  0  0  0  0  0
    5.1273    7.8529   23.6208 N   0  0  0  0  0  0  0  0  0  0  0  0
    9.7552    9.2338   23.0171 N   0  0  0  0  0  0  0  0  0  0  0  0
   11.1797    6.7591   21.3326 N   0  0  0  0  0  0  0  0  0  0  0  0
   11.7728    8.0337   23.7267 C   0  0  0  0  0  0  0  0  0  0  0  0
    7.1194    8.3344   24.6775 C   0  0  0  0  0  0  0  0  0  0  0  0
    8.4311    4.7963   22.0500 C   0  0  0  0  0  0  0  0  0  0  0  0
    8.7393   10.8706   24.1871 O   0  0  0  0  0  0  0  0  0  0  0  0
    9.3093    3.8166   21.6712 C   0  0  0  0  0  0  0  0  0  0  0  0
  1  5  1  0
  1 15  4  0
  1 22  4  0
  2 20  1  0
  2 24  1  0
  3  6  4  0
  3 27  4  0
  4 22  4  0
  4 26  4  0
  6  7  4  0
  6 13  1  0
  7 19  4  0
  8 18  1  0
  8 23  1  0
  8 28  2  0
  9 17  1  0
  9 24  1  0
 10 11  1  0
 10 24  1  0
 11 23  1  0
 12 14  4  0
 12 16  4  0
 14 19  4  0
 15 18  4  0
 16 20  4  0
 17 25  1  0
 18 26  4  0
 19 29  4  0
 20 29  4  0
 21 23  1  0
 21 25  1  0
 27 29  4  0
M  END
$$$$

 Created by Python create_sdf_string function

 29 32  0  0  0  0  0  0  0  0999 V2000
    5.4450    8.7154   22.6662 C   0  0  0  0  0  0  0  0  0  0  0  0
   10.9154    5.4574   20.5483 C   0  0  0  0  0  0  0  0  0  0  0  0
    7.2709    4.5089   22.7542 C   0  0  0  0  0  0  0  0  0  0  0  0
    5.9698    7.6329   24.6581 C   0  0  0  0  0  0  0  0  0  0  0  0
    4.5542    8.9057   21.7104 O   0  0  0  0  0  0  0  0  0  0  0  0
    6.9895    3.2085   23.0690 C   0  0  0  0  0  0  0  0  0  0  0  0
    7.8391    2.2253   22.7260 N   0  0  0  0  0  0  0  0  0  0  0  0
    8.6968    9.8373   23.6359 C   0  0  0  0  0  0  0  0  0  0  0  0
   12.5135    6.5957   21.8396 C   0  0  0  0  0  0  0  0  0  0  0  0
   10.9406    8.2330   21.1350 C   0  0  0  0  0  0  0  0  0  0  0  0
    9.6648    8.5956   21.7310 C   0  0  0  0  0  0  0  0  0  0  0  0
   10.8829    1.7153   20.9865 C   0  0  0  0  0  0  0  0  0  0  0  0
    5.7768    2.8533   23.7910 C   0  0  0  0  0  0  0  0  0  0  0  0
    9.7977    1.4791   21.6912 N   0  0  0  0  0  0  0  0  0  0  0  0
    6.5976    9.3401   22.6478 N   0  0  0  0  0  0  0  0  0  0  0  0
   11.2031    3.0042   20.6246 C   0  0  0  0  0  0  0  0  0  0  0  0
   12.8688    7.7370   22.7287 C   0  0  0  0  0  0  0  0  0  0  0  0
    7.4487    9.1361   23.6506 C   0  0  0  0  0  0  0  0  0  0  0  0
    8.9772    2.5025   22.0273 C   0  0  0  0  0  0  0  0  0  0  0  0
   10.4859    4.0901   20.9730 C   0  0  0  0  0  0  0  0  0  0  0  0
   11.0962    9.3293   23.5072 C   0  0  0  0  0  0  0  0  0  0  0  0
    5.1273    7.8529   23.6208 N   0  0  0  0  0  0  0  0  0  0  0  0
    9.7552    9.2338   23.0171 N   0  0  0  0  0  0  0  0  0  0  0  0
   11.1797    6.7591   21.3326 N   0  0  0  0  0  0  0  0  0  0  0  0
   11.7728    8.0337   23.7267 C   0  0  0  0  0  0  0  0  0  0  0  0
    7.1194    8.3344   24.6775 C   0  0  0  0  0  0  0  0  0  0  0  0
    8.4311    4.7963   22.0500 C   0  0  0  0  0  0  0  0  0  0  0  0
    8.7393   10.8706   24.1871 O   0  0  0  0  0  0  0  0  0  0  0  0
    9.3093    3.8166   21.6712 C   0  0  0  0  0  0  0  0  0  0  0  0
  1  5  1  0
  1 15  4  0
  1 22  4  0
  2 20  1  0
  2 24  1  0
  3  6  4  0
  3 27  4  0
  4 22  4  0
  4 26  4  0
  6  7  4  0
  6 13  1  0
  7 19  4  0
  8 18  1  0
  8 23  1  0
  8 28  2  0
  9 17  1  0
  9 24  1  0
 10 11  1  0
 10 24  1  0
 11 23  1  0
 12 14  4  0
 12 16  4  0
 14 19  4  0
 15 18  4  0
 16 20  4  0
 17 25  1  0
 18 26  4  0
 19 29  4  0
 20 29  4  0
 21 23  1  0
 21 25  1  0
 27 29  4  0
M  END
$$$$

 Created by Python create_sdf_string function

 29 32  0  0  0  0  0  0  0  0999 V2000
    5.4450    8.7154   22.6662 C   0  0  0  0  0  0  0  0  0  0  0  0
   10.9154    5.4574   20.5483 C   0  0  0  0  0  0  0  0  0  0  0  0
    7.2709    4.5089   22.7542 C   0  0  0  0  0  0  0  0  0  0  0  0
    5.9698    7.6329   24.6581 C   0  0  0  0  0  0  0  0  0  0  0  0
    4.5542    8.9057   21.7104 O   0  0  0  0  0  0  0  0  0  0  0  0
    6.9895    3.2085   23.0690 C   0  0  0  0  0  0  0  0  0  0  0  0
    7.8391    2.2253   22.7260 N   0  0  0  0  0  0  0  0  0  0  0  0
    8.6968    9.8373   23.6359 C   0  0  0  0  0  0  0  0  0  0  0  0
   12.5135    6.5957   21.8396 C   0  0  0  0  0  0  0  0  0  0  0  0
   10.9406    8.2330   21.1350 C   0  0  0  0  0  0  0  0  0  0  0  0
    9.6648    8.5956   21.7310 C   0  0  0  0  0  0  0  0  0  0  0  0
   10.8829    1.7153   20.9865 C   0  0  0  0  0  0  0  0  0  0  0  0
    5.7768    2.8533   23.7910 C   0  0  0  0  0  0  0  0  0  0  0  0
    9.7977    1.4791   21.6912 N   0  0  0  0  0  0  0  0  0  0  0  0
    6.5976    9.3401   22.6478 N   0  0  0  0  0  0  0  0  0  0  0  0
   11.2031    3.0042   20.6246 C   0  0  0  0  0  0  0  0  0  0  0  0
   12.8688    7.7370   22.7287 C   0  0  0  0  0  0  0  0  0  0  0  0
    7.4487    9.1361   23.6506 C   0  0  0  0  0  0  0  0  0  0  0  0
    8.9772    2.5025   22.0273 C   0  0  0  0  0  0  0  0  0  0  0  0
   10.4859    4.0901   20.9730 C   0  0  0  0  0  0  0  0  0  0  0  0
   11.0962    9.3293   23.5072 C   0  0  0  0  0  0  0  0  0  0  0  0
    5.1273    7.8529   23.6208 N   0  0  0  0  0  0  0  0  0  0  0  0
    9.7552    9.2338   23.0171 N   0  0  0  0  0  0  0  0  0  0  0  0
   11.1797    6.7591   21.3326 N   0  0  0  0  0  0  0  0  0  0  0  0
   11.7728    8.0337   23.7267 C   0  0  0  0  0  0  0  0  0  0  0  0
    7.1194    8.3344   24.6775 C   0  0  0  0  0  0  0  0  0  0  0  0
    8.4311    4.7963   22.0500 C   0  0  0  0  0  0  0  0  0  0  0  0
    8.7393   10.8706   24.1871 O   0  0  0  0  0  0  0  0  0  0  0  0
    9.3093    3.8166   21.6712 C   0  0  0  0  0  0  0  0  0  0  0  0
  1  5  1  0
  1 15  4  0
  1 22  4  0
  2 20  1  0
  2 24  1  0
  3  6  4  0
  3 27  4  0
  4 22  4  0
  4 26  4  0
  6  7  4  0
  6 13  1  0
  7 19  4  0
  8 18  1  0
  8 23  1  0
  8 28  2  0
  9 17  1  0
  9 24  1  0
 10 11  1  0
 10 24  1  0
 11 23  1  0
 12 14  4  0
 12 16  4  0
 14 19  4  0
 15 18  4  0
 16 20  4  0
 17 25  1  0
 18 26  4  0
 19 29  4  0
 20 29  4  0
 21 23  1  0
 21 25  1  0
 27 29  4  0
M  END
$$$$

 Created by Python create_sdf_string function

 29 32  0  0  0  0  0  0  0  0999 V2000
    5.4450    8.7154   22.6662 C   0  0  0  0  0  0  0  0  0  0  0  0
   10.9154    5.4574   20.5483 C   0  0  0  0  0  0  0  0  0  0  0  0
    7.2709    4.5089   22.7542 C   0  0  0  0  0  0  0  0  0  0  0  0
    5.9698    7.6329   24.6581 C   0  0  0  0  0  0  0  0  0  0  0  0
    4.5542    8.9057   21.7104 O   0  0  0  0  0  0  0  0  0  0  0  0
    6.9895    3.2085   23.0690 C   0  0  0  0  0  0  0  0  0  0  0  0
    7.8391    2.2253   22.7260 N   0  0  0  0  0  0  0  0  0  0  0  0
    8.6968    9.8373   23.6359 C   0  0  0  0  0  0  0  0  0  0  0  0
   12.5135    6.5957   21.8396 C   0  0  0  0  0  0  0  0  0  0  0  0
   10.9406    8.2330   21.1350 C   0  0  0  0  0  0  0  0  0  0  0  0
    9.6648    8.5956   21.7310 C   0  0  0  0  0  0  0  0  0  0  0  0
   10.8829    1.7153   20.9865 C   0  0  0  0  0  0  0  0  0  0  0  0
    5.7768    2.8533   23.7910 C   0  0  0  0  0  0  0  0  0  0  0  0
    9.7977    1.4791   21.6912 N   0  0  0  0  0  0  0  0  0  0  0  0
    6.5976    9.3401   22.6478 N   0  0  0  0  0  0  0  0  0  0  0  0
   11.2031    3.0042   20.6246 C   0  0  0  0  0  0  0  0  0  0  0  0
   12.8688    7.7370   22.7287 C   0  0  0  0  0  0  0  0  0  0  0  0
    7.4487    9.1361   23.6506 C   0  0  0  0  0  0  0  0  0  0  0  0
    8.9772    2.5025   22.0273 C   0  0  0  0  0  0  0  0  0  0  0  0
   10.4859    4.0901   20.9730 C   0  0  0  0  0  0  0  0  0  0  0  0
   11.0962    9.3293   23.5072 C   0  0  0  0  0  0  0  0  0  0  0  0
    5.1273    7.8529   23.6208 N   0  0  0  0  0  0  0  0  0  0  0  0
    9.7552    9.2338   23.0171 N   0  0  0  0  0  0  0  0  0  0  0  0
   11.1797    6.7591   21.3326 N   0  0  0  0  0  0  0  0  0  0  0  0
   11.7728    8.0337   23.7267 C   0  0  0  0  0  0  0  0  0  0  0  0
    7.1194    8.3344   24.6775 C   0  0  0  0  0  0  0  0  0  0  0  0
    8.4311    4.7963   22.0500 C   0  0  0  0  0  0  0  0  0  0  0  0
    8.7393   10.8706   24.1871 O   0  0  0  0  0  0  0  0  0  0  0  0
    9.3093    3.8166   21.6712 C   0  0  0  0  0  0  0  0  0  0  0  0
  1  5  1  0
  1 15  4  0
  1 22  4  0
  2 20  1  0
  2 24  1  0
  3  6  4  0
  3 27  4  0
  4 22  4  0
  4 26  4  0
  6  7  4  0
  6 13  1  0
  7 19  4  0
  8 18  1  0
  8 23  1  0
  8 28  2  0
  9 17  1  0
  9 24  1  0
 10 11  1  0
 10 24  1  0
 11 23  1  0
 12 14  4  0
 12 16  4  0
 14 19  4  0
 15 18  4  0
 16 20  4  0
 17 25  1  0
 18 26  4  0
 19 29  4  0
 20 29  4  0
 21 23  1  0
 21 25  1  0
 27 29  4  0
M  END
$$$$

 Created by Python create_sdf_string function

 29 32  0  0  0  0  0  0  0  0999 V2000
    5.4450    8.7154   22.6662 C   0  0  0  0  0  0  0  0  0  0  0  0
   10.9154    5.4574   20.5483 C   0  0  0  0  0  0  0  0  0  0  0  0
    7.2709    4.5089   22.7542 C   0  0  0  0  0  0  0  0  0  0  0  0
    5.9698    7.6329   24.6581 C   0  0  0  0  0  0  0  0  0  0  0  0
    4.5542    8.9057   21.7104 O   0  0  0  0  0  0  0  0  0  0  0  0
    6.9895    3.2085   23.0690 C   0  0  0  0  0  0  0  0  0  0  0  0
    7.8391    2.2253   22.7260 N   0  0  0  0  0  0  0  0  0  0  0  0
    8.6968    9.8373   23.6359 C   0  0  0  0  0  0  0  0  0  0  0  0
   12.5135    6.5957   21.8396 C   0  0  0  0  0  0  0  0  0  0  0  0
   10.9406    8.2330   21.1350 C   0  0  0  0  0  0  0  0  0  0  0  0
    9.6648    8.5956   21.7310 C   0  0  0  0  0  0  0  0  0  0  0  0
   10.8829    1.7153   20.9865 C   0  0  0  0  0  0  0  0  0  0  0  0
    5.7768    2.8533   23.7910 C   0  0  0  0  0  0  0  0  0  0  0  0
    9.7977    1.4791   21.6912 N   0  0  0  0  0  0  0  0  0  0  0  0
    6.5976    9.3401   22.6478 N   0  0  0  0  0  0  0  0  0  0  0  0
   11.2031    3.0042   20.6246 C   0  0  0  0  0  0  0  0  0  0  0  0
   12.8688    7.7370   22.7287 C   0  0  0  0  0  0  0  0  0  0  0  0
    7.4487    9.1361   23.6506 C   0  0  0  0  0  0  0  0  0  0  0  0
    8.9772    2.5025   22.0273 C   0  0  0  0  0  0  0  0  0  0  0  0
   10.4859    4.0901   20.9730 C   0  0  0  0  0  0  0  0  0  0  0  0
   11.0962    9.3293   23.5072 C   0  0  0  0  0  0  0  0  0  0  0  0
    5.1273    7.8529   23.6208 N   0  0  0  0  0  0  0  0  0  0  0  0
    9.7552    9.2338   23.0171 N   0  0  0  0  0  0  0  0  0  0  0  0
   11.1797    6.7591   21.3326 N   0  0  0  0  0  0  0  0  0  0  0  0
   11.7728    8.0337   23.7267 C   0  0  0  0  0  0  0  0  0  0  0  0
    7.1194    8.3344   24.6775 C   0  0  0  0  0  0  0  0  0  0  0  0
    8.4311    4.7963   22.0500 C   0  0  0  0  0  0  0  0  0  0  0  0
    8.7393   10.8706   24.1871 O   0  0  0  0  0  0  0  0  0  0  0  0
    9.3093    3.8166   21.6712 C   0  0  0  0  0  0  0  0  0  0  0  0
  1  5  1  0
  1 15  4  0
  1 22  4  0
  2 20  1  0
  2 24  1  0
  3  6  4  0
  3 27  4  0
  4 22  4  0
  4 26  4  0
  6  7  4  0
  6 13  1  0
  7 19  4  0
  8 18  1  0
  8 23  1  0
  8 28  2  0
  9 17  1  0
  9 24  1  0
 10 11  1  0
 10 24  1  0
 11 23  1  0
 12 14  4  0
 12 16  4  0
 14 19  4  0
 15 18  4  0
 16 20  4  0
 17 25  1  0
 18 26  4  0
 19 29  4  0
 20 29  4  0
 21 23  1  0
 21 25  1  0
 27 29  4  0
M  END
$$$$

 Created by Python create_sdf_string function

 29 32  0  0  0  0  0  0  0  0999 V2000
    5.4450    8.7154   22.6662 C   0  0  0  0  0  0  0  0  0  0  0  0
   10.9154    5.4574   20.5483 C   0  0  0  0  0  0  0  0  0  0  0  0
    7.2709    4.5089   22.7542 C   0  0  0  0  0  0  0  0  0  0  0  0
    5.9698    7.6329   24.6581 C   0  0  0  0  0  0  0  0  0  0  0  0
    4.5542    8.9057   21.7104 O   0  0  0  0  0  0  0  0  0  0  0  0
    6.9895    3.2085   23.0690 C   0  0  0  0  0  0  0  0  0  0  0  0
    7.8391    2.2253   22.7260 N   0  0  0  0  0  0  0  0  0  0  0  0
    8.6968    9.8373   23.6359 C   0  0  0  0  0  0  0  0  0  0  0  0
   12.5135    6.5957   21.8396 C   0  0  0  0  0  0  0  0  0  0  0  0
   10.9406    8.2330   21.1350 C   0  0  0  0  0  0  0  0  0  0  0  0
    9.6648    8.5956   21.7310 C   0  0  0  0  0  0  0  0  0  0  0  0
   10.8829    1.7153   20.9865 C   0  0  0  0  0  0  0  0  0  0  0  0
    5.7768    2.8533   23.7910 C   0  0  0  0  0  0  0  0  0  0  0  0
    9.7977    1.4791   21.6912 N   0  0  0  0  0  0  0  0  0  0  0  0
    6.5976    9.3401   22.6478 N   0  0  0  0  0  0  0  0  0  0  0  0
   11.2031    3.0042   20.6246 C   0  0  0  0  0  0  0  0  0  0  0  0
   12.8688    7.7370   22.7287 C   0  0  0  0  0  0  0  0  0  0  0  0
    7.4487    9.1361   23.6506 C   0  0  0  0  0  0  0  0  0  0  0  0
    8.9772    2.5025   22.0273 C   0  0  0  0  0  0  0  0  0  0  0  0
   10.4859    4.0901   20.9730 C   0  0  0  0  0  0  0  0  0  0  0  0
   11.0962    9.3293   23.5072 C   0  0  0  0  0  0  0  0  0  0  0  0
    5.1273    7.8529   23.6208 N   0  0  0  0  0  0  0  0  0  0  0  0
    9.7552    9.2338   23.0171 N   0  0  0  0  0  0  0  0  0  0  0  0
   11.1797    6.7591   21.3326 N   0  0  0  0  0  0  0  0  0  0  0  0
   11.7728    8.0337   23.7267 C   0  0  0  0  0  0  0  0  0  0  0  0
    7.1194    8.3344   24.6775 C   0  0  0  0  0  0  0  0  0  0  0  0
    8.4311    4.7963   22.0500 C   0  0  0  0  0  0  0  0  0  0  0  0
    8.7393   10.8706   24.1871 O   0  0  0  0  0  0  0  0  0  0  0  0
    9.3093    3.8166   21.6712 C   0  0  0  0  0  0  0  0  0  0  0  0
  1  5  1  0
  1 15  4  0
  1 22  4  0
  2 20  1  0
  2 24  1  0
  3  6  4  0
  3 27  4  0
  4 22  4  0
  4 26  4  0
  6  7  4  0
  6 13  1  0
  7 19  4  0
  8 18  1  0
  8 23  1  0
  8 28  2  0
  9 17  1  0
  9 24  1  0
 10 11  1  0
 10 24  1  0
 11 23  1  0
 12 14  4  0
 12 16  4  0
 14 19  4  0
 15 18  4  0
 16 20  4  0
 17 25  1  0
 18 26  4  0
 19 29  4  0
 20 29  4  0
 21 23  1  0
 21 25  1  0
 27 29  4  0
M  END
$$$$

 Created by Python create_sdf_string function

 29 32  0  0  0  0  0  0  0  0999 V2000
    5.4450    8.7154   22.6662 C   0  0  0  0  0  0  0  0  0  0  0  0
   10.9154    5.4574   20.5483 C   0  0  0  0  0  0  0  0  0  0  0  0
    7.2709    4.5089   22.7542 C   0  0  0  0  0  0  0  0  0  0  0  0
    5.9698    7.6329   24.6581 C   0  0  0  0  0  0  0  0  0  0  0  0
    4.5542    8.9057   21.7104 O   0  0  0  0  0  0  0  0  0  0  0  0
    6.9895    3.2085   23.0690 C   0  0  0  0  0  0  0  0  0  0  0  0
    7.8391    2.2253   22.7260 N   0  0  0  0  0  0  0  0  0  0  0  0
    8.6968    9.8373   23.6359 C   0  0  0  0  0  0  0  0  0  0  0  0
   12.5135    6.5957   21.8396 C   0  0  0  0  0  0  0  0  0  0  0  0
   10.9406    8.2330   21.1350 C   0  0  0  0  0  0  0  0  0  0  0  0
    9.6648    8.5956   21.7310 C   0  0  0  0  0  0  0  0  0  0  0  0
   10.8829    1.7153   20.9865 C   0  0  0  0  0  0  0  0  0  0  0  0
    5.7768    2.8533   23.7910 C   0  0  0  0  0  0  0  0  0  0  0  0
    9.7977    1.4791   21.6912 N   0  0  0  0  0  0  0  0  0  0  0  0
    6.5976    9.3401   22.6478 N   0  0  0  0  0  0  0  0  0  0  0  0
   11.2031    3.0042   20.6246 C   0  0  0  0  0  0  0  0  0  0  0  0
   12.8688    7.7370   22.7287 C   0  0  0  0  0  0  0  0  0  0  0  0
    7.4487    9.1361   23.6506 C   0  0  0  0  0  0  0  0  0  0  0  0
    8.9772    2.5025   22.0273 C   0  0  0  0  0  0  0  0  0  0  0  0
   10.4859    4.0901   20.9730 C   0  0  0  0  0  0  0  0  0  0  0  0
   11.0962    9.3293   23.5072 C   0  0  0  0  0  0  0  0  0  0  0  0
    5.1273    7.8529   23.6208 N   0  0  0  0  0  0  0  0  0  0  0  0
    9.7552    9.2338   23.0171 N   0  0  0  0  0  0  0  0  0  0  0  0
   11.1797    6.7591   21.3326 N   0  0  0  0  0  0  0  0  0  0  0  0
   11.7728    8.0337   23.7267 C   0  0  0  0  0  0  0  0  0  0  0  0
    7.1194    8.3344   24.6775 C   0  0  0  0  0  0  0  0  0  0  0  0
    8.4311    4.7963   22.0500 C   0  0  0  0  0  0  0  0  0  0  0  0
    8.7393   10.8706   24.1871 O   0  0  0  0  0  0  0  0  0  0  0  0
    9.3093    3.8166   21.6712 C   0  0  0  0  0  0  0  0  0  0  0  0
  1  5  1  0
  1 15  4  0
  1 22  4  0
  2 20  1  0
  2 24  1  0
  3  6  4  0
  3 27  4  0
  4 22  4  0
  4 26  4  0
  6  7  4  0
  6 13  1  0
  7 19  4  0
  8 18  1  0
  8 23  1  0
  8 28  2  0
  9 17  1  0
  9 24  1  0
 10 11  1  0
 10 24  1  0
 11 23  1  0
 12 14  4  0
 12 16  4  0
 14 19  4  0
 15 18  4  0
 16 20  4  0
 17 25  1  0
 18 26  4  0
 19 29  4  0
 20 29  4  0
 21 23  1  0
 21 25  1  0
 27 29  4  0
M  END
$$$$

 Created by Python create_sdf_string function

 29 32  0  0  0  0  0  0  0  0999 V2000
    5.4450    8.7154   22.6662 C   0  0  0  0  0  0  0  0  0  0  0  0
   10.9154    5.4574   20.5483 C   0  0  0  0  0  0  0  0  0  0  0  0
    7.2709    4.5089   22.7542 C   0  0  0  0  0  0  0  0  0  0  0  0
    5.9698    7.6329   24.6581 C   0  0  0  0  0  0  0  0  0  0  0  0
    4.5542    8.9057   21.7104 O   0  0  0  0  0  0  0  0  0  0  0  0
    6.9895    3.2085   23.0690 C   0  0  0  0  0  0  0  0  0  0  0  0
    7.8391    2.2253   22.7260 N   0  0  0  0  0  0  0  0  0  0  0  0
    8.6968    9.8373   23.6359 C   0  0  0  0  0  0  0  0  0  0  0  0
   12.5135    6.5957   21.8396 C   0  0  0  0  0  0  0  0  0  0  0  0
   10.9406    8.2330   21.1350 C   0  0  0  0  0  0  0  0  0  0  0  0
    9.6648    8.5956   21.7310 C   0  0  0  0  0  0  0  0  0  0  0  0
   10.8829    1.7153   20.9865 C   0  0  0  0  0  0  0  0  0  0  0  0
    5.7768    2.8533   23.7910 C   0  0  0  0  0  0  0  0  0  0  0  0
    9.7977    1.4791   21.6912 N   0  0  0  0  0  0  0  0  0  0  0  0
    6.5976    9.3401   22.6478 N   0  0  0  0  0  0  0  0  0  0  0  0
   11.2031    3.0042   20.6246 C   0  0  0  0  0  0  0  0  0  0  0  0
   12.8688    7.7370   22.7287 C   0  0  0  0  0  0  0  0  0  0  0  0
    7.4487    9.1361   23.6506 C   0  0  0  0  0  0  0  0  0  0  0  0
    8.9772    2.5025   22.0273 C   0  0  0  0  0  0  0  0  0  0  0  0
   10.4859    4.0901   20.9730 C   0  0  0  0  0  0  0  0  0  0  0  0
   11.0962    9.3293   23.5072 C   0  0  0  0  0  0  0  0  0  0  0  0
    5.1273    7.8529   23.6208 N   0  0  0  0  0  0  0  0  0  0  0  0
    9.7552    9.2338   23.0171 N   0  0  0  0  0  0  0  0  0  0  0  0
   11.1797    6.7591   21.3326 N   0  0  0  0  0  0  0  0  0  0  0  0
   11.7728    8.0337   23.7267 C   0  0  0  0  0  0  0  0  0  0  0  0
    7.1194    8.3344   24.6775 C   0  0  0  0  0  0  0  0  0  0  0  0
    8.4311    4.7963   22.0500 C   0  0  0  0  0  0  0  0  0  0  0  0
    8.7393   10.8706   24.1871 O   0  0  0  0  0  0  0  0  0  0  0  0
    9.3093    3.8166   21.6712 C   0  0  0  0  0  0  0  0  0  0  0  0
  1  5  1  0
  1 15  4  0
  1 22  4  0
  2 20  1  0
  2 24  1  0
  3  6  4  0
  3 27  4  0
  4 22  4  0
  4 26  4  0
  6  7  4  0
  6 13  1  0
  7 19  4  0
  8 18  1  0
  8 23  1  0
  8 28  2  0
  9 17  1  0
  9 24  1  0
 10 11  1  0
 10 24  1  0
 11 23  1  0
 12 14  4  0
 12 16  4  0
 14 19  4  0
 15 18  4  0
 16 20  4  0
 17 25  1  0
 18 26  4  0
 19 29  4  0
 20 29  4  0
 21 23  1  0
 21 25  1  0
 27 29  4  0
M  END
$$$$

 Created by Python create_sdf_string function

 29 32  0  0  0  0  0  0  0  0999 V2000
    5.4450    8.7154   22.6662 C   0  0  0  0  0  0  0  0  0  0  0  0
   10.9154    5.4574   20.5483 C   0  0  0  0  0  0  0  0  0  0  0  0
    7.2709    4.5089   22.7542 C   0  0  0  0  0  0  0  0  0  0  0  0
    5.9698    7.6329   24.6581 C   0  0  0  0  0  0  0  0  0  0  0  0
    4.5542    8.9057   21.7104 O   0  0  0  0  0  0  0  0  0  0  0  0
    6.9895    3.2085   23.0690 C   0  0  0  0  0  0  0  0  0  0  0  0
    7.8391    2.2253   22.7260 N   0  0  0  0  0  0  0  0  0  0  0  0
    8.6968    9.8373   23.6359 C   0  0  0  0  0  0  0  0  0  0  0  0
   12.5135    6.5957   21.8396 C   0  0  0  0  0  0  0  0  0  0  0  0
   10.9406    8.2330   21.1350 C   0  0  0  0  0  0  0  0  0  0  0  0
    9.6648    8.5956   21.7310 C   0  0  0  0  0  0  0  0  0  0  0  0
   10.8829    1.7153   20.9865 C   0  0  0  0  0  0  0  0  0  0  0  0
    5.7768    2.8533   23.7910 C   0  0  0  0  0  0  0  0  0  0  0  0
    9.7977    1.4791   21.6912 N   0  0  0  0  0  0  0  0  0  0  0  0
    6.5976    9.3401   22.6478 N   0  0  0  0  0  0  0  0  0  0  0  0
   11.2031    3.0042   20.6246 C   0  0  0  0  0  0  0  0  0  0  0  0
   12.8688    7.7370   22.7287 C   0  0  0  0  0  0  0  0  0  0  0  0
    7.4487    9.1361   23.6506 C   0  0  0  0  0  0  0  0  0  0  0  0
    8.9772    2.5025   22.0273 C   0  0  0  0  0  0  0  0  0  0  0  0
   10.4859    4.0901   20.9730 C   0  0  0  0  0  0  0  0  0  0  0  0
   11.0962    9.3293   23.5072 C   0  0  0  0  0  0  0  0  0  0  0  0
    5.1273    7.8529   23.6208 N   0  0  0  0  0  0  0  0  0  0  0  0
    9.7552    9.2338   23.0171 N   0  0  0  0  0  0  0  0  0  0  0  0
   11.1797    6.7591   21.3326 N   0  0  0  0  0  0  0  0  0  0  0  0
   11.7728    8.0337   23.7267 C   0  0  0  0  0  0  0  0  0  0  0  0
    7.1194    8.3344   24.6775 C   0  0  0  0  0  0  0  0  0  0  0  0
    8.4311    4.7963   22.0500 C   0  0  0  0  0  0  0  0  0  0  0  0
    8.7393   10.8706   24.1871 O   0  0  0  0  0  0  0  0  0  0  0  0
    9.3093    3.8166   21.6712 C   0  0  0  0  0  0  0  0  0  0  0  0
  1  5  1  0
  1 15  4  0
  1 22  4  0
  2 20  1  0
  2 24  1  0
  3  6  4  0
  3 27  4  0
  4 22  4  0
  4 26  4  0
  6  7  4  0
  6 13  1  0
  7 19  4  0
  8 18  1  0
  8 23  1  0
  8 28  2  0
  9 17  1  0
  9 24  1  0
 10 11  1  0
 10 24  1  0
 11 23  1  0
 12 14  4  0
 12 16  4  0
 14 19  4  0
 15 18  4  0
 16 20  4  0
 17 25  1  0
 18 26  4  0
 19 29  4  0
 20 29  4  0
 21 23  1  0
 21 25  1  0
 27 29  4  0
M  END
$$$$

 Created by Python create_sdf_string function

 29 32  0  0  0  0  0  0  0  0999 V2000
    5.4450    8.7154   22.6662 C   0  0  0  0  0  0  0  0  0  0  0  0
   10.9154    5.4574   20.5483 C   0  0  0  0  0  0  0  0  0  0  0  0
    7.2709    4.5089   22.7542 C   0  0  0  0  0  0  0  0  0  0  0  0
    5.9698    7.6329   24.6581 C   0  0  0  0  0  0  0  0  0  0  0  0
    4.5542    8.9057   21.7104 O   0  0  0  0  0  0  0  0  0  0  0  0
    6.9895    3.2085   23.0690 C   0  0  0  0  0  0  0  0  0  0  0  0
    7.8391    2.2253   22.7260 N   0  0  0  0  0  0  0  0  0  0  0  0
    8.6968    9.8373   23.6359 C   0  0  0  0  0  0  0  0  0  0  0  0
   12.5135    6.5957   21.8396 C   0  0  0  0  0  0  0  0  0  0  0  0
   10.9406    8.2330   21.1350 C   0  0  0  0  0  0  0  0  0  0  0  0
    9.6648    8.5956   21.7310 C   0  0  0  0  0  0  0  0  0  0  0  0
   10.8829    1.7153   20.9865 C   0  0  0  0  0  0  0  0  0  0  0  0
    5.7768    2.8533   23.7910 C   0  0  0  0  0  0  0  0  0  0  0  0
    9.7977    1.4791   21.6912 N   0  0  0  0  0  0  0  0  0  0  0  0
    6.5976    9.3401   22.6478 N   0  0  0  0  0  0  0  0  0  0  0  0
   11.2031    3.0042   20.6246 C   0  0  0  0  0  0  0  0  0  0  0  0
   12.8688    7.7370   22.7287 C   0  0  0  0  0  0  0  0  0  0  0  0
    7.4487    9.1361   23.6506 C   0  0  0  0  0  0  0  0  0  0  0  0
    8.9772    2.5025   22.0273 C   0  0  0  0  0  0  0  0  0  0  0  0
   10.4859    4.0901   20.9730 C   0  0  0  0  0  0  0  0  0  0  0  0
   11.0962    9.3293   23.5072 C   0  0  0  0  0  0  0  0  0  0  0  0
    5.1273    7.8529   23.6208 N   0  0  0  0  0  0  0  0  0  0  0  0
    9.7552    9.2338   23.0171 N   0  0  0  0  0  0  0  0  0  0  0  0
   11.1797    6.7591   21.3326 N   0  0  0  0  0  0  0  0  0  0  0  0
   11.7728    8.0337   23.7267 C   0  0  0  0  0  0  0  0  0  0  0  0
    7.1194    8.3344   24.6775 C   0  0  0  0  0  0  0  0  0  0  0  0
    8.4311    4.7963   22.0500 C   0  0  0  0  0  0  0  0  0  0  0  0
    8.7393   10.8706   24.1871 O   0  0  0  0  0  0  0  0  0  0  0  0
    9.3093    3.8166   21.6712 C   0  0  0  0  0  0  0  0  0  0  0  0
  1  5  1  0
  1 15  4  0
  1 22  4  0
  2 20  1  0
  2 24  1  0
  3  6  4  0
  3 27  4  0
  4 22  4  0
  4 26  4  0
  6  7  4  0
  6 13  1  0
  7 19  4  0
  8 18  1  0
  8 23  1  0
  8 28  2  0
  9 17  1  0
  9 24  1  0
 10 11  1  0
 10 24  1  0
 11 23  1  0
 12 14  4  0
 12 16  4  0
 14 19  4  0
 15 18  4  0
 16 20  4  0
 17 25  1  0
 18 26  4  0
 19 29  4  0
 20 29  4  0
 21 23  1  0
 21 25  1  0
 27 29  4  0
M  END
$$$$

 Created by Python create_sdf_string function

 29 32  0  0  0  0  0  0  0  0999 V2000
    5.4450    8.7154   22.6662 C   0  0  0  0  0  0  0  0  0  0  0  0
   10.9154    5.4574   20.5483 C   0  0  0  0  0  0  0  0  0  0  0  0
    7.2709    4.5089   22.7542 C   0  0  0  0  0  0  0  0  0  0  0  0
    5.9698    7.6329   24.6581 C   0  0  0  0  0  0  0  0  0  0  0  0
    4.5542    8.9057   21.7104 O   0  0  0  0  0  0  0  0  0  0  0  0
    6.9895    3.2085   23.0690 C   0  0  0  0  0  0  0  0  0  0  0  0
    7.8391    2.2253   22.7260 N   0  0  0  0  0  0  0  0  0  0  0  0
    8.6968    9.8373   23.6359 C   0  0  0  0  0  0  0  0  0  0  0  0
   12.5135    6.5957   21.8396 C   0  0  0  0  0  0  0  0  0  0  0  0
   10.9406    8.2330   21.1350 C   0  0  0  0  0  0  0  0  0  0  0  0
    9.6648    8.5956   21.7310 C   0  0  0  0  0  0  0  0  0  0  0  0
   10.8829    1.7153   20.9865 C   0  0  0  0  0  0  0  0  0  0  0  0
    5.7768    2.8533   23.7910 C   0  0  0  0  0  0  0  0  0  0  0  0
    9.7977    1.4791   21.6912 N   0  0  0  0  0  0  0  0  0  0  0  0
    6.5976    9.3401   22.6478 N   0  0  0  0  0  0  0  0  0  0  0  0
   11.2031    3.0042   20.6246 C   0  0  0  0  0  0  0  0  0  0  0  0
   12.8688    7.7370   22.7287 C   0  0  0  0  0  0  0  0  0  0  0  0
    7.4487    9.1361   23.6506 C   0  0  0  0  0  0  0  0  0  0  0  0
    8.9772    2.5025   22.0273 C   0  0  0  0  0  0  0  0  0  0  0  0
   10.4859    4.0901   20.9730 C   0  0  0  0  0  0  0  0  0  0  0  0
   11.0962    9.3293   23.5072 C   0  0  0  0  0  0  0  0  0  0  0  0
    5.1273    7.8529   23.6208 N   0  0  0  0  0  0  0  0  0  0  0  0
    9.7552    9.2338   23.0171 N   0  0  0  0  0  0  0  0  0  0  0  0
   11.1797    6.7591   21.3326 N   0  0  0  0  0  0  0  0  0  0  0  0
   11.7728    8.0337   23.7267 C   0  0  0  0  0  0  0  0  0  0  0  0
    7.1194    8.3344   24.6775 C   0  0  0  0  0  0  0  0  0  0  0  0
    8.4311    4.7963   22.0500 C   0  0  0  0  0  0  0  0  0  0  0  0
    8.7393   10.8706   24.1871 O   0  0  0  0  0  0  0  0  0  0  0  0
    9.3093    3.8166   21.6712 C   0  0  0  0  0  0  0  0  0  0  0  0
  1  5  1  0
  1 15  4  0
  1 22  4  0
  2 20  1  0
  2 24  1  0
  3  6  4  0
  3 27  4  0
  4 22  4  0
  4 26  4  0
  6  7  4  0
  6 13  1  0
  7 19  4  0
  8 18  1  0
  8 23  1  0
  8 28  2  0
  9 17  1  0
  9 24  1  0
 10 11  1  0
 10 24  1  0
 11 23  1  0
 12 14  4  0
 12 16  4  0
 14 19  4  0
 15 18  4  0
 16 20  4  0
 17 25  1  0
 18 26  4  0
 19 29  4  0
 20 29  4  0
 21 23  1  0
 21 25  1  0
 27 29  4  0
M  END
$$$$

 Created by Python create_sdf_string function

 29 32  0  0  0  0  0  0  0  0999 V2000
    5.4450    8.7154   22.6662 C   0  0  0  0  0  0  0  0  0  0  0  0
   10.9154    5.4574   20.5483 C   0  0  0  0  0  0  0  0  0  0  0  0
    7.2709    4.5089   22.7542 C   0  0  0  0  0  0  0  0  0  0  0  0
    5.9698    7.6329   24.6581 C   0  0  0  0  0  0  0  0  0  0  0  0
    4.5542    8.9057   21.7104 O   0  0  0  0  0  0  0  0  0  0  0  0
    6.9895    3.2085   23.0690 C   0  0  0  0  0  0  0  0  0  0  0  0
    7.8391    2.2253   22.7260 N   0  0  0  0  0  0  0  0  0  0  0  0
    8.6968    9.8373   23.6359 C   0  0  0  0  0  0  0  0  0  0  0  0
   12.5135    6.5957   21.8396 C   0  0  0  0  0  0  0  0  0  0  0  0
   10.9406    8.2330   21.1350 C   0  0  0  0  0  0  0  0  0  0  0  0
    9.6648    8.5956   21.7310 C   0  0  0  0  0  0  0  0  0  0  0  0
   10.8829    1.7153   20.9865 C   0  0  0  0  0  0  0  0  0  0  0  0
    5.7768    2.8533   23.7910 C   0  0  0  0  0  0  0  0  0  0  0  0
    9.7977    1.4791   21.6912 N   0  0  0  0  0  0  0  0  0  0  0  0
    6.5976    9.3401   22.6478 N   0  0  0  0  0  0  0  0  0  0  0  0
   11.2031    3.0042   20.6246 C   0  0  0  0  0  0  0  0  0  0  0  0
   12.8688    7.7370   22.7287 C   0  0  0  0  0  0  0  0  0  0  0  0
    7.4487    9.1361   23.6506 C   0  0  0  0  0  0  0  0  0  0  0  0
    8.9772    2.5025   22.0273 C   0  0  0  0  0  0  0  0  0  0  0  0
   10.4859    4.0901   20.9730 C   0  0  0  0  0  0  0  0  0  0  0  0
   11.0962    9.3293   23.5072 C   0  0  0  0  0  0  0  0  0  0  0  0
    5.1273    7.8529   23.6208 N   0  0  0  0  0  0  0  0  0  0  0  0
    9.7552    9.2338   23.0171 N   0  0  0  0  0  0  0  0  0  0  0  0
   11.1797    6.7591   21.3326 N   0  0  0  0  0  0  0  0  0  0  0  0
   11.7728    8.0337   23.7267 C   0  0  0  0  0  0  0  0  0  0  0  0
    7.1194    8.3344   24.6775 C   0  0  0  0  0  0  0  0  0  0  0  0
    8.4311    4.7963   22.0500 C   0  0  0  0  0  0  0  0  0  0  0  0
    8.7393   10.8706   24.1871 O   0  0  0  0  0  0  0  0  0  0  0  0
    9.3093    3.8166   21.6712 C   0  0  0  0  0  0  0  0  0  0  0  0
  1  5  1  0
  1 15  4  0
  1 22  4  0
  2 20  1  0
  2 24  1  0
  3  6  4  0
  3 27  4  0
  4 22  4  0
  4 26  4  0
  6  7  4  0
  6 13  1  0
  7 19  4  0
  8 18  1  0
  8 23  1  0
  8 28  2  0
  9 17  1  0
  9 24  1  0
 10 11  1  0
 10 24  1  0
 11 23  1  0
 12 14  4  0
 12 16  4  0
 14 19  4  0
 15 18  4  0
 16 20  4  0
 17 25  1  0
 18 26  4  0
 19 29  4  0
 20 29  4  0
 21 23  1  0
 21 25  1  0
 27 29  4  0
M  END
$$$$

 Created by Python create_sdf_string function

 29 32  0  0  0  0  0  0  0  0999 V2000
    5.4450    8.7154   22.6662 C   0  0  0  0  0  0  0  0  0  0  0  0
   10.9154    5.4574   20.5483 C   0  0  0  0  0  0  0  0  0  0  0  0
    7.2709    4.5089   22.7542 C   0  0  0  0  0  0  0  0  0  0  0  0
    5.9698    7.6329   24.6581 C   0  0  0  0  0  0  0  0  0  0  0  0
    4.5542    8.9057   21.7104 O   0  0  0  0  0  0  0  0  0  0  0  0
    6.9895    3.2085   23.0690 C   0  0  0  0  0  0  0  0  0  0  0  0
    7.8391    2.2253   22.7260 N   0  0  0  0  0  0  0  0  0  0  0  0
    8.6968    9.8373   23.6359 C   0  0  0  0  0  0  0  0  0  0  0  0
   12.5135    6.5957   21.8396 C   0  0  0  0  0  0  0  0  0  0  0  0
   10.9406    8.2330   21.1350 C   0  0  0  0  0  0  0  0  0  0  0  0
    9.6648    8.5956   21.7310 C   0  0  0  0  0  0  0  0  0  0  0  0
   10.8829    1.7153   20.9865 C   0  0  0  0  0  0  0  0  0  0  0  0
    5.7768    2.8533   23.7910 C   0  0  0  0  0  0  0  0  0  0  0  0
    9.7977    1.4791   21.6912 N   0  0  0  0  0  0  0  0  0  0  0  0
    6.5976    9.3401   22.6478 N   0  0  0  0  0  0  0  0  0  0  0  0
   11.2031    3.0042   20.6246 C   0  0  0  0  0  0  0  0  0  0  0  0
   12.8688    7.7370   22.7287 C   0  0  0  0  0  0  0  0  0  0  0  0
    7.4487    9.1361   23.6506 C   0  0  0  0  0  0  0  0  0  0  0  0
    8.9772    2.5025   22.0273 C   0  0  0  0  0  0  0  0  0  0  0  0
   10.4859    4.0901   20.9730 C   0  0  0  0  0  0  0  0  0  0  0  0
   11.0962    9.3293   23.5072 C   0  0  0  0  0  0  0  0  0  0  0  0
    5.1273    7.8529   23.6208 N   0  0  0  0  0  0  0  0  0  0  0  0
    9.7552    9.2338   23.0171 N   0  0  0  0  0  0  0  0  0  0  0  0
   11.1797    6.7591   21.3326 N   0  0  0  0  0  0  0  0  0  0  0  0
   11.7728    8.0337   23.7267 C   0  0  0  0  0  0  0  0  0  0  0  0
    7.1194    8.3344   24.6775 C   0  0  0  0  0  0  0  0  0  0  0  0
    8.4311    4.7963   22.0500 C   0  0  0  0  0  0  0  0  0  0  0  0
    8.7393   10.8706   24.1871 O   0  0  0  0  0  0  0  0  0  0  0  0
    9.3093    3.8166   21.6712 C   0  0  0  0  0  0  0  0  0  0  0  0
  1  5  1  0
  1 15  4  0
  1 22  4  0
  2 20  1  0
  2 24  1  0
  3  6  4  0
  3 27  4  0
  4 22  4  0
  4 26  4  0
  6  7  4  0
  6 13  1  0
  7 19  4  0
  8 18  1  0
  8 23  1  0
  8 28  2  0
  9 17  1  0
  9 24  1  0
 10 11  1  0
 10 24  1  0
 11 23  1  0
 12 14  4  0
 12 16  4  0
 14 19  4  0
 15 18  4  0
 16 20  4  0
 17 25  1  0
 18 26  4  0
 19 29  4  0
 20 29  4  0
 21 23  1  0
 21 25  1  0
 27 29  4  0
M  END
$$$$

 Created by Python create_sdf_string function

 29 32  0  0  0  0  0  0  0  0999 V2000
    5.4450    8.7154   22.6662 C   0  0  0  0  0  0  0  0  0  0  0  0
   10.9154    5.4574   20.5483 C   0  0  0  0  0  0  0  0  0  0  0  0
    7.2709    4.5089   22.7542 C   0  0  0  0  0  0  0  0  0  0  0  0
    5.9698    7.6329   24.6581 C   0  0  0  0  0  0  0  0  0  0  0  0
    4.5542    8.9057   21.7104 O   0  0  0  0  0  0  0  0  0  0  0  0
    6.9895    3.2085   23.0690 C   0  0  0  0  0  0  0  0  0  0  0  0
    7.8391    2.2253   22.7260 N   0  0  0  0  0  0  0  0  0  0  0  0
    8.6968    9.8373   23.6359 C   0  0  0  0  0  0  0  0  0  0  0  0
   12.5135    6.5957   21.8396 C   0  0  0  0  0  0  0  0  0  0  0  0
   10.9406    8.2330   21.1350 C   0  0  0  0  0  0  0  0  0  0  0  0
    9.6648    8.5956   21.7310 C   0  0  0  0  0  0  0  0  0  0  0  0
   10.8829    1.7153   20.9865 C   0  0  0  0  0  0  0  0  0  0  0  0
    5.7768    2.8533   23.7910 C   0  0  0  0  0  0  0  0  0  0  0  0
    9.7977    1.4791   21.6912 N   0  0  0  0  0  0  0  0  0  0  0  0
    6.5976    9.3401   22.6478 N   0  0  0  0  0  0  0  0  0  0  0  0
   11.2031    3.0042   20.6246 C   0  0  0  0  0  0  0  0  0  0  0  0
   12.8688    7.7370   22.7287 C   0  0  0  0  0  0  0  0  0  0  0  0
    7.4487    9.1361   23.6506 C   0  0  0  0  0  0  0  0  0  0  0  0
    8.9772    2.5025   22.0273 C   0  0  0  0  0  0  0  0  0  0  0  0
   10.4859    4.0901   20.9730 C   0  0  0  0  0  0  0  0  0  0  0  0
   11.0962    9.3293   23.5072 C   0  0  0  0  0  0  0  0  0  0  0  0
    5.1273    7.8529   23.6208 N   0  0  0  0  0  0  0  0  0  0  0  0
    9.7552    9.2338   23.0171 N   0  0  0  0  0  0  0  0  0  0  0  0
   11.1797    6.7591   21.3326 N   0  0  0  0  0  0  0  0  0  0  0  0
   11.7728    8.0337   23.7267 C   0  0  0  0  0  0  0  0  0  0  0  0
    7.1194    8.3344   24.6775 C   0  0  0  0  0  0  0  0  0  0  0  0
    8.4311    4.7963   22.0500 C   0  0  0  0  0  0  0  0  0  0  0  0
    8.7393   10.8706   24.1871 O   0  0  0  0  0  0  0  0  0  0  0  0
    9.3093    3.8166   21.6712 C   0  0  0  0  0  0  0  0  0  0  0  0
  1  5  1  0
  1 15  4  0
  1 22  4  0
  2 20  1  0
  2 24  1  0
  3  6  4  0
  3 27  4  0
  4 22  4  0
  4 26  4  0
  6  7  4  0
  6 13  1  0
  7 19  4  0
  8 18  1  0
  8 23  1  0
  8 28  2  0
  9 17  1  0
  9 24  1  0
 10 11  1  0
 10 24  1  0
 11 23  1  0
 12 14  4  0
 12 16  4  0
 14 19  4  0
 15 18  4  0
 16 20  4  0
 17 25  1  0
 18 26  4  0
 19 29  4  0
 20 29  4  0
 21 23  1  0
 21 25  1  0
 27 29  4  0
M  END
$$$$

 Created by Python create_sdf_string function

 29 32  0  0  0  0  0  0  0  0999 V2000
    5.4450    8.7154   22.6662 C   0  0  0  0  0  0  0  0  0  0  0  0
   10.9154    5.4574   20.5483 C   0  0  0  0  0  0  0  0  0  0  0  0
    7.2709    4.5089   22.7542 C   0  0  0  0  0  0  0  0  0  0  0  0
    5.9698    7.6329   24.6581 C   0  0  0  0  0  0  0  0  0  0  0  0
    4.5542    8.9057   21.7104 O   0  0  0  0  0  0  0  0  0  0  0  0
    6.9895    3.2085   23.0690 C   0  0  0  0  0  0  0  0  0  0  0  0
    7.8391    2.2253   22.7260 N   0  0  0  0  0  0  0  0  0  0  0  0
    8.6968    9.8373   23.6359 C   0  0  0  0  0  0  0  0  0  0  0  0
   12.5135    6.5957   21.8396 C   0  0  0  0  0  0  0  0  0  0  0  0
   10.9406    8.2330   21.1350 C   0  0  0  0  0  0  0  0  0  0  0  0
    9.6648    8.5956   21.7310 C   0  0  0  0  0  0  0  0  0  0  0  0
   10.8829    1.7153   20.9865 C   0  0  0  0  0  0  0  0  0  0  0  0
    5.7768    2.8533   23.7910 C   0  0  0  0  0  0  0  0  0  0  0  0
    9.7977    1.4791   21.6912 N   0  0  0  0  0  0  0  0  0  0  0  0
    6.5976    9.3401   22.6478 N   0  0  0  0  0  0  0  0  0  0  0  0
   11.2031    3.0042   20.6246 C   0  0  0  0  0  0  0  0  0  0  0  0
   12.8688    7.7370   22.7287 C   0  0  0  0  0  0  0  0  0  0  0  0
    7.4487    9.1361   23.6506 C   0  0  0  0  0  0  0  0  0  0  0  0
    8.9772    2.5025   22.0273 C   0  0  0  0  0  0  0  0  0  0  0  0
   10.4859    4.0901   20.9730 C   0  0  0  0  0  0  0  0  0  0  0  0
   11.0962    9.3293   23.5072 C   0  0  0  0  0  0  0  0  0  0  0  0
    5.1273    7.8529   23.6208 N   0  0  0  0  0  0  0  0  0  0  0  0
    9.7552    9.2338   23.0171 N   0  0  0  0  0  0  0  0  0  0  0  0
   11.1797    6.7591   21.3326 N   0  0  0  0  0  0  0  0  0  0  0  0
   11.7728    8.0337   23.7267 C   0  0  0  0  0  0  0  0  0  0  0  0
    7.1194    8.3344   24.6775 C   0  0  0  0  0  0  0  0  0  0  0  0
    8.4311    4.7963   22.0500 C   0  0  0  0  0  0  0  0  0  0  0  0
    8.7393   10.8706   24.1871 O   0  0  0  0  0  0  0  0  0  0  0  0
    9.3093    3.8166   21.6712 C   0  0  0  0  0  0  0  0  0  0  0  0
  1  5  1  0
  1 15  4  0
  1 22  4  0
  2 20  1  0
  2 24  1  0
  3  6  4  0
  3 27  4  0
  4 22  4  0
  4 26  4  0
  6  7  4  0
  6 13  1  0
  7 19  4  0
  8 18  1  0
  8 23  1  0
  8 28  2  0
  9 17  1  0
  9 24  1  0
 10 11  1  0
 10 24  1  0
 11 23  1  0
 12 14  4  0
 12 16  4  0
 14 19  4  0
 15 18  4  0
 16 20  4  0
 17 25  1  0
 18 26  4  0
 19 29  4  0
 20 29  4  0
 21 23  1  0
 21 25  1  0
 27 29  4  0
M  END
$$$$

 Created by Python create_sdf_string function

 29 32  0  0  0  0  0  0  0  0999 V2000
    5.4450    8.7154   22.6662 C   0  0  0  0  0  0  0  0  0  0  0  0
   10.9154    5.4574   20.5483 C   0  0  0  0  0  0  0  0  0  0  0  0
    7.2709    4.5089   22.7542 C   0  0  0  0  0  0  0  0  0  0  0  0
    5.9698    7.6329   24.6581 C   0  0  0  0  0  0  0  0  0  0  0  0
    4.5542    8.9057   21.7104 O   0  0  0  0  0  0  0  0  0  0  0  0
    6.9895    3.2085   23.0690 C   0  0  0  0  0  0  0  0  0  0  0  0
    7.8391    2.2253   22.7260 N   0  0  0  0  0  0  0  0  0  0  0  0
    8.6968    9.8373   23.6359 C   0  0  0  0  0  0  0  0  0  0  0  0
   12.5135    6.5957   21.8396 C   0  0  0  0  0  0  0  0  0  0  0  0
   10.9406    8.2330   21.1350 C   0  0  0  0  0  0  0  0  0  0  0  0
    9.6648    8.5956   21.7310 C   0  0  0  0  0  0  0  0  0  0  0  0
   10.8829    1.7153   20.9865 C   0  0  0  0  0  0  0  0  0  0  0  0
    5.7768    2.8533   23.7910 C   0  0  0  0  0  0  0  0  0  0  0  0
    9.7977    1.4791   21.6912 N   0  0  0  0  0  0  0  0  0  0  0  0
    6.5976    9.3401   22.6478 N   0  0  0  0  0  0  0  0  0  0  0  0
   11.2031    3.0042   20.6246 C   0  0  0  0  0  0  0  0  0  0  0  0
   12.8688    7.7370   22.7287 C   0  0  0  0  0  0  0  0  0  0  0  0
    7.4487    9.1361   23.6506 C   0  0  0  0  0  0  0  0  0  0  0  0
    8.9772    2.5025   22.0273 C   0  0  0  0  0  0  0  0  0  0  0  0
   10.4859    4.0901   20.9730 C   0  0  0  0  0  0  0  0  0  0  0  0
   11.0962    9.3293   23.5072 C   0  0  0  0  0  0  0  0  0  0  0  0
    5.1273    7.8529   23.6208 N   0  0  0  0  0  0  0  0  0  0  0  0
    9.7552    9.2338   23.0171 N   0  0  0  0  0  0  0  0  0  0  0  0
   11.1797    6.7591   21.3326 N   0  0  0  0  0  0  0  0  0  0  0  0
   11.7728    8.0337   23.7267 C   0  0  0  0  0  0  0  0  0  0  0  0
    7.1194    8.3344   24.6775 C   0  0  0  0  0  0  0  0  0  0  0  0
    8.4311    4.7963   22.0500 C   0  0  0  0  0  0  0  0  0  0  0  0
    8.7393   10.8706   24.1871 O   0  0  0  0  0  0  0  0  0  0  0  0
    9.3093    3.8166   21.6712 C   0  0  0  0  0  0  0  0  0  0  0  0
  1  5  1  0
  1 15  4  0
  1 22  4  0
  2 20  1  0
  2 24  1  0
  3  6  4  0
  3 27  4  0
  4 22  4  0
  4 26  4  0
  6  7  4  0
  6 13  1  0
  7 19  4  0
  8 18  1  0
  8 23  1  0
  8 28  2  0
  9 17  1  0
  9 24  1  0
 10 11  1  0
 10 24  1  0
 11 23  1  0
 12 14  4  0
 12 16  4  0
 14 19  4  0
 15 18  4  0
 16 20  4  0
 17 25  1  0
 18 26  4  0
 19 29  4  0
 20 29  4  0
 21 23  1  0
 21 25  1  0
 27 29  4  0
M  END
$$$$

 Created by Python create_sdf_string function

 29 32  0  0  0  0  0  0  0  0999 V2000
    5.4450    8.7154   22.6662 C   0  0  0  0  0  0  0  0  0  0  0  0
   10.9154    5.4574   20.5483 C   0  0  0  0  0  0  0  0  0  0  0  0
    7.2709    4.5089   22.7542 C   0  0  0  0  0  0  0  0  0  0  0  0
    5.9698    7.6329   24.6581 C   0  0  0  0  0  0  0  0  0  0  0  0
    4.5542    8.9057   21.7104 O   0  0  0  0  0  0  0  0  0  0  0  0
    6.9895    3.2085   23.0690 C   0  0  0  0  0  0  0  0  0  0  0  0
    7.8391    2.2253   22.7260 N   0  0  0  0  0  0  0  0  0  0  0  0
    8.6968    9.8373   23.6359 C   0  0  0  0  0  0  0  0  0  0  0  0
   12.5135    6.5957   21.8396 C   0  0  0  0  0  0  0  0  0  0  0  0
   10.9406    8.2330   21.1350 C   0  0  0  0  0  0  0  0  0  0  0  0
    9.6648    8.5956   21.7310 C   0  0  0  0  0  0  0  0  0  0  0  0
   10.8829    1.7153   20.9865 C   0  0  0  0  0  0  0  0  0  0  0  0
    5.7768    2.8533   23.7910 C   0  0  0  0  0  0  0  0  0  0  0  0
    9.7977    1.4791   21.6912 N   0  0  0  0  0  0  0  0  0  0  0  0
    6.5976    9.3401   22.6478 N   0  0  0  0  0  0  0  0  0  0  0  0
   11.2031    3.0042   20.6246 C   0  0  0  0  0  0  0  0  0  0  0  0
   12.8688    7.7370   22.7287 C   0  0  0  0  0  0  0  0  0  0  0  0
    7.4487    9.1361   23.6506 C   0  0  0  0  0  0  0  0  0  0  0  0
    8.9772    2.5025   22.0273 C   0  0  0  0  0  0  0  0  0  0  0  0
   10.4859    4.0901   20.9730 C   0  0  0  0  0  0  0  0  0  0  0  0
   11.0962    9.3293   23.5072 C   0  0  0  0  0  0  0  0  0  0  0  0
    5.1273    7.8529   23.6208 N   0  0  0  0  0  0  0  0  0  0  0  0
    9.7552    9.2338   23.0171 N   0  0  0  0  0  0  0  0  0  0  0  0
   11.1797    6.7591   21.3326 N   0  0  0  0  0  0  0  0  0  0  0  0
   11.7728    8.0337   23.7267 C   0  0  0  0  0  0  0  0  0  0  0  0
    7.1194    8.3344   24.6775 C   0  0  0  0  0  0  0  0  0  0  0  0
    8.4311    4.7963   22.0500 C   0  0  0  0  0  0  0  0  0  0  0  0
    8.7393   10.8706   24.1871 O   0  0  0  0  0  0  0  0  0  0  0  0
    9.3093    3.8166   21.6712 C   0  0  0  0  0  0  0  0  0  0  0  0
  1  5  1  0
  1 15  4  0
  1 22  4  0
  2 20  1  0
  2 24  1  0
  3  6  4  0
  3 27  4  0
  4 22  4  0
  4 26  4  0
  6  7  4  0
  6 13  1  0
  7 19  4  0
  8 18  1  0
  8 23  1  0
  8 28  2  0
  9 17  1  0
  9 24  1  0
 10 11  1  0
 10 24  1  0
 11 23  1  0
 12 14  4  0
 12 16  4  0
 14 19  4  0
 15 18  4  0
 16 20  4  0
 17 25  1  0
 18 26  4  0
 19 29  4  0
 20 29  4  0
 21 23  1  0
 21 25  1  0
 27 29  4  0
M  END
$$$$

 Created by Python create_sdf_string function

 29 32  0  0  0  0  0  0  0  0999 V2000
    5.4450    8.7154   22.6662 C   0  0  0  0  0  0  0  0  0  0  0  0
   10.9154    5.4574   20.5483 C   0  0  0  0  0  0  0  0  0  0  0  0
    7.2709    4.5089   22.7542 C   0  0  0  0  0  0  0  0  0  0  0  0
    5.9698    7.6329   24.6581 C   0  0  0  0  0  0  0  0  0  0  0  0
    4.5542    8.9057   21.7104 O   0  0  0  0  0  0  0  0  0  0  0  0
    6.9895    3.2085   23.0690 C   0  0  0  0  0  0  0  0  0  0  0  0
    7.8391    2.2253   22.7260 N   0  0  0  0  0  0  0  0  0  0  0  0
    8.6968    9.8373   23.6359 C   0  0  0  0  0  0  0  0  0  0  0  0
   12.5135    6.5957   21.8396 C   0  0  0  0  0  0  0  0  0  0  0  0
   10.9406    8.2330   21.1350 C   0  0  0  0  0  0  0  0  0  0  0  0
    9.6648    8.5956   21.7310 C   0  0  0  0  0  0  0  0  0  0  0  0
   10.8829    1.7153   20.9865 C   0  0  0  0  0  0  0  0  0  0  0  0
    5.7768    2.8533   23.7910 C   0  0  0  0  0  0  0  0  0  0  0  0
    9.7977    1.4791   21.6912 N   0  0  0  0  0  0  0  0  0  0  0  0
    6.5976    9.3401   22.6478 N   0  0  0  0  0  0  0  0  0  0  0  0
   11.2031    3.0042   20.6246 C   0  0  0  0  0  0  0  0  0  0  0  0
   12.8688    7.7370   22.7287 C   0  0  0  0  0  0  0  0  0  0  0  0
    7.4487    9.1361   23.6506 C   0  0  0  0  0  0  0  0  0  0  0  0
    8.9772    2.5025   22.0273 C   0  0  0  0  0  0  0  0  0  0  0  0
   10.4859    4.0901   20.9730 C   0  0  0  0  0  0  0  0  0  0  0  0
   11.0962    9.3293   23.5072 C   0  0  0  0  0  0  0  0  0  0  0  0
    5.1273    7.8529   23.6208 N   0  0  0  0  0  0  0  0  0  0  0  0
    9.7552    9.2338   23.0171 N   0  0  0  0  0  0  0  0  0  0  0  0
   11.1797    6.7591   21.3326 N   0  0  0  0  0  0  0  0  0  0  0  0
   11.7728    8.0337   23.7267 C   0  0  0  0  0  0  0  0  0  0  0  0
    7.1194    8.3344   24.6775 C   0  0  0  0  0  0  0  0  0  0  0  0
    8.4311    4.7963   22.0500 C   0  0  0  0  0  0  0  0  0  0  0  0
    8.7393   10.8706   24.1871 O   0  0  0  0  0  0  0  0  0  0  0  0
    9.3093    3.8166   21.6712 C   0  0  0  0  0  0  0  0  0  0  0  0
  1  5  1  0
  1 15  4  0
  1 22  4  0
  2 20  1  0
  2 24  1  0
  3  6  4  0
  3 27  4  0
  4 22  4  0
  4 26  4  0
  6  7  4  0
  6 13  1  0
  7 19  4  0
  8 18  1  0
  8 23  1  0
  8 28  2  0
  9 17  1  0
  9 24  1  0
 10 11  1  0
 10 24  1  0
 11 23  1  0
 12 14  4  0
 12 16  4  0
 14 19  4  0
 15 18  4  0
 16 20  4  0
 17 25  1  0
 18 26  4  0
 19 29  4  0
 20 29  4  0
 21 23  1  0
 21 25  1  0
 27 29  4  0
M  END
$$$$

 Created by Python create_sdf_string function

 29 32  0  0  0  0  0  0  0  0999 V2000
    5.4450    8.7154   22.6662 C   0  0  0  0  0  0  0  0  0  0  0  0
   10.9154    5.4574   20.5483 C   0  0  0  0  0  0  0  0  0  0  0  0
    7.2709    4.5089   22.7542 C   0  0  0  0  0  0  0  0  0  0  0  0
    5.9698    7.6329   24.6581 C   0  0  0  0  0  0  0  0  0  0  0  0
    4.5542    8.9057   21.7104 O   0  0  0  0  0  0  0  0  0  0  0  0
    6.9895    3.2085   23.0690 C   0  0  0  0  0  0  0  0  0  0  0  0
    7.8391    2.2253   22.7260 N   0  0  0  0  0  0  0  0  0  0  0  0
    8.6968    9.8373   23.6359 C   0  0  0  0  0  0  0  0  0  0  0  0
   12.5135    6.5957   21.8396 C   0  0  0  0  0  0  0  0  0  0  0  0
   10.9406    8.2330   21.1350 C   0  0  0  0  0  0  0  0  0  0  0  0
    9.6648    8.5956   21.7310 C   0  0  0  0  0  0  0  0  0  0  0  0
   10.8829    1.7153   20.9865 C   0  0  0  0  0  0  0  0  0  0  0  0
    5.7768    2.8533   23.7910 C   0  0  0  0  0  0  0  0  0  0  0  0
    9.7977    1.4791   21.6912 N   0  0  0  0  0  0  0  0  0  0  0  0
    6.5976    9.3401   22.6478 N   0  0  0  0  0  0  0  0  0  0  0  0
   11.2031    3.0042   20.6246 C   0  0  0  0  0  0  0  0  0  0  0  0
   12.8688    7.7370   22.7287 C   0  0  0  0  0  0  0  0  0  0  0  0
    7.4487    9.1361   23.6506 C   0  0  0  0  0  0  0  0  0  0  0  0
    8.9772    2.5025   22.0273 C   0  0  0  0  0  0  0  0  0  0  0  0
   10.4859    4.0901   20.9730 C   0  0  0  0  0  0  0  0  0  0  0  0
   11.0962    9.3293   23.5072 C   0  0  0  0  0  0  0  0  0  0  0  0
    5.1273    7.8529   23.6208 N   0  0  0  0  0  0  0  0  0  0  0  0
    9.7552    9.2338   23.0171 N   0  0  0  0  0  0  0  0  0  0  0  0
   11.1797    6.7591   21.3326 N   0  0  0  0  0  0  0  0  0  0  0  0
   11.7728    8.0337   23.7267 C   0  0  0  0  0  0  0  0  0  0  0  0
    7.1194    8.3344   24.6775 C   0  0  0  0  0  0  0  0  0  0  0  0
    8.4311    4.7963   22.0500 C   0  0  0  0  0  0  0  0  0  0  0  0
    8.7393   10.8706   24.1871 O   0  0  0  0  0  0  0  0  0  0  0  0
    9.3093    3.8166   21.6712 C   0  0  0  0  0  0  0  0  0  0  0  0
  1  5  1  0
  1 15  4  0
  1 22  4  0
  2 20  1  0
  2 24  1  0
  3  6  4  0
  3 27  4  0
  4 22  4  0
  4 26  4  0
  6  7  4  0
  6 13  1  0
  7 19  4  0
  8 18  1  0
  8 23  1  0
  8 28  2  0
  9 17  1  0
  9 24  1  0
 10 11  1  0
 10 24  1  0
 11 23  1  0
 12 14  4  0
 12 16  4  0
 14 19  4  0
 15 18  4  0
 16 20  4  0
 17 25  1  0
 18 26  4  0
 19 29  4  0
 20 29  4  0
 21 23  1  0
 21 25  1  0
 27 29  4  0
M  END
$$$$

 Created by Python create_sdf_string function

 29 32  0  0  0  0  0  0  0  0999 V2000
    5.4450    8.7154   22.6662 C   0  0  0  0  0  0  0  0  0  0  0  0
   10.9154    5.4574   20.5483 C   0  0  0  0  0  0  0  0  0  0  0  0
    7.2709    4.5089   22.7542 C   0  0  0  0  0  0  0  0  0  0  0  0
    5.9698    7.6329   24.6581 C   0  0  0  0  0  0  0  0  0  0  0  0
    4.5542    8.9057   21.7104 O   0  0  0  0  0  0  0  0  0  0  0  0
    6.9895    3.2085   23.0690 C   0  0  0  0  0  0  0  0  0  0  0  0
    7.8391    2.2253   22.7260 N   0  0  0  0  0  0  0  0  0  0  0  0
    8.6968    9.8373   23.6359 C   0  0  0  0  0  0  0  0  0  0  0  0
   12.5135    6.5957   21.8396 C   0  0  0  0  0  0  0  0  0  0  0  0
   10.9406    8.2330   21.1350 C   0  0  0  0  0  0  0  0  0  0  0  0
    9.6648    8.5956   21.7310 C   0  0  0  0  0  0  0  0  0  0  0  0
   10.8829    1.7153   20.9865 C   0  0  0  0  0  0  0  0  0  0  0  0
    5.7768    2.8533   23.7910 C   0  0  0  0  0  0  0  0  0  0  0  0
    9.7977    1.4791   21.6912 N   0  0  0  0  0  0  0  0  0  0  0  0
    6.5976    9.3401   22.6478 N   0  0  0  0  0  0  0  0  0  0  0  0
   11.2031    3.0042   20.6246 C   0  0  0  0  0  0  0  0  0  0  0  0
   12.8688    7.7370   22.7287 C   0  0  0  0  0  0  0  0  0  0  0  0
    7.4487    9.1361   23.6506 C   0  0  0  0  0  0  0  0  0  0  0  0
    8.9772    2.5025   22.0273 C   0  0  0  0  0  0  0  0  0  0  0  0
   10.4859    4.0901   20.9730 C   0  0  0  0  0  0  0  0  0  0  0  0
   11.0962    9.3293   23.5072 C   0  0  0  0  0  0  0  0  0  0  0  0
    5.1273    7.8529   23.6208 N   0  0  0  0  0  0  0  0  0  0  0  0
    9.7552    9.2338   23.0171 N   0  0  0  0  0  0  0  0  0  0  0  0
   11.1797    6.7591   21.3326 N   0  0  0  0  0  0  0  0  0  0  0  0
   11.7728    8.0337   23.7267 C   0  0  0  0  0  0  0  0  0  0  0  0
    7.1194    8.3344   24.6775 C   0  0  0  0  0  0  0  0  0  0  0  0
    8.4311    4.7963   22.0500 C   0  0  0  0  0  0  0  0  0  0  0  0
    8.7393   10.8706   24.1871 O   0  0  0  0  0  0  0  0  0  0  0  0
    9.3093    3.8166   21.6712 C   0  0  0  0  0  0  0  0  0  0  0  0
  1  5  1  0
  1 15  4  0
  1 22  4  0
  2 20  1  0
  2 24  1  0
  3  6  4  0
  3 27  4  0
  4 22  4  0
  4 26  4  0
  6  7  4  0
  6 13  1  0
  7 19  4  0
  8 18  1  0
  8 23  1  0
  8 28  2  0
  9 17  1  0
  9 24  1  0
 10 11  1  0
 10 24  1  0
 11 23  1  0
 12 14  4  0
 12 16  4  0
 14 19  4  0
 15 18  4  0
 16 20  4  0
 17 25  1  0
 18 26  4  0
 19 29  4  0
 20 29  4  0
 21 23  1  0
 21 25  1  0
 27 29  4  0
M  END
$$$$

 Created by Python create_sdf_string function

 29 32  0  0  0  0  0  0  0  0999 V2000
    5.4450    8.7154   22.6662 C   0  0  0  0  0  0  0  0  0  0  0  0
   10.9154    5.4574   20.5483 C   0  0  0  0  0  0  0  0  0  0  0  0
    7.2709    4.5089   22.7542 C   0  0  0  0  0  0  0  0  0  0  0  0
    5.9698    7.6329   24.6581 C   0  0  0  0  0  0  0  0  0  0  0  0
    4.5542    8.9057   21.7104 O   0  0  0  0  0  0  0  0  0  0  0  0
    6.9895    3.2085   23.0690 C   0  0  0  0  0  0  0  0  0  0  0  0
    7.8391    2.2253   22.7260 N   0  0  0  0  0  0  0  0  0  0  0  0
    8.6968    9.8373   23.6359 C   0  0  0  0  0  0  0  0  0  0  0  0
   12.5135    6.5957   21.8396 C   0  0  0  0  0  0  0  0  0  0  0  0
   10.9406    8.2330   21.1350 C   0  0  0  0  0  0  0  0  0  0  0  0
    9.6648    8.5956   21.7310 C   0  0  0  0  0  0  0  0  0  0  0  0
   10.8829    1.7153   20.9865 C   0  0  0  0  0  0  0  0  0  0  0  0
    5.7768    2.8533   23.7910 C   0  0  0  0  0  0  0  0  0  0  0  0
    9.7977    1.4791   21.6912 N   0  0  0  0  0  0  0  0  0  0  0  0
    6.5976    9.3401   22.6478 N   0  0  0  0  0  0  0  0  0  0  0  0
   11.2031    3.0042   20.6246 C   0  0  0  0  0  0  0  0  0  0  0  0
   12.8688    7.7370   22.7287 C   0  0  0  0  0  0  0  0  0  0  0  0
    7.4487    9.1361   23.6506 C   0  0  0  0  0  0  0  0  0  0  0  0
    8.9772    2.5025   22.0273 C   0  0  0  0  0  0  0  0  0  0  0  0
   10.4859    4.0901   20.9730 C   0  0  0  0  0  0  0  0  0  0  0  0
   11.0962    9.3293   23.5072 C   0  0  0  0  0  0  0  0  0  0  0  0
    5.1273    7.8529   23.6208 N   0  0  0  0  0  0  0  0  0  0  0  0
    9.7552    9.2338   23.0171 N   0  0  0  0  0  0  0  0  0  0  0  0
   11.1797    6.7591   21.3326 N   0  0  0  0  0  0  0  0  0  0  0  0
   11.7728    8.0337   23.7267 C   0  0  0  0  0  0  0  0  0  0  0  0
    7.1194    8.3344   24.6775 C   0  0  0  0  0  0  0  0  0  0  0  0
    8.4311    4.7963   22.0500 C   0  0  0  0  0  0  0  0  0  0  0  0
    8.7393   10.8706   24.1871 O   0  0  0  0  0  0  0  0  0  0  0  0
    9.3093    3.8166   21.6712 C   0  0  0  0  0  0  0  0  0  0  0  0
  1  5  1  0
  1 15  4  0
  1 22  4  0
  2 20  1  0
  2 24  1  0
  3  6  4  0
  3 27  4  0
  4 22  4  0
  4 26  4  0
  6  7  4  0
  6 13  1  0
  7 19  4  0
  8 18  1  0
  8 23  1  0
  8 28  2  0
  9 17  1  0
  9 24  1  0
 10 11  1  0
 10 24  1  0
 11 23  1  0
 12 14  4  0
 12 16  4  0
 14 19  4  0
 15 18  4  0
 16 20  4  0
 17 25  1  0
 18 26  4  0
 19 29  4  0
 20 29  4  0
 21 23  1  0
 21 25  1  0
 27 29  4  0
M  END
$$$$

 Created by Python create_sdf_string function

 29 32  0  0  0  0  0  0  0  0999 V2000
    5.4450    8.7154   22.6662 C   0  0  0  0  0  0  0  0  0  0  0  0
   10.9154    5.4574   20.5483 C   0  0  0  0  0  0  0  0  0  0  0  0
    7.2709    4.5089   22.7542 C   0  0  0  0  0  0  0  0  0  0  0  0
    5.9698    7.6329   24.6581 C   0  0  0  0  0  0  0  0  0  0  0  0
    4.5542    8.9057   21.7104 O   0  0  0  0  0  0  0  0  0  0  0  0
    6.9895    3.2085   23.0690 C   0  0  0  0  0  0  0  0  0  0  0  0
    7.8391    2.2253   22.7260 N   0  0  0  0  0  0  0  0  0  0  0  0
    8.6968    9.8373   23.6359 C   0  0  0  0  0  0  0  0  0  0  0  0
   12.5135    6.5957   21.8396 C   0  0  0  0  0  0  0  0  0  0  0  0
   10.9406    8.2330   21.1350 C   0  0  0  0  0  0  0  0  0  0  0  0
    9.6648    8.5956   21.7310 C   0  0  0  0  0  0  0  0  0  0  0  0
   10.8829    1.7153   20.9865 C   0  0  0  0  0  0  0  0  0  0  0  0
    5.7768    2.8533   23.7910 C   0  0  0  0  0  0  0  0  0  0  0  0
    9.7977    1.4791   21.6912 N   0  0  0  0  0  0  0  0  0  0  0  0
    6.5976    9.3401   22.6478 N   0  0  0  0  0  0  0  0  0  0  0  0
   11.2031    3.0042   20.6246 C   0  0  0  0  0  0  0  0  0  0  0  0
   12.8688    7.7370   22.7287 C   0  0  0  0  0  0  0  0  0  0  0  0
    7.4487    9.1361   23.6506 C   0  0  0  0  0  0  0  0  0  0  0  0
    8.9772    2.5025   22.0273 C   0  0  0  0  0  0  0  0  0  0  0  0
   10.4859    4.0901   20.9730 C   0  0  0  0  0  0  0  0  0  0  0  0
   11.0962    9.3293   23.5072 C   0  0  0  0  0  0  0  0  0  0  0  0
    5.1273    7.8529   23.6208 N   0  0  0  0  0  0  0  0  0  0  0  0
    9.7552    9.2338   23.0171 N   0  0  0  0  0  0  0  0  0  0  0  0
   11.1797    6.7591   21.3326 N   0  0  0  0  0  0  0  0  0  0  0  0
   11.7728    8.0337   23.7267 C   0  0  0  0  0  0  0  0  0  0  0  0
    7.1194    8.3344   24.6775 C   0  0  0  0  0  0  0  0  0  0  0  0
    8.4311    4.7963   22.0500 C   0  0  0  0  0  0  0  0  0  0  0  0
    8.7393   10.8706   24.1871 O   0  0  0  0  0  0  0  0  0  0  0  0
    9.3093    3.8166   21.6712 C   0  0  0  0  0  0  0  0  0  0  0  0
  1  5  1  0
  1 15  4  0
  1 22  4  0
  2 20  1  0
  2 24  1  0
  3  6  4  0
  3 27  4  0
  4 22  4  0
  4 26  4  0
  6  7  4  0
  6 13  1  0
  7 19  4  0
  8 18  1  0
  8 23  1  0
  8 28  2  0
  9 17  1  0
  9 24  1  0
 10 11  1  0
 10 24  1  0
 11 23  1  0
 12 14  4  0
 12 16  4  0
 14 19  4  0
 15 18  4  0
 16 20  4  0
 17 25  1  0
 18 26  4  0
 19 29  4  0
 20 29  4  0
 21 23  1  0
 21 25  1  0
 27 29  4  0
M  END
$$$$

 Created by Python create_sdf_string function

 29 32  0  0  0  0  0  0  0  0999 V2000
    5.4450    8.7154   22.6662 C   0  0  0  0  0  0  0  0  0  0  0  0
   10.9154    5.4574   20.5483 C   0  0  0  0  0  0  0  0  0  0  0  0
    7.2709    4.5089   22.7542 C   0  0  0  0  0  0  0  0  0  0  0  0
    5.9698    7.6329   24.6581 C   0  0  0  0  0  0  0  0  0  0  0  0
    4.5542    8.9057   21.7104 O   0  0  0  0  0  0  0  0  0  0  0  0
    6.9895    3.2085   23.0690 C   0  0  0  0  0  0  0  0  0  0  0  0
    7.8391    2.2253   22.7260 N   0  0  0  0  0  0  0  0  0  0  0  0
    8.6968    9.8373   23.6359 C   0  0  0  0  0  0  0  0  0  0  0  0
   12.5135    6.5957   21.8396 C   0  0  0  0  0  0  0  0  0  0  0  0
   10.9406    8.2330   21.1350 C   0  0  0  0  0  0  0  0  0  0  0  0
    9.6648    8.5956   21.7310 C   0  0  0  0  0  0  0  0  0  0  0  0
   10.8829    1.7153   20.9865 C   0  0  0  0  0  0  0  0  0  0  0  0
    5.7768    2.8533   23.7910 C   0  0  0  0  0  0  0  0  0  0  0  0
    9.7977    1.4791   21.6912 N   0  0  0  0  0  0  0  0  0  0  0  0
    6.5976    9.3401   22.6478 N   0  0  0  0  0  0  0  0  0  0  0  0
   11.2031    3.0042   20.6246 C   0  0  0  0  0  0  0  0  0  0  0  0
   12.8688    7.7370   22.7287 C   0  0  0  0  0  0  0  0  0  0  0  0
    7.4487    9.1361   23.6506 C   0  0  0  0  0  0  0  0  0  0  0  0
    8.9772    2.5025   22.0273 C   0  0  0  0  0  0  0  0  0  0  0  0
   10.4859    4.0901   20.9730 C   0  0  0  0  0  0  0  0  0  0  0  0
   11.0962    9.3293   23.5072 C   0  0  0  0  0  0  0  0  0  0  0  0
    5.1273    7.8529   23.6208 N   0  0  0  0  0  0  0  0  0  0  0  0
    9.7552    9.2338   23.0171 N   0  0  0  0  0  0  0  0  0  0  0  0
   11.1797    6.7591   21.3326 N   0  0  0  0  0  0  0  0  0  0  0  0
   11.7728    8.0337   23.7267 C   0  0  0  0  0  0  0  0  0  0  0  0
    7.1194    8.3344   24.6775 C   0  0  0  0  0  0  0  0  0  0  0  0
    8.4311    4.7963   22.0500 C   0  0  0  0  0  0  0  0  0  0  0  0
    8.7393   10.8706   24.1871 O   0  0  0  0  0  0  0  0  0  0  0  0
    9.3093    3.8166   21.6712 C   0  0  0  0  0  0  0  0  0  0  0  0
  1  5  1  0
  1 15  4  0
  1 22  4  0
  2 20  1  0
  2 24  1  0
  3  6  4  0
  3 27  4  0
  4 22  4  0
  4 26  4  0
  6  7  4  0
  6 13  1  0
  7 19  4  0
  8 18  1  0
  8 23  1  0
  8 28  2  0
  9 17  1  0
  9 24  1  0
 10 11  1  0
 10 24  1  0
 11 23  1  0
 12 14  4  0
 12 16  4  0
 14 19  4  0
 15 18  4  0
 16 20  4  0
 17 25  1  0
 18 26  4  0
 19 29  4  0
 20 29  4  0
 21 23  1  0
 21 25  1  0
 27 29  4  0
M  END
$$$$

 Created by Python create_sdf_string function

 29 32  0  0  0  0  0  0  0  0999 V2000
    5.4450    8.7154   22.6662 C   0  0  0  0  0  0  0  0  0  0  0  0
   10.9154    5.4574   20.5483 C   0  0  0  0  0  0  0  0  0  0  0  0
    7.2709    4.5089   22.7542 C   0  0  0  0  0  0  0  0  0  0  0  0
    5.9698    7.6329   24.6581 C   0  0  0  0  0  0  0  0  0  0  0  0
    4.5542    8.9057   21.7104 O   0  0  0  0  0  0  0  0  0  0  0  0
    6.9895    3.2085   23.0690 C   0  0  0  0  0  0  0  0  0  0  0  0
    7.8391    2.2253   22.7260 N   0  0  0  0  0  0  0  0  0  0  0  0
    8.6968    9.8373   23.6359 C   0  0  0  0  0  0  0  0  0  0  0  0
   12.5135    6.5957   21.8396 C   0  0  0  0  0  0  0  0  0  0  0  0
   10.9406    8.2330   21.1350 C   0  0  0  0  0  0  0  0  0  0  0  0
    9.6648    8.5956   21.7310 C   0  0  0  0  0  0  0  0  0  0  0  0
   10.8829    1.7153   20.9865 C   0  0  0  0  0  0  0  0  0  0  0  0
    5.7768    2.8533   23.7910 C   0  0  0  0  0  0  0  0  0  0  0  0
    9.7977    1.4791   21.6912 N   0  0  0  0  0  0  0  0  0  0  0  0
    6.5976    9.3401   22.6478 N   0  0  0  0  0  0  0  0  0  0  0  0
   11.2031    3.0042   20.6246 C   0  0  0  0  0  0  0  0  0  0  0  0
   12.8688    7.7370   22.7287 C   0  0  0  0  0  0  0  0  0  0  0  0
    7.4487    9.1361   23.6506 C   0  0  0  0  0  0  0  0  0  0  0  0
    8.9772    2.5025   22.0273 C   0  0  0  0  0  0  0  0  0  0  0  0
   10.4859    4.0901   20.9730 C   0  0  0  0  0  0  0  0  0  0  0  0
   11.0962    9.3293   23.5072 C   0  0  0  0  0  0  0  0  0  0  0  0
    5.1273    7.8529   23.6208 N   0  0  0  0  0  0  0  0  0  0  0  0
    9.7552    9.2338   23.0171 N   0  0  0  0  0  0  0  0  0  0  0  0
   11.1797    6.7591   21.3326 N   0  0  0  0  0  0  0  0  0  0  0  0
   11.7728    8.0337   23.7267 C   0  0  0  0  0  0  0  0  0  0  0  0
    7.1194    8.3344   24.6775 C   0  0  0  0  0  0  0  0  0  0  0  0
    8.4311    4.7963   22.0500 C   0  0  0  0  0  0  0  0  0  0  0  0
    8.7393   10.8706   24.1871 O   0  0  0  0  0  0  0  0  0  0  0  0
    9.3093    3.8166   21.6712 C   0  0  0  0  0  0  0  0  0  0  0  0
  1  5  1  0
  1 15  4  0
  1 22  4  0
  2 20  1  0
  2 24  1  0
  3  6  4  0
  3 27  4  0
  4 22  4  0
  4 26  4  0
  6  7  4  0
  6 13  1  0
  7 19  4  0
  8 18  1  0
  8 23  1  0
  8 28  2  0
  9 17  1  0
  9 24  1  0
 10 11  1  0
 10 24  1  0
 11 23  1  0
 12 14  4  0
 12 16  4  0
 14 19  4  0
 15 18  4  0
 16 20  4  0
 17 25  1  0
 18 26  4  0
 19 29  4  0
 20 29  4  0
 21 23  1  0
 21 25  1  0
 27 29  4  0
M  END
$$$$

 Created by Python create_sdf_string function

 29 32  0  0  0  0  0  0  0  0999 V2000
    5.4450    8.7154   22.6662 C   0  0  0  0  0  0  0  0  0  0  0  0
   10.9154    5.4574   20.5483 C   0  0  0  0  0  0  0  0  0  0  0  0
    7.2709    4.5089   22.7542 C   0  0  0  0  0  0  0  0  0  0  0  0
    5.9698    7.6329   24.6581 C   0  0  0  0  0  0  0  0  0  0  0  0
    4.5542    8.9057   21.7104 O   0  0  0  0  0  0  0  0  0  0  0  0
    6.9895    3.2085   23.0690 C   0  0  0  0  0  0  0  0  0  0  0  0
    7.8391    2.2253   22.7260 N   0  0  0  0  0  0  0  0  0  0  0  0
    8.6968    9.8373   23.6359 C   0  0  0  0  0  0  0  0  0  0  0  0
   12.5135    6.5957   21.8396 C   0  0  0  0  0  0  0  0  0  0  0  0
   10.9406    8.2330   21.1350 C   0  0  0  0  0  0  0  0  0  0  0  0
    9.6648    8.5956   21.7310 C   0  0  0  0  0  0  0  0  0  0  0  0
   10.8829    1.7153   20.9865 C   0  0  0  0  0  0  0  0  0  0  0  0
    5.7768    2.8533   23.7910 C   0  0  0  0  0  0  0  0  0  0  0  0
    9.7977    1.4791   21.6912 N   0  0  0  0  0  0  0  0  0  0  0  0
    6.5976    9.3401   22.6478 N   0  0  0  0  0  0  0  0  0  0  0  0
   11.2031    3.0042   20.6246 C   0  0  0  0  0  0  0  0  0  0  0  0
   12.8688    7.7370   22.7287 C   0  0  0  0  0  0  0  0  0  0  0  0
    7.4487    9.1361   23.6506 C   0  0  0  0  0  0  0  0  0  0  0  0
    8.9772    2.5025   22.0273 C   0  0  0  0  0  0  0  0  0  0  0  0
   10.4859    4.0901   20.9730 C   0  0  0  0  0  0  0  0  0  0  0  0
   11.0962    9.3293   23.5072 C   0  0  0  0  0  0  0  0  0  0  0  0
    5.1273    7.8529   23.6208 N   0  0  0  0  0  0  0  0  0  0  0  0
    9.7552    9.2338   23.0171 N   0  0  0  0  0  0  0  0  0  0  0  0
   11.1797    6.7591   21.3326 N   0  0  0  0  0  0  0  0  0  0  0  0
   11.7728    8.0337   23.7267 C   0  0  0  0  0  0  0  0  0  0  0  0
    7.1194    8.3344   24.6775 C   0  0  0  0  0  0  0  0  0  0  0  0
    8.4311    4.7963   22.0500 C   0  0  0  0  0  0  0  0  0  0  0  0
    8.7393   10.8706   24.1871 O   0  0  0  0  0  0  0  0  0  0  0  0
    9.3093    3.8166   21.6712 C   0  0  0  0  0  0  0  0  0  0  0  0
  1  5  1  0
  1 15  4  0
  1 22  4  0
  2 20  1  0
  2 24  1  0
  3  6  4  0
  3 27  4  0
  4 22  4  0
  4 26  4  0
  6  7  4  0
  6 13  1  0
  7 19  4  0
  8 18  1  0
  8 23  1  0
  8 28  2  0
  9 17  1  0
  9 24  1  0
 10 11  1  0
 10 24  1  0
 11 23  1  0
 12 14  4  0
 12 16  4  0
 14 19  4  0
 15 18  4  0
 16 20  4  0
 17 25  1  0
 18 26  4  0
 19 29  4  0
 20 29  4  0
 21 23  1  0
 21 25  1  0
 27 29  4  0
M  END
$$$$

 Created by Python create_sdf_string function

 29 32  0  0  0  0  0  0  0  0999 V2000
    5.4450    8.7154   22.6662 C   0  0  0  0  0  0  0  0  0  0  0  0
   10.9154    5.4574   20.5483 C   0  0  0  0  0  0  0  0  0  0  0  0
    7.2709    4.5089   22.7542 C   0  0  0  0  0  0  0  0  0  0  0  0
    5.9698    7.6329   24.6581 C   0  0  0  0  0  0  0  0  0  0  0  0
    4.5542    8.9057   21.7104 O   0  0  0  0  0  0  0  0  0  0  0  0
    6.9895    3.2085   23.0690 C   0  0  0  0  0  0  0  0  0  0  0  0
    7.8391    2.2253   22.7260 N   0  0  0  0  0  0  0  0  0  0  0  0
    8.6968    9.8373   23.6359 C   0  0  0  0  0  0  0  0  0  0  0  0
   12.5135    6.5957   21.8396 C   0  0  0  0  0  0  0  0  0  0  0  0
   10.9406    8.2330   21.1350 C   0  0  0  0  0  0  0  0  0  0  0  0
    9.6648    8.5956   21.7310 C   0  0  0  0  0  0  0  0  0  0  0  0
   10.8829    1.7153   20.9865 C   0  0  0  0  0  0  0  0  0  0  0  0
    5.7768    2.8533   23.7910 C   0  0  0  0  0  0  0  0  0  0  0  0
    9.7977    1.4791   21.6912 N   0  0  0  0  0  0  0  0  0  0  0  0
    6.5976    9.3401   22.6478 N   0  0  0  0  0  0  0  0  0  0  0  0
   11.2031    3.0042   20.6246 C   0  0  0  0  0  0  0  0  0  0  0  0
   12.8688    7.7370   22.7287 C   0  0  0  0  0  0  0  0  0  0  0  0
    7.4487    9.1361   23.6506 C   0  0  0  0  0  0  0  0  0  0  0  0
    8.9772    2.5025   22.0273 C   0  0  0  0  0  0  0  0  0  0  0  0
   10.4859    4.0901   20.9730 C   0  0  0  0  0  0  0  0  0  0  0  0
   11.0962    9.3293   23.5072 C   0  0  0  0  0  0  0  0  0  0  0  0
    5.1273    7.8529   23.6208 N   0  0  0  0  0  0  0  0  0  0  0  0
    9.7552    9.2338   23.0171 N   0  0  0  0  0  0  0  0  0  0  0  0
   11.1797    6.7591   21.3326 N   0  0  0  0  0  0  0  0  0  0  0  0
   11.7728    8.0337   23.7267 C   0  0  0  0  0  0  0  0  0  0  0  0
    7.1194    8.3344   24.6775 C   0  0  0  0  0  0  0  0  0  0  0  0
    8.4311    4.7963   22.0500 C   0  0  0  0  0  0  0  0  0  0  0  0
    8.7393   10.8706   24.1871 O   0  0  0  0  0  0  0  0  0  0  0  0
    9.3093    3.8166   21.6712 C   0  0  0  0  0  0  0  0  0  0  0  0
  1  5  1  0
  1 15  4  0
  1 22  4  0
  2 20  1  0
  2 24  1  0
  3  6  4  0
  3 27  4  0
  4 22  4  0
  4 26  4  0
  6  7  4  0
  6 13  1  0
  7 19  4  0
  8 18  1  0
  8 23  1  0
  8 28  2  0
  9 17  1  0
  9 24  1  0
 10 11  1  0
 10 24  1  0
 11 23  1  0
 12 14  4  0
 12 16  4  0
 14 19  4  0
 15 18  4  0
 16 20  4  0
 17 25  1  0
 18 26  4  0
 19 29  4  0
 20 29  4  0
 21 23  1  0
 21 25  1  0
 27 29  4  0
M  END
$$$$

 Created by Python create_sdf_string function

 29 32  0  0  0  0  0  0  0  0999 V2000
    5.4450    8.7154   22.6662 C   0  0  0  0  0  0  0  0  0  0  0  0
   10.9154    5.4574   20.5483 C   0  0  0  0  0  0  0  0  0  0  0  0
    7.2709    4.5089   22.7542 C   0  0  0  0  0  0  0  0  0  0  0  0
    5.9698    7.6329   24.6581 C   0  0  0  0  0  0  0  0  0  0  0  0
    4.5542    8.9057   21.7104 O   0  0  0  0  0  0  0  0  0  0  0  0
    6.9895    3.2085   23.0690 C   0  0  0  0  0  0  0  0  0  0  0  0
    7.8391    2.2253   22.7260 N   0  0  0  0  0  0  0  0  0  0  0  0
    8.6968    9.8373   23.6359 C   0  0  0  0  0  0  0  0  0  0  0  0
   12.5135    6.5957   21.8396 C   0  0  0  0  0  0  0  0  0  0  0  0
   10.9406    8.2330   21.1350 C   0  0  0  0  0  0  0  0  0  0  0  0
    9.6648    8.5956   21.7310 C   0  0  0  0  0  0  0  0  0  0  0  0
   10.8829    1.7153   20.9865 C   0  0  0  0  0  0  0  0  0  0  0  0
    5.7768    2.8533   23.7910 C   0  0  0  0  0  0  0  0  0  0  0  0
    9.7977    1.4791   21.6912 N   0  0  0  0  0  0  0  0  0  0  0  0
    6.5976    9.3401   22.6478 N   0  0  0  0  0  0  0  0  0  0  0  0
   11.2031    3.0042   20.6246 C   0  0  0  0  0  0  0  0  0  0  0  0
   12.8688    7.7370   22.7287 C   0  0  0  0  0  0  0  0  0  0  0  0
    7.4487    9.1361   23.6506 C   0  0  0  0  0  0  0  0  0  0  0  0
    8.9772    2.5025   22.0273 C   0  0  0  0  0  0  0  0  0  0  0  0
   10.4859    4.0901   20.9730 C   0  0  0  0  0  0  0  0  0  0  0  0
   11.0962    9.3293   23.5072 C   0  0  0  0  0  0  0  0  0  0  0  0
    5.1273    7.8529   23.6208 N   0  0  0  0  0  0  0  0  0  0  0  0
    9.7552    9.2338   23.0171 N   0  0  0  0  0  0  0  0  0  0  0  0
   11.1797    6.7591   21.3326 N   0  0  0  0  0  0  0  0  0  0  0  0
   11.7728    8.0337   23.7267 C   0  0  0  0  0  0  0  0  0  0  0  0
    7.1194    8.3344   24.6775 C   0  0  0  0  0  0  0  0  0  0  0  0
    8.4311    4.7963   22.0500 C   0  0  0  0  0  0  0  0  0  0  0  0
    8.7393   10.8706   24.1871 O   0  0  0  0  0  0  0  0  0  0  0  0
    9.3093    3.8166   21.6712 C   0  0  0  0  0  0  0  0  0  0  0  0
  1  5  1  0
  1 15  4  0
  1 22  4  0
  2 20  1  0
  2 24  1  0
  3  6  4  0
  3 27  4  0
  4 22  4  0
  4 26  4  0
  6  7  4  0
  6 13  1  0
  7 19  4  0
  8 18  1  0
  8 23  1  0
  8 28  2  0
  9 17  1  0
  9 24  1  0
 10 11  1  0
 10 24  1  0
 11 23  1  0
 12 14  4  0
 12 16  4  0
 14 19  4  0
 15 18  4  0
 16 20  4  0
 17 25  1  0
 18 26  4  0
 19 29  4  0
 20 29  4  0
 21 23  1  0
 21 25  1  0
 27 29  4  0
M  END
$$$$

 Created by Python create_sdf_string function

 29 32  0  0  0  0  0  0  0  0999 V2000
    5.4450    8.7154   22.6662 C   0  0  0  0  0  0  0  0  0  0  0  0
   10.9154    5.4574   20.5483 C   0  0  0  0  0  0  0  0  0  0  0  0
    7.2709    4.5089   22.7542 C   0  0  0  0  0  0  0  0  0  0  0  0
    5.9698    7.6329   24.6581 C   0  0  0  0  0  0  0  0  0  0  0  0
    4.5542    8.9057   21.7104 O   0  0  0  0  0  0  0  0  0  0  0  0
    6.9895    3.2085   23.0690 C   0  0  0  0  0  0  0  0  0  0  0  0
    7.8391    2.2253   22.7260 N   0  0  0  0  0  0  0  0  0  0  0  0
    8.6968    9.8373   23.6359 C   0  0  0  0  0  0  0  0  0  0  0  0
   12.5135    6.5957   21.8396 C   0  0  0  0  0  0  0  0  0  0  0  0
   10.9406    8.2330   21.1350 C   0  0  0  0  0  0  0  0  0  0  0  0
    9.6648    8.5956   21.7310 C   0  0  0  0  0  0  0  0  0  0  0  0
   10.8829    1.7153   20.9865 C   0  0  0  0  0  0  0  0  0  0  0  0
    5.7768    2.8533   23.7910 C   0  0  0  0  0  0  0  0  0  0  0  0
    9.7977    1.4791   21.6912 N   0  0  0  0  0  0  0  0  0  0  0  0
    6.5976    9.3401   22.6478 N   0  0  0  0  0  0  0  0  0  0  0  0
   11.2031    3.0042   20.6246 C   0  0  0  0  0  0  0  0  0  0  0  0
   12.8688    7.7370   22.7287 C   0  0  0  0  0  0  0  0  0  0  0  0
    7.4487    9.1361   23.6506 C   0  0  0  0  0  0  0  0  0  0  0  0
    8.9772    2.5025   22.0273 C   0  0  0  0  0  0  0  0  0  0  0  0
   10.4859    4.0901   20.9730 C   0  0  0  0  0  0  0  0  0  0  0  0
   11.0962    9.3293   23.5072 C   0  0  0  0  0  0  0  0  0  0  0  0
    5.1273    7.8529   23.6208 N   0  0  0  0  0  0  0  0  0  0  0  0
    9.7552    9.2338   23.0171 N   0  0  0  0  0  0  0  0  0  0  0  0
   11.1797    6.7591   21.3326 N   0  0  0  0  0  0  0  0  0  0  0  0
   11.7728    8.0337   23.7267 C   0  0  0  0  0  0  0  0  0  0  0  0
    7.1194    8.3344   24.6775 C   0  0  0  0  0  0  0  0  0  0  0  0
    8.4311    4.7963   22.0500 C   0  0  0  0  0  0  0  0  0  0  0  0
    8.7393   10.8706   24.1871 O   0  0  0  0  0  0  0  0  0  0  0  0
    9.3093    3.8166   21.6712 C   0  0  0  0  0  0  0  0  0  0  0  0
  1  5  1  0
  1 15  4  0
  1 22  4  0
  2 20  1  0
  2 24  1  0
  3  6  4  0
  3 27  4  0
  4 22  4  0
  4 26  4  0
  6  7  4  0
  6 13  1  0
  7 19  4  0
  8 18  1  0
  8 23  1  0
  8 28  2  0
  9 17  1  0
  9 24  1  0
 10 11  1  0
 10 24  1  0
 11 23  1  0
 12 14  4  0
 12 16  4  0
 14 19  4  0
 15 18  4  0
 16 20  4  0
 17 25  1  0
 18 26  4  0
 19 29  4  0
 20 29  4  0
 21 23  1  0
 21 25  1  0
 27 29  4  0
M  END
$$$$

 Created by Python create_sdf_string function

 29 32  0  0  0  0  0  0  0  0999 V2000
    5.4450    8.7154   22.6662 C   0  0  0  0  0  0  0  0  0  0  0  0
   10.9154    5.4574   20.5483 C   0  0  0  0  0  0  0  0  0  0  0  0
    7.2709    4.5089   22.7542 C   0  0  0  0  0  0  0  0  0  0  0  0
    5.9698    7.6329   24.6581 C   0  0  0  0  0  0  0  0  0  0  0  0
    4.5542    8.9057   21.7104 O   0  0  0  0  0  0  0  0  0  0  0  0
    6.9895    3.2085   23.0690 C   0  0  0  0  0  0  0  0  0  0  0  0
    7.8391    2.2253   22.7260 N   0  0  0  0  0  0  0  0  0  0  0  0
    8.6968    9.8373   23.6359 C   0  0  0  0  0  0  0  0  0  0  0  0
   12.5135    6.5957   21.8396 C   0  0  0  0  0  0  0  0  0  0  0  0
   10.9406    8.2330   21.1350 C   0  0  0  0  0  0  0  0  0  0  0  0
    9.6648    8.5956   21.7310 C   0  0  0  0  0  0  0  0  0  0  0  0
   10.8829    1.7153   20.9865 C   0  0  0  0  0  0  0  0  0  0  0  0
    5.7768    2.8533   23.7910 C   0  0  0  0  0  0  0  0  0  0  0  0
    9.7977    1.4791   21.6912 N   0  0  0  0  0  0  0  0  0  0  0  0
    6.5976    9.3401   22.6478 N   0  0  0  0  0  0  0  0  0  0  0  0
   11.2031    3.0042   20.6246 C   0  0  0  0  0  0  0  0  0  0  0  0
   12.8688    7.7370   22.7287 C   0  0  0  0  0  0  0  0  0  0  0  0
    7.4487    9.1361   23.6506 C   0  0  0  0  0  0  0  0  0  0  0  0
    8.9772    2.5025   22.0273 C   0  0  0  0  0  0  0  0  0  0  0  0
   10.4859    4.0901   20.9730 C   0  0  0  0  0  0  0  0  0  0  0  0
   11.0962    9.3293   23.5072 C   0  0  0  0  0  0  0  0  0  0  0  0
    5.1273    7.8529   23.6208 N   0  0  0  0  0  0  0  0  0  0  0  0
    9.7552    9.2338   23.0171 N   0  0  0  0  0  0  0  0  0  0  0  0
   11.1797    6.7591   21.3326 N   0  0  0  0  0  0  0  0  0  0  0  0
   11.7728    8.0337   23.7267 C   0  0  0  0  0  0  0  0  0  0  0  0
    7.1194    8.3344   24.6775 C   0  0  0  0  0  0  0  0  0  0  0  0
    8.4311    4.7963   22.0500 C   0  0  0  0  0  0  0  0  0  0  0  0
    8.7393   10.8706   24.1871 O   0  0  0  0  0  0  0  0  0  0  0  0
    9.3093    3.8166   21.6712 C   0  0  0  0  0  0  0  0  0  0  0  0
  1  5  1  0
  1 15  4  0
  1 22  4  0
  2 20  1  0
  2 24  1  0
  3  6  4  0
  3 27  4  0
  4 22  4  0
  4 26  4  0
  6  7  4  0
  6 13  1  0
  7 19  4  0
  8 18  1  0
  8 23  1  0
  8 28  2  0
  9 17  1  0
  9 24  1  0
 10 11  1  0
 10 24  1  0
 11 23  1  0
 12 14  4  0
 12 16  4  0
 14 19  4  0
 15 18  4  0
 16 20  4  0
 17 25  1  0
 18 26  4  0
 19 29  4  0
 20 29  4  0
 21 23  1  0
 21 25  1  0
 27 29  4  0
M  END
$$$$

 Created by Python create_sdf_string function

 29 32  0  0  0  0  0  0  0  0999 V2000
    5.4450    8.7154   22.6662 C   0  0  0  0  0  0  0  0  0  0  0  0
   10.9154    5.4574   20.5483 C   0  0  0  0  0  0  0  0  0  0  0  0
    7.2709    4.5089   22.7542 C   0  0  0  0  0  0  0  0  0  0  0  0
    5.9698    7.6329   24.6581 C   0  0  0  0  0  0  0  0  0  0  0  0
    4.5542    8.9057   21.7104 O   0  0  0  0  0  0  0  0  0  0  0  0
    6.9895    3.2085   23.0690 C   0  0  0  0  0  0  0  0  0  0  0  0
    7.8391    2.2253   22.7260 N   0  0  0  0  0  0  0  0  0  0  0  0
    8.6968    9.8373   23.6359 C   0  0  0  0  0  0  0  0  0  0  0  0
   12.5135    6.5957   21.8396 C   0  0  0  0  0  0  0  0  0  0  0  0
   10.9406    8.2330   21.1350 C   0  0  0  0  0  0  0  0  0  0  0  0
    9.6648    8.5956   21.7310 C   0  0  0  0  0  0  0  0  0  0  0  0
   10.8829    1.7153   20.9865 C   0  0  0  0  0  0  0  0  0  0  0  0
    5.7768    2.8533   23.7910 C   0  0  0  0  0  0  0  0  0  0  0  0
    9.7977    1.4791   21.6912 N   0  0  0  0  0  0  0  0  0  0  0  0
    6.5976    9.3401   22.6478 N   0  0  0  0  0  0  0  0  0  0  0  0
   11.2031    3.0042   20.6246 C   0  0  0  0  0  0  0  0  0  0  0  0
   12.8688    7.7370   22.7287 C   0  0  0  0  0  0  0  0  0  0  0  0
    7.4487    9.1361   23.6506 C   0  0  0  0  0  0  0  0  0  0  0  0
    8.9772    2.5025   22.0273 C   0  0  0  0  0  0  0  0  0  0  0  0
   10.4859    4.0901   20.9730 C   0  0  0  0  0  0  0  0  0  0  0  0
   11.0962    9.3293   23.5072 C   0  0  0  0  0  0  0  0  0  0  0  0
    5.1273    7.8529   23.6208 N   0  0  0  0  0  0  0  0  0  0  0  0
    9.7552    9.2338   23.0171 N   0  0  0  0  0  0  0  0  0  0  0  0
   11.1797    6.7591   21.3326 N   0  0  0  0  0  0  0  0  0  0  0  0
   11.7728    8.0337   23.7267 C   0  0  0  0  0  0  0  0  0  0  0  0
    7.1194    8.3344   24.6775 C   0  0  0  0  0  0  0  0  0  0  0  0
    8.4311    4.7963   22.0500 C   0  0  0  0  0  0  0  0  0  0  0  0
    8.7393   10.8706   24.1871 O   0  0  0  0  0  0  0  0  0  0  0  0
    9.3093    3.8166   21.6712 C   0  0  0  0  0  0  0  0  0  0  0  0
  1  5  1  0
  1 15  4  0
  1 22  4  0
  2 20  1  0
  2 24  1  0
  3  6  4  0
  3 27  4  0
  4 22  4  0
  4 26  4  0
  6  7  4  0
  6 13  1  0
  7 19  4  0
  8 18  1  0
  8 23  1  0
  8 28  2  0
  9 17  1  0
  9 24  1  0
 10 11  1  0
 10 24  1  0
 11 23  1  0
 12 14  4  0
 12 16  4  0
 14 19  4  0
 15 18  4  0
 16 20  4  0
 17 25  1  0
 18 26  4  0
 19 29  4  0
 20 29  4  0
 21 23  1  0
 21 25  1  0
 27 29  4  0
M  END
$$$$

 Created by Python create_sdf_string function

 29 32  0  0  0  0  0  0  0  0999 V2000
    5.4450    8.7154   22.6662 C   0  0  0  0  0  0  0  0  0  0  0  0
   10.9154    5.4574   20.5483 C   0  0  0  0  0  0  0  0  0  0  0  0
    7.2709    4.5089   22.7542 C   0  0  0  0  0  0  0  0  0  0  0  0
    5.9698    7.6329   24.6581 C   0  0  0  0  0  0  0  0  0  0  0  0
    4.5542    8.9057   21.7104 O   0  0  0  0  0  0  0  0  0  0  0  0
    6.9895    3.2085   23.0690 C   0  0  0  0  0  0  0  0  0  0  0  0
    7.8391    2.2253   22.7260 N   0  0  0  0  0  0  0  0  0  0  0  0
    8.6968    9.8373   23.6359 C   0  0  0  0  0  0  0  0  0  0  0  0
   12.5135    6.5957   21.8396 C   0  0  0  0  0  0  0  0  0  0  0  0
   10.9406    8.2330   21.1350 C   0  0  0  0  0  0  0  0  0  0  0  0
    9.6648    8.5956   21.7310 C   0  0  0  0  0  0  0  0  0  0  0  0
   10.8829    1.7153   20.9865 C   0  0  0  0  0  0  0  0  0  0  0  0
    5.7768    2.8533   23.7910 C   0  0  0  0  0  0  0  0  0  0  0  0
    9.7977    1.4791   21.6912 N   0  0  0  0  0  0  0  0  0  0  0  0
    6.5976    9.3401   22.6478 N   0  0  0  0  0  0  0  0  0  0  0  0
   11.2031    3.0042   20.6246 C   0  0  0  0  0  0  0  0  0  0  0  0
   12.8688    7.7370   22.7287 C   0  0  0  0  0  0  0  0  0  0  0  0
    7.4487    9.1361   23.6506 C   0  0  0  0  0  0  0  0  0  0  0  0
    8.9772    2.5025   22.0273 C   0  0  0  0  0  0  0  0  0  0  0  0
   10.4859    4.0901   20.9730 C   0  0  0  0  0  0  0  0  0  0  0  0
   11.0962    9.3293   23.5072 C   0  0  0  0  0  0  0  0  0  0  0  0
    5.1273    7.8529   23.6208 N   0  0  0  0  0  0  0  0  0  0  0  0
    9.7552    9.2338   23.0171 N   0  0  0  0  0  0  0  0  0  0  0  0
   11.1797    6.7591   21.3326 N   0  0  0  0  0  0  0  0  0  0  0  0
   11.7728    8.0337   23.7267 C   0  0  0  0  0  0  0  0  0  0  0  0
    7.1194    8.3344   24.6775 C   0  0  0  0  0  0  0  0  0  0  0  0
    8.4311    4.7963   22.0500 C   0  0  0  0  0  0  0  0  0  0  0  0
    8.7393   10.8706   24.1871 O   0  0  0  0  0  0  0  0  0  0  0  0
    9.3093    3.8166   21.6712 C   0  0  0  0  0  0  0  0  0  0  0  0
  1  5  1  0
  1 15  4  0
  1 22  4  0
  2 20  1  0
  2 24  1  0
  3  6  4  0
  3 27  4  0
  4 22  4  0
  4 26  4  0
  6  7  4  0
  6 13  1  0
  7 19  4  0
  8 18  1  0
  8 23  1  0
  8 28  2  0
  9 17  1  0
  9 24  1  0
 10 11  1  0
 10 24  1  0
 11 23  1  0
 12 14  4  0
 12 16  4  0
 14 19  4  0
 15 18  4  0
 16 20  4  0
 17 25  1  0
 18 26  4  0
 19 29  4  0
 20 29  4  0
 21 23  1  0
 21 25  1  0
 27 29  4  0
M  END
$$$$

 Created by Python create_sdf_string function

 29 32  0  0  0  0  0  0  0  0999 V2000
    5.4450    8.7154   22.6662 C   0  0  0  0  0  0  0  0  0  0  0  0
   10.9154    5.4574   20.5483 C   0  0  0  0  0  0  0  0  0  0  0  0
    7.2709    4.5089   22.7542 C   0  0  0  0  0  0  0  0  0  0  0  0
    5.9698    7.6329   24.6581 C   0  0  0  0  0  0  0  0  0  0  0  0
    4.5542    8.9057   21.7104 O   0  0  0  0  0  0  0  0  0  0  0  0
    6.9895    3.2085   23.0690 C   0  0  0  0  0  0  0  0  0  0  0  0
    7.8391    2.2253   22.7260 N   0  0  0  0  0  0  0  0  0  0  0  0
    8.6968    9.8373   23.6359 C   0  0  0  0  0  0  0  0  0  0  0  0
   12.5135    6.5957   21.8396 C   0  0  0  0  0  0  0  0  0  0  0  0
   10.9406    8.2330   21.1350 C   0  0  0  0  0  0  0  0  0  0  0  0
    9.6648    8.5956   21.7310 C   0  0  0  0  0  0  0  0  0  0  0  0
   10.8829    1.7153   20.9865 C   0  0  0  0  0  0  0  0  0  0  0  0
    5.7768    2.8533   23.7910 C   0  0  0  0  0  0  0  0  0  0  0  0
    9.7977    1.4791   21.6912 N   0  0  0  0  0  0  0  0  0  0  0  0
    6.5976    9.3401   22.6478 N   0  0  0  0  0  0  0  0  0  0  0  0
   11.2031    3.0042   20.6246 C   0  0  0  0  0  0  0  0  0  0  0  0
   12.8688    7.7370   22.7287 C   0  0  0  0  0  0  0  0  0  0  0  0
    7.4487    9.1361   23.6506 C   0  0  0  0  0  0  0  0  0  0  0  0
    8.9772    2.5025   22.0273 C   0  0  0  0  0  0  0  0  0  0  0  0
   10.4859    4.0901   20.9730 C   0  0  0  0  0  0  0  0  0  0  0  0
   11.0962    9.3293   23.5072 C   0  0  0  0  0  0  0  0  0  0  0  0
    5.1273    7.8529   23.6208 N   0  0  0  0  0  0  0  0  0  0  0  0
    9.7552    9.2338   23.0171 N   0  0  0  0  0  0  0  0  0  0  0  0
   11.1797    6.7591   21.3326 N   0  0  0  0  0  0  0  0  0  0  0  0
   11.7728    8.0337   23.7267 C   0  0  0  0  0  0  0  0  0  0  0  0
    7.1194    8.3344   24.6775 C   0  0  0  0  0  0  0  0  0  0  0  0
    8.4311    4.7963   22.0500 C   0  0  0  0  0  0  0  0  0  0  0  0
    8.7393   10.8706   24.1871 O   0  0  0  0  0  0  0  0  0  0  0  0
    9.3093    3.8166   21.6712 C   0  0  0  0  0  0  0  0  0  0  0  0
  1  5  1  0
  1 15  4  0
  1 22  4  0
  2 20  1  0
  2 24  1  0
  3  6  4  0
  3 27  4  0
  4 22  4  0
  4 26  4  0
  6  7  4  0
  6 13  1  0
  7 19  4  0
  8 18  1  0
  8 23  1  0
  8 28  2  0
  9 17  1  0
  9 24  1  0
 10 11  1  0
 10 24  1  0
 11 23  1  0
 12 14  4  0
 12 16  4  0
 14 19  4  0
 15 18  4  0
 16 20  4  0
 17 25  1  0
 18 26  4  0
 19 29  4  0
 20 29  4  0
 21 23  1  0
 21 25  1  0
 27 29  4  0
M  END
$$$$

 Created by Python create_sdf_string function

 29 32  0  0  0  0  0  0  0  0999 V2000
    5.4450    8.7154   22.6662 C   0  0  0  0  0  0  0  0  0  0  0  0
   10.9154    5.4574   20.5483 C   0  0  0  0  0  0  0  0  0  0  0  0
    7.2709    4.5089   22.7542 C   0  0  0  0  0  0  0  0  0  0  0  0
    5.9698    7.6329   24.6581 C   0  0  0  0  0  0  0  0  0  0  0  0
    4.5542    8.9057   21.7104 O   0  0  0  0  0  0  0  0  0  0  0  0
    6.9895    3.2085   23.0690 C   0  0  0  0  0  0  0  0  0  0  0  0
    7.8391    2.2253   22.7260 N   0  0  0  0  0  0  0  0  0  0  0  0
    8.6968    9.8373   23.6359 C   0  0  0  0  0  0  0  0  0  0  0  0
   12.5135    6.5957   21.8396 C   0  0  0  0  0  0  0  0  0  0  0  0
   10.9406    8.2330   21.1350 C   0  0  0  0  0  0  0  0  0  0  0  0
    9.6648    8.5956   21.7310 C   0  0  0  0  0  0  0  0  0  0  0  0
   10.8829    1.7153   20.9865 C   0  0  0  0  0  0  0  0  0  0  0  0
    5.7768    2.8533   23.7910 C   0  0  0  0  0  0  0  0  0  0  0  0
    9.7977    1.4791   21.6912 N   0  0  0  0  0  0  0  0  0  0  0  0
    6.5976    9.3401   22.6478 N   0  0  0  0  0  0  0  0  0  0  0  0
   11.2031    3.0042   20.6246 C   0  0  0  0  0  0  0  0  0  0  0  0
   12.8688    7.7370   22.7287 C   0  0  0  0  0  0  0  0  0  0  0  0
    7.4487    9.1361   23.6506 C   0  0  0  0  0  0  0  0  0  0  0  0
    8.9772    2.5025   22.0273 C   0  0  0  0  0  0  0  0  0  0  0  0
   10.4859    4.0901   20.9730 C   0  0  0  0  0  0  0  0  0  0  0  0
   11.0962    9.3293   23.5072 C   0  0  0  0  0  0  0  0  0  0  0  0
    5.1273    7.8529   23.6208 N   0  0  0  0  0  0  0  0  0  0  0  0
    9.7552    9.2338   23.0171 N   0  0  0  0  0  0  0  0  0  0  0  0
   11.1797    6.7591   21.3326 N   0  0  0  0  0  0  0  0  0  0  0  0
   11.7728    8.0337   23.7267 C   0  0  0  0  0  0  0  0  0  0  0  0
    7.1194    8.3344   24.6775 C   0  0  0  0  0  0  0  0  0  0  0  0
    8.4311    4.7963   22.0500 C   0  0  0  0  0  0  0  0  0  0  0  0
    8.7393   10.8706   24.1871 O   0  0  0  0  0  0  0  0  0  0  0  0
    9.3093    3.8166   21.6712 C   0  0  0  0  0  0  0  0  0  0  0  0
  1  5  1  0
  1 15  4  0
  1 22  4  0
  2 20  1  0
  2 24  1  0
  3  6  4  0
  3 27  4  0
  4 22  4  0
  4 26  4  0
  6  7  4  0
  6 13  1  0
  7 19  4  0
  8 18  1  0
  8 23  1  0
  8 28  2  0
  9 17  1  0
  9 24  1  0
 10 11  1  0
 10 24  1  0
 11 23  1  0
 12 14  4  0
 12 16  4  0
 14 19  4  0
 15 18  4  0
 16 20  4  0
 17 25  1  0
 18 26  4  0
 19 29  4  0
 20 29  4  0
 21 23  1  0
 21 25  1  0
 27 29  4  0
M  END
$$$$

 Created by Python create_sdf_string function

 29 32  0  0  0  0  0  0  0  0999 V2000
    5.4450    8.7154   22.6662 C   0  0  0  0  0  0  0  0  0  0  0  0
   10.9154    5.4574   20.5483 C   0  0  0  0  0  0  0  0  0  0  0  0
    7.2709    4.5089   22.7542 C   0  0  0  0  0  0  0  0  0  0  0  0
    5.9698    7.6329   24.6581 C   0  0  0  0  0  0  0  0  0  0  0  0
    4.5542    8.9057   21.7104 O   0  0  0  0  0  0  0  0  0  0  0  0
    6.9895    3.2085   23.0690 C   0  0  0  0  0  0  0  0  0  0  0  0
    7.8391    2.2253   22.7260 N   0  0  0  0  0  0  0  0  0  0  0  0
    8.6968    9.8373   23.6359 C   0  0  0  0  0  0  0  0  0  0  0  0
   12.5135    6.5957   21.8396 C   0  0  0  0  0  0  0  0  0  0  0  0
   10.9406    8.2330   21.1350 C   0  0  0  0  0  0  0  0  0  0  0  0
    9.6648    8.5956   21.7310 C   0  0  0  0  0  0  0  0  0  0  0  0
   10.8829    1.7153   20.9865 C   0  0  0  0  0  0  0  0  0  0  0  0
    5.7768    2.8533   23.7910 C   0  0  0  0  0  0  0  0  0  0  0  0
    9.7977    1.4791   21.6912 N   0  0  0  0  0  0  0  0  0  0  0  0
    6.5976    9.3401   22.6478 N   0  0  0  0  0  0  0  0  0  0  0  0
   11.2031    3.0042   20.6246 C   0  0  0  0  0  0  0  0  0  0  0  0
   12.8688    7.7370   22.7287 C   0  0  0  0  0  0  0  0  0  0  0  0
    7.4487    9.1361   23.6506 C   0  0  0  0  0  0  0  0  0  0  0  0
    8.9772    2.5025   22.0273 C   0  0  0  0  0  0  0  0  0  0  0  0
   10.4859    4.0901   20.9730 C   0  0  0  0  0  0  0  0  0  0  0  0
   11.0962    9.3293   23.5072 C   0  0  0  0  0  0  0  0  0  0  0  0
    5.1273    7.8529   23.6208 N   0  0  0  0  0  0  0  0  0  0  0  0
    9.7552    9.2338   23.0171 N   0  0  0  0  0  0  0  0  0  0  0  0
   11.1797    6.7591   21.3326 N   0  0  0  0  0  0  0  0  0  0  0  0
   11.7728    8.0337   23.7267 C   0  0  0  0  0  0  0  0  0  0  0  0
    7.1194    8.3344   24.6775 C   0  0  0  0  0  0  0  0  0  0  0  0
    8.4311    4.7963   22.0500 C   0  0  0  0  0  0  0  0  0  0  0  0
    8.7393   10.8706   24.1871 O   0  0  0  0  0  0  0  0  0  0  0  0
    9.3093    3.8166   21.6712 C   0  0  0  0  0  0  0  0  0  0  0  0
  1  5  1  0
  1 15  4  0
  1 22  4  0
  2 20  1  0
  2 24  1  0
  3  6  4  0
  3 27  4  0
  4 22  4  0
  4 26  4  0
  6  7  4  0
  6 13  1  0
  7 19  4  0
  8 18  1  0
  8 23  1  0
  8 28  2  0
  9 17  1  0
  9 24  1  0
 10 11  1  0
 10 24  1  0
 11 23  1  0
 12 14  4  0
 12 16  4  0
 14 19  4  0
 15 18  4  0
 16 20  4  0
 17 25  1  0
 18 26  4  0
 19 29  4  0
 20 29  4  0
 21 23  1  0
 21 25  1  0
 27 29  4  0
M  END
$$$$

 Created by Python create_sdf_string function

 29 32  0  0  0  0  0  0  0  0999 V2000
    5.4450    8.7154   22.6662 C   0  0  0  0  0  0  0  0  0  0  0  0
   10.9154    5.4574   20.5483 C   0  0  0  0  0  0  0  0  0  0  0  0
    7.2709    4.5089   22.7542 C   0  0  0  0  0  0  0  0  0  0  0  0
    5.9698    7.6329   24.6581 C   0  0  0  0  0  0  0  0  0  0  0  0
    4.5542    8.9057   21.7104 O   0  0  0  0  0  0  0  0  0  0  0  0
    6.9895    3.2085   23.0690 C   0  0  0  0  0  0  0  0  0  0  0  0
    7.8391    2.2253   22.7260 N   0  0  0  0  0  0  0  0  0  0  0  0
    8.6968    9.8373   23.6359 C   0  0  0  0  0  0  0  0  0  0  0  0
   12.5135    6.5957   21.8396 C   0  0  0  0  0  0  0  0  0  0  0  0
   10.9406    8.2330   21.1350 C   0  0  0  0  0  0  0  0  0  0  0  0
    9.6648    8.5956   21.7310 C   0  0  0  0  0  0  0  0  0  0  0  0
   10.8829    1.7153   20.9865 C   0  0  0  0  0  0  0  0  0  0  0  0
    5.7768    2.8533   23.7910 C   0  0  0  0  0  0  0  0  0  0  0  0
    9.7977    1.4791   21.6912 N   0  0  0  0  0  0  0  0  0  0  0  0
    6.5976    9.3401   22.6478 N   0  0  0  0  0  0  0  0  0  0  0  0
   11.2031    3.0042   20.6246 C   0  0  0  0  0  0  0  0  0  0  0  0
   12.8688    7.7370   22.7287 C   0  0  0  0  0  0  0  0  0  0  0  0
    7.4487    9.1361   23.6506 C   0  0  0  0  0  0  0  0  0  0  0  0
    8.9772    2.5025   22.0273 C   0  0  0  0  0  0  0  0  0  0  0  0
   10.4859    4.0901   20.9730 C   0  0  0  0  0  0  0  0  0  0  0  0
   11.0962    9.3293   23.5072 C   0  0  0  0  0  0  0  0  0  0  0  0
    5.1273    7.8529   23.6208 N   0  0  0  0  0  0  0  0  0  0  0  0
    9.7552    9.2338   23.0171 N   0  0  0  0  0  0  0  0  0  0  0  0
   11.1797    6.7591   21.3326 N   0  0  0  0  0  0  0  0  0  0  0  0
   11.7728    8.0337   23.7267 C   0  0  0  0  0  0  0  0  0  0  0  0
    7.1194    8.3344   24.6775 C   0  0  0  0  0  0  0  0  0  0  0  0
    8.4311    4.7963   22.0500 C   0  0  0  0  0  0  0  0  0  0  0  0
    8.7393   10.8706   24.1871 O   0  0  0  0  0  0  0  0  0  0  0  0
    9.3093    3.8166   21.6712 C   0  0  0  0  0  0  0  0  0  0  0  0
  1  5  1  0
  1 15  4  0
  1 22  4  0
  2 20  1  0
  2 24  1  0
  3  6  4  0
  3 27  4  0
  4 22  4  0
  4 26  4  0
  6  7  4  0
  6 13  1  0
  7 19  4  0
  8 18  1  0
  8 23  1  0
  8 28  2  0
  9 17  1  0
  9 24  1  0
 10 11  1  0
 10 24  1  0
 11 23  1  0
 12 14  4  0
 12 16  4  0
 14 19  4  0
 15 18  4  0
 16 20  4  0
 17 25  1  0
 18 26  4  0
 19 29  4  0
 20 29  4  0
 21 23  1  0
 21 25  1  0
 27 29  4  0
M  END
$$$$

 Created by Python create_sdf_string function

 29 32  0  0  0  0  0  0  0  0999 V2000
    5.4450    8.7154   22.6662 C   0  0  0  0  0  0  0  0  0  0  0  0
   10.9154    5.4574   20.5483 C   0  0  0  0  0  0  0  0  0  0  0  0
    7.2709    4.5089   22.7542 C   0  0  0  0  0  0  0  0  0  0  0  0
    5.9698    7.6329   24.6581 C   0  0  0  0  0  0  0  0  0  0  0  0
    4.5542    8.9057   21.7104 O   0  0  0  0  0  0  0  0  0  0  0  0
    6.9895    3.2085   23.0690 C   0  0  0  0  0  0  0  0  0  0  0  0
    7.8391    2.2253   22.7260 N   0  0  0  0  0  0  0  0  0  0  0  0
    8.6968    9.8373   23.6359 C   0  0  0  0  0  0  0  0  0  0  0  0
   12.5135    6.5957   21.8396 C   0  0  0  0  0  0  0  0  0  0  0  0
   10.9406    8.2330   21.1350 C   0  0  0  0  0  0  0  0  0  0  0  0
    9.6648    8.5956   21.7310 C   0  0  0  0  0  0  0  0  0  0  0  0
   10.8829    1.7153   20.9865 C   0  0  0  0  0  0  0  0  0  0  0  0
    5.7768    2.8533   23.7910 C   0  0  0  0  0  0  0  0  0  0  0  0
    9.7977    1.4791   21.6912 N   0  0  0  0  0  0  0  0  0  0  0  0
    6.5976    9.3401   22.6478 N   0  0  0  0  0  0  0  0  0  0  0  0
   11.2031    3.0042   20.6246 C   0  0  0  0  0  0  0  0  0  0  0  0
   12.8688    7.7370   22.7287 C   0  0  0  0  0  0  0  0  0  0  0  0
    7.4487    9.1361   23.6506 C   0  0  0  0  0  0  0  0  0  0  0  0
    8.9772    2.5025   22.0273 C   0  0  0  0  0  0  0  0  0  0  0  0
   10.4859    4.0901   20.9730 C   0  0  0  0  0  0  0  0  0  0  0  0
   11.0962    9.3293   23.5072 C   0  0  0  0  0  0  0  0  0  0  0  0
    5.1273    7.8529   23.6208 N   0  0  0  0  0  0  0  0  0  0  0  0
    9.7552    9.2338   23.0171 N   0  0  0  0  0  0  0  0  0  0  0  0
   11.1797    6.7591   21.3326 N   0  0  0  0  0  0  0  0  0  0  0  0
   11.7728    8.0337   23.7267 C   0  0  0  0  0  0  0  0  0  0  0  0
    7.1194    8.3344   24.6775 C   0  0  0  0  0  0  0  0  0  0  0  0
    8.4311    4.7963   22.0500 C   0  0  0  0  0  0  0  0  0  0  0  0
    8.7393   10.8706   24.1871 O   0  0  0  0  0  0  0  0  0  0  0  0
    9.3093    3.8166   21.6712 C   0  0  0  0  0  0  0  0  0  0  0  0
  1  5  1  0
  1 15  4  0
  1 22  4  0
  2 20  1  0
  2 24  1  0
  3  6  4  0
  3 27  4  0
  4 22  4  0
  4 26  4  0
  6  7  4  0
  6 13  1  0
  7 19  4  0
  8 18  1  0
  8 23  1  0
  8 28  2  0
  9 17  1  0
  9 24  1  0
 10 11  1  0
 10 24  1  0
 11 23  1  0
 12 14  4  0
 12 16  4  0
 14 19  4  0
 15 18  4  0
 16 20  4  0
 17 25  1  0
 18 26  4  0
 19 29  4  0
 20 29  4  0
 21 23  1  0
 21 25  1  0
 27 29  4  0
M  END
$$$$

 Created by Python create_sdf_string function

 29 32  0  0  0  0  0  0  0  0999 V2000
    5.4450    8.7154   22.6662 C   0  0  0  0  0  0  0  0  0  0  0  0
   10.9154    5.4574   20.5483 C   0  0  0  0  0  0  0  0  0  0  0  0
    7.2709    4.5089   22.7542 C   0  0  0  0  0  0  0  0  0  0  0  0
    5.9698    7.6329   24.6581 C   0  0  0  0  0  0  0  0  0  0  0  0
    4.5542    8.9057   21.7104 O   0  0  0  0  0  0  0  0  0  0  0  0
    6.9895    3.2085   23.0690 C   0  0  0  0  0  0  0  0  0  0  0  0
    7.8391    2.2253   22.7260 N   0  0  0  0  0  0  0  0  0  0  0  0
    8.6968    9.8373   23.6359 C   0  0  0  0  0  0  0  0  0  0  0  0
   12.5135    6.5957   21.8396 C   0  0  0  0  0  0  0  0  0  0  0  0
   10.9406    8.2330   21.1350 C   0  0  0  0  0  0  0  0  0  0  0  0
    9.6648    8.5956   21.7310 C   0  0  0  0  0  0  0  0  0  0  0  0
   10.8829    1.7153   20.9865 C   0  0  0  0  0  0  0  0  0  0  0  0
    5.7768    2.8533   23.7910 C   0  0  0  0  0  0  0  0  0  0  0  0
    9.7977    1.4791   21.6912 N   0  0  0  0  0  0  0  0  0  0  0  0
    6.5976    9.3401   22.6478 N   0  0  0  0  0  0  0  0  0  0  0  0
   11.2031    3.0042   20.6246 C   0  0  0  0  0  0  0  0  0  0  0  0
   12.8688    7.7370   22.7287 C   0  0  0  0  0  0  0  0  0  0  0  0
    7.4487    9.1361   23.6506 C   0  0  0  0  0  0  0  0  0  0  0  0
    8.9772    2.5025   22.0273 C   0  0  0  0  0  0  0  0  0  0  0  0
   10.4859    4.0901   20.9730 C   0  0  0  0  0  0  0  0  0  0  0  0
   11.0962    9.3293   23.5072 C   0  0  0  0  0  0  0  0  0  0  0  0
    5.1273    7.8529   23.6208 N   0  0  0  0  0  0  0  0  0  0  0  0
    9.7552    9.2338   23.0171 N   0  0  0  0  0  0  0  0  0  0  0  0
   11.1797    6.7591   21.3326 N   0  0  0  0  0  0  0  0  0  0  0  0
   11.7728    8.0337   23.7267 C   0  0  0  0  0  0  0  0  0  0  0  0
    7.1194    8.3344   24.6775 C   0  0  0  0  0  0  0  0  0  0  0  0
    8.4311    4.7963   22.0500 C   0  0  0  0  0  0  0  0  0  0  0  0
    8.7393   10.8706   24.1871 O   0  0  0  0  0  0  0  0  0  0  0  0
    9.3093    3.8166   21.6712 C   0  0  0  0  0  0  0  0  0  0  0  0
  1  5  1  0
  1 15  4  0
  1 22  4  0
  2 20  1  0
  2 24  1  0
  3  6  4  0
  3 27  4  0
  4 22  4  0
  4 26  4  0
  6  7  4  0
  6 13  1  0
  7 19  4  0
  8 18  1  0
  8 23  1  0
  8 28  2  0
  9 17  1  0
  9 24  1  0
 10 11  1  0
 10 24  1  0
 11 23  1  0
 12 14  4  0
 12 16  4  0
 14 19  4  0
 15 18  4  0
 16 20  4  0
 17 25  1  0
 18 26  4  0
 19 29  4  0
 20 29  4  0
 21 23  1  0
 21 25  1  0
 27 29  4  0
M  END
$$$$

 Created by Python create_sdf_string function

 29 32  0  0  0  0  0  0  0  0999 V2000
    5.4450    8.7154   22.6662 C   0  0  0  0  0  0  0  0  0  0  0  0
   10.9154    5.4574   20.5483 C   0  0  0  0  0  0  0  0  0  0  0  0
    7.2709    4.5089   22.7542 C   0  0  0  0  0  0  0  0  0  0  0  0
    5.9698    7.6329   24.6581 C   0  0  0  0  0  0  0  0  0  0  0  0
    4.5542    8.9057   21.7104 O   0  0  0  0  0  0  0  0  0  0  0  0
    6.9895    3.2085   23.0690 C   0  0  0  0  0  0  0  0  0  0  0  0
    7.8391    2.2253   22.7260 N   0  0  0  0  0  0  0  0  0  0  0  0
    8.6968    9.8373   23.6359 C   0  0  0  0  0  0  0  0  0  0  0  0
   12.5135    6.5957   21.8396 C   0  0  0  0  0  0  0  0  0  0  0  0
   10.9406    8.2330   21.1350 C   0  0  0  0  0  0  0  0  0  0  0  0
    9.6648    8.5956   21.7310 C   0  0  0  0  0  0  0  0  0  0  0  0
   10.8829    1.7153   20.9865 C   0  0  0  0  0  0  0  0  0  0  0  0
    5.7768    2.8533   23.7910 C   0  0  0  0  0  0  0  0  0  0  0  0
    9.7977    1.4791   21.6912 N   0  0  0  0  0  0  0  0  0  0  0  0
    6.5976    9.3401   22.6478 N   0  0  0  0  0  0  0  0  0  0  0  0
   11.2031    3.0042   20.6246 C   0  0  0  0  0  0  0  0  0  0  0  0
   12.8688    7.7370   22.7287 C   0  0  0  0  0  0  0  0  0  0  0  0
    7.4487    9.1361   23.6506 C   0  0  0  0  0  0  0  0  0  0  0  0
    8.9772    2.5025   22.0273 C   0  0  0  0  0  0  0  0  0  0  0  0
   10.4859    4.0901   20.9730 C   0  0  0  0  0  0  0  0  0  0  0  0
   11.0962    9.3293   23.5072 C   0  0  0  0  0  0  0  0  0  0  0  0
    5.1273    7.8529   23.6208 N   0  0  0  0  0  0  0  0  0  0  0  0
    9.7552    9.2338   23.0171 N   0  0  0  0  0  0  0  0  0  0  0  0
   11.1797    6.7591   21.3326 N   0  0  0  0  0  0  0  0  0  0  0  0
   11.7728    8.0337   23.7267 C   0  0  0  0  0  0  0  0  0  0  0  0
    7.1194    8.3344   24.6775 C   0  0  0  0  0  0  0  0  0  0  0  0
    8.4311    4.7963   22.0500 C   0  0  0  0  0  0  0  0  0  0  0  0
    8.7393   10.8706   24.1871 O   0  0  0  0  0  0  0  0  0  0  0  0
    9.3093    3.8166   21.6712 C   0  0  0  0  0  0  0  0  0  0  0  0
  1  5  1  0
  1 15  4  0
  1 22  4  0
  2 20  1  0
  2 24  1  0
  3  6  4  0
  3 27  4  0
  4 22  4  0
  4 26  4  0
  6  7  4  0
  6 13  1  0
  7 19  4  0
  8 18  1  0
  8 23  1  0
  8 28  2  0
  9 17  1  0
  9 24  1  0
 10 11  1  0
 10 24  1  0
 11 23  1  0
 12 14  4  0
 12 16  4  0
 14 19  4  0
 15 18  4  0
 16 20  4  0
 17 25  1  0
 18 26  4  0
 19 29  4  0
 20 29  4  0
 21 23  1  0
 21 25  1  0
 27 29  4  0
M  END
$$$$

 Created by Python create_sdf_string function

 29 32  0  0  0  0  0  0  0  0999 V2000
    5.4450    8.7154   22.6662 C   0  0  0  0  0  0  0  0  0  0  0  0
   10.9154    5.4574   20.5483 C   0  0  0  0  0  0  0  0  0  0  0  0
    7.2709    4.5089   22.7542 C   0  0  0  0  0  0  0  0  0  0  0  0
    5.9698    7.6329   24.6581 C   0  0  0  0  0  0  0  0  0  0  0  0
    4.5542    8.9057   21.7104 O   0  0  0  0  0  0  0  0  0  0  0  0
    6.9895    3.2085   23.0690 C   0  0  0  0  0  0  0  0  0  0  0  0
    7.8391    2.2253   22.7260 N   0  0  0  0  0  0  0  0  0  0  0  0
    8.6968    9.8373   23.6359 C   0  0  0  0  0  0  0  0  0  0  0  0
   12.5135    6.5957   21.8396 C   0  0  0  0  0  0  0  0  0  0  0  0
   10.9406    8.2330   21.1350 C   0  0  0  0  0  0  0  0  0  0  0  0
    9.6648    8.5956   21.7310 C   0  0  0  0  0  0  0  0  0  0  0  0
   10.8829    1.7153   20.9865 C   0  0  0  0  0  0  0  0  0  0  0  0
    5.7768    2.8533   23.7910 C   0  0  0  0  0  0  0  0  0  0  0  0
    9.7977    1.4791   21.6912 N   0  0  0  0  0  0  0  0  0  0  0  0
    6.5976    9.3401   22.6478 N   0  0  0  0  0  0  0  0  0  0  0  0
   11.2031    3.0042   20.6246 C   0  0  0  0  0  0  0  0  0  0  0  0
   12.8688    7.7370   22.7287 C   0  0  0  0  0  0  0  0  0  0  0  0
    7.4487    9.1361   23.6506 C   0  0  0  0  0  0  0  0  0  0  0  0
    8.9772    2.5025   22.0273 C   0  0  0  0  0  0  0  0  0  0  0  0
   10.4859    4.0901   20.9730 C   0  0  0  0  0  0  0  0  0  0  0  0
   11.0962    9.3293   23.5072 C   0  0  0  0  0  0  0  0  0  0  0  0
    5.1273    7.8529   23.6208 N   0  0  0  0  0  0  0  0  0  0  0  0
    9.7552    9.2338   23.0171 N   0  0  0  0  0  0  0  0  0  0  0  0
   11.1797    6.7591   21.3326 N   0  0  0  0  0  0  0  0  0  0  0  0
   11.7728    8.0337   23.7267 C   0  0  0  0  0  0  0  0  0  0  0  0
    7.1194    8.3344   24.6775 C   0  0  0  0  0  0  0  0  0  0  0  0
    8.4311    4.7963   22.0500 C   0  0  0  0  0  0  0  0  0  0  0  0
    8.7393   10.8706   24.1871 O   0  0  0  0  0  0  0  0  0  0  0  0
    9.3093    3.8166   21.6712 C   0  0  0  0  0  0  0  0  0  0  0  0
  1  5  1  0
  1 15  4  0
  1 22  4  0
  2 20  1  0
  2 24  1  0
  3  6  4  0
  3 27  4  0
  4 22  4  0
  4 26  4  0
  6  7  4  0
  6 13  1  0
  7 19  4  0
  8 18  1  0
  8 23  1  0
  8 28  2  0
  9 17  1  0
  9 24  1  0
 10 11  1  0
 10 24  1  0
 11 23  1  0
 12 14  4  0
 12 16  4  0
 14 19  4  0
 15 18  4  0
 16 20  4  0
 17 25  1  0
 18 26  4  0
 19 29  4  0
 20 29  4  0
 21 23  1  0
 21 25  1  0
 27 29  4  0
M  END
$$$$

 Created by Python create_sdf_string function

 29 32  0  0  0  0  0  0  0  0999 V2000
    5.4450    8.7154   22.6662 C   0  0  0  0  0  0  0  0  0  0  0  0
   10.9154    5.4574   20.5483 C   0  0  0  0  0  0  0  0  0  0  0  0
    7.2709    4.5089   22.7542 C   0  0  0  0  0  0  0  0  0  0  0  0
    5.9698    7.6329   24.6581 C   0  0  0  0  0  0  0  0  0  0  0  0
    4.5542    8.9057   21.7104 O   0  0  0  0  0  0  0  0  0  0  0  0
    6.9895    3.2085   23.0690 C   0  0  0  0  0  0  0  0  0  0  0  0
    7.8391    2.2253   22.7260 N   0  0  0  0  0  0  0  0  0  0  0  0
    8.6968    9.8373   23.6359 C   0  0  0  0  0  0  0  0  0  0  0  0
   12.5135    6.5957   21.8396 C   0  0  0  0  0  0  0  0  0  0  0  0
   10.9406    8.2330   21.1350 C   0  0  0  0  0  0  0  0  0  0  0  0
    9.6648    8.5956   21.7310 C   0  0  0  0  0  0  0  0  0  0  0  0
   10.8829    1.7153   20.9865 C   0  0  0  0  0  0  0  0  0  0  0  0
    5.7768    2.8533   23.7910 C   0  0  0  0  0  0  0  0  0  0  0  0
    9.7977    1.4791   21.6912 N   0  0  0  0  0  0  0  0  0  0  0  0
    6.5976    9.3401   22.6478 N   0  0  0  0  0  0  0  0  0  0  0  0
   11.2031    3.0042   20.6246 C   0  0  0  0  0  0  0  0  0  0  0  0
   12.8688    7.7370   22.7287 C   0  0  0  0  0  0  0  0  0  0  0  0
    7.4487    9.1361   23.6506 C   0  0  0  0  0  0  0  0  0  0  0  0
    8.9772    2.5025   22.0273 C   0  0  0  0  0  0  0  0  0  0  0  0
   10.4859    4.0901   20.9730 C   0  0  0  0  0  0  0  0  0  0  0  0
   11.0962    9.3293   23.5072 C   0  0  0  0  0  0  0  0  0  0  0  0
    5.1273    7.8529   23.6208 N   0  0  0  0  0  0  0  0  0  0  0  0
    9.7552    9.2338   23.0171 N   0  0  0  0  0  0  0  0  0  0  0  0
   11.1797    6.7591   21.3326 N   0  0  0  0  0  0  0  0  0  0  0  0
   11.7728    8.0337   23.7267 C   0  0  0  0  0  0  0  0  0  0  0  0
    7.1194    8.3344   24.6775 C   0  0  0  0  0  0  0  0  0  0  0  0
    8.4311    4.7963   22.0500 C   0  0  0  0  0  0  0  0  0  0  0  0
    8.7393   10.8706   24.1871 O   0  0  0  0  0  0  0  0  0  0  0  0
    9.3093    3.8166   21.6712 C   0  0  0  0  0  0  0  0  0  0  0  0
  1  5  1  0
  1 15  4  0
  1 22  4  0
  2 20  1  0
  2 24  1  0
  3  6  4  0
  3 27  4  0
  4 22  4  0
  4 26  4  0
  6  7  4  0
  6 13  1  0
  7 19  4  0
  8 18  1  0
  8 23  1  0
  8 28  2  0
  9 17  1  0
  9 24  1  0
 10 11  1  0
 10 24  1  0
 11 23  1  0
 12 14  4  0
 12 16  4  0
 14 19  4  0
 15 18  4  0
 16 20  4  0
 17 25  1  0
 18 26  4  0
 19 29  4  0
 20 29  4  0
 21 23  1  0
 21 25  1  0
 27 29  4  0
M  END
$$$$

 Created by Python create_sdf_string function

 29 32  0  0  0  0  0  0  0  0999 V2000
    5.4450    8.7154   22.6662 C   0  0  0  0  0  0  0  0  0  0  0  0
   10.9154    5.4574   20.5483 C   0  0  0  0  0  0  0  0  0  0  0  0
    7.2709    4.5089   22.7542 C   0  0  0  0  0  0  0  0  0  0  0  0
    5.9698    7.6329   24.6581 C   0  0  0  0  0  0  0  0  0  0  0  0
    4.5542    8.9057   21.7104 O   0  0  0  0  0  0  0  0  0  0  0  0
    6.9895    3.2085   23.0690 C   0  0  0  0  0  0  0  0  0  0  0  0
    7.8391    2.2253   22.7260 N   0  0  0  0  0  0  0  0  0  0  0  0
    8.6968    9.8373   23.6359 C   0  0  0  0  0  0  0  0  0  0  0  0
   12.5135    6.5957   21.8396 C   0  0  0  0  0  0  0  0  0  0  0  0
   10.9406    8.2330   21.1350 C   0  0  0  0  0  0  0  0  0  0  0  0
    9.6648    8.5956   21.7310 C   0  0  0  0  0  0  0  0  0  0  0  0
   10.8829    1.7153   20.9865 C   0  0  0  0  0  0  0  0  0  0  0  0
    5.7768    2.8533   23.7910 C   0  0  0  0  0  0  0  0  0  0  0  0
    9.7977    1.4791   21.6912 N   0  0  0  0  0  0  0  0  0  0  0  0
    6.5976    9.3401   22.6478 N   0  0  0  0  0  0  0  0  0  0  0  0
   11.2031    3.0042   20.6246 C   0  0  0  0  0  0  0  0  0  0  0  0
   12.8688    7.7370   22.7287 C   0  0  0  0  0  0  0  0  0  0  0  0
    7.4487    9.1361   23.6506 C   0  0  0  0  0  0  0  0  0  0  0  0
    8.9772    2.5025   22.0273 C   0  0  0  0  0  0  0  0  0  0  0  0
   10.4859    4.0901   20.9730 C   0  0  0  0  0  0  0  0  0  0  0  0
   11.0962    9.3293   23.5072 C   0  0  0  0  0  0  0  0  0  0  0  0
    5.1273    7.8529   23.6208 N   0  0  0  0  0  0  0  0  0  0  0  0
    9.7552    9.2338   23.0171 N   0  0  0  0  0  0  0  0  0  0  0  0
   11.1797    6.7591   21.3326 N   0  0  0  0  0  0  0  0  0  0  0  0
   11.7728    8.0337   23.7267 C   0  0  0  0  0  0  0  0  0  0  0  0
    7.1194    8.3344   24.6775 C   0  0  0  0  0  0  0  0  0  0  0  0
    8.4311    4.7963   22.0500 C   0  0  0  0  0  0  0  0  0  0  0  0
    8.7393   10.8706   24.1871 O   0  0  0  0  0  0  0  0  0  0  0  0
    9.3093    3.8166   21.6712 C   0  0  0  0  0  0  0  0  0  0  0  0
  1  5  1  0
  1 15  4  0
  1 22  4  0
  2 20  1  0
  2 24  1  0
  3  6  4  0
  3 27  4  0
  4 22  4  0
  4 26  4  0
  6  7  4  0
  6 13  1  0
  7 19  4  0
  8 18  1  0
  8 23  1  0
  8 28  2  0
  9 17  1  0
  9 24  1  0
 10 11  1  0
 10 24  1  0
 11 23  1  0
 12 14  4  0
 12 16  4  0
 14 19  4  0
 15 18  4  0
 16 20  4  0
 17 25  1  0
 18 26  4  0
 19 29  4  0
 20 29  4  0
 21 23  1  0
 21 25  1  0
 27 29  4  0
M  END
$$$$

 Created by Python create_sdf_string function

 29 32  0  0  0  0  0  0  0  0999 V2000
    5.4450    8.7154   22.6662 C   0  0  0  0  0  0  0  0  0  0  0  0
   10.9154    5.4574   20.5483 C   0  0  0  0  0  0  0  0  0  0  0  0
    7.2709    4.5089   22.7542 C   0  0  0  0  0  0  0  0  0  0  0  0
    5.9698    7.6329   24.6581 C   0  0  0  0  0  0  0  0  0  0  0  0
    4.5542    8.9057   21.7104 O   0  0  0  0  0  0  0  0  0  0  0  0
    6.9895    3.2085   23.0690 C   0  0  0  0  0  0  0  0  0  0  0  0
    7.8391    2.2253   22.7260 N   0  0  0  0  0  0  0  0  0  0  0  0
    8.6968    9.8373   23.6359 C   0  0  0  0  0  0  0  0  0  0  0  0
   12.5135    6.5957   21.8396 C   0  0  0  0  0  0  0  0  0  0  0  0
   10.9406    8.2330   21.1350 C   0  0  0  0  0  0  0  0  0  0  0  0
    9.6648    8.5956   21.7310 C   0  0  0  0  0  0  0  0  0  0  0  0
   10.8829    1.7153   20.9865 C   0  0  0  0  0  0  0  0  0  0  0  0
    5.7768    2.8533   23.7910 C   0  0  0  0  0  0  0  0  0  0  0  0
    9.7977    1.4791   21.6912 N   0  0  0  0  0  0  0  0  0  0  0  0
    6.5976    9.3401   22.6478 N   0  0  0  0  0  0  0  0  0  0  0  0
   11.2031    3.0042   20.6246 C   0  0  0  0  0  0  0  0  0  0  0  0
   12.8688    7.7370   22.7287 C   0  0  0  0  0  0  0  0  0  0  0  0
    7.4487    9.1361   23.6506 C   0  0  0  0  0  0  0  0  0  0  0  0
    8.9772    2.5025   22.0273 C   0  0  0  0  0  0  0  0  0  0  0  0
   10.4859    4.0901   20.9730 C   0  0  0  0  0  0  0  0  0  0  0  0
   11.0962    9.3293   23.5072 C   0  0  0  0  0  0  0  0  0  0  0  0
    5.1273    7.8529   23.6208 N   0  0  0  0  0  0  0  0  0  0  0  0
    9.7552    9.2338   23.0171 N   0  0  0  0  0  0  0  0  0  0  0  0
   11.1797    6.7591   21.3326 N   0  0  0  0  0  0  0  0  0  0  0  0
   11.7728    8.0337   23.7267 C   0  0  0  0  0  0  0  0  0  0  0  0
    7.1194    8.3344   24.6775 C   0  0  0  0  0  0  0  0  0  0  0  0
    8.4311    4.7963   22.0500 C   0  0  0  0  0  0  0  0  0  0  0  0
    8.7393   10.8706   24.1871 O   0  0  0  0  0  0  0  0  0  0  0  0
    9.3093    3.8166   21.6712 C   0  0  0  0  0  0  0  0  0  0  0  0
  1  5  1  0
  1 15  4  0
  1 22  4  0
  2 20  1  0
  2 24  1  0
  3  6  4  0
  3 27  4  0
  4 22  4  0
  4 26  4  0
  6  7  4  0
  6 13  1  0
  7 19  4  0
  8 18  1  0
  8 23  1  0
  8 28  2  0
  9 17  1  0
  9 24  1  0
 10 11  1  0
 10 24  1  0
 11 23  1  0
 12 14  4  0
 12 16  4  0
 14 19  4  0
 15 18  4  0
 16 20  4  0
 17 25  1  0
 18 26  4  0
 19 29  4  0
 20 29  4  0
 21 23  1  0
 21 25  1  0
 27 29  4  0
M  END
$$$$

 Created by Python create_sdf_string function

 29 32  0  0  0  0  0  0  0  0999 V2000
    5.4450    8.7154   22.6662 C   0  0  0  0  0  0  0  0  0  0  0  0
   10.9154    5.4574   20.5483 C   0  0  0  0  0  0  0  0  0  0  0  0
    7.2709    4.5089   22.7542 C   0  0  0  0  0  0  0  0  0  0  0  0
    5.9698    7.6329   24.6581 C   0  0  0  0  0  0  0  0  0  0  0  0
    4.5542    8.9057   21.7104 O   0  0  0  0  0  0  0  0  0  0  0  0
    6.9895    3.2085   23.0690 C   0  0  0  0  0  0  0  0  0  0  0  0
    7.8391    2.2253   22.7260 N   0  0  0  0  0  0  0  0  0  0  0  0
    8.6968    9.8373   23.6359 C   0  0  0  0  0  0  0  0  0  0  0  0
   12.5135    6.5957   21.8396 C   0  0  0  0  0  0  0  0  0  0  0  0
   10.9406    8.2330   21.1350 C   0  0  0  0  0  0  0  0  0  0  0  0
    9.6648    8.5956   21.7310 C   0  0  0  0  0  0  0  0  0  0  0  0
   10.8829    1.7153   20.9865 C   0  0  0  0  0  0  0  0  0  0  0  0
    5.7768    2.8533   23.7910 C   0  0  0  0  0  0  0  0  0  0  0  0
    9.7977    1.4791   21.6912 N   0  0  0  0  0  0  0  0  0  0  0  0
    6.5976    9.3401   22.6478 N   0  0  0  0  0  0  0  0  0  0  0  0
   11.2031    3.0042   20.6246 C   0  0  0  0  0  0  0  0  0  0  0  0
   12.8688    7.7370   22.7287 C   0  0  0  0  0  0  0  0  0  0  0  0
    7.4487    9.1361   23.6506 C   0  0  0  0  0  0  0  0  0  0  0  0
    8.9772    2.5025   22.0273 C   0  0  0  0  0  0  0  0  0  0  0  0
   10.4859    4.0901   20.9730 C   0  0  0  0  0  0  0  0  0  0  0  0
   11.0962    9.3293   23.5072 C   0  0  0  0  0  0  0  0  0  0  0  0
    5.1273    7.8529   23.6208 N   0  0  0  0  0  0  0  0  0  0  0  0
    9.7552    9.2338   23.0171 N   0  0  0  0  0  0  0  0  0  0  0  0
   11.1797    6.7591   21.3326 N   0  0  0  0  0  0  0  0  0  0  0  0
   11.7728    8.0337   23.7267 C   0  0  0  0  0  0  0  0  0  0  0  0
    7.1194    8.3344   24.6775 C   0  0  0  0  0  0  0  0  0  0  0  0
    8.4311    4.7963   22.0500 C   0  0  0  0  0  0  0  0  0  0  0  0
    8.7393   10.8706   24.1871 O   0  0  0  0  0  0  0  0  0  0  0  0
    9.3093    3.8166   21.6712 C   0  0  0  0  0  0  0  0  0  0  0  0
  1  5  1  0
  1 15  4  0
  1 22  4  0
  2 20  1  0
  2 24  1  0
  3  6  4  0
  3 27  4  0
  4 22  4  0
  4 26  4  0
  6  7  4  0
  6 13  1  0
  7 19  4  0
  8 18  1  0
  8 23  1  0
  8 28  2  0
  9 17  1  0
  9 24  1  0
 10 11  1  0
 10 24  1  0
 11 23  1  0
 12 14  4  0
 12 16  4  0
 14 19  4  0
 15 18  4  0
 16 20  4  0
 17 25  1  0
 18 26  4  0
 19 29  4  0
 20 29  4  0
 21 23  1  0
 21 25  1  0
 27 29  4  0
M  END
$$$$

 Created by Python create_sdf_string function

 29 32  0  0  0  0  0  0  0  0999 V2000
    5.4450    8.7154   22.6662 C   0  0  0  0  0  0  0  0  0  0  0  0
   10.9154    5.4574   20.5483 C   0  0  0  0  0  0  0  0  0  0  0  0
    7.2709    4.5089   22.7542 C   0  0  0  0  0  0  0  0  0  0  0  0
    5.9698    7.6329   24.6581 C   0  0  0  0  0  0  0  0  0  0  0  0
    4.5542    8.9057   21.7104 O   0  0  0  0  0  0  0  0  0  0  0  0
    6.9895    3.2085   23.0690 C   0  0  0  0  0  0  0  0  0  0  0  0
    7.8391    2.2253   22.7260 N   0  0  0  0  0  0  0  0  0  0  0  0
    8.6968    9.8373   23.6359 C   0  0  0  0  0  0  0  0  0  0  0  0
   12.5135    6.5957   21.8396 C   0  0  0  0  0  0  0  0  0  0  0  0
   10.9406    8.2330   21.1350 C   0  0  0  0  0  0  0  0  0  0  0  0
    9.6648    8.5956   21.7310 C   0  0  0  0  0  0  0  0  0  0  0  0
   10.8829    1.7153   20.9865 C   0  0  0  0  0  0  0  0  0  0  0  0
    5.7768    2.8533   23.7910 C   0  0  0  0  0  0  0  0  0  0  0  0
    9.7977    1.4791   21.6912 N   0  0  0  0  0  0  0  0  0  0  0  0
    6.5976    9.3401   22.6478 N   0  0  0  0  0  0  0  0  0  0  0  0
   11.2031    3.0042   20.6246 C   0  0  0  0  0  0  0  0  0  0  0  0
   12.8688    7.7370   22.7287 C   0  0  0  0  0  0  0  0  0  0  0  0
    7.4487    9.1361   23.6506 C   0  0  0  0  0  0  0  0  0  0  0  0
    8.9772    2.5025   22.0273 C   0  0  0  0  0  0  0  0  0  0  0  0
   10.4859    4.0901   20.9730 C   0  0  0  0  0  0  0  0  0  0  0  0
   11.0962    9.3293   23.5072 C   0  0  0  0  0  0  0  0  0  0  0  0
    5.1273    7.8529   23.6208 N   0  0  0  0  0  0  0  0  0  0  0  0
    9.7552    9.2338   23.0171 N   0  0  0  0  0  0  0  0  0  0  0  0
   11.1797    6.7591   21.3326 N   0  0  0  0  0  0  0  0  0  0  0  0
   11.7728    8.0337   23.7267 C   0  0  0  0  0  0  0  0  0  0  0  0
    7.1194    8.3344   24.6775 C   0  0  0  0  0  0  0  0  0  0  0  0
    8.4311    4.7963   22.0500 C   0  0  0  0  0  0  0  0  0  0  0  0
    8.7393   10.8706   24.1871 O   0  0  0  0  0  0  0  0  0  0  0  0
    9.3093    3.8166   21.6712 C   0  0  0  0  0  0  0  0  0  0  0  0
  1  5  1  0
  1 15  4  0
  1 22  4  0
  2 20  1  0
  2 24  1  0
  3  6  4  0
  3 27  4  0
  4 22  4  0
  4 26  4  0
  6  7  4  0
  6 13  1  0
  7 19  4  0
  8 18  1  0
  8 23  1  0
  8 28  2  0
  9 17  1  0
  9 24  1  0
 10 11  1  0
 10 24  1  0
 11 23  1  0
 12 14  4  0
 12 16  4  0
 14 19  4  0
 15 18  4  0
 16 20  4  0
 17 25  1  0
 18 26  4  0
 19 29  4  0
 20 29  4  0
 21 23  1  0
 21 25  1  0
 27 29  4  0
M  END
$$$$

 Created by Python create_sdf_string function

 29 32  0  0  0  0  0  0  0  0999 V2000
    5.4450    8.7154   22.6662 C   0  0  0  0  0  0  0  0  0  0  0  0
   10.9154    5.4574   20.5483 C   0  0  0  0  0  0  0  0  0  0  0  0
    7.2709    4.5089   22.7542 C   0  0  0  0  0  0  0  0  0  0  0  0
    5.9698    7.6329   24.6581 C   0  0  0  0  0  0  0  0  0  0  0  0
    4.5542    8.9057   21.7104 O   0  0  0  0  0  0  0  0  0  0  0  0
    6.9895    3.2085   23.0690 C   0  0  0  0  0  0  0  0  0  0  0  0
    7.8391    2.2253   22.7260 N   0  0  0  0  0  0  0  0  0  0  0  0
    8.6968    9.8373   23.6359 C   0  0  0  0  0  0  0  0  0  0  0  0
   12.5135    6.5957   21.8396 C   0  0  0  0  0  0  0  0  0  0  0  0
   10.9406    8.2330   21.1350 C   0  0  0  0  0  0  0  0  0  0  0  0
    9.6648    8.5956   21.7310 C   0  0  0  0  0  0  0  0  0  0  0  0
   10.8829    1.7153   20.9865 C   0  0  0  0  0  0  0  0  0  0  0  0
    5.7768    2.8533   23.7910 C   0  0  0  0  0  0  0  0  0  0  0  0
    9.7977    1.4791   21.6912 N   0  0  0  0  0  0  0  0  0  0  0  0
    6.5976    9.3401   22.6478 N   0  0  0  0  0  0  0  0  0  0  0  0
   11.2031    3.0042   20.6246 C   0  0  0  0  0  0  0  0  0  0  0  0
   12.8688    7.7370   22.7287 C   0  0  0  0  0  0  0  0  0  0  0  0
    7.4487    9.1361   23.6506 C   0  0  0  0  0  0  0  0  0  0  0  0
    8.9772    2.5025   22.0273 C   0  0  0  0  0  0  0  0  0  0  0  0
   10.4859    4.0901   20.9730 C   0  0  0  0  0  0  0  0  0  0  0  0
   11.0962    9.3293   23.5072 C   0  0  0  0  0  0  0  0  0  0  0  0
    5.1273    7.8529   23.6208 N   0  0  0  0  0  0  0  0  0  0  0  0
    9.7552    9.2338   23.0171 N   0  0  0  0  0  0  0  0  0  0  0  0
   11.1797    6.7591   21.3326 N   0  0  0  0  0  0  0  0  0  0  0  0
   11.7728    8.0337   23.7267 C   0  0  0  0  0  0  0  0  0  0  0  0
    7.1194    8.3344   24.6775 C   0  0  0  0  0  0  0  0  0  0  0  0
    8.4311    4.7963   22.0500 C   0  0  0  0  0  0  0  0  0  0  0  0
    8.7393   10.8706   24.1871 O   0  0  0  0  0  0  0  0  0  0  0  0
    9.3093    3.8166   21.6712 C   0  0  0  0  0  0  0  0  0  0  0  0
  1  5  1  0
  1 15  4  0
  1 22  4  0
  2 20  1  0
  2 24  1  0
  3  6  4  0
  3 27  4  0
  4 22  4  0
  4 26  4  0
  6  7  4  0
  6 13  1  0
  7 19  4  0
  8 18  1  0
  8 23  1  0
  8 28  2  0
  9 17  1  0
  9 24  1  0
 10 11  1  0
 10 24  1  0
 11 23  1  0
 12 14  4  0
 12 16  4  0
 14 19  4  0
 15 18  4  0
 16 20  4  0
 17 25  1  0
 18 26  4  0
 19 29  4  0
 20 29  4  0
 21 23  1  0
 21 25  1  0
 27 29  4  0
M  END
$$$$

 Created by Python create_sdf_string function

 29 32  0  0  0  0  0  0  0  0999 V2000
    5.4450    8.7154   22.6662 C   0  0  0  0  0  0  0  0  0  0  0  0
   10.9154    5.4574   20.5483 C   0  0  0  0  0  0  0  0  0  0  0  0
    7.2709    4.5089   22.7542 C   0  0  0  0  0  0  0  0  0  0  0  0
    5.9698    7.6329   24.6581 C   0  0  0  0  0  0  0  0  0  0  0  0
    4.5542    8.9057   21.7104 O   0  0  0  0  0  0  0  0  0  0  0  0
    6.9895    3.2085   23.0690 C   0  0  0  0  0  0  0  0  0  0  0  0
    7.8391    2.2253   22.7260 N   0  0  0  0  0  0  0  0  0  0  0  0
    8.6968    9.8373   23.6359 C   0  0  0  0  0  0  0  0  0  0  0  0
   12.5135    6.5957   21.8396 C   0  0  0  0  0  0  0  0  0  0  0  0
   10.9406    8.2330   21.1350 C   0  0  0  0  0  0  0  0  0  0  0  0
    9.6648    8.5956   21.7310 C   0  0  0  0  0  0  0  0  0  0  0  0
   10.8829    1.7153   20.9865 C   0  0  0  0  0  0  0  0  0  0  0  0
    5.7768    2.8533   23.7910 C   0  0  0  0  0  0  0  0  0  0  0  0
    9.7977    1.4791   21.6912 N   0  0  0  0  0  0  0  0  0  0  0  0
    6.5976    9.3401   22.6478 N   0  0  0  0  0  0  0  0  0  0  0  0
   11.2031    3.0042   20.6246 C   0  0  0  0  0  0  0  0  0  0  0  0
   12.8688    7.7370   22.7287 C   0  0  0  0  0  0  0  0  0  0  0  0
    7.4487    9.1361   23.6506 C   0  0  0  0  0  0  0  0  0  0  0  0
    8.9772    2.5025   22.0273 C   0  0  0  0  0  0  0  0  0  0  0  0
   10.4859    4.0901   20.9730 C   0  0  0  0  0  0  0  0  0  0  0  0
   11.0962    9.3293   23.5072 C   0  0  0  0  0  0  0  0  0  0  0  0
    5.1273    7.8529   23.6208 N   0  0  0  0  0  0  0  0  0  0  0  0
    9.7552    9.2338   23.0171 N   0  0  0  0  0  0  0  0  0  0  0  0
   11.1797    6.7591   21.3326 N   0  0  0  0  0  0  0  0  0  0  0  0
   11.7728    8.0337   23.7267 C   0  0  0  0  0  0  0  0  0  0  0  0
    7.1194    8.3344   24.6775 C   0  0  0  0  0  0  0  0  0  0  0  0
    8.4311    4.7963   22.0500 C   0  0  0  0  0  0  0  0  0  0  0  0
    8.7393   10.8706   24.1871 O   0  0  0  0  0  0  0  0  0  0  0  0
    9.3093    3.8166   21.6712 C   0  0  0  0  0  0  0  0  0  0  0  0
  1  5  1  0
  1 15  4  0
  1 22  4  0
  2 20  1  0
  2 24  1  0
  3  6  4  0
  3 27  4  0
  4 22  4  0
  4 26  4  0
  6  7  4  0
  6 13  1  0
  7 19  4  0
  8 18  1  0
  8 23  1  0
  8 28  2  0
  9 17  1  0
  9 24  1  0
 10 11  1  0
 10 24  1  0
 11 23  1  0
 12 14  4  0
 12 16  4  0
 14 19  4  0
 15 18  4  0
 16 20  4  0
 17 25  1  0
 18 26  4  0
 19 29  4  0
 20 29  4  0
 21 23  1  0
 21 25  1  0
 27 29  4  0
M  END
$$$$

 Created by Python create_sdf_string function

 29 32  0  0  0  0  0  0  0  0999 V2000
    5.4450    8.7154   22.6662 C   0  0  0  0  0  0  0  0  0  0  0  0
   10.9154    5.4574   20.5483 C   0  0  0  0  0  0  0  0  0  0  0  0
    7.2709    4.5089   22.7542 C   0  0  0  0  0  0  0  0  0  0  0  0
    5.9698    7.6329   24.6581 C   0  0  0  0  0  0  0  0  0  0  0  0
    4.5542    8.9057   21.7104 O   0  0  0  0  0  0  0  0  0  0  0  0
    6.9895    3.2085   23.0690 C   0  0  0  0  0  0  0  0  0  0  0  0
    7.8391    2.2253   22.7260 N   0  0  0  0  0  0  0  0  0  0  0  0
    8.6968    9.8373   23.6359 C   0  0  0  0  0  0  0  0  0  0  0  0
   12.5135    6.5957   21.8396 C   0  0  0  0  0  0  0  0  0  0  0  0
   10.9406    8.2330   21.1350 C   0  0  0  0  0  0  0  0  0  0  0  0
    9.6648    8.5956   21.7310 C   0  0  0  0  0  0  0  0  0  0  0  0
   10.8829    1.7153   20.9865 C   0  0  0  0  0  0  0  0  0  0  0  0
    5.7768    2.8533   23.7910 C   0  0  0  0  0  0  0  0  0  0  0  0
    9.7977    1.4791   21.6912 N   0  0  0  0  0  0  0  0  0  0  0  0
    6.5976    9.3401   22.6478 N   0  0  0  0  0  0  0  0  0  0  0  0
   11.2031    3.0042   20.6246 C   0  0  0  0  0  0  0  0  0  0  0  0
   12.8688    7.7370   22.7287 C   0  0  0  0  0  0  0  0  0  0  0  0
    7.4487    9.1361   23.6506 C   0  0  0  0  0  0  0  0  0  0  0  0
    8.9772    2.5025   22.0273 C   0  0  0  0  0  0  0  0  0  0  0  0
   10.4859    4.0901   20.9730 C   0  0  0  0  0  0  0  0  0  0  0  0
   11.0962    9.3293   23.5072 C   0  0  0  0  0  0  0  0  0  0  0  0
    5.1273    7.8529   23.6208 N   0  0  0  0  0  0  0  0  0  0  0  0
    9.7552    9.2338   23.0171 N   0  0  0  0  0  0  0  0  0  0  0  0
   11.1797    6.7591   21.3326 N   0  0  0  0  0  0  0  0  0  0  0  0
   11.7728    8.0337   23.7267 C   0  0  0  0  0  0  0  0  0  0  0  0
    7.1194    8.3344   24.6775 C   0  0  0  0  0  0  0  0  0  0  0  0
    8.4311    4.7963   22.0500 C   0  0  0  0  0  0  0  0  0  0  0  0
    8.7393   10.8706   24.1871 O   0  0  0  0  0  0  0  0  0  0  0  0
    9.3093    3.8166   21.6712 C   0  0  0  0  0  0  0  0  0  0  0  0
  1  5  1  0
  1 15  4  0
  1 22  4  0
  2 20  1  0
  2 24  1  0
  3  6  4  0
  3 27  4  0
  4 22  4  0
  4 26  4  0
  6  7  4  0
  6 13  1  0
  7 19  4  0
  8 18  1  0
  8 23  1  0
  8 28  2  0
  9 17  1  0
  9 24  1  0
 10 11  1  0
 10 24  1  0
 11 23  1  0
 12 14  4  0
 12 16  4  0
 14 19  4  0
 15 18  4  0
 16 20  4  0
 17 25  1  0
 18 26  4  0
 19 29  4  0
 20 29  4  0
 21 23  1  0
 21 25  1  0
 27 29  4  0
M  END
$$$$

 Created by Python create_sdf_string function

 29 32  0  0  0  0  0  0  0  0999 V2000
    5.4450    8.7154   22.6662 C   0  0  0  0  0  0  0  0  0  0  0  0
   10.9154    5.4574   20.5483 C   0  0  0  0  0  0  0  0  0  0  0  0
    7.2709    4.5089   22.7542 C   0  0  0  0  0  0  0  0  0  0  0  0
    5.9698    7.6329   24.6581 C   0  0  0  0  0  0  0  0  0  0  0  0
    4.5542    8.9057   21.7104 O   0  0  0  0  0  0  0  0  0  0  0  0
    6.9895    3.2085   23.0690 C   0  0  0  0  0  0  0  0  0  0  0  0
    7.8391    2.2253   22.7260 N   0  0  0  0  0  0  0  0  0  0  0  0
    8.6968    9.8373   23.6359 C   0  0  0  0  0  0  0  0  0  0  0  0
   12.5135    6.5957   21.8396 C   0  0  0  0  0  0  0  0  0  0  0  0
   10.9406    8.2330   21.1350 C   0  0  0  0  0  0  0  0  0  0  0  0
    9.6648    8.5956   21.7310 C   0  0  0  0  0  0  0  0  0  0  0  0
   10.8829    1.7153   20.9865 C   0  0  0  0  0  0  0  0  0  0  0  0
    5.7768    2.8533   23.7910 C   0  0  0  0  0  0  0  0  0  0  0  0
    9.7977    1.4791   21.6912 N   0  0  0  0  0  0  0  0  0  0  0  0
    6.5976    9.3401   22.6478 N   0  0  0  0  0  0  0  0  0  0  0  0
   11.2031    3.0042   20.6246 C   0  0  0  0  0  0  0  0  0  0  0  0
   12.8688    7.7370   22.7287 C   0  0  0  0  0  0  0  0  0  0  0  0
    7.4487    9.1361   23.6506 C   0  0  0  0  0  0  0  0  0  0  0  0
    8.9772    2.5025   22.0273 C   0  0  0  0  0  0  0  0  0  0  0  0
   10.4859    4.0901   20.9730 C   0  0  0  0  0  0  0  0  0  0  0  0
   11.0962    9.3293   23.5072 C   0  0  0  0  0  0  0  0  0  0  0  0
    5.1273    7.8529   23.6208 N   0  0  0  0  0  0  0  0  0  0  0  0
    9.7552    9.2338   23.0171 N   0  0  0  0  0  0  0  0  0  0  0  0
   11.1797    6.7591   21.3326 N   0  0  0  0  0  0  0  0  0  0  0  0
   11.7728    8.0337   23.7267 C   0  0  0  0  0  0  0  0  0  0  0  0
    7.1194    8.3344   24.6775 C   0  0  0  0  0  0  0  0  0  0  0  0
    8.4311    4.7963   22.0500 C   0  0  0  0  0  0  0  0  0  0  0  0
    8.7393   10.8706   24.1871 O   0  0  0  0  0  0  0  0  0  0  0  0
    9.3093    3.8166   21.6712 C   0  0  0  0  0  0  0  0  0  0  0  0
  1  5  1  0
  1 15  4  0
  1 22  4  0
  2 20  1  0
  2 24  1  0
  3  6  4  0
  3 27  4  0
  4 22  4  0
  4 26  4  0
  6  7  4  0
  6 13  1  0
  7 19  4  0
  8 18  1  0
  8 23  1  0
  8 28  2  0
  9 17  1  0
  9 24  1  0
 10 11  1  0
 10 24  1  0
 11 23  1  0
 12 14  4  0
 12 16  4  0
 14 19  4  0
 15 18  4  0
 16 20  4  0
 17 25  1  0
 18 26  4  0
 19 29  4  0
 20 29  4  0
 21 23  1  0
 21 25  1  0
 27 29  4  0
M  END
$$$$

 Created by Python create_sdf_string function

 29 32  0  0  0  0  0  0  0  0999 V2000
    5.4450    8.7154   22.6662 C   0  0  0  0  0  0  0  0  0  0  0  0
   10.9154    5.4574   20.5483 C   0  0  0  0  0  0  0  0  0  0  0  0
    7.2709    4.5089   22.7542 C   0  0  0  0  0  0  0  0  0  0  0  0
    5.9698    7.6329   24.6581 C   0  0  0  0  0  0  0  0  0  0  0  0
    4.5542    8.9057   21.7104 O   0  0  0  0  0  0  0  0  0  0  0  0
    6.9895    3.2085   23.0690 C   0  0  0  0  0  0  0  0  0  0  0  0
    7.8391    2.2253   22.7260 N   0  0  0  0  0  0  0  0  0  0  0  0
    8.6968    9.8373   23.6359 C   0  0  0  0  0  0  0  0  0  0  0  0
   12.5135    6.5957   21.8396 C   0  0  0  0  0  0  0  0  0  0  0  0
   10.9406    8.2330   21.1350 C   0  0  0  0  0  0  0  0  0  0  0  0
    9.6648    8.5956   21.7310 C   0  0  0  0  0  0  0  0  0  0  0  0
   10.8829    1.7153   20.9865 C   0  0  0  0  0  0  0  0  0  0  0  0
    5.7768    2.8533   23.7910 C   0  0  0  0  0  0  0  0  0  0  0  0
    9.7977    1.4791   21.6912 N   0  0  0  0  0  0  0  0  0  0  0  0
    6.5976    9.3401   22.6478 N   0  0  0  0  0  0  0  0  0  0  0  0
   11.2031    3.0042   20.6246 C   0  0  0  0  0  0  0  0  0  0  0  0
   12.8688    7.7370   22.7287 C   0  0  0  0  0  0  0  0  0  0  0  0
    7.4487    9.1361   23.6506 C   0  0  0  0  0  0  0  0  0  0  0  0
    8.9772    2.5025   22.0273 C   0  0  0  0  0  0  0  0  0  0  0  0
   10.4859    4.0901   20.9730 C   0  0  0  0  0  0  0  0  0  0  0  0
   11.0962    9.3293   23.5072 C   0  0  0  0  0  0  0  0  0  0  0  0
    5.1273    7.8529   23.6208 N   0  0  0  0  0  0  0  0  0  0  0  0
    9.7552    9.2338   23.0171 N   0  0  0  0  0  0  0  0  0  0  0  0
   11.1797    6.7591   21.3326 N   0  0  0  0  0  0  0  0  0  0  0  0
   11.7728    8.0337   23.7267 C   0  0  0  0  0  0  0  0  0  0  0  0
    7.1194    8.3344   24.6775 C   0  0  0  0  0  0  0  0  0  0  0  0
    8.4311    4.7963   22.0500 C   0  0  0  0  0  0  0  0  0  0  0  0
    8.7393   10.8706   24.1871 O   0  0  0  0  0  0  0  0  0  0  0  0
    9.3093    3.8166   21.6712 C   0  0  0  0  0  0  0  0  0  0  0  0
  1  5  1  0
  1 15  4  0
  1 22  4  0
  2 20  1  0
  2 24  1  0
  3  6  4  0
  3 27  4  0
  4 22  4  0
  4 26  4  0
  6  7  4  0
  6 13  1  0
  7 19  4  0
  8 18  1  0
  8 23  1  0
  8 28  2  0
  9 17  1  0
  9 24  1  0
 10 11  1  0
 10 24  1  0
 11 23  1  0
 12 14  4  0
 12 16  4  0
 14 19  4  0
 15 18  4  0
 16 20  4  0
 17 25  1  0
 18 26  4  0
 19 29  4  0
 20 29  4  0
 21 23  1  0
 21 25  1  0
 27 29  4  0
M  END
$$$$

 Created by Python create_sdf_string function

 29 32  0  0  0  0  0  0  0  0999 V2000
    5.4450    8.7154   22.6662 C   0  0  0  0  0  0  0  0  0  0  0  0
   10.9154    5.4574   20.5483 C   0  0  0  0  0  0  0  0  0  0  0  0
    7.2709    4.5089   22.7542 C   0  0  0  0  0  0  0  0  0  0  0  0
    5.9698    7.6329   24.6581 C   0  0  0  0  0  0  0  0  0  0  0  0
    4.5542    8.9057   21.7104 O   0  0  0  0  0  0  0  0  0  0  0  0
    6.9895    3.2085   23.0690 C   0  0  0  0  0  0  0  0  0  0  0  0
    7.8391    2.2253   22.7260 N   0  0  0  0  0  0  0  0  0  0  0  0
    8.6968    9.8373   23.6359 C   0  0  0  0  0  0  0  0  0  0  0  0
   12.5135    6.5957   21.8396 C   0  0  0  0  0  0  0  0  0  0  0  0
   10.9406    8.2330   21.1350 C   0  0  0  0  0  0  0  0  0  0  0  0
    9.6648    8.5956   21.7310 C   0  0  0  0  0  0  0  0  0  0  0  0
   10.8829    1.7153   20.9865 C   0  0  0  0  0  0  0  0  0  0  0  0
    5.7768    2.8533   23.7910 C   0  0  0  0  0  0  0  0  0  0  0  0
    9.7977    1.4791   21.6912 N   0  0  0  0  0  0  0  0  0  0  0  0
    6.5976    9.3401   22.6478 N   0  0  0  0  0  0  0  0  0  0  0  0
   11.2031    3.0042   20.6246 C   0  0  0  0  0  0  0  0  0  0  0  0
   12.8688    7.7370   22.7287 C   0  0  0  0  0  0  0  0  0  0  0  0
    7.4487    9.1361   23.6506 C   0  0  0  0  0  0  0  0  0  0  0  0
    8.9772    2.5025   22.0273 C   0  0  0  0  0  0  0  0  0  0  0  0
   10.4859    4.0901   20.9730 C   0  0  0  0  0  0  0  0  0  0  0  0
   11.0962    9.3293   23.5072 C   0  0  0  0  0  0  0  0  0  0  0  0
    5.1273    7.8529   23.6208 N   0  0  0  0  0  0  0  0  0  0  0  0
    9.7552    9.2338   23.0171 N   0  0  0  0  0  0  0  0  0  0  0  0
   11.1797    6.7591   21.3326 N   0  0  0  0  0  0  0  0  0  0  0  0
   11.7728    8.0337   23.7267 C   0  0  0  0  0  0  0  0  0  0  0  0
    7.1194    8.3344   24.6775 C   0  0  0  0  0  0  0  0  0  0  0  0
    8.4311    4.7963   22.0500 C   0  0  0  0  0  0  0  0  0  0  0  0
    8.7393   10.8706   24.1871 O   0  0  0  0  0  0  0  0  0  0  0  0
    9.3093    3.8166   21.6712 C   0  0  0  0  0  0  0  0  0  0  0  0
  1  5  1  0
  1 15  4  0
  1 22  4  0
  2 20  1  0
  2 24  1  0
  3  6  4  0
  3 27  4  0
  4 22  4  0
  4 26  4  0
  6  7  4  0
  6 13  1  0
  7 19  4  0
  8 18  1  0
  8 23  1  0
  8 28  2  0
  9 17  1  0
  9 24  1  0
 10 11  1  0
 10 24  1  0
 11 23  1  0
 12 14  4  0
 12 16  4  0
 14 19  4  0
 15 18  4  0
 16 20  4  0
 17 25  1  0
 18 26  4  0
 19 29  4  0
 20 29  4  0
 21 23  1  0
 21 25  1  0
 27 29  4  0
M  END
$$$$

 Created by Python create_sdf_string function

 29 32  0  0  0  0  0  0  0  0999 V2000
    5.4450    8.7154   22.6662 C   0  0  0  0  0  0  0  0  0  0  0  0
   10.9154    5.4574   20.5483 C   0  0  0  0  0  0  0  0  0  0  0  0
    7.2709    4.5089   22.7542 C   0  0  0  0  0  0  0  0  0  0  0  0
    5.9698    7.6329   24.6581 C   0  0  0  0  0  0  0  0  0  0  0  0
    4.5542    8.9057   21.7104 O   0  0  0  0  0  0  0  0  0  0  0  0
    6.9895    3.2085   23.0690 C   0  0  0  0  0  0  0  0  0  0  0  0
    7.8391    2.2253   22.7260 N   0  0  0  0  0  0  0  0  0  0  0  0
    8.6968    9.8373   23.6359 C   0  0  0  0  0  0  0  0  0  0  0  0
   12.5135    6.5957   21.8396 C   0  0  0  0  0  0  0  0  0  0  0  0
   10.9406    8.2330   21.1350 C   0  0  0  0  0  0  0  0  0  0  0  0
    9.6648    8.5956   21.7310 C   0  0  0  0  0  0  0  0  0  0  0  0
   10.8829    1.7153   20.9865 C   0  0  0  0  0  0  0  0  0  0  0  0
    5.7768    2.8533   23.7910 C   0  0  0  0  0  0  0  0  0  0  0  0
    9.7977    1.4791   21.6912 N   0  0  0  0  0  0  0  0  0  0  0  0
    6.5976    9.3401   22.6478 N   0  0  0  0  0  0  0  0  0  0  0  0
   11.2031    3.0042   20.6246 C   0  0  0  0  0  0  0  0  0  0  0  0
   12.8688    7.7370   22.7287 C   0  0  0  0  0  0  0  0  0  0  0  0
    7.4487    9.1361   23.6506 C   0  0  0  0  0  0  0  0  0  0  0  0
    8.9772    2.5025   22.0273 C   0  0  0  0  0  0  0  0  0  0  0  0
   10.4859    4.0901   20.9730 C   0  0  0  0  0  0  0  0  0  0  0  0
   11.0962    9.3293   23.5072 C   0  0  0  0  0  0  0  0  0  0  0  0
    5.1273    7.8529   23.6208 N   0  0  0  0  0  0  0  0  0  0  0  0
    9.7552    9.2338   23.0171 N   0  0  0  0  0  0  0  0  0  0  0  0
   11.1797    6.7591   21.3326 N   0  0  0  0  0  0  0  0  0  0  0  0
   11.7728    8.0337   23.7267 C   0  0  0  0  0  0  0  0  0  0  0  0
    7.1194    8.3344   24.6775 C   0  0  0  0  0  0  0  0  0  0  0  0
    8.4311    4.7963   22.0500 C   0  0  0  0  0  0  0  0  0  0  0  0
    8.7393   10.8706   24.1871 O   0  0  0  0  0  0  0  0  0  0  0  0
    9.3093    3.8166   21.6712 C   0  0  0  0  0  0  0  0  0  0  0  0
  1  5  1  0
  1 15  4  0
  1 22  4  0
  2 20  1  0
  2 24  1  0
  3  6  4  0
  3 27  4  0
  4 22  4  0
  4 26  4  0
  6  7  4  0
  6 13  1  0
  7 19  4  0
  8 18  1  0
  8 23  1  0
  8 28  2  0
  9 17  1  0
  9 24  1  0
 10 11  1  0
 10 24  1  0
 11 23  1  0
 12 14  4  0
 12 16  4  0
 14 19  4  0
 15 18  4  0
 16 20  4  0
 17 25  1  0
 18 26  4  0
 19 29  4  0
 20 29  4  0
 21 23  1  0
 21 25  1  0
 27 29  4  0
M  END
$$$$

 Created by Python create_sdf_string function

 29 32  0  0  0  0  0  0  0  0999 V2000
    5.4450    8.7154   22.6662 C   0  0  0  0  0  0  0  0  0  0  0  0
   10.9154    5.4574   20.5483 C   0  0  0  0  0  0  0  0  0  0  0  0
    7.2709    4.5089   22.7542 C   0  0  0  0  0  0  0  0  0  0  0  0
    5.9698    7.6329   24.6581 C   0  0  0  0  0  0  0  0  0  0  0  0
    4.5542    8.9057   21.7104 O   0  0  0  0  0  0  0  0  0  0  0  0
    6.9895    3.2085   23.0690 C   0  0  0  0  0  0  0  0  0  0  0  0
    7.8391    2.2253   22.7260 N   0  0  0  0  0  0  0  0  0  0  0  0
    8.6968    9.8373   23.6359 C   0  0  0  0  0  0  0  0  0  0  0  0
   12.5135    6.5957   21.8396 C   0  0  0  0  0  0  0  0  0  0  0  0
   10.9406    8.2330   21.1350 C   0  0  0  0  0  0  0  0  0  0  0  0
    9.6648    8.5956   21.7310 C   0  0  0  0  0  0  0  0  0  0  0  0
   10.8829    1.7153   20.9865 C   0  0  0  0  0  0  0  0  0  0  0  0
    5.7768    2.8533   23.7910 C   0  0  0  0  0  0  0  0  0  0  0  0
    9.7977    1.4791   21.6912 N   0  0  0  0  0  0  0  0  0  0  0  0
    6.5976    9.3401   22.6478 N   0  0  0  0  0  0  0  0  0  0  0  0
   11.2031    3.0042   20.6246 C   0  0  0  0  0  0  0  0  0  0  0  0
   12.8688    7.7370   22.7287 C   0  0  0  0  0  0  0  0  0  0  0  0
    7.4487    9.1361   23.6506 C   0  0  0  0  0  0  0  0  0  0  0  0
    8.9772    2.5025   22.0273 C   0  0  0  0  0  0  0  0  0  0  0  0
   10.4859    4.0901   20.9730 C   0  0  0  0  0  0  0  0  0  0  0  0
   11.0962    9.3293   23.5072 C   0  0  0  0  0  0  0  0  0  0  0  0
    5.1273    7.8529   23.6208 N   0  0  0  0  0  0  0  0  0  0  0  0
    9.7552    9.2338   23.0171 N   0  0  0  0  0  0  0  0  0  0  0  0
   11.1797    6.7591   21.3326 N   0  0  0  0  0  0  0  0  0  0  0  0
   11.7728    8.0337   23.7267 C   0  0  0  0  0  0  0  0  0  0  0  0
    7.1194    8.3344   24.6775 C   0  0  0  0  0  0  0  0  0  0  0  0
    8.4311    4.7963   22.0500 C   0  0  0  0  0  0  0  0  0  0  0  0
    8.7393   10.8706   24.1871 O   0  0  0  0  0  0  0  0  0  0  0  0
    9.3093    3.8166   21.6712 C   0  0  0  0  0  0  0  0  0  0  0  0
  1  5  1  0
  1 15  4  0
  1 22  4  0
  2 20  1  0
  2 24  1  0
  3  6  4  0
  3 27  4  0
  4 22  4  0
  4 26  4  0
  6  7  4  0
  6 13  1  0
  7 19  4  0
  8 18  1  0
  8 23  1  0
  8 28  2  0
  9 17  1  0
  9 24  1  0
 10 11  1  0
 10 24  1  0
 11 23  1  0
 12 14  4  0
 12 16  4  0
 14 19  4  0
 15 18  4  0
 16 20  4  0
 17 25  1  0
 18 26  4  0
 19 29  4  0
 20 29  4  0
 21 23  1  0
 21 25  1  0
 27 29  4  0
M  END
$$$$

 Created by Python create_sdf_string function

 29 32  0  0  0  0  0  0  0  0999 V2000
    5.4450    8.7154   22.6662 C   0  0  0  0  0  0  0  0  0  0  0  0
   10.9154    5.4574   20.5483 C   0  0  0  0  0  0  0  0  0  0  0  0
    7.2709    4.5089   22.7542 C   0  0  0  0  0  0  0  0  0  0  0  0
    5.9698    7.6329   24.6581 C   0  0  0  0  0  0  0  0  0  0  0  0
    4.5542    8.9057   21.7104 O   0  0  0  0  0  0  0  0  0  0  0  0
    6.9895    3.2085   23.0690 C   0  0  0  0  0  0  0  0  0  0  0  0
    7.8391    2.2253   22.7260 N   0  0  0  0  0  0  0  0  0  0  0  0
    8.6968    9.8373   23.6359 C   0  0  0  0  0  0  0  0  0  0  0  0
   12.5135    6.5957   21.8396 C   0  0  0  0  0  0  0  0  0  0  0  0
   10.9406    8.2330   21.1350 C   0  0  0  0  0  0  0  0  0  0  0  0
    9.6648    8.5956   21.7310 C   0  0  0  0  0  0  0  0  0  0  0  0
   10.8829    1.7153   20.9865 C   0  0  0  0  0  0  0  0  0  0  0  0
    5.7768    2.8533   23.7910 C   0  0  0  0  0  0  0  0  0  0  0  0
    9.7977    1.4791   21.6912 N   0  0  0  0  0  0  0  0  0  0  0  0
    6.5976    9.3401   22.6478 N   0  0  0  0  0  0  0  0  0  0  0  0
   11.2031    3.0042   20.6246 C   0  0  0  0  0  0  0  0  0  0  0  0
   12.8688    7.7370   22.7287 C   0  0  0  0  0  0  0  0  0  0  0  0
    7.4487    9.1361   23.6506 C   0  0  0  0  0  0  0  0  0  0  0  0
    8.9772    2.5025   22.0273 C   0  0  0  0  0  0  0  0  0  0  0  0
   10.4859    4.0901   20.9730 C   0  0  0  0  0  0  0  0  0  0  0  0
   11.0962    9.3293   23.5072 C   0  0  0  0  0  0  0  0  0  0  0  0
    5.1273    7.8529   23.6208 N   0  0  0  0  0  0  0  0  0  0  0  0
    9.7552    9.2338   23.0171 N   0  0  0  0  0  0  0  0  0  0  0  0
   11.1797    6.7591   21.3326 N   0  0  0  0  0  0  0  0  0  0  0  0
   11.7728    8.0337   23.7267 C   0  0  0  0  0  0  0  0  0  0  0  0
    7.1194    8.3344   24.6775 C   0  0  0  0  0  0  0  0  0  0  0  0
    8.4311    4.7963   22.0500 C   0  0  0  0  0  0  0  0  0  0  0  0
    8.7393   10.8706   24.1871 O   0  0  0  0  0  0  0  0  0  0  0  0
    9.3093    3.8166   21.6712 C   0  0  0  0  0  0  0  0  0  0  0  0
  1  5  1  0
  1 15  4  0
  1 22  4  0
  2 20  1  0
  2 24  1  0
  3  6  4  0
  3 27  4  0
  4 22  4  0
  4 26  4  0
  6  7  4  0
  6 13  1  0
  7 19  4  0
  8 18  1  0
  8 23  1  0
  8 28  2  0
  9 17  1  0
  9 24  1  0
 10 11  1  0
 10 24  1  0
 11 23  1  0
 12 14  4  0
 12 16  4  0
 14 19  4  0
 15 18  4  0
 16 20  4  0
 17 25  1  0
 18 26  4  0
 19 29  4  0
 20 29  4  0
 21 23  1  0
 21 25  1  0
 27 29  4  0
M  END
$$$$

 Created by Python create_sdf_string function

 29 32  0  0  0  0  0  0  0  0999 V2000
    5.4450    8.7154   22.6662 C   0  0  0  0  0  0  0  0  0  0  0  0
   10.9154    5.4574   20.5483 C   0  0  0  0  0  0  0  0  0  0  0  0
    7.2709    4.5089   22.7542 C   0  0  0  0  0  0  0  0  0  0  0  0
    5.9698    7.6329   24.6581 C   0  0  0  0  0  0  0  0  0  0  0  0
    4.5542    8.9057   21.7104 O   0  0  0  0  0  0  0  0  0  0  0  0
    6.9895    3.2085   23.0690 C   0  0  0  0  0  0  0  0  0  0  0  0
    7.8391    2.2253   22.7260 N   0  0  0  0  0  0  0  0  0  0  0  0
    8.6968    9.8373   23.6359 C   0  0  0  0  0  0  0  0  0  0  0  0
   12.5135    6.5957   21.8396 C   0  0  0  0  0  0  0  0  0  0  0  0
   10.9406    8.2330   21.1350 C   0  0  0  0  0  0  0  0  0  0  0  0
    9.6648    8.5956   21.7310 C   0  0  0  0  0  0  0  0  0  0  0  0
   10.8829    1.7153   20.9865 C   0  0  0  0  0  0  0  0  0  0  0  0
    5.7768    2.8533   23.7910 C   0  0  0  0  0  0  0  0  0  0  0  0
    9.7977    1.4791   21.6912 N   0  0  0  0  0  0  0  0  0  0  0  0
    6.5976    9.3401   22.6478 N   0  0  0  0  0  0  0  0  0  0  0  0
   11.2031    3.0042   20.6246 C   0  0  0  0  0  0  0  0  0  0  0  0
   12.8688    7.7370   22.7287 C   0  0  0  0  0  0  0  0  0  0  0  0
    7.4487    9.1361   23.6506 C   0  0  0  0  0  0  0  0  0  0  0  0
    8.9772    2.5025   22.0273 C   0  0  0  0  0  0  0  0  0  0  0  0
   10.4859    4.0901   20.9730 C   0  0  0  0  0  0  0  0  0  0  0  0
   11.0962    9.3293   23.5072 C   0  0  0  0  0  0  0  0  0  0  0  0
    5.1273    7.8529   23.6208 N   0  0  0  0  0  0  0  0  0  0  0  0
    9.7552    9.2338   23.0171 N   0  0  0  0  0  0  0  0  0  0  0  0
   11.1797    6.7591   21.3326 N   0  0  0  0  0  0  0  0  0  0  0  0
   11.7728    8.0337   23.7267 C   0  0  0  0  0  0  0  0  0  0  0  0
    7.1194    8.3344   24.6775 C   0  0  0  0  0  0  0  0  0  0  0  0
    8.4311    4.7963   22.0500 C   0  0  0  0  0  0  0  0  0  0  0  0
    8.7393   10.8706   24.1871 O   0  0  0  0  0  0  0  0  0  0  0  0
    9.3093    3.8166   21.6712 C   0  0  0  0  0  0  0  0  0  0  0  0
  1  5  1  0
  1 15  4  0
  1 22  4  0
  2 20  1  0
  2 24  1  0
  3  6  4  0
  3 27  4  0
  4 22  4  0
  4 26  4  0
  6  7  4  0
  6 13  1  0
  7 19  4  0
  8 18  1  0
  8 23  1  0
  8 28  2  0
  9 17  1  0
  9 24  1  0
 10 11  1  0
 10 24  1  0
 11 23  1  0
 12 14  4  0
 12 16  4  0
 14 19  4  0
 15 18  4  0
 16 20  4  0
 17 25  1  0
 18 26  4  0
 19 29  4  0
 20 29  4  0
 21 23  1  0
 21 25  1  0
 27 29  4  0
M  END
$$$$

 Created by Python create_sdf_string function

 29 32  0  0  0  0  0  0  0  0999 V2000
    5.4450    8.7154   22.6662 C   0  0  0  0  0  0  0  0  0  0  0  0
   10.9154    5.4574   20.5483 C   0  0  0  0  0  0  0  0  0  0  0  0
    7.2709    4.5089   22.7542 C   0  0  0  0  0  0  0  0  0  0  0  0
    5.9698    7.6329   24.6581 C   0  0  0  0  0  0  0  0  0  0  0  0
    4.5542    8.9057   21.7104 O   0  0  0  0  0  0  0  0  0  0  0  0
    6.9895    3.2085   23.0690 C   0  0  0  0  0  0  0  0  0  0  0  0
    7.8391    2.2253   22.7260 N   0  0  0  0  0  0  0  0  0  0  0  0
    8.6968    9.8373   23.6359 C   0  0  0  0  0  0  0  0  0  0  0  0
   12.5135    6.5957   21.8396 C   0  0  0  0  0  0  0  0  0  0  0  0
   10.9406    8.2330   21.1350 C   0  0  0  0  0  0  0  0  0  0  0  0
    9.6648    8.5956   21.7310 C   0  0  0  0  0  0  0  0  0  0  0  0
   10.8829    1.7153   20.9865 C   0  0  0  0  0  0  0  0  0  0  0  0
    5.7768    2.8533   23.7910 C   0  0  0  0  0  0  0  0  0  0  0  0
    9.7977    1.4791   21.6912 N   0  0  0  0  0  0  0  0  0  0  0  0
    6.5976    9.3401   22.6478 N   0  0  0  0  0  0  0  0  0  0  0  0
   11.2031    3.0042   20.6246 C   0  0  0  0  0  0  0  0  0  0  0  0
   12.8688    7.7370   22.7287 C   0  0  0  0  0  0  0  0  0  0  0  0
    7.4487    9.1361   23.6506 C   0  0  0  0  0  0  0  0  0  0  0  0
    8.9772    2.5025   22.0273 C   0  0  0  0  0  0  0  0  0  0  0  0
   10.4859    4.0901   20.9730 C   0  0  0  0  0  0  0  0  0  0  0  0
   11.0962    9.3293   23.5072 C   0  0  0  0  0  0  0  0  0  0  0  0
    5.1273    7.8529   23.6208 N   0  0  0  0  0  0  0  0  0  0  0  0
    9.7552    9.2338   23.0171 N   0  0  0  0  0  0  0  0  0  0  0  0
   11.1797    6.7591   21.3326 N   0  0  0  0  0  0  0  0  0  0  0  0
   11.7728    8.0337   23.7267 C   0  0  0  0  0  0  0  0  0  0  0  0
    7.1194    8.3344   24.6775 C   0  0  0  0  0  0  0  0  0  0  0  0
    8.4311    4.7963   22.0500 C   0  0  0  0  0  0  0  0  0  0  0  0
    8.7393   10.8706   24.1871 O   0  0  0  0  0  0  0  0  0  0  0  0
    9.3093    3.8166   21.6712 C   0  0  0  0  0  0  0  0  0  0  0  0
  1  5  1  0
  1 15  4  0
  1 22  4  0
  2 20  1  0
  2 24  1  0
  3  6  4  0
  3 27  4  0
  4 22  4  0
  4 26  4  0
  6  7  4  0
  6 13  1  0
  7 19  4  0
  8 18  1  0
  8 23  1  0
  8 28  2  0
  9 17  1  0
  9 24  1  0
 10 11  1  0
 10 24  1  0
 11 23  1  0
 12 14  4  0
 12 16  4  0
 14 19  4  0
 15 18  4  0
 16 20  4  0
 17 25  1  0
 18 26  4  0
 19 29  4  0
 20 29  4  0
 21 23  1  0
 21 25  1  0
 27 29  4  0
M  END
$$$$

 Created by Python create_sdf_string function

 29 32  0  0  0  0  0  0  0  0999 V2000
    5.4450    8.7154   22.6662 C   0  0  0  0  0  0  0  0  0  0  0  0
   10.9154    5.4574   20.5483 C   0  0  0  0  0  0  0  0  0  0  0  0
    7.2709    4.5089   22.7542 C   0  0  0  0  0  0  0  0  0  0  0  0
    5.9698    7.6329   24.6581 C   0  0  0  0  0  0  0  0  0  0  0  0
    4.5542    8.9057   21.7104 O   0  0  0  0  0  0  0  0  0  0  0  0
    6.9895    3.2085   23.0690 C   0  0  0  0  0  0  0  0  0  0  0  0
    7.8391    2.2253   22.7260 N   0  0  0  0  0  0  0  0  0  0  0  0
    8.6968    9.8373   23.6359 C   0  0  0  0  0  0  0  0  0  0  0  0
   12.5135    6.5957   21.8396 C   0  0  0  0  0  0  0  0  0  0  0  0
   10.9406    8.2330   21.1350 C   0  0  0  0  0  0  0  0  0  0  0  0
    9.6648    8.5956   21.7310 C   0  0  0  0  0  0  0  0  0  0  0  0
   10.8829    1.7153   20.9865 C   0  0  0  0  0  0  0  0  0  0  0  0
    5.7768    2.8533   23.7910 C   0  0  0  0  0  0  0  0  0  0  0  0
    9.7977    1.4791   21.6912 N   0  0  0  0  0  0  0  0  0  0  0  0
    6.5976    9.3401   22.6478 N   0  0  0  0  0  0  0  0  0  0  0  0
   11.2031    3.0042   20.6246 C   0  0  0  0  0  0  0  0  0  0  0  0
   12.8688    7.7370   22.7287 C   0  0  0  0  0  0  0  0  0  0  0  0
    7.4487    9.1361   23.6506 C   0  0  0  0  0  0  0  0  0  0  0  0
    8.9772    2.5025   22.0273 C   0  0  0  0  0  0  0  0  0  0  0  0
   10.4859    4.0901   20.9730 C   0  0  0  0  0  0  0  0  0  0  0  0
   11.0962    9.3293   23.5072 C   0  0  0  0  0  0  0  0  0  0  0  0
    5.1273    7.8529   23.6208 N   0  0  0  0  0  0  0  0  0  0  0  0
    9.7552    9.2338   23.0171 N   0  0  0  0  0  0  0  0  0  0  0  0
   11.1797    6.7591   21.3326 N   0  0  0  0  0  0  0  0  0  0  0  0
   11.7728    8.0337   23.7267 C   0  0  0  0  0  0  0  0  0  0  0  0
    7.1194    8.3344   24.6775 C   0  0  0  0  0  0  0  0  0  0  0  0
    8.4311    4.7963   22.0500 C   0  0  0  0  0  0  0  0  0  0  0  0
    8.7393   10.8706   24.1871 O   0  0  0  0  0  0  0  0  0  0  0  0
    9.3093    3.8166   21.6712 C   0  0  0  0  0  0  0  0  0  0  0  0
  1  5  1  0
  1 15  4  0
  1 22  4  0
  2 20  1  0
  2 24  1  0
  3  6  4  0
  3 27  4  0
  4 22  4  0
  4 26  4  0
  6  7  4  0
  6 13  1  0
  7 19  4  0
  8 18  1  0
  8 23  1  0
  8 28  2  0
  9 17  1  0
  9 24  1  0
 10 11  1  0
 10 24  1  0
 11 23  1  0
 12 14  4  0
 12 16  4  0
 14 19  4  0
 15 18  4  0
 16 20  4  0
 17 25  1  0
 18 26  4  0
 19 29  4  0
 20 29  4  0
 21 23  1  0
 21 25  1  0
 27 29  4  0
M  END
$$$$

 Created by Python create_sdf_string function

 29 32  0  0  0  0  0  0  0  0999 V2000
    5.4450    8.7154   22.6662 C   0  0  0  0  0  0  0  0  0  0  0  0
   10.9154    5.4574   20.5483 C   0  0  0  0  0  0  0  0  0  0  0  0
    7.2709    4.5089   22.7542 C   0  0  0  0  0  0  0  0  0  0  0  0
    5.9698    7.6329   24.6581 C   0  0  0  0  0  0  0  0  0  0  0  0
    4.5542    8.9057   21.7104 O   0  0  0  0  0  0  0  0  0  0  0  0
    6.9895    3.2085   23.0690 C   0  0  0  0  0  0  0  0  0  0  0  0
    7.8391    2.2253   22.7260 N   0  0  0  0  0  0  0  0  0  0  0  0
    8.6968    9.8373   23.6359 C   0  0  0  0  0  0  0  0  0  0  0  0
   12.5135    6.5957   21.8396 C   0  0  0  0  0  0  0  0  0  0  0  0
   10.9406    8.2330   21.1350 C   0  0  0  0  0  0  0  0  0  0  0  0
    9.6648    8.5956   21.7310 C   0  0  0  0  0  0  0  0  0  0  0  0
   10.8829    1.7153   20.9865 C   0  0  0  0  0  0  0  0  0  0  0  0
    5.7768    2.8533   23.7910 C   0  0  0  0  0  0  0  0  0  0  0  0
    9.7977    1.4791   21.6912 N   0  0  0  0  0  0  0  0  0  0  0  0
    6.5976    9.3401   22.6478 N   0  0  0  0  0  0  0  0  0  0  0  0
   11.2031    3.0042   20.6246 C   0  0  0  0  0  0  0  0  0  0  0  0
   12.8688    7.7370   22.7287 C   0  0  0  0  0  0  0  0  0  0  0  0
    7.4487    9.1361   23.6506 C   0  0  0  0  0  0  0  0  0  0  0  0
    8.9772    2.5025   22.0273 C   0  0  0  0  0  0  0  0  0  0  0  0
   10.4859    4.0901   20.9730 C   0  0  0  0  0  0  0  0  0  0  0  0
   11.0962    9.3293   23.5072 C   0  0  0  0  0  0  0  0  0  0  0  0
    5.1273    7.8529   23.6208 N   0  0  0  0  0  0  0  0  0  0  0  0
    9.7552    9.2338   23.0171 N   0  0  0  0  0  0  0  0  0  0  0  0
   11.1797    6.7591   21.3326 N   0  0  0  0  0  0  0  0  0  0  0  0
   11.7728    8.0337   23.7267 C   0  0  0  0  0  0  0  0  0  0  0  0
    7.1194    8.3344   24.6775 C   0  0  0  0  0  0  0  0  0  0  0  0
    8.4311    4.7963   22.0500 C   0  0  0  0  0  0  0  0  0  0  0  0
    8.7393   10.8706   24.1871 O   0  0  0  0  0  0  0  0  0  0  0  0
    9.3093    3.8166   21.6712 C   0  0  0  0  0  0  0  0  0  0  0  0
  1  5  1  0
  1 15  4  0
  1 22  4  0
  2 20  1  0
  2 24  1  0
  3  6  4  0
  3 27  4  0
  4 22  4  0
  4 26  4  0
  6  7  4  0
  6 13  1  0
  7 19  4  0
  8 18  1  0
  8 23  1  0
  8 28  2  0
  9 17  1  0
  9 24  1  0
 10 11  1  0
 10 24  1  0
 11 23  1  0
 12 14  4  0
 12 16  4  0
 14 19  4  0
 15 18  4  0
 16 20  4  0
 17 25  1  0
 18 26  4  0
 19 29  4  0
 20 29  4  0
 21 23  1  0
 21 25  1  0
 27 29  4  0
M  END
$$$$

 Created by Python create_sdf_string function

 29 32  0  0  0  0  0  0  0  0999 V2000
    5.4450    8.7154   22.6662 C   0  0  0  0  0  0  0  0  0  0  0  0
   10.9154    5.4574   20.5483 C   0  0  0  0  0  0  0  0  0  0  0  0
    7.2709    4.5089   22.7542 C   0  0  0  0  0  0  0  0  0  0  0  0
    5.9698    7.6329   24.6581 C   0  0  0  0  0  0  0  0  0  0  0  0
    4.5542    8.9057   21.7104 O   0  0  0  0  0  0  0  0  0  0  0  0
    6.9895    3.2085   23.0690 C   0  0  0  0  0  0  0  0  0  0  0  0
    7.8391    2.2253   22.7260 N   0  0  0  0  0  0  0  0  0  0  0  0
    8.6968    9.8373   23.6359 C   0  0  0  0  0  0  0  0  0  0  0  0
   12.5135    6.5957   21.8396 C   0  0  0  0  0  0  0  0  0  0  0  0
   10.9406    8.2330   21.1350 C   0  0  0  0  0  0  0  0  0  0  0  0
    9.6648    8.5956   21.7310 C   0  0  0  0  0  0  0  0  0  0  0  0
   10.8829    1.7153   20.9865 C   0  0  0  0  0  0  0  0  0  0  0  0
    5.7768    2.8533   23.7910 C   0  0  0  0  0  0  0  0  0  0  0  0
    9.7977    1.4791   21.6912 N   0  0  0  0  0  0  0  0  0  0  0  0
    6.5976    9.3401   22.6478 N   0  0  0  0  0  0  0  0  0  0  0  0
   11.2031    3.0042   20.6246 C   0  0  0  0  0  0  0  0  0  0  0  0
   12.8688    7.7370   22.7287 C   0  0  0  0  0  0  0  0  0  0  0  0
    7.4487    9.1361   23.6506 C   0  0  0  0  0  0  0  0  0  0  0  0
    8.9772    2.5025   22.0273 C   0  0  0  0  0  0  0  0  0  0  0  0
   10.4859    4.0901   20.9730 C   0  0  0  0  0  0  0  0  0  0  0  0
   11.0962    9.3293   23.5072 C   0  0  0  0  0  0  0  0  0  0  0  0
    5.1273    7.8529   23.6208 N   0  0  0  0  0  0  0  0  0  0  0  0
    9.7552    9.2338   23.0171 N   0  0  0  0  0  0  0  0  0  0  0  0
   11.1797    6.7591   21.3326 N   0  0  0  0  0  0  0  0  0  0  0  0
   11.7728    8.0337   23.7267 C   0  0  0  0  0  0  0  0  0  0  0  0
    7.1194    8.3344   24.6775 C   0  0  0  0  0  0  0  0  0  0  0  0
    8.4311    4.7963   22.0500 C   0  0  0  0  0  0  0  0  0  0  0  0
    8.7393   10.8706   24.1871 O   0  0  0  0  0  0  0  0  0  0  0  0
    9.3093    3.8166   21.6712 C   0  0  0  0  0  0  0  0  0  0  0  0
  1  5  1  0
  1 15  4  0
  1 22  4  0
  2 20  1  0
  2 24  1  0
  3  6  4  0
  3 27  4  0
  4 22  4  0
  4 26  4  0
  6  7  4  0
  6 13  1  0
  7 19  4  0
  8 18  1  0
  8 23  1  0
  8 28  2  0
  9 17  1  0
  9 24  1  0
 10 11  1  0
 10 24  1  0
 11 23  1  0
 12 14  4  0
 12 16  4  0
 14 19  4  0
 15 18  4  0
 16 20  4  0
 17 25  1  0
 18 26  4  0
 19 29  4  0
 20 29  4  0
 21 23  1  0
 21 25  1  0
 27 29  4  0
M  END
$$$$

 Created by Python create_sdf_string function

 29 32  0  0  0  0  0  0  0  0999 V2000
    5.4450    8.7154   22.6662 C   0  0  0  0  0  0  0  0  0  0  0  0
   10.9154    5.4574   20.5483 C   0  0  0  0  0  0  0  0  0  0  0  0
    7.2709    4.5089   22.7542 C   0  0  0  0  0  0  0  0  0  0  0  0
    5.9698    7.6329   24.6581 C   0  0  0  0  0  0  0  0  0  0  0  0
    4.5542    8.9057   21.7104 O   0  0  0  0  0  0  0  0  0  0  0  0
    6.9895    3.2085   23.0690 C   0  0  0  0  0  0  0  0  0  0  0  0
    7.8391    2.2253   22.7260 N   0  0  0  0  0  0  0  0  0  0  0  0
    8.6968    9.8373   23.6359 C   0  0  0  0  0  0  0  0  0  0  0  0
   12.5135    6.5957   21.8396 C   0  0  0  0  0  0  0  0  0  0  0  0
   10.9406    8.2330   21.1350 C   0  0  0  0  0  0  0  0  0  0  0  0
    9.6648    8.5956   21.7310 C   0  0  0  0  0  0  0  0  0  0  0  0
   10.8829    1.7153   20.9865 C   0  0  0  0  0  0  0  0  0  0  0  0
    5.7768    2.8533   23.7910 C   0  0  0  0  0  0  0  0  0  0  0  0
    9.7977    1.4791   21.6912 N   0  0  0  0  0  0  0  0  0  0  0  0
    6.5976    9.3401   22.6478 N   0  0  0  0  0  0  0  0  0  0  0  0
   11.2031    3.0042   20.6246 C   0  0  0  0  0  0  0  0  0  0  0  0
   12.8688    7.7370   22.7287 C   0  0  0  0  0  0  0  0  0  0  0  0
    7.4487    9.1361   23.6506 C   0  0  0  0  0  0  0  0  0  0  0  0
    8.9772    2.5025   22.0273 C   0  0  0  0  0  0  0  0  0  0  0  0
   10.4859    4.0901   20.9730 C   0  0  0  0  0  0  0  0  0  0  0  0
   11.0962    9.3293   23.5072 C   0  0  0  0  0  0  0  0  0  0  0  0
    5.1273    7.8529   23.6208 N   0  0  0  0  0  0  0  0  0  0  0  0
    9.7552    9.2338   23.0171 N   0  0  0  0  0  0  0  0  0  0  0  0
   11.1797    6.7591   21.3326 N   0  0  0  0  0  0  0  0  0  0  0  0
   11.7728    8.0337   23.7267 C   0  0  0  0  0  0  0  0  0  0  0  0
    7.1194    8.3344   24.6775 C   0  0  0  0  0  0  0  0  0  0  0  0
    8.4311    4.7963   22.0500 C   0  0  0  0  0  0  0  0  0  0  0  0
    8.7393   10.8706   24.1871 O   0  0  0  0  0  0  0  0  0  0  0  0
    9.3093    3.8166   21.6712 C   0  0  0  0  0  0  0  0  0  0  0  0
  1  5  1  0
  1 15  4  0
  1 22  4  0
  2 20  1  0
  2 24  1  0
  3  6  4  0
  3 27  4  0
  4 22  4  0
  4 26  4  0
  6  7  4  0
  6 13  1  0
  7 19  4  0
  8 18  1  0
  8 23  1  0
  8 28  2  0
  9 17  1  0
  9 24  1  0
 10 11  1  0
 10 24  1  0
 11 23  1  0
 12 14  4  0
 12 16  4  0
 14 19  4  0
 15 18  4  0
 16 20  4  0
 17 25  1  0
 18 26  4  0
 19 29  4  0
 20 29  4  0
 21 23  1  0
 21 25  1  0
 27 29  4  0
M  END
$$$$

 Created by Python create_sdf_string function

 29 32  0  0  0  0  0  0  0  0999 V2000
    5.4450    8.7154   22.6662 C   0  0  0  0  0  0  0  0  0  0  0  0
   10.9154    5.4574   20.5483 C   0  0  0  0  0  0  0  0  0  0  0  0
    7.2709    4.5089   22.7542 C   0  0  0  0  0  0  0  0  0  0  0  0
    5.9698    7.6329   24.6581 C   0  0  0  0  0  0  0  0  0  0  0  0
    4.5542    8.9057   21.7104 O   0  0  0  0  0  0  0  0  0  0  0  0
    6.9895    3.2085   23.0690 C   0  0  0  0  0  0  0  0  0  0  0  0
    7.8391    2.2253   22.7260 N   0  0  0  0  0  0  0  0  0  0  0  0
    8.6968    9.8373   23.6359 C   0  0  0  0  0  0  0  0  0  0  0  0
   12.5135    6.5957   21.8396 C   0  0  0  0  0  0  0  0  0  0  0  0
   10.9406    8.2330   21.1350 C   0  0  0  0  0  0  0  0  0  0  0  0
    9.6648    8.5956   21.7310 C   0  0  0  0  0  0  0  0  0  0  0  0
   10.8829    1.7153   20.9865 C   0  0  0  0  0  0  0  0  0  0  0  0
    5.7768    2.8533   23.7910 C   0  0  0  0  0  0  0  0  0  0  0  0
    9.7977    1.4791   21.6912 N   0  0  0  0  0  0  0  0  0  0  0  0
    6.5976    9.3401   22.6478 N   0  0  0  0  0  0  0  0  0  0  0  0
   11.2031    3.0042   20.6246 C   0  0  0  0  0  0  0  0  0  0  0  0
   12.8688    7.7370   22.7287 C   0  0  0  0  0  0  0  0  0  0  0  0
    7.4487    9.1361   23.6506 C   0  0  0  0  0  0  0  0  0  0  0  0
    8.9772    2.5025   22.0273 C   0  0  0  0  0  0  0  0  0  0  0  0
   10.4859    4.0901   20.9730 C   0  0  0  0  0  0  0  0  0  0  0  0
   11.0962    9.3293   23.5072 C   0  0  0  0  0  0  0  0  0  0  0  0
    5.1273    7.8529   23.6208 N   0  0  0  0  0  0  0  0  0  0  0  0
    9.7552    9.2338   23.0171 N   0  0  0  0  0  0  0  0  0  0  0  0
   11.1797    6.7591   21.3326 N   0  0  0  0  0  0  0  0  0  0  0  0
   11.7728    8.0337   23.7267 C   0  0  0  0  0  0  0  0  0  0  0  0
    7.1194    8.3344   24.6775 C   0  0  0  0  0  0  0  0  0  0  0  0
    8.4311    4.7963   22.0500 C   0  0  0  0  0  0  0  0  0  0  0  0
    8.7393   10.8706   24.1871 O   0  0  0  0  0  0  0  0  0  0  0  0
    9.3093    3.8166   21.6712 C   0  0  0  0  0  0  0  0  0  0  0  0
  1  5  1  0
  1 15  4  0
  1 22  4  0
  2 20  1  0
  2 24  1  0
  3  6  4  0
  3 27  4  0
  4 22  4  0
  4 26  4  0
  6  7  4  0
  6 13  1  0
  7 19  4  0
  8 18  1  0
  8 23  1  0
  8 28  2  0
  9 17  1  0
  9 24  1  0
 10 11  1  0
 10 24  1  0
 11 23  1  0
 12 14  4  0
 12 16  4  0
 14 19  4  0
 15 18  4  0
 16 20  4  0
 17 25  1  0
 18 26  4  0
 19 29  4  0
 20 29  4  0
 21 23  1  0
 21 25  1  0
 27 29  4  0
M  END
$$$$

 Created by Python create_sdf_string function

 29 32  0  0  0  0  0  0  0  0999 V2000
    5.4450    8.7154   22.6662 C   0  0  0  0  0  0  0  0  0  0  0  0
   10.9154    5.4574   20.5483 C   0  0  0  0  0  0  0  0  0  0  0  0
    7.2709    4.5089   22.7542 C   0  0  0  0  0  0  0  0  0  0  0  0
    5.9698    7.6329   24.6581 C   0  0  0  0  0  0  0  0  0  0  0  0
    4.5542    8.9057   21.7104 O   0  0  0  0  0  0  0  0  0  0  0  0
    6.9895    3.2085   23.0690 C   0  0  0  0  0  0  0  0  0  0  0  0
    7.8391    2.2253   22.7260 N   0  0  0  0  0  0  0  0  0  0  0  0
    8.6968    9.8373   23.6359 C   0  0  0  0  0  0  0  0  0  0  0  0
   12.5135    6.5957   21.8396 C   0  0  0  0  0  0  0  0  0  0  0  0
   10.9406    8.2330   21.1350 C   0  0  0  0  0  0  0  0  0  0  0  0
    9.6648    8.5956   21.7310 C   0  0  0  0  0  0  0  0  0  0  0  0
   10.8829    1.7153   20.9865 C   0  0  0  0  0  0  0  0  0  0  0  0
    5.7768    2.8533   23.7910 C   0  0  0  0  0  0  0  0  0  0  0  0
    9.7977    1.4791   21.6912 N   0  0  0  0  0  0  0  0  0  0  0  0
    6.5976    9.3401   22.6478 N   0  0  0  0  0  0  0  0  0  0  0  0
   11.2031    3.0042   20.6246 C   0  0  0  0  0  0  0  0  0  0  0  0
   12.8688    7.7370   22.7287 C   0  0  0  0  0  0  0  0  0  0  0  0
    7.4487    9.1361   23.6506 C   0  0  0  0  0  0  0  0  0  0  0  0
    8.9772    2.5025   22.0273 C   0  0  0  0  0  0  0  0  0  0  0  0
   10.4859    4.0901   20.9730 C   0  0  0  0  0  0  0  0  0  0  0  0
   11.0962    9.3293   23.5072 C   0  0  0  0  0  0  0  0  0  0  0  0
    5.1273    7.8529   23.6208 N   0  0  0  0  0  0  0  0  0  0  0  0
    9.7552    9.2338   23.0171 N   0  0  0  0  0  0  0  0  0  0  0  0
   11.1797    6.7591   21.3326 N   0  0  0  0  0  0  0  0  0  0  0  0
   11.7728    8.0337   23.7267 C   0  0  0  0  0  0  0  0  0  0  0  0
    7.1194    8.3344   24.6775 C   0  0  0  0  0  0  0  0  0  0  0  0
    8.4311    4.7963   22.0500 C   0  0  0  0  0  0  0  0  0  0  0  0
    8.7393   10.8706   24.1871 O   0  0  0  0  0  0  0  0  0  0  0  0
    9.3093    3.8166   21.6712 C   0  0  0  0  0  0  0  0  0  0  0  0
  1  5  1  0
  1 15  4  0
  1 22  4  0
  2 20  1  0
  2 24  1  0
  3  6  4  0
  3 27  4  0
  4 22  4  0
  4 26  4  0
  6  7  4  0
  6 13  1  0
  7 19  4  0
  8 18  1  0
  8 23  1  0
  8 28  2  0
  9 17  1  0
  9 24  1  0
 10 11  1  0
 10 24  1  0
 11 23  1  0
 12 14  4  0
 12 16  4  0
 14 19  4  0
 15 18  4  0
 16 20  4  0
 17 25  1  0
 18 26  4  0
 19 29  4  0
 20 29  4  0
 21 23  1  0
 21 25  1  0
 27 29  4  0
M  END
$$$$

 Created by Python create_sdf_string function

 29 32  0  0  0  0  0  0  0  0999 V2000
    5.4450    8.7154   22.6662 C   0  0  0  0  0  0  0  0  0  0  0  0
   10.9154    5.4574   20.5483 C   0  0  0  0  0  0  0  0  0  0  0  0
    7.2709    4.5089   22.7542 C   0  0  0  0  0  0  0  0  0  0  0  0
    5.9698    7.6329   24.6581 C   0  0  0  0  0  0  0  0  0  0  0  0
    4.5542    8.9057   21.7104 O   0  0  0  0  0  0  0  0  0  0  0  0
    6.9895    3.2085   23.0690 C   0  0  0  0  0  0  0  0  0  0  0  0
    7.8391    2.2253   22.7260 N   0  0  0  0  0  0  0  0  0  0  0  0
    8.6968    9.8373   23.6359 C   0  0  0  0  0  0  0  0  0  0  0  0
   12.5135    6.5957   21.8396 C   0  0  0  0  0  0  0  0  0  0  0  0
   10.9406    8.2330   21.1350 C   0  0  0  0  0  0  0  0  0  0  0  0
    9.6648    8.5956   21.7310 C   0  0  0  0  0  0  0  0  0  0  0  0
   10.8829    1.7153   20.9865 C   0  0  0  0  0  0  0  0  0  0  0  0
    5.7768    2.8533   23.7910 C   0  0  0  0  0  0  0  0  0  0  0  0
    9.7977    1.4791   21.6912 N   0  0  0  0  0  0  0  0  0  0  0  0
    6.5976    9.3401   22.6478 N   0  0  0  0  0  0  0  0  0  0  0  0
   11.2031    3.0042   20.6246 C   0  0  0  0  0  0  0  0  0  0  0  0
   12.8688    7.7370   22.7287 C   0  0  0  0  0  0  0  0  0  0  0  0
    7.4487    9.1361   23.6506 C   0  0  0  0  0  0  0  0  0  0  0  0
    8.9772    2.5025   22.0273 C   0  0  0  0  0  0  0  0  0  0  0  0
   10.4859    4.0901   20.9730 C   0  0  0  0  0  0  0  0  0  0  0  0
   11.0962    9.3293   23.5072 C   0  0  0  0  0  0  0  0  0  0  0  0
    5.1273    7.8529   23.6208 N   0  0  0  0  0  0  0  0  0  0  0  0
    9.7552    9.2338   23.0171 N   0  0  0  0  0  0  0  0  0  0  0  0
   11.1797    6.7591   21.3326 N   0  0  0  0  0  0  0  0  0  0  0  0
   11.7728    8.0337   23.7267 C   0  0  0  0  0  0  0  0  0  0  0  0
    7.1194    8.3344   24.6775 C   0  0  0  0  0  0  0  0  0  0  0  0
    8.4311    4.7963   22.0500 C   0  0  0  0  0  0  0  0  0  0  0  0
    8.7393   10.8706   24.1871 O   0  0  0  0  0  0  0  0  0  0  0  0
    9.3093    3.8166   21.6712 C   0  0  0  0  0  0  0  0  0  0  0  0
  1  5  1  0
  1 15  4  0
  1 22  4  0
  2 20  1  0
  2 24  1  0
  3  6  4  0
  3 27  4  0
  4 22  4  0
  4 26  4  0
  6  7  4  0
  6 13  1  0
  7 19  4  0
  8 18  1  0
  8 23  1  0
  8 28  2  0
  9 17  1  0
  9 24  1  0
 10 11  1  0
 10 24  1  0
 11 23  1  0
 12 14  4  0
 12 16  4  0
 14 19  4  0
 15 18  4  0
 16 20  4  0
 17 25  1  0
 18 26  4  0
 19 29  4  0
 20 29  4  0
 21 23  1  0
 21 25  1  0
 27 29  4  0
M  END
$$$$

 Created by Python create_sdf_string function

 29 32  0  0  0  0  0  0  0  0999 V2000
    5.4450    8.7154   22.6662 C   0  0  0  0  0  0  0  0  0  0  0  0
   10.9154    5.4574   20.5483 C   0  0  0  0  0  0  0  0  0  0  0  0
    7.2709    4.5089   22.7542 C   0  0  0  0  0  0  0  0  0  0  0  0
    5.9698    7.6329   24.6581 C   0  0  0  0  0  0  0  0  0  0  0  0
    4.5542    8.9057   21.7104 O   0  0  0  0  0  0  0  0  0  0  0  0
    6.9895    3.2085   23.0690 C   0  0  0  0  0  0  0  0  0  0  0  0
    7.8391    2.2253   22.7260 N   0  0  0  0  0  0  0  0  0  0  0  0
    8.6968    9.8373   23.6359 C   0  0  0  0  0  0  0  0  0  0  0  0
   12.5135    6.5957   21.8396 C   0  0  0  0  0  0  0  0  0  0  0  0
   10.9406    8.2330   21.1350 C   0  0  0  0  0  0  0  0  0  0  0  0
    9.6648    8.5956   21.7310 C   0  0  0  0  0  0  0  0  0  0  0  0
   10.8829    1.7153   20.9865 C   0  0  0  0  0  0  0  0  0  0  0  0
    5.7768    2.8533   23.7910 C   0  0  0  0  0  0  0  0  0  0  0  0
    9.7977    1.4791   21.6912 N   0  0  0  0  0  0  0  0  0  0  0  0
    6.5976    9.3401   22.6478 N   0  0  0  0  0  0  0  0  0  0  0  0
   11.2031    3.0042   20.6246 C   0  0  0  0  0  0  0  0  0  0  0  0
   12.8688    7.7370   22.7287 C   0  0  0  0  0  0  0  0  0  0  0  0
    7.4487    9.1361   23.6506 C   0  0  0  0  0  0  0  0  0  0  0  0
    8.9772    2.5025   22.0273 C   0  0  0  0  0  0  0  0  0  0  0  0
   10.4859    4.0901   20.9730 C   0  0  0  0  0  0  0  0  0  0  0  0
   11.0962    9.3293   23.5072 C   0  0  0  0  0  0  0  0  0  0  0  0
    5.1273    7.8529   23.6208 N   0  0  0  0  0  0  0  0  0  0  0  0
    9.7552    9.2338   23.0171 N   0  0  0  0  0  0  0  0  0  0  0  0
   11.1797    6.7591   21.3326 N   0  0  0  0  0  0  0  0  0  0  0  0
   11.7728    8.0337   23.7267 C   0  0  0  0  0  0  0  0  0  0  0  0
    7.1194    8.3344   24.6775 C   0  0  0  0  0  0  0  0  0  0  0  0
    8.4311    4.7963   22.0500 C   0  0  0  0  0  0  0  0  0  0  0  0
    8.7393   10.8706   24.1871 O   0  0  0  0  0  0  0  0  0  0  0  0
    9.3093    3.8166   21.6712 C   0  0  0  0  0  0  0  0  0  0  0  0
  1  5  1  0
  1 15  4  0
  1 22  4  0
  2 20  1  0
  2 24  1  0
  3  6  4  0
  3 27  4  0
  4 22  4  0
  4 26  4  0
  6  7  4  0
  6 13  1  0
  7 19  4  0
  8 18  1  0
  8 23  1  0
  8 28  2  0
  9 17  1  0
  9 24  1  0
 10 11  1  0
 10 24  1  0
 11 23  1  0
 12 14  4  0
 12 16  4  0
 14 19  4  0
 15 18  4  0
 16 20  4  0
 17 25  1  0
 18 26  4  0
 19 29  4  0
 20 29  4  0
 21 23  1  0
 21 25  1  0
 27 29  4  0
M  END
$$$$

 Created by Python create_sdf_string function

 29 32  0  0  0  0  0  0  0  0999 V2000
    5.4450    8.7154   22.6662 C   0  0  0  0  0  0  0  0  0  0  0  0
   10.9154    5.4574   20.5483 C   0  0  0  0  0  0  0  0  0  0  0  0
    7.2709    4.5089   22.7542 C   0  0  0  0  0  0  0  0  0  0  0  0
    5.9698    7.6329   24.6581 C   0  0  0  0  0  0  0  0  0  0  0  0
    4.5542    8.9057   21.7104 O   0  0  0  0  0  0  0  0  0  0  0  0
    6.9895    3.2085   23.0690 C   0  0  0  0  0  0  0  0  0  0  0  0
    7.8391    2.2253   22.7260 N   0  0  0  0  0  0  0  0  0  0  0  0
    8.6968    9.8373   23.6359 C   0  0  0  0  0  0  0  0  0  0  0  0
   12.5135    6.5957   21.8396 C   0  0  0  0  0  0  0  0  0  0  0  0
   10.9406    8.2330   21.1350 C   0  0  0  0  0  0  0  0  0  0  0  0
    9.6648    8.5956   21.7310 C   0  0  0  0  0  0  0  0  0  0  0  0
   10.8829    1.7153   20.9865 C   0  0  0  0  0  0  0  0  0  0  0  0
    5.7768    2.8533   23.7910 C   0  0  0  0  0  0  0  0  0  0  0  0
    9.7977    1.4791   21.6912 N   0  0  0  0  0  0  0  0  0  0  0  0
    6.5976    9.3401   22.6478 N   0  0  0  0  0  0  0  0  0  0  0  0
   11.2031    3.0042   20.6246 C   0  0  0  0  0  0  0  0  0  0  0  0
   12.8688    7.7370   22.7287 C   0  0  0  0  0  0  0  0  0  0  0  0
    7.4487    9.1361   23.6506 C   0  0  0  0  0  0  0  0  0  0  0  0
    8.9772    2.5025   22.0273 C   0  0  0  0  0  0  0  0  0  0  0  0
   10.4859    4.0901   20.9730 C   0  0  0  0  0  0  0  0  0  0  0  0
   11.0962    9.3293   23.5072 C   0  0  0  0  0  0  0  0  0  0  0  0
    5.1273    7.8529   23.6208 N   0  0  0  0  0  0  0  0  0  0  0  0
    9.7552    9.2338   23.0171 N   0  0  0  0  0  0  0  0  0  0  0  0
   11.1797    6.7591   21.3326 N   0  0  0  0  0  0  0  0  0  0  0  0
   11.7728    8.0337   23.7267 C   0  0  0  0  0  0  0  0  0  0  0  0
    7.1194    8.3344   24.6775 C   0  0  0  0  0  0  0  0  0  0  0  0
    8.4311    4.7963   22.0500 C   0  0  0  0  0  0  0  0  0  0  0  0
    8.7393   10.8706   24.1871 O   0  0  0  0  0  0  0  0  0  0  0  0
    9.3093    3.8166   21.6712 C   0  0  0  0  0  0  0  0  0  0  0  0
  1  5  1  0
  1 15  4  0
  1 22  4  0
  2 20  1  0
  2 24  1  0
  3  6  4  0
  3 27  4  0
  4 22  4  0
  4 26  4  0
  6  7  4  0
  6 13  1  0
  7 19  4  0
  8 18  1  0
  8 23  1  0
  8 28  2  0
  9 17  1  0
  9 24  1  0
 10 11  1  0
 10 24  1  0
 11 23  1  0
 12 14  4  0
 12 16  4  0
 14 19  4  0
 15 18  4  0
 16 20  4  0
 17 25  1  0
 18 26  4  0
 19 29  4  0
 20 29  4  0
 21 23  1  0
 21 25  1  0
 27 29  4  0
M  END
$$$$

 Created by Python create_sdf_string function

 29 32  0  0  0  0  0  0  0  0999 V2000
    5.4450    8.7154   22.6662 C   0  0  0  0  0  0  0  0  0  0  0  0
   10.9154    5.4574   20.5483 C   0  0  0  0  0  0  0  0  0  0  0  0
    7.2709    4.5089   22.7542 C   0  0  0  0  0  0  0  0  0  0  0  0
    5.9698    7.6329   24.6581 C   0  0  0  0  0  0  0  0  0  0  0  0
    4.5542    8.9057   21.7104 O   0  0  0  0  0  0  0  0  0  0  0  0
    6.9895    3.2085   23.0690 C   0  0  0  0  0  0  0  0  0  0  0  0
    7.8391    2.2253   22.7260 N   0  0  0  0  0  0  0  0  0  0  0  0
    8.6968    9.8373   23.6359 C   0  0  0  0  0  0  0  0  0  0  0  0
   12.5135    6.5957   21.8396 C   0  0  0  0  0  0  0  0  0  0  0  0
   10.9406    8.2330   21.1350 C   0  0  0  0  0  0  0  0  0  0  0  0
    9.6648    8.5956   21.7310 C   0  0  0  0  0  0  0  0  0  0  0  0
   10.8829    1.7153   20.9865 C   0  0  0  0  0  0  0  0  0  0  0  0
    5.7768    2.8533   23.7910 C   0  0  0  0  0  0  0  0  0  0  0  0
    9.7977    1.4791   21.6912 N   0  0  0  0  0  0  0  0  0  0  0  0
    6.5976    9.3401   22.6478 N   0  0  0  0  0  0  0  0  0  0  0  0
   11.2031    3.0042   20.6246 C   0  0  0  0  0  0  0  0  0  0  0  0
   12.8688    7.7370   22.7287 C   0  0  0  0  0  0  0  0  0  0  0  0
    7.4487    9.1361   23.6506 C   0  0  0  0  0  0  0  0  0  0  0  0
    8.9772    2.5025   22.0273 C   0  0  0  0  0  0  0  0  0  0  0  0
   10.4859    4.0901   20.9730 C   0  0  0  0  0  0  0  0  0  0  0  0
   11.0962    9.3293   23.5072 C   0  0  0  0  0  0  0  0  0  0  0  0
    5.1273    7.8529   23.6208 N   0  0  0  0  0  0  0  0  0  0  0  0
    9.7552    9.2338   23.0171 N   0  0  0  0  0  0  0  0  0  0  0  0
   11.1797    6.7591   21.3326 N   0  0  0  0  0  0  0  0  0  0  0  0
   11.7728    8.0337   23.7267 C   0  0  0  0  0  0  0  0  0  0  0  0
    7.1194    8.3344   24.6775 C   0  0  0  0  0  0  0  0  0  0  0  0
    8.4311    4.7963   22.0500 C   0  0  0  0  0  0  0  0  0  0  0  0
    8.7393   10.8706   24.1871 O   0  0  0  0  0  0  0  0  0  0  0  0
    9.3093    3.8166   21.6712 C   0  0  0  0  0  0  0  0  0  0  0  0
  1  5  1  0
  1 15  4  0
  1 22  4  0
  2 20  1  0
  2 24  1  0
  3  6  4  0
  3 27  4  0
  4 22  4  0
  4 26  4  0
  6  7  4  0
  6 13  1  0
  7 19  4  0
  8 18  1  0
  8 23  1  0
  8 28  2  0
  9 17  1  0
  9 24  1  0
 10 11  1  0
 10 24  1  0
 11 23  1  0
 12 14  4  0
 12 16  4  0
 14 19  4  0
 15 18  4  0
 16 20  4  0
 17 25  1  0
 18 26  4  0
 19 29  4  0
 20 29  4  0
 21 23  1  0
 21 25  1  0
 27 29  4  0
M  END
$$$$

 Created by Python create_sdf_string function

 29 32  0  0  0  0  0  0  0  0999 V2000
    5.4450    8.7154   22.6662 C   0  0  0  0  0  0  0  0  0  0  0  0
   10.9154    5.4574   20.5483 C   0  0  0  0  0  0  0  0  0  0  0  0
    7.2709    4.5089   22.7542 C   0  0  0  0  0  0  0  0  0  0  0  0
    5.9698    7.6329   24.6581 C   0  0  0  0  0  0  0  0  0  0  0  0
    4.5542    8.9057   21.7104 O   0  0  0  0  0  0  0  0  0  0  0  0
    6.9895    3.2085   23.0690 C   0  0  0  0  0  0  0  0  0  0  0  0
    7.8391    2.2253   22.7260 N   0  0  0  0  0  0  0  0  0  0  0  0
    8.6968    9.8373   23.6359 C   0  0  0  0  0  0  0  0  0  0  0  0
   12.5135    6.5957   21.8396 C   0  0  0  0  0  0  0  0  0  0  0  0
   10.9406    8.2330   21.1350 C   0  0  0  0  0  0  0  0  0  0  0  0
    9.6648    8.5956   21.7310 C   0  0  0  0  0  0  0  0  0  0  0  0
   10.8829    1.7153   20.9865 C   0  0  0  0  0  0  0  0  0  0  0  0
    5.7768    2.8533   23.7910 C   0  0  0  0  0  0  0  0  0  0  0  0
    9.7977    1.4791   21.6912 N   0  0  0  0  0  0  0  0  0  0  0  0
    6.5976    9.3401   22.6478 N   0  0  0  0  0  0  0  0  0  0  0  0
   11.2031    3.0042   20.6246 C   0  0  0  0  0  0  0  0  0  0  0  0
   12.8688    7.7370   22.7287 C   0  0  0  0  0  0  0  0  0  0  0  0
    7.4487    9.1361   23.6506 C   0  0  0  0  0  0  0  0  0  0  0  0
    8.9772    2.5025   22.0273 C   0  0  0  0  0  0  0  0  0  0  0  0
   10.4859    4.0901   20.9730 C   0  0  0  0  0  0  0  0  0  0  0  0
   11.0962    9.3293   23.5072 C   0  0  0  0  0  0  0  0  0  0  0  0
    5.1273    7.8529   23.6208 N   0  0  0  0  0  0  0  0  0  0  0  0
    9.7552    9.2338   23.0171 N   0  0  0  0  0  0  0  0  0  0  0  0
   11.1797    6.7591   21.3326 N   0  0  0  0  0  0  0  0  0  0  0  0
   11.7728    8.0337   23.7267 C   0  0  0  0  0  0  0  0  0  0  0  0
    7.1194    8.3344   24.6775 C   0  0  0  0  0  0  0  0  0  0  0  0
    8.4311    4.7963   22.0500 C   0  0  0  0  0  0  0  0  0  0  0  0
    8.7393   10.8706   24.1871 O   0  0  0  0  0  0  0  0  0  0  0  0
    9.3093    3.8166   21.6712 C   0  0  0  0  0  0  0  0  0  0  0  0
  1  5  1  0
  1 15  4  0
  1 22  4  0
  2 20  1  0
  2 24  1  0
  3  6  4  0
  3 27  4  0
  4 22  4  0
  4 26  4  0
  6  7  4  0
  6 13  1  0
  7 19  4  0
  8 18  1  0
  8 23  1  0
  8 28  2  0
  9 17  1  0
  9 24  1  0
 10 11  1  0
 10 24  1  0
 11 23  1  0
 12 14  4  0
 12 16  4  0
 14 19  4  0
 15 18  4  0
 16 20  4  0
 17 25  1  0
 18 26  4  0
 19 29  4  0
 20 29  4  0
 21 23  1  0
 21 25  1  0
 27 29  4  0
M  END
$$$$

 Created by Python create_sdf_string function

 29 32  0  0  0  0  0  0  0  0999 V2000
    5.4450    8.7154   22.6662 C   0  0  0  0  0  0  0  0  0  0  0  0
   10.9154    5.4574   20.5483 C   0  0  0  0  0  0  0  0  0  0  0  0
    7.2709    4.5089   22.7542 C   0  0  0  0  0  0  0  0  0  0  0  0
    5.9698    7.6329   24.6581 C   0  0  0  0  0  0  0  0  0  0  0  0
    4.5542    8.9057   21.7104 O   0  0  0  0  0  0  0  0  0  0  0  0
    6.9895    3.2085   23.0690 C   0  0  0  0  0  0  0  0  0  0  0  0
    7.8391    2.2253   22.7260 N   0  0  0  0  0  0  0  0  0  0  0  0
    8.6968    9.8373   23.6359 C   0  0  0  0  0  0  0  0  0  0  0  0
   12.5135    6.5957   21.8396 C   0  0  0  0  0  0  0  0  0  0  0  0
   10.9406    8.2330   21.1350 C   0  0  0  0  0  0  0  0  0  0  0  0
    9.6648    8.5956   21.7310 C   0  0  0  0  0  0  0  0  0  0  0  0
   10.8829    1.7153   20.9865 C   0  0  0  0  0  0  0  0  0  0  0  0
    5.7768    2.8533   23.7910 C   0  0  0  0  0  0  0  0  0  0  0  0
    9.7977    1.4791   21.6912 N   0  0  0  0  0  0  0  0  0  0  0  0
    6.5976    9.3401   22.6478 N   0  0  0  0  0  0  0  0  0  0  0  0
   11.2031    3.0042   20.6246 C   0  0  0  0  0  0  0  0  0  0  0  0
   12.8688    7.7370   22.7287 C   0  0  0  0  0  0  0  0  0  0  0  0
    7.4487    9.1361   23.6506 C   0  0  0  0  0  0  0  0  0  0  0  0
    8.9772    2.5025   22.0273 C   0  0  0  0  0  0  0  0  0  0  0  0
   10.4859    4.0901   20.9730 C   0  0  0  0  0  0  0  0  0  0  0  0
   11.0962    9.3293   23.5072 C   0  0  0  0  0  0  0  0  0  0  0  0
    5.1273    7.8529   23.6208 N   0  0  0  0  0  0  0  0  0  0  0  0
    9.7552    9.2338   23.0171 N   0  0  0  0  0  0  0  0  0  0  0  0
   11.1797    6.7591   21.3326 N   0  0  0  0  0  0  0  0  0  0  0  0
   11.7728    8.0337   23.7267 C   0  0  0  0  0  0  0  0  0  0  0  0
    7.1194    8.3344   24.6775 C   0  0  0  0  0  0  0  0  0  0  0  0
    8.4311    4.7963   22.0500 C   0  0  0  0  0  0  0  0  0  0  0  0
    8.7393   10.8706   24.1871 O   0  0  0  0  0  0  0  0  0  0  0  0
    9.3093    3.8166   21.6712 C   0  0  0  0  0  0  0  0  0  0  0  0
  1  5  1  0
  1 15  4  0
  1 22  4  0
  2 20  1  0
  2 24  1  0
  3  6  4  0
  3 27  4  0
  4 22  4  0
  4 26  4  0
  6  7  4  0
  6 13  1  0
  7 19  4  0
  8 18  1  0
  8 23  1  0
  8 28  2  0
  9 17  1  0
  9 24  1  0
 10 11  1  0
 10 24  1  0
 11 23  1  0
 12 14  4  0
 12 16  4  0
 14 19  4  0
 15 18  4  0
 16 20  4  0
 17 25  1  0
 18 26  4  0
 19 29  4  0
 20 29  4  0
 21 23  1  0
 21 25  1  0
 27 29  4  0
M  END
$$$$

 Created by Python create_sdf_string function

 29 32  0  0  0  0  0  0  0  0999 V2000
    5.4450    8.7154   22.6662 C   0  0  0  0  0  0  0  0  0  0  0  0
   10.9154    5.4574   20.5483 C   0  0  0  0  0  0  0  0  0  0  0  0
    7.2709    4.5089   22.7542 C   0  0  0  0  0  0  0  0  0  0  0  0
    5.9698    7.6329   24.6581 C   0  0  0  0  0  0  0  0  0  0  0  0
    4.5542    8.9057   21.7104 O   0  0  0  0  0  0  0  0  0  0  0  0
    6.9895    3.2085   23.0690 C   0  0  0  0  0  0  0  0  0  0  0  0
    7.8391    2.2253   22.7260 N   0  0  0  0  0  0  0  0  0  0  0  0
    8.6968    9.8373   23.6359 C   0  0  0  0  0  0  0  0  0  0  0  0
   12.5135    6.5957   21.8396 C   0  0  0  0  0  0  0  0  0  0  0  0
   10.9406    8.2330   21.1350 C   0  0  0  0  0  0  0  0  0  0  0  0
    9.6648    8.5956   21.7310 C   0  0  0  0  0  0  0  0  0  0  0  0
   10.8829    1.7153   20.9865 C   0  0  0  0  0  0  0  0  0  0  0  0
    5.7768    2.8533   23.7910 C   0  0  0  0  0  0  0  0  0  0  0  0
    9.7977    1.4791   21.6912 N   0  0  0  0  0  0  0  0  0  0  0  0
    6.5976    9.3401   22.6478 N   0  0  0  0  0  0  0  0  0  0  0  0
   11.2031    3.0042   20.6246 C   0  0  0  0  0  0  0  0  0  0  0  0
   12.8688    7.7370   22.7287 C   0  0  0  0  0  0  0  0  0  0  0  0
    7.4487    9.1361   23.6506 C   0  0  0  0  0  0  0  0  0  0  0  0
    8.9772    2.5025   22.0273 C   0  0  0  0  0  0  0  0  0  0  0  0
   10.4859    4.0901   20.9730 C   0  0  0  0  0  0  0  0  0  0  0  0
   11.0962    9.3293   23.5072 C   0  0  0  0  0  0  0  0  0  0  0  0
    5.1273    7.8529   23.6208 N   0  0  0  0  0  0  0  0  0  0  0  0
    9.7552    9.2338   23.0171 N   0  0  0  0  0  0  0  0  0  0  0  0
   11.1797    6.7591   21.3326 N   0  0  0  0  0  0  0  0  0  0  0  0
   11.7728    8.0337   23.7267 C   0  0  0  0  0  0  0  0  0  0  0  0
    7.1194    8.3344   24.6775 C   0  0  0  0  0  0  0  0  0  0  0  0
    8.4311    4.7963   22.0500 C   0  0  0  0  0  0  0  0  0  0  0  0
    8.7393   10.8706   24.1871 O   0  0  0  0  0  0  0  0  0  0  0  0
    9.3093    3.8166   21.6712 C   0  0  0  0  0  0  0  0  0  0  0  0
  1  5  1  0
  1 15  4  0
  1 22  4  0
  2 20  1  0
  2 24  1  0
  3  6  4  0
  3 27  4  0
  4 22  4  0
  4 26  4  0
  6  7  4  0
  6 13  1  0
  7 19  4  0
  8 18  1  0
  8 23  1  0
  8 28  2  0
  9 17  1  0
  9 24  1  0
 10 11  1  0
 10 24  1  0
 11 23  1  0
 12 14  4  0
 12 16  4  0
 14 19  4  0
 15 18  4  0
 16 20  4  0
 17 25  1  0
 18 26  4  0
 19 29  4  0
 20 29  4  0
 21 23  1  0
 21 25  1  0
 27 29  4  0
M  END
$$$$

 Created by Python create_sdf_string function

 29 32  0  0  0  0  0  0  0  0999 V2000
    5.4450    8.7154   22.6662 C   0  0  0  0  0  0  0  0  0  0  0  0
   10.9154    5.4574   20.5483 C   0  0  0  0  0  0  0  0  0  0  0  0
    7.2709    4.5089   22.7542 C   0  0  0  0  0  0  0  0  0  0  0  0
    5.9698    7.6329   24.6581 C   0  0  0  0  0  0  0  0  0  0  0  0
    4.5542    8.9057   21.7104 O   0  0  0  0  0  0  0  0  0  0  0  0
    6.9895    3.2085   23.0690 C   0  0  0  0  0  0  0  0  0  0  0  0
    7.8391    2.2253   22.7260 N   0  0  0  0  0  0  0  0  0  0  0  0
    8.6968    9.8373   23.6359 C   0  0  0  0  0  0  0  0  0  0  0  0
   12.5135    6.5957   21.8396 C   0  0  0  0  0  0  0  0  0  0  0  0
   10.9406    8.2330   21.1350 C   0  0  0  0  0  0  0  0  0  0  0  0
    9.6648    8.5956   21.7310 C   0  0  0  0  0  0  0  0  0  0  0  0
   10.8829    1.7153   20.9865 C   0  0  0  0  0  0  0  0  0  0  0  0
    5.7768    2.8533   23.7910 C   0  0  0  0  0  0  0  0  0  0  0  0
    9.7977    1.4791   21.6912 N   0  0  0  0  0  0  0  0  0  0  0  0
    6.5976    9.3401   22.6478 N   0  0  0  0  0  0  0  0  0  0  0  0
   11.2031    3.0042   20.6246 C   0  0  0  0  0  0  0  0  0  0  0  0
   12.8688    7.7370   22.7287 C   0  0  0  0  0  0  0  0  0  0  0  0
    7.4487    9.1361   23.6506 C   0  0  0  0  0  0  0  0  0  0  0  0
    8.9772    2.5025   22.0273 C   0  0  0  0  0  0  0  0  0  0  0  0
   10.4859    4.0901   20.9730 C   0  0  0  0  0  0  0  0  0  0  0  0
   11.0962    9.3293   23.5072 C   0  0  0  0  0  0  0  0  0  0  0  0
    5.1273    7.8529   23.6208 N   0  0  0  0  0  0  0  0  0  0  0  0
    9.7552    9.2338   23.0171 N   0  0  0  0  0  0  0  0  0  0  0  0
   11.1797    6.7591   21.3326 N   0  0  0  0  0  0  0  0  0  0  0  0
   11.7728    8.0337   23.7267 C   0  0  0  0  0  0  0  0  0  0  0  0
    7.1194    8.3344   24.6775 C   0  0  0  0  0  0  0  0  0  0  0  0
    8.4311    4.7963   22.0500 C   0  0  0  0  0  0  0  0  0  0  0  0
    8.7393   10.8706   24.1871 O   0  0  0  0  0  0  0  0  0  0  0  0
    9.3093    3.8166   21.6712 C   0  0  0  0  0  0  0  0  0  0  0  0
  1  5  1  0
  1 15  4  0
  1 22  4  0
  2 20  1  0
  2 24  1  0
  3  6  4  0
  3 27  4  0
  4 22  4  0
  4 26  4  0
  6  7  4  0
  6 13  1  0
  7 19  4  0
  8 18  1  0
  8 23  1  0
  8 28  2  0
  9 17  1  0
  9 24  1  0
 10 11  1  0
 10 24  1  0
 11 23  1  0
 12 14  4  0
 12 16  4  0
 14 19  4  0
 15 18  4  0
 16 20  4  0
 17 25  1  0
 18 26  4  0
 19 29  4  0
 20 29  4  0
 21 23  1  0
 21 25  1  0
 27 29  4  0
M  END
$$$$

 Created by Python create_sdf_string function

 29 32  0  0  0  0  0  0  0  0999 V2000
    5.4450    8.7154   22.6662 C   0  0  0  0  0  0  0  0  0  0  0  0
   10.9154    5.4574   20.5483 C   0  0  0  0  0  0  0  0  0  0  0  0
    7.2709    4.5089   22.7542 C   0  0  0  0  0  0  0  0  0  0  0  0
    5.9698    7.6329   24.6581 C   0  0  0  0  0  0  0  0  0  0  0  0
    4.5542    8.9057   21.7104 O   0  0  0  0  0  0  0  0  0  0  0  0
    6.9895    3.2085   23.0690 C   0  0  0  0  0  0  0  0  0  0  0  0
    7.8391    2.2253   22.7260 N   0  0  0  0  0  0  0  0  0  0  0  0
    8.6968    9.8373   23.6359 C   0  0  0  0  0  0  0  0  0  0  0  0
   12.5135    6.5957   21.8396 C   0  0  0  0  0  0  0  0  0  0  0  0
   10.9406    8.2330   21.1350 C   0  0  0  0  0  0  0  0  0  0  0  0
    9.6648    8.5956   21.7310 C   0  0  0  0  0  0  0  0  0  0  0  0
   10.8829    1.7153   20.9865 C   0  0  0  0  0  0  0  0  0  0  0  0
    5.7768    2.8533   23.7910 C   0  0  0  0  0  0  0  0  0  0  0  0
    9.7977    1.4791   21.6912 N   0  0  0  0  0  0  0  0  0  0  0  0
    6.5976    9.3401   22.6478 N   0  0  0  0  0  0  0  0  0  0  0  0
   11.2031    3.0042   20.6246 C   0  0  0  0  0  0  0  0  0  0  0  0
   12.8688    7.7370   22.7287 C   0  0  0  0  0  0  0  0  0  0  0  0
    7.4487    9.1361   23.6506 C   0  0  0  0  0  0  0  0  0  0  0  0
    8.9772    2.5025   22.0273 C   0  0  0  0  0  0  0  0  0  0  0  0
   10.4859    4.0901   20.9730 C   0  0  0  0  0  0  0  0  0  0  0  0
   11.0962    9.3293   23.5072 C   0  0  0  0  0  0  0  0  0  0  0  0
    5.1273    7.8529   23.6208 N   0  0  0  0  0  0  0  0  0  0  0  0
    9.7552    9.2338   23.0171 N   0  0  0  0  0  0  0  0  0  0  0  0
   11.1797    6.7591   21.3326 N   0  0  0  0  0  0  0  0  0  0  0  0
   11.7728    8.0337   23.7267 C   0  0  0  0  0  0  0  0  0  0  0  0
    7.1194    8.3344   24.6775 C   0  0  0  0  0  0  0  0  0  0  0  0
    8.4311    4.7963   22.0500 C   0  0  0  0  0  0  0  0  0  0  0  0
    8.7393   10.8706   24.1871 O   0  0  0  0  0  0  0  0  0  0  0  0
    9.3093    3.8166   21.6712 C   0  0  0  0  0  0  0  0  0  0  0  0
  1  5  1  0
  1 15  4  0
  1 22  4  0
  2 20  1  0
  2 24  1  0
  3  6  4  0
  3 27  4  0
  4 22  4  0
  4 26  4  0
  6  7  4  0
  6 13  1  0
  7 19  4  0
  8 18  1  0
  8 23  1  0
  8 28  2  0
  9 17  1  0
  9 24  1  0
 10 11  1  0
 10 24  1  0
 11 23  1  0
 12 14  4  0
 12 16  4  0
 14 19  4  0
 15 18  4  0
 16 20  4  0
 17 25  1  0
 18 26  4  0
 19 29  4  0
 20 29  4  0
 21 23  1  0
 21 25  1  0
 27 29  4  0
M  END
$$$$

 Created by Python create_sdf_string function

 29 32  0  0  0  0  0  0  0  0999 V2000
    5.4450    8.7154   22.6662 C   0  0  0  0  0  0  0  0  0  0  0  0
   10.9154    5.4574   20.5483 C   0  0  0  0  0  0  0  0  0  0  0  0
    7.2709    4.5089   22.7542 C   0  0  0  0  0  0  0  0  0  0  0  0
    5.9698    7.6329   24.6581 C   0  0  0  0  0  0  0  0  0  0  0  0
    4.5542    8.9057   21.7104 O   0  0  0  0  0  0  0  0  0  0  0  0
    6.9895    3.2085   23.0690 C   0  0  0  0  0  0  0  0  0  0  0  0
    7.8391    2.2253   22.7260 N   0  0  0  0  0  0  0  0  0  0  0  0
    8.6968    9.8373   23.6359 C   0  0  0  0  0  0  0  0  0  0  0  0
   12.5135    6.5957   21.8396 C   0  0  0  0  0  0  0  0  0  0  0  0
   10.9406    8.2330   21.1350 C   0  0  0  0  0  0  0  0  0  0  0  0
    9.6648    8.5956   21.7310 C   0  0  0  0  0  0  0  0  0  0  0  0
   10.8829    1.7153   20.9865 C   0  0  0  0  0  0  0  0  0  0  0  0
    5.7768    2.8533   23.7910 C   0  0  0  0  0  0  0  0  0  0  0  0
    9.7977    1.4791   21.6912 N   0  0  0  0  0  0  0  0  0  0  0  0
    6.5976    9.3401   22.6478 N   0  0  0  0  0  0  0  0  0  0  0  0
   11.2031    3.0042   20.6246 C   0  0  0  0  0  0  0  0  0  0  0  0
   12.8688    7.7370   22.7287 C   0  0  0  0  0  0  0  0  0  0  0  0
    7.4487    9.1361   23.6506 C   0  0  0  0  0  0  0  0  0  0  0  0
    8.9772    2.5025   22.0273 C   0  0  0  0  0  0  0  0  0  0  0  0
   10.4859    4.0901   20.9730 C   0  0  0  0  0  0  0  0  0  0  0  0
   11.0962    9.3293   23.5072 C   0  0  0  0  0  0  0  0  0  0  0  0
    5.1273    7.8529   23.6208 N   0  0  0  0  0  0  0  0  0  0  0  0
    9.7552    9.2338   23.0171 N   0  0  0  0  0  0  0  0  0  0  0  0
   11.1797    6.7591   21.3326 N   0  0  0  0  0  0  0  0  0  0  0  0
   11.7728    8.0337   23.7267 C   0  0  0  0  0  0  0  0  0  0  0  0
    7.1194    8.3344   24.6775 C   0  0  0  0  0  0  0  0  0  0  0  0
    8.4311    4.7963   22.0500 C   0  0  0  0  0  0  0  0  0  0  0  0
    8.7393   10.8706   24.1871 O   0  0  0  0  0  0  0  0  0  0  0  0
    9.3093    3.8166   21.6712 C   0  0  0  0  0  0  0  0  0  0  0  0
  1  5  1  0
  1 15  4  0
  1 22  4  0
  2 20  1  0
  2 24  1  0
  3  6  4  0
  3 27  4  0
  4 22  4  0
  4 26  4  0
  6  7  4  0
  6 13  1  0
  7 19  4  0
  8 18  1  0
  8 23  1  0
  8 28  2  0
  9 17  1  0
  9 24  1  0
 10 11  1  0
 10 24  1  0
 11 23  1  0
 12 14  4  0
 12 16  4  0
 14 19  4  0
 15 18  4  0
 16 20  4  0
 17 25  1  0
 18 26  4  0
 19 29  4  0
 20 29  4  0
 21 23  1  0
 21 25  1  0
 27 29  4  0
M  END
$$$$

 Created by Python create_sdf_string function

 29 32  0  0  0  0  0  0  0  0999 V2000
    5.4450    8.7154   22.6662 C   0  0  0  0  0  0  0  0  0  0  0  0
   10.9154    5.4574   20.5483 C   0  0  0  0  0  0  0  0  0  0  0  0
    7.2709    4.5089   22.7542 C   0  0  0  0  0  0  0  0  0  0  0  0
    5.9698    7.6329   24.6581 C   0  0  0  0  0  0  0  0  0  0  0  0
    4.5542    8.9057   21.7104 O   0  0  0  0  0  0  0  0  0  0  0  0
    6.9895    3.2085   23.0690 C   0  0  0  0  0  0  0  0  0  0  0  0
    7.8391    2.2253   22.7260 N   0  0  0  0  0  0  0  0  0  0  0  0
    8.6968    9.8373   23.6359 C   0  0  0  0  0  0  0  0  0  0  0  0
   12.5135    6.5957   21.8396 C   0  0  0  0  0  0  0  0  0  0  0  0
   10.9406    8.2330   21.1350 C   0  0  0  0  0  0  0  0  0  0  0  0
    9.6648    8.5956   21.7310 C   0  0  0  0  0  0  0  0  0  0  0  0
   10.8829    1.7153   20.9865 C   0  0  0  0  0  0  0  0  0  0  0  0
    5.7768    2.8533   23.7910 C   0  0  0  0  0  0  0  0  0  0  0  0
    9.7977    1.4791   21.6912 N   0  0  0  0  0  0  0  0  0  0  0  0
    6.5976    9.3401   22.6478 N   0  0  0  0  0  0  0  0  0  0  0  0
   11.2031    3.0042   20.6246 C   0  0  0  0  0  0  0  0  0  0  0  0
   12.8688    7.7370   22.7287 C   0  0  0  0  0  0  0  0  0  0  0  0
    7.4487    9.1361   23.6506 C   0  0  0  0  0  0  0  0  0  0  0  0
    8.9772    2.5025   22.0273 C   0  0  0  0  0  0  0  0  0  0  0  0
   10.4859    4.0901   20.9730 C   0  0  0  0  0  0  0  0  0  0  0  0
   11.0962    9.3293   23.5072 C   0  0  0  0  0  0  0  0  0  0  0  0
    5.1273    7.8529   23.6208 N   0  0  0  0  0  0  0  0  0  0  0  0
    9.7552    9.2338   23.0171 N   0  0  0  0  0  0  0  0  0  0  0  0
   11.1797    6.7591   21.3326 N   0  0  0  0  0  0  0  0  0  0  0  0
   11.7728    8.0337   23.7267 C   0  0  0  0  0  0  0  0  0  0  0  0
    7.1194    8.3344   24.6775 C   0  0  0  0  0  0  0  0  0  0  0  0
    8.4311    4.7963   22.0500 C   0  0  0  0  0  0  0  0  0  0  0  0
    8.7393   10.8706   24.1871 O   0  0  0  0  0  0  0  0  0  0  0  0
    9.3093    3.8166   21.6712 C   0  0  0  0  0  0  0  0  0  0  0  0
  1  5  1  0
  1 15  4  0
  1 22  4  0
  2 20  1  0
  2 24  1  0
  3  6  4  0
  3 27  4  0
  4 22  4  0
  4 26  4  0
  6  7  4  0
  6 13  1  0
  7 19  4  0
  8 18  1  0
  8 23  1  0
  8 28  2  0
  9 17  1  0
  9 24  1  0
 10 11  1  0
 10 24  1  0
 11 23  1  0
 12 14  4  0
 12 16  4  0
 14 19  4  0
 15 18  4  0
 16 20  4  0
 17 25  1  0
 18 26  4  0
 19 29  4  0
 20 29  4  0
 21 23  1  0
 21 25  1  0
 27 29  4  0
M  END
$$$$

 Created by Python create_sdf_string function

 29 32  0  0  0  0  0  0  0  0999 V2000
    5.4450    8.7154   22.6662 C   0  0  0  0  0  0  0  0  0  0  0  0
   10.9154    5.4574   20.5483 C   0  0  0  0  0  0  0  0  0  0  0  0
    7.2709    4.5089   22.7542 C   0  0  0  0  0  0  0  0  0  0  0  0
    5.9698    7.6329   24.6581 C   0  0  0  0  0  0  0  0  0  0  0  0
    4.5542    8.9057   21.7104 O   0  0  0  0  0  0  0  0  0  0  0  0
    6.9895    3.2085   23.0690 C   0  0  0  0  0  0  0  0  0  0  0  0
    7.8391    2.2253   22.7260 N   0  0  0  0  0  0  0  0  0  0  0  0
    8.6968    9.8373   23.6359 C   0  0  0  0  0  0  0  0  0  0  0  0
   12.5135    6.5957   21.8396 C   0  0  0  0  0  0  0  0  0  0  0  0
   10.9406    8.2330   21.1350 C   0  0  0  0  0  0  0  0  0  0  0  0
    9.6648    8.5956   21.7310 C   0  0  0  0  0  0  0  0  0  0  0  0
   10.8829    1.7153   20.9865 C   0  0  0  0  0  0  0  0  0  0  0  0
    5.7768    2.8533   23.7910 C   0  0  0  0  0  0  0  0  0  0  0  0
    9.7977    1.4791   21.6912 N   0  0  0  0  0  0  0  0  0  0  0  0
    6.5976    9.3401   22.6478 N   0  0  0  0  0  0  0  0  0  0  0  0
   11.2031    3.0042   20.6246 C   0  0  0  0  0  0  0  0  0  0  0  0
   12.8688    7.7370   22.7287 C   0  0  0  0  0  0  0  0  0  0  0  0
    7.4487    9.1361   23.6506 C   0  0  0  0  0  0  0  0  0  0  0  0
    8.9772    2.5025   22.0273 C   0  0  0  0  0  0  0  0  0  0  0  0
   10.4859    4.0901   20.9730 C   0  0  0  0  0  0  0  0  0  0  0  0
   11.0962    9.3293   23.5072 C   0  0  0  0  0  0  0  0  0  0  0  0
    5.1273    7.8529   23.6208 N   0  0  0  0  0  0  0  0  0  0  0  0
    9.7552    9.2338   23.0171 N   0  0  0  0  0  0  0  0  0  0  0  0
   11.1797    6.7591   21.3326 N   0  0  0  0  0  0  0  0  0  0  0  0
   11.7728    8.0337   23.7267 C   0  0  0  0  0  0  0  0  0  0  0  0
    7.1194    8.3344   24.6775 C   0  0  0  0  0  0  0  0  0  0  0  0
    8.4311    4.7963   22.0500 C   0  0  0  0  0  0  0  0  0  0  0  0
    8.7393   10.8706   24.1871 O   0  0  0  0  0  0  0  0  0  0  0  0
    9.3093    3.8166   21.6712 C   0  0  0  0  0  0  0  0  0  0  0  0
  1  5  1  0
  1 15  4  0
  1 22  4  0
  2 20  1  0
  2 24  1  0
  3  6  4  0
  3 27  4  0
  4 22  4  0
  4 26  4  0
  6  7  4  0
  6 13  1  0
  7 19  4  0
  8 18  1  0
  8 23  1  0
  8 28  2  0
  9 17  1  0
  9 24  1  0
 10 11  1  0
 10 24  1  0
 11 23  1  0
 12 14  4  0
 12 16  4  0
 14 19  4  0
 15 18  4  0
 16 20  4  0
 17 25  1  0
 18 26  4  0
 19 29  4  0
 20 29  4  0
 21 23  1  0
 21 25  1  0
 27 29  4  0
M  END
$$$$

 Created by Python create_sdf_string function

 29 32  0  0  0  0  0  0  0  0999 V2000
    5.4450    8.7154   22.6662 C   0  0  0  0  0  0  0  0  0  0  0  0
   10.9154    5.4574   20.5483 C   0  0  0  0  0  0  0  0  0  0  0  0
    7.2709    4.5089   22.7542 C   0  0  0  0  0  0  0  0  0  0  0  0
    5.9698    7.6329   24.6581 C   0  0  0  0  0  0  0  0  0  0  0  0
    4.5542    8.9057   21.7104 O   0  0  0  0  0  0  0  0  0  0  0  0
    6.9895    3.2085   23.0690 C   0  0  0  0  0  0  0  0  0  0  0  0
    7.8391    2.2253   22.7260 N   0  0  0  0  0  0  0  0  0  0  0  0
    8.6968    9.8373   23.6359 C   0  0  0  0  0  0  0  0  0  0  0  0
   12.5135    6.5957   21.8396 C   0  0  0  0  0  0  0  0  0  0  0  0
   10.9406    8.2330   21.1350 C   0  0  0  0  0  0  0  0  0  0  0  0
    9.6648    8.5956   21.7310 C   0  0  0  0  0  0  0  0  0  0  0  0
   10.8829    1.7153   20.9865 C   0  0  0  0  0  0  0  0  0  0  0  0
    5.7768    2.8533   23.7910 C   0  0  0  0  0  0  0  0  0  0  0  0
    9.7977    1.4791   21.6912 N   0  0  0  0  0  0  0  0  0  0  0  0
    6.5976    9.3401   22.6478 N   0  0  0  0  0  0  0  0  0  0  0  0
   11.2031    3.0042   20.6246 C   0  0  0  0  0  0  0  0  0  0  0  0
   12.8688    7.7370   22.7287 C   0  0  0  0  0  0  0  0  0  0  0  0
    7.4487    9.1361   23.6506 C   0  0  0  0  0  0  0  0  0  0  0  0
    8.9772    2.5025   22.0273 C   0  0  0  0  0  0  0  0  0  0  0  0
   10.4859    4.0901   20.9730 C   0  0  0  0  0  0  0  0  0  0  0  0
   11.0962    9.3293   23.5072 C   0  0  0  0  0  0  0  0  0  0  0  0
    5.1273    7.8529   23.6208 N   0  0  0  0  0  0  0  0  0  0  0  0
    9.7552    9.2338   23.0171 N   0  0  0  0  0  0  0  0  0  0  0  0
   11.1797    6.7591   21.3326 N   0  0  0  0  0  0  0  0  0  0  0  0
   11.7728    8.0337   23.7267 C   0  0  0  0  0  0  0  0  0  0  0  0
    7.1194    8.3344   24.6775 C   0  0  0  0  0  0  0  0  0  0  0  0
    8.4311    4.7963   22.0500 C   0  0  0  0  0  0  0  0  0  0  0  0
    8.7393   10.8706   24.1871 O   0  0  0  0  0  0  0  0  0  0  0  0
    9.3093    3.8166   21.6712 C   0  0  0  0  0  0  0  0  0  0  0  0
  1  5  1  0
  1 15  4  0
  1 22  4  0
  2 20  1  0
  2 24  1  0
  3  6  4  0
  3 27  4  0
  4 22  4  0
  4 26  4  0
  6  7  4  0
  6 13  1  0
  7 19  4  0
  8 18  1  0
  8 23  1  0
  8 28  2  0
  9 17  1  0
  9 24  1  0
 10 11  1  0
 10 24  1  0
 11 23  1  0
 12 14  4  0
 12 16  4  0
 14 19  4  0
 15 18  4  0
 16 20  4  0
 17 25  1  0
 18 26  4  0
 19 29  4  0
 20 29  4  0
 21 23  1  0
 21 25  1  0
 27 29  4  0
M  END
$$$$

 Created by Python create_sdf_string function

 29 32  0  0  0  0  0  0  0  0999 V2000
    5.4450    8.7154   22.6662 C   0  0  0  0  0  0  0  0  0  0  0  0
   10.9154    5.4574   20.5483 C   0  0  0  0  0  0  0  0  0  0  0  0
    7.2709    4.5089   22.7542 C   0  0  0  0  0  0  0  0  0  0  0  0
    5.9698    7.6329   24.6581 C   0  0  0  0  0  0  0  0  0  0  0  0
    4.5542    8.9057   21.7104 O   0  0  0  0  0  0  0  0  0  0  0  0
    6.9895    3.2085   23.0690 C   0  0  0  0  0  0  0  0  0  0  0  0
    7.8391    2.2253   22.7260 N   0  0  0  0  0  0  0  0  0  0  0  0
    8.6968    9.8373   23.6359 C   0  0  0  0  0  0  0  0  0  0  0  0
   12.5135    6.5957   21.8396 C   0  0  0  0  0  0  0  0  0  0  0  0
   10.9406    8.2330   21.1350 C   0  0  0  0  0  0  0  0  0  0  0  0
    9.6648    8.5956   21.7310 C   0  0  0  0  0  0  0  0  0  0  0  0
   10.8829    1.7153   20.9865 C   0  0  0  0  0  0  0  0  0  0  0  0
    5.7768    2.8533   23.7910 C   0  0  0  0  0  0  0  0  0  0  0  0
    9.7977    1.4791   21.6912 N   0  0  0  0  0  0  0  0  0  0  0  0
    6.5976    9.3401   22.6478 N   0  0  0  0  0  0  0  0  0  0  0  0
   11.2031    3.0042   20.6246 C   0  0  0  0  0  0  0  0  0  0  0  0
   12.8688    7.7370   22.7287 C   0  0  0  0  0  0  0  0  0  0  0  0
    7.4487    9.1361   23.6506 C   0  0  0  0  0  0  0  0  0  0  0  0
    8.9772    2.5025   22.0273 C   0  0  0  0  0  0  0  0  0  0  0  0
   10.4859    4.0901   20.9730 C   0  0  0  0  0  0  0  0  0  0  0  0
   11.0962    9.3293   23.5072 C   0  0  0  0  0  0  0  0  0  0  0  0
    5.1273    7.8529   23.6208 N   0  0  0  0  0  0  0  0  0  0  0  0
    9.7552    9.2338   23.0171 N   0  0  0  0  0  0  0  0  0  0  0  0
   11.1797    6.7591   21.3326 N   0  0  0  0  0  0  0  0  0  0  0  0
   11.7728    8.0337   23.7267 C   0  0  0  0  0  0  0  0  0  0  0  0
    7.1194    8.3344   24.6775 C   0  0  0  0  0  0  0  0  0  0  0  0
    8.4311    4.7963   22.0500 C   0  0  0  0  0  0  0  0  0  0  0  0
    8.7393   10.8706   24.1871 O   0  0  0  0  0  0  0  0  0  0  0  0
    9.3093    3.8166   21.6712 C   0  0  0  0  0  0  0  0  0  0  0  0
  1  5  1  0
  1 15  4  0
  1 22  4  0
  2 20  1  0
  2 24  1  0
  3  6  4  0
  3 27  4  0
  4 22  4  0
  4 26  4  0
  6  7  4  0
  6 13  1  0
  7 19  4  0
  8 18  1  0
  8 23  1  0
  8 28  2  0
  9 17  1  0
  9 24  1  0
 10 11  1  0
 10 24  1  0
 11 23  1  0
 12 14  4  0
 12 16  4  0
 14 19  4  0
 15 18  4  0
 16 20  4  0
 17 25  1  0
 18 26  4  0
 19 29  4  0
 20 29  4  0
 21 23  1  0
 21 25  1  0
 27 29  4  0
M  END
$$$$

 Created by Python create_sdf_string function

 29 32  0  0  0  0  0  0  0  0999 V2000
    5.4450    8.7154   22.6662 C   0  0  0  0  0  0  0  0  0  0  0  0
   10.9154    5.4574   20.5483 C   0  0  0  0  0  0  0  0  0  0  0  0
    7.2709    4.5089   22.7542 C   0  0  0  0  0  0  0  0  0  0  0  0
    5.9698    7.6329   24.6581 C   0  0  0  0  0  0  0  0  0  0  0  0
    4.5542    8.9057   21.7104 O   0  0  0  0  0  0  0  0  0  0  0  0
    6.9895    3.2085   23.0690 C   0  0  0  0  0  0  0  0  0  0  0  0
    7.8391    2.2253   22.7260 N   0  0  0  0  0  0  0  0  0  0  0  0
    8.6968    9.8373   23.6359 C   0  0  0  0  0  0  0  0  0  0  0  0
   12.5135    6.5957   21.8396 C   0  0  0  0  0  0  0  0  0  0  0  0
   10.9406    8.2330   21.1350 C   0  0  0  0  0  0  0  0  0  0  0  0
    9.6648    8.5956   21.7310 C   0  0  0  0  0  0  0  0  0  0  0  0
   10.8829    1.7153   20.9865 C   0  0  0  0  0  0  0  0  0  0  0  0
    5.7768    2.8533   23.7910 C   0  0  0  0  0  0  0  0  0  0  0  0
    9.7977    1.4791   21.6912 N   0  0  0  0  0  0  0  0  0  0  0  0
    6.5976    9.3401   22.6478 N   0  0  0  0  0  0  0  0  0  0  0  0
   11.2031    3.0042   20.6246 C   0  0  0  0  0  0  0  0  0  0  0  0
   12.8688    7.7370   22.7287 C   0  0  0  0  0  0  0  0  0  0  0  0
    7.4487    9.1361   23.6506 C   0  0  0  0  0  0  0  0  0  0  0  0
    8.9772    2.5025   22.0273 C   0  0  0  0  0  0  0  0  0  0  0  0
   10.4859    4.0901   20.9730 C   0  0  0  0  0  0  0  0  0  0  0  0
   11.0962    9.3293   23.5072 C   0  0  0  0  0  0  0  0  0  0  0  0
    5.1273    7.8529   23.6208 N   0  0  0  0  0  0  0  0  0  0  0  0
    9.7552    9.2338   23.0171 N   0  0  0  0  0  0  0  0  0  0  0  0
   11.1797    6.7591   21.3326 N   0  0  0  0  0  0  0  0  0  0  0  0
   11.7728    8.0337   23.7267 C   0  0  0  0  0  0  0  0  0  0  0  0
    7.1194    8.3344   24.6775 C   0  0  0  0  0  0  0  0  0  0  0  0
    8.4311    4.7963   22.0500 C   0  0  0  0  0  0  0  0  0  0  0  0
    8.7393   10.8706   24.1871 O   0  0  0  0  0  0  0  0  0  0  0  0
    9.3093    3.8166   21.6712 C   0  0  0  0  0  0  0  0  0  0  0  0
  1  5  1  0
  1 15  4  0
  1 22  4  0
  2 20  1  0
  2 24  1  0
  3  6  4  0
  3 27  4  0
  4 22  4  0
  4 26  4  0
  6  7  4  0
  6 13  1  0
  7 19  4  0
  8 18  1  0
  8 23  1  0
  8 28  2  0
  9 17  1  0
  9 24  1  0
 10 11  1  0
 10 24  1  0
 11 23  1  0
 12 14  4  0
 12 16  4  0
 14 19  4  0
 15 18  4  0
 16 20  4  0
 17 25  1  0
 18 26  4  0
 19 29  4  0
 20 29  4  0
 21 23  1  0
 21 25  1  0
 27 29  4  0
M  END
$$$$

 Created by Python create_sdf_string function

 29 32  0  0  0  0  0  0  0  0999 V2000
    5.4450    8.7154   22.6662 C   0  0  0  0  0  0  0  0  0  0  0  0
   10.9154    5.4574   20.5483 C   0  0  0  0  0  0  0  0  0  0  0  0
    7.2709    4.5089   22.7542 C   0  0  0  0  0  0  0  0  0  0  0  0
    5.9698    7.6329   24.6581 C   0  0  0  0  0  0  0  0  0  0  0  0
    4.5542    8.9057   21.7104 O   0  0  0  0  0  0  0  0  0  0  0  0
    6.9895    3.2085   23.0690 C   0  0  0  0  0  0  0  0  0  0  0  0
    7.8391    2.2253   22.7260 N   0  0  0  0  0  0  0  0  0  0  0  0
    8.6968    9.8373   23.6359 C   0  0  0  0  0  0  0  0  0  0  0  0
   12.5135    6.5957   21.8396 C   0  0  0  0  0  0  0  0  0  0  0  0
   10.9406    8.2330   21.1350 C   0  0  0  0  0  0  0  0  0  0  0  0
    9.6648    8.5956   21.7310 C   0  0  0  0  0  0  0  0  0  0  0  0
   10.8829    1.7153   20.9865 C   0  0  0  0  0  0  0  0  0  0  0  0
    5.7768    2.8533   23.7910 C   0  0  0  0  0  0  0  0  0  0  0  0
    9.7977    1.4791   21.6912 N   0  0  0  0  0  0  0  0  0  0  0  0
    6.5976    9.3401   22.6478 N   0  0  0  0  0  0  0  0  0  0  0  0
   11.2031    3.0042   20.6246 C   0  0  0  0  0  0  0  0  0  0  0  0
   12.8688    7.7370   22.7287 C   0  0  0  0  0  0  0  0  0  0  0  0
    7.4487    9.1361   23.6506 C   0  0  0  0  0  0  0  0  0  0  0  0
    8.9772    2.5025   22.0273 C   0  0  0  0  0  0  0  0  0  0  0  0
   10.4859    4.0901   20.9730 C   0  0  0  0  0  0  0  0  0  0  0  0
   11.0962    9.3293   23.5072 C   0  0  0  0  0  0  0  0  0  0  0  0
    5.1273    7.8529   23.6208 N   0  0  0  0  0  0  0  0  0  0  0  0
    9.7552    9.2338   23.0171 N   0  0  0  0  0  0  0  0  0  0  0  0
   11.1797    6.7591   21.3326 N   0  0  0  0  0  0  0  0  0  0  0  0
   11.7728    8.0337   23.7267 C   0  0  0  0  0  0  0  0  0  0  0  0
    7.1194    8.3344   24.6775 C   0  0  0  0  0  0  0  0  0  0  0  0
    8.4311    4.7963   22.0500 C   0  0  0  0  0  0  0  0  0  0  0  0
    8.7393   10.8706   24.1871 O   0  0  0  0  0  0  0  0  0  0  0  0
    9.3093    3.8166   21.6712 C   0  0  0  0  0  0  0  0  0  0  0  0
  1  5  1  0
  1 15  4  0
  1 22  4  0
  2 20  1  0
  2 24  1  0
  3  6  4  0
  3 27  4  0
  4 22  4  0
  4 26  4  0
  6  7  4  0
  6 13  1  0
  7 19  4  0
  8 18  1  0
  8 23  1  0
  8 28  2  0
  9 17  1  0
  9 24  1  0
 10 11  1  0
 10 24  1  0
 11 23  1  0
 12 14  4  0
 12 16  4  0
 14 19  4  0
 15 18  4  0
 16 20  4  0
 17 25  1  0
 18 26  4  0
 19 29  4  0
 20 29  4  0
 21 23  1  0
 21 25  1  0
 27 29  4  0
M  END
$$$$

 Created by Python create_sdf_string function

 29 32  0  0  0  0  0  0  0  0999 V2000
    5.4450    8.7154   22.6662 C   0  0  0  0  0  0  0  0  0  0  0  0
   10.9154    5.4574   20.5483 C   0  0  0  0  0  0  0  0  0  0  0  0
    7.2709    4.5089   22.7542 C   0  0  0  0  0  0  0  0  0  0  0  0
    5.9698    7.6329   24.6581 C   0  0  0  0  0  0  0  0  0  0  0  0
    4.5542    8.9057   21.7104 O   0  0  0  0  0  0  0  0  0  0  0  0
    6.9895    3.2085   23.0690 C   0  0  0  0  0  0  0  0  0  0  0  0
    7.8391    2.2253   22.7260 N   0  0  0  0  0  0  0  0  0  0  0  0
    8.6968    9.8373   23.6359 C   0  0  0  0  0  0  0  0  0  0  0  0
   12.5135    6.5957   21.8396 C   0  0  0  0  0  0  0  0  0  0  0  0
   10.9406    8.2330   21.1350 C   0  0  0  0  0  0  0  0  0  0  0  0
    9.6648    8.5956   21.7310 C   0  0  0  0  0  0  0  0  0  0  0  0
   10.8829    1.7153   20.9865 C   0  0  0  0  0  0  0  0  0  0  0  0
    5.7768    2.8533   23.7910 C   0  0  0  0  0  0  0  0  0  0  0  0
    9.7977    1.4791   21.6912 N   0  0  0  0  0  0  0  0  0  0  0  0
    6.5976    9.3401   22.6478 N   0  0  0  0  0  0  0  0  0  0  0  0
   11.2031    3.0042   20.6246 C   0  0  0  0  0  0  0  0  0  0  0  0
   12.8688    7.7370   22.7287 C   0  0  0  0  0  0  0  0  0  0  0  0
    7.4487    9.1361   23.6506 C   0  0  0  0  0  0  0  0  0  0  0  0
    8.9772    2.5025   22.0273 C   0  0  0  0  0  0  0  0  0  0  0  0
   10.4859    4.0901   20.9730 C   0  0  0  0  0  0  0  0  0  0  0  0
   11.0962    9.3293   23.5072 C   0  0  0  0  0  0  0  0  0  0  0  0
    5.1273    7.8529   23.6208 N   0  0  0  0  0  0  0  0  0  0  0  0
    9.7552    9.2338   23.0171 N   0  0  0  0  0  0  0  0  0  0  0  0
   11.1797    6.7591   21.3326 N   0  0  0  0  0  0  0  0  0  0  0  0
   11.7728    8.0337   23.7267 C   0  0  0  0  0  0  0  0  0  0  0  0
    7.1194    8.3344   24.6775 C   0  0  0  0  0  0  0  0  0  0  0  0
    8.4311    4.7963   22.0500 C   0  0  0  0  0  0  0  0  0  0  0  0
    8.7393   10.8706   24.1871 O   0  0  0  0  0  0  0  0  0  0  0  0
    9.3093    3.8166   21.6712 C   0  0  0  0  0  0  0  0  0  0  0  0
  1  5  1  0
  1 15  4  0
  1 22  4  0
  2 20  1  0
  2 24  1  0
  3  6  4  0
  3 27  4  0
  4 22  4  0
  4 26  4  0
  6  7  4  0
  6 13  1  0
  7 19  4  0
  8 18  1  0
  8 23  1  0
  8 28  2  0
  9 17  1  0
  9 24  1  0
 10 11  1  0
 10 24  1  0
 11 23  1  0
 12 14  4  0
 12 16  4  0
 14 19  4  0
 15 18  4  0
 16 20  4  0
 17 25  1  0
 18 26  4  0
 19 29  4  0
 20 29  4  0
 21 23  1  0
 21 25  1  0
 27 29  4  0
M  END
$$$$

 Created by Python create_sdf_string function

 29 32  0  0  0  0  0  0  0  0999 V2000
    5.4450    8.7154   22.6662 C   0  0  0  0  0  0  0  0  0  0  0  0
   10.9154    5.4574   20.5483 C   0  0  0  0  0  0  0  0  0  0  0  0
    7.2709    4.5089   22.7542 C   0  0  0  0  0  0  0  0  0  0  0  0
    5.9698    7.6329   24.6581 C   0  0  0  0  0  0  0  0  0  0  0  0
    4.5542    8.9057   21.7104 O   0  0  0  0  0  0  0  0  0  0  0  0
    6.9895    3.2085   23.0690 C   0  0  0  0  0  0  0  0  0  0  0  0
    7.8391    2.2253   22.7260 N   0  0  0  0  0  0  0  0  0  0  0  0
    8.6968    9.8373   23.6359 C   0  0  0  0  0  0  0  0  0  0  0  0
   12.5135    6.5957   21.8396 C   0  0  0  0  0  0  0  0  0  0  0  0
   10.9406    8.2330   21.1350 C   0  0  0  0  0  0  0  0  0  0  0  0
    9.6648    8.5956   21.7310 C   0  0  0  0  0  0  0  0  0  0  0  0
   10.8829    1.7153   20.9865 C   0  0  0  0  0  0  0  0  0  0  0  0
    5.7768    2.8533   23.7910 C   0  0  0  0  0  0  0  0  0  0  0  0
    9.7977    1.4791   21.6912 N   0  0  0  0  0  0  0  0  0  0  0  0
    6.5976    9.3401   22.6478 N   0  0  0  0  0  0  0  0  0  0  0  0
   11.2031    3.0042   20.6246 C   0  0  0  0  0  0  0  0  0  0  0  0
   12.8688    7.7370   22.7287 C   0  0  0  0  0  0  0  0  0  0  0  0
    7.4487    9.1361   23.6506 C   0  0  0  0  0  0  0  0  0  0  0  0
    8.9772    2.5025   22.0273 C   0  0  0  0  0  0  0  0  0  0  0  0
   10.4859    4.0901   20.9730 C   0  0  0  0  0  0  0  0  0  0  0  0
   11.0962    9.3293   23.5072 C   0  0  0  0  0  0  0  0  0  0  0  0
    5.1273    7.8529   23.6208 N   0  0  0  0  0  0  0  0  0  0  0  0
    9.7552    9.2338   23.0171 N   0  0  0  0  0  0  0  0  0  0  0  0
   11.1797    6.7591   21.3326 N   0  0  0  0  0  0  0  0  0  0  0  0
   11.7728    8.0337   23.7267 C   0  0  0  0  0  0  0  0  0  0  0  0
    7.1194    8.3344   24.6775 C   0  0  0  0  0  0  0  0  0  0  0  0
    8.4311    4.7963   22.0500 C   0  0  0  0  0  0  0  0  0  0  0  0
    8.7393   10.8706   24.1871 O   0  0  0  0  0  0  0  0  0  0  0  0
    9.3093    3.8166   21.6712 C   0  0  0  0  0  0  0  0  0  0  0  0
  1  5  1  0
  1 15  4  0
  1 22  4  0
  2 20  1  0
  2 24  1  0
  3  6  4  0
  3 27  4  0
  4 22  4  0
  4 26  4  0
  6  7  4  0
  6 13  1  0
  7 19  4  0
  8 18  1  0
  8 23  1  0
  8 28  2  0
  9 17  1  0
  9 24  1  0
 10 11  1  0
 10 24  1  0
 11 23  1  0
 12 14  4  0
 12 16  4  0
 14 19  4  0
 15 18  4  0
 16 20  4  0
 17 25  1  0
 18 26  4  0
 19 29  4  0
 20 29  4  0
 21 23  1  0
 21 25  1  0
 27 29  4  0
M  END
$$$$

 Created by Python create_sdf_string function

 29 32  0  0  0  0  0  0  0  0999 V2000
    5.4450    8.7154   22.6662 C   0  0  0  0  0  0  0  0  0  0  0  0
   10.9154    5.4574   20.5483 C   0  0  0  0  0  0  0  0  0  0  0  0
    7.2709    4.5089   22.7542 C   0  0  0  0  0  0  0  0  0  0  0  0
    5.9698    7.6329   24.6581 C   0  0  0  0  0  0  0  0  0  0  0  0
    4.5542    8.9057   21.7104 O   0  0  0  0  0  0  0  0  0  0  0  0
    6.9895    3.2085   23.0690 C   0  0  0  0  0  0  0  0  0  0  0  0
    7.8391    2.2253   22.7260 N   0  0  0  0  0  0  0  0  0  0  0  0
    8.6968    9.8373   23.6359 C   0  0  0  0  0  0  0  0  0  0  0  0
   12.5135    6.5957   21.8396 C   0  0  0  0  0  0  0  0  0  0  0  0
   10.9406    8.2330   21.1350 C   0  0  0  0  0  0  0  0  0  0  0  0
    9.6648    8.5956   21.7310 C   0  0  0  0  0  0  0  0  0  0  0  0
   10.8829    1.7153   20.9865 C   0  0  0  0  0  0  0  0  0  0  0  0
    5.7768    2.8533   23.7910 C   0  0  0  0  0  0  0  0  0  0  0  0
    9.7977    1.4791   21.6912 N   0  0  0  0  0  0  0  0  0  0  0  0
    6.5976    9.3401   22.6478 N   0  0  0  0  0  0  0  0  0  0  0  0
   11.2031    3.0042   20.6246 C   0  0  0  0  0  0  0  0  0  0  0  0
   12.8688    7.7370   22.7287 C   0  0  0  0  0  0  0  0  0  0  0  0
    7.4487    9.1361   23.6506 C   0  0  0  0  0  0  0  0  0  0  0  0
    8.9772    2.5025   22.0273 C   0  0  0  0  0  0  0  0  0  0  0  0
   10.4859    4.0901   20.9730 C   0  0  0  0  0  0  0  0  0  0  0  0
   11.0962    9.3293   23.5072 C   0  0  0  0  0  0  0  0  0  0  0  0
    5.1273    7.8529   23.6208 N   0  0  0  0  0  0  0  0  0  0  0  0
    9.7552    9.2338   23.0171 N   0  0  0  0  0  0  0  0  0  0  0  0
   11.1797    6.7591   21.3326 N   0  0  0  0  0  0  0  0  0  0  0  0
   11.7728    8.0337   23.7267 C   0  0  0  0  0  0  0  0  0  0  0  0
    7.1194    8.3344   24.6775 C   0  0  0  0  0  0  0  0  0  0  0  0
    8.4311    4.7963   22.0500 C   0  0  0  0  0  0  0  0  0  0  0  0
    8.7393   10.8706   24.1871 O   0  0  0  0  0  0  0  0  0  0  0  0
    9.3093    3.8166   21.6712 C   0  0  0  0  0  0  0  0  0  0  0  0
  1  5  1  0
  1 15  4  0
  1 22  4  0
  2 20  1  0
  2 24  1  0
  3  6  4  0
  3 27  4  0
  4 22  4  0
  4 26  4  0
  6  7  4  0
  6 13  1  0
  7 19  4  0
  8 18  1  0
  8 23  1  0
  8 28  2  0
  9 17  1  0
  9 24  1  0
 10 11  1  0
 10 24  1  0
 11 23  1  0
 12 14  4  0
 12 16  4  0
 14 19  4  0
 15 18  4  0
 16 20  4  0
 17 25  1  0
 18 26  4  0
 19 29  4  0
 20 29  4  0
 21 23  1  0
 21 25  1  0
 27 29  4  0
M  END
$$$$

 Created by Python create_sdf_string function

 29 32  0  0  0  0  0  0  0  0999 V2000
    5.4450    8.7154   22.6662 C   0  0  0  0  0  0  0  0  0  0  0  0
   10.9154    5.4574   20.5483 C   0  0  0  0  0  0  0  0  0  0  0  0
    7.2709    4.5089   22.7542 C   0  0  0  0  0  0  0  0  0  0  0  0
    5.9698    7.6329   24.6581 C   0  0  0  0  0  0  0  0  0  0  0  0
    4.5542    8.9057   21.7104 O   0  0  0  0  0  0  0  0  0  0  0  0
    6.9895    3.2085   23.0690 C   0  0  0  0  0  0  0  0  0  0  0  0
    7.8391    2.2253   22.7260 N   0  0  0  0  0  0  0  0  0  0  0  0
    8.6968    9.8373   23.6359 C   0  0  0  0  0  0  0  0  0  0  0  0
   12.5135    6.5957   21.8396 C   0  0  0  0  0  0  0  0  0  0  0  0
   10.9406    8.2330   21.1350 C   0  0  0  0  0  0  0  0  0  0  0  0
    9.6648    8.5956   21.7310 C   0  0  0  0  0  0  0  0  0  0  0  0
   10.8829    1.7153   20.9865 C   0  0  0  0  0  0  0  0  0  0  0  0
    5.7768    2.8533   23.7910 C   0  0  0  0  0  0  0  0  0  0  0  0
    9.7977    1.4791   21.6912 N   0  0  0  0  0  0  0  0  0  0  0  0
    6.5976    9.3401   22.6478 N   0  0  0  0  0  0  0  0  0  0  0  0
   11.2031    3.0042   20.6246 C   0  0  0  0  0  0  0  0  0  0  0  0
   12.8688    7.7370   22.7287 C   0  0  0  0  0  0  0  0  0  0  0  0
    7.4487    9.1361   23.6506 C   0  0  0  0  0  0  0  0  0  0  0  0
    8.9772    2.5025   22.0273 C   0  0  0  0  0  0  0  0  0  0  0  0
   10.4859    4.0901   20.9730 C   0  0  0  0  0  0  0  0  0  0  0  0
   11.0962    9.3293   23.5072 C   0  0  0  0  0  0  0  0  0  0  0  0
    5.1273    7.8529   23.6208 N   0  0  0  0  0  0  0  0  0  0  0  0
    9.7552    9.2338   23.0171 N   0  0  0  0  0  0  0  0  0  0  0  0
   11.1797    6.7591   21.3326 N   0  0  0  0  0  0  0  0  0  0  0  0
   11.7728    8.0337   23.7267 C   0  0  0  0  0  0  0  0  0  0  0  0
    7.1194    8.3344   24.6775 C   0  0  0  0  0  0  0  0  0  0  0  0
    8.4311    4.7963   22.0500 C   0  0  0  0  0  0  0  0  0  0  0  0
    8.7393   10.8706   24.1871 O   0  0  0  0  0  0  0  0  0  0  0  0
    9.3093    3.8166   21.6712 C   0  0  0  0  0  0  0  0  0  0  0  0
  1  5  1  0
  1 15  4  0
  1 22  4  0
  2 20  1  0
  2 24  1  0
  3  6  4  0
  3 27  4  0
  4 22  4  0
  4 26  4  0
  6  7  4  0
  6 13  1  0
  7 19  4  0
  8 18  1  0
  8 23  1  0
  8 28  2  0
  9 17  1  0
  9 24  1  0
 10 11  1  0
 10 24  1  0
 11 23  1  0
 12 14  4  0
 12 16  4  0
 14 19  4  0
 15 18  4  0
 16 20  4  0
 17 25  1  0
 18 26  4  0
 19 29  4  0
 20 29  4  0
 21 23  1  0
 21 25  1  0
 27 29  4  0
M  END
$$$$

 Created by Python create_sdf_string function

 29 32  0  0  0  0  0  0  0  0999 V2000
    5.4450    8.7154   22.6662 C   0  0  0  0  0  0  0  0  0  0  0  0
   10.9154    5.4574   20.5483 C   0  0  0  0  0  0  0  0  0  0  0  0
    7.2709    4.5089   22.7542 C   0  0  0  0  0  0  0  0  0  0  0  0
    5.9698    7.6329   24.6581 C   0  0  0  0  0  0  0  0  0  0  0  0
    4.5542    8.9057   21.7104 O   0  0  0  0  0  0  0  0  0  0  0  0
    6.9895    3.2085   23.0690 C   0  0  0  0  0  0  0  0  0  0  0  0
    7.8391    2.2253   22.7260 N   0  0  0  0  0  0  0  0  0  0  0  0
    8.6968    9.8373   23.6359 C   0  0  0  0  0  0  0  0  0  0  0  0
   12.5135    6.5957   21.8396 C   0  0  0  0  0  0  0  0  0  0  0  0
   10.9406    8.2330   21.1350 C   0  0  0  0  0  0  0  0  0  0  0  0
    9.6648    8.5956   21.7310 C   0  0  0  0  0  0  0  0  0  0  0  0
   10.8829    1.7153   20.9865 C   0  0  0  0  0  0  0  0  0  0  0  0
    5.7768    2.8533   23.7910 C   0  0  0  0  0  0  0  0  0  0  0  0
    9.7977    1.4791   21.6912 N   0  0  0  0  0  0  0  0  0  0  0  0
    6.5976    9.3401   22.6478 N   0  0  0  0  0  0  0  0  0  0  0  0
   11.2031    3.0042   20.6246 C   0  0  0  0  0  0  0  0  0  0  0  0
   12.8688    7.7370   22.7287 C   0  0  0  0  0  0  0  0  0  0  0  0
    7.4487    9.1361   23.6506 C   0  0  0  0  0  0  0  0  0  0  0  0
    8.9772    2.5025   22.0273 C   0  0  0  0  0  0  0  0  0  0  0  0
   10.4859    4.0901   20.9730 C   0  0  0  0  0  0  0  0  0  0  0  0
   11.0962    9.3293   23.5072 C   0  0  0  0  0  0  0  0  0  0  0  0
    5.1273    7.8529   23.6208 N   0  0  0  0  0  0  0  0  0  0  0  0
    9.7552    9.2338   23.0171 N   0  0  0  0  0  0  0  0  0  0  0  0
   11.1797    6.7591   21.3326 N   0  0  0  0  0  0  0  0  0  0  0  0
   11.7728    8.0337   23.7267 C   0  0  0  0  0  0  0  0  0  0  0  0
    7.1194    8.3344   24.6775 C   0  0  0  0  0  0  0  0  0  0  0  0
    8.4311    4.7963   22.0500 C   0  0  0  0  0  0  0  0  0  0  0  0
    8.7393   10.8706   24.1871 O   0  0  0  0  0  0  0  0  0  0  0  0
    9.3093    3.8166   21.6712 C   0  0  0  0  0  0  0  0  0  0  0  0
  1  5  1  0
  1 15  4  0
  1 22  4  0
  2 20  1  0
  2 24  1  0
  3  6  4  0
  3 27  4  0
  4 22  4  0
  4 26  4  0
  6  7  4  0
  6 13  1  0
  7 19  4  0
  8 18  1  0
  8 23  1  0
  8 28  2  0
  9 17  1  0
  9 24  1  0
 10 11  1  0
 10 24  1  0
 11 23  1  0
 12 14  4  0
 12 16  4  0
 14 19  4  0
 15 18  4  0
 16 20  4  0
 17 25  1  0
 18 26  4  0
 19 29  4  0
 20 29  4  0
 21 23  1  0
 21 25  1  0
 27 29  4  0
M  END
$$$$

 Created by Python create_sdf_string function

 29 32  0  0  0  0  0  0  0  0999 V2000
    5.4450    8.7154   22.6662 C   0  0  0  0  0  0  0  0  0  0  0  0
   10.9154    5.4574   20.5483 C   0  0  0  0  0  0  0  0  0  0  0  0
    7.2709    4.5089   22.7542 C   0  0  0  0  0  0  0  0  0  0  0  0
    5.9698    7.6329   24.6581 C   0  0  0  0  0  0  0  0  0  0  0  0
    4.5542    8.9057   21.7104 O   0  0  0  0  0  0  0  0  0  0  0  0
    6.9895    3.2085   23.0690 C   0  0  0  0  0  0  0  0  0  0  0  0
    7.8391    2.2253   22.7260 N   0  0  0  0  0  0  0  0  0  0  0  0
    8.6968    9.8373   23.6359 C   0  0  0  0  0  0  0  0  0  0  0  0
   12.5135    6.5957   21.8396 C   0  0  0  0  0  0  0  0  0  0  0  0
   10.9406    8.2330   21.1350 C   0  0  0  0  0  0  0  0  0  0  0  0
    9.6648    8.5956   21.7310 C   0  0  0  0  0  0  0  0  0  0  0  0
   10.8829    1.7153   20.9865 C   0  0  0  0  0  0  0  0  0  0  0  0
    5.7768    2.8533   23.7910 C   0  0  0  0  0  0  0  0  0  0  0  0
    9.7977    1.4791   21.6912 N   0  0  0  0  0  0  0  0  0  0  0  0
    6.5976    9.3401   22.6478 N   0  0  0  0  0  0  0  0  0  0  0  0
   11.2031    3.0042   20.6246 C   0  0  0  0  0  0  0  0  0  0  0  0
   12.8688    7.7370   22.7287 C   0  0  0  0  0  0  0  0  0  0  0  0
    7.4487    9.1361   23.6506 C   0  0  0  0  0  0  0  0  0  0  0  0
    8.9772    2.5025   22.0273 C   0  0  0  0  0  0  0  0  0  0  0  0
   10.4859    4.0901   20.9730 C   0  0  0  0  0  0  0  0  0  0  0  0
   11.0962    9.3293   23.5072 C   0  0  0  0  0  0  0  0  0  0  0  0
    5.1273    7.8529   23.6208 N   0  0  0  0  0  0  0  0  0  0  0  0
    9.7552    9.2338   23.0171 N   0  0  0  0  0  0  0  0  0  0  0  0
   11.1797    6.7591   21.3326 N   0  0  0  0  0  0  0  0  0  0  0  0
   11.7728    8.0337   23.7267 C   0  0  0  0  0  0  0  0  0  0  0  0
    7.1194    8.3344   24.6775 C   0  0  0  0  0  0  0  0  0  0  0  0
    8.4311    4.7963   22.0500 C   0  0  0  0  0  0  0  0  0  0  0  0
    8.7393   10.8706   24.1871 O   0  0  0  0  0  0  0  0  0  0  0  0
    9.3093    3.8166   21.6712 C   0  0  0  0  0  0  0  0  0  0  0  0
  1  5  1  0
  1 15  4  0
  1 22  4  0
  2 20  1  0
  2 24  1  0
  3  6  4  0
  3 27  4  0
  4 22  4  0
  4 26  4  0
  6  7  4  0
  6 13  1  0
  7 19  4  0
  8 18  1  0
  8 23  1  0
  8 28  2  0
  9 17  1  0
  9 24  1  0
 10 11  1  0
 10 24  1  0
 11 23  1  0
 12 14  4  0
 12 16  4  0
 14 19  4  0
 15 18  4  0
 16 20  4  0
 17 25  1  0
 18 26  4  0
 19 29  4  0
 20 29  4  0
 21 23  1  0
 21 25  1  0
 27 29  4  0
M  END
$$$$

 Created by Python create_sdf_string function

 29 32  0  0  0  0  0  0  0  0999 V2000
    5.4450    8.7154   22.6662 C   0  0  0  0  0  0  0  0  0  0  0  0
   10.9154    5.4574   20.5483 C   0  0  0  0  0  0  0  0  0  0  0  0
    7.2709    4.5089   22.7542 C   0  0  0  0  0  0  0  0  0  0  0  0
    5.9698    7.6329   24.6581 C   0  0  0  0  0  0  0  0  0  0  0  0
    4.5542    8.9057   21.7104 O   0  0  0  0  0  0  0  0  0  0  0  0
    6.9895    3.2085   23.0690 C   0  0  0  0  0  0  0  0  0  0  0  0
    7.8391    2.2253   22.7260 N   0  0  0  0  0  0  0  0  0  0  0  0
    8.6968    9.8373   23.6359 C   0  0  0  0  0  0  0  0  0  0  0  0
   12.5135    6.5957   21.8396 C   0  0  0  0  0  0  0  0  0  0  0  0
   10.9406    8.2330   21.1350 C   0  0  0  0  0  0  0  0  0  0  0  0
    9.6648    8.5956   21.7310 C   0  0  0  0  0  0  0  0  0  0  0  0
   10.8829    1.7153   20.9865 C   0  0  0  0  0  0  0  0  0  0  0  0
    5.7768    2.8533   23.7910 C   0  0  0  0  0  0  0  0  0  0  0  0
    9.7977    1.4791   21.6912 N   0  0  0  0  0  0  0  0  0  0  0  0
    6.5976    9.3401   22.6478 N   0  0  0  0  0  0  0  0  0  0  0  0
   11.2031    3.0042   20.6246 C   0  0  0  0  0  0  0  0  0  0  0  0
   12.8688    7.7370   22.7287 C   0  0  0  0  0  0  0  0  0  0  0  0
    7.4487    9.1361   23.6506 C   0  0  0  0  0  0  0  0  0  0  0  0
    8.9772    2.5025   22.0273 C   0  0  0  0  0  0  0  0  0  0  0  0
   10.4859    4.0901   20.9730 C   0  0  0  0  0  0  0  0  0  0  0  0
   11.0962    9.3293   23.5072 C   0  0  0  0  0  0  0  0  0  0  0  0
    5.1273    7.8529   23.6208 N   0  0  0  0  0  0  0  0  0  0  0  0
    9.7552    9.2338   23.0171 N   0  0  0  0  0  0  0  0  0  0  0  0
   11.1797    6.7591   21.3326 N   0  0  0  0  0  0  0  0  0  0  0  0
   11.7728    8.0337   23.7267 C   0  0  0  0  0  0  0  0  0  0  0  0
    7.1194    8.3344   24.6775 C   0  0  0  0  0  0  0  0  0  0  0  0
    8.4311    4.7963   22.0500 C   0  0  0  0  0  0  0  0  0  0  0  0
    8.7393   10.8706   24.1871 O   0  0  0  0  0  0  0  0  0  0  0  0
    9.3093    3.8166   21.6712 C   0  0  0  0  0  0  0  0  0  0  0  0
  1  5  1  0
  1 15  4  0
  1 22  4  0
  2 20  1  0
  2 24  1  0
  3  6  4  0
  3 27  4  0
  4 22  4  0
  4 26  4  0
  6  7  4  0
  6 13  1  0
  7 19  4  0
  8 18  1  0
  8 23  1  0
  8 28  2  0
  9 17  1  0
  9 24  1  0
 10 11  1  0
 10 24  1  0
 11 23  1  0
 12 14  4  0
 12 16  4  0
 14 19  4  0
 15 18  4  0
 16 20  4  0
 17 25  1  0
 18 26  4  0
 19 29  4  0
 20 29  4  0
 21 23  1  0
 21 25  1  0
 27 29  4  0
M  END
$$$$

 Created by Python create_sdf_string function

 29 32  0  0  0  0  0  0  0  0999 V2000
    5.4450    8.7154   22.6662 C   0  0  0  0  0  0  0  0  0  0  0  0
   10.9154    5.4574   20.5483 C   0  0  0  0  0  0  0  0  0  0  0  0
    7.2709    4.5089   22.7542 C   0  0  0  0  0  0  0  0  0  0  0  0
    5.9698    7.6329   24.6581 C   0  0  0  0  0  0  0  0  0  0  0  0
    4.5542    8.9057   21.7104 O   0  0  0  0  0  0  0  0  0  0  0  0
    6.9895    3.2085   23.0690 C   0  0  0  0  0  0  0  0  0  0  0  0
    7.8391    2.2253   22.7260 N   0  0  0  0  0  0  0  0  0  0  0  0
    8.6968    9.8373   23.6359 C   0  0  0  0  0  0  0  0  0  0  0  0
   12.5135    6.5957   21.8396 C   0  0  0  0  0  0  0  0  0  0  0  0
   10.9406    8.2330   21.1350 C   0  0  0  0  0  0  0  0  0  0  0  0
    9.6648    8.5956   21.7310 C   0  0  0  0  0  0  0  0  0  0  0  0
   10.8829    1.7153   20.9865 C   0  0  0  0  0  0  0  0  0  0  0  0
    5.7768    2.8533   23.7910 C   0  0  0  0  0  0  0  0  0  0  0  0
    9.7977    1.4791   21.6912 N   0  0  0  0  0  0  0  0  0  0  0  0
    6.5976    9.3401   22.6478 N   0  0  0  0  0  0  0  0  0  0  0  0
   11.2031    3.0042   20.6246 C   0  0  0  0  0  0  0  0  0  0  0  0
   12.8688    7.7370   22.7287 C   0  0  0  0  0  0  0  0  0  0  0  0
    7.4487    9.1361   23.6506 C   0  0  0  0  0  0  0  0  0  0  0  0
    8.9772    2.5025   22.0273 C   0  0  0  0  0  0  0  0  0  0  0  0
   10.4859    4.0901   20.9730 C   0  0  0  0  0  0  0  0  0  0  0  0
   11.0962    9.3293   23.5072 C   0  0  0  0  0  0  0  0  0  0  0  0
    5.1273    7.8529   23.6208 N   0  0  0  0  0  0  0  0  0  0  0  0
    9.7552    9.2338   23.0171 N   0  0  0  0  0  0  0  0  0  0  0  0
   11.1797    6.7591   21.3326 N   0  0  0  0  0  0  0  0  0  0  0  0
   11.7728    8.0337   23.7267 C   0  0  0  0  0  0  0  0  0  0  0  0
    7.1194    8.3344   24.6775 C   0  0  0  0  0  0  0  0  0  0  0  0
    8.4311    4.7963   22.0500 C   0  0  0  0  0  0  0  0  0  0  0  0
    8.7393   10.8706   24.1871 O   0  0  0  0  0  0  0  0  0  0  0  0
    9.3093    3.8166   21.6712 C   0  0  0  0  0  0  0  0  0  0  0  0
  1  5  1  0
  1 15  4  0
  1 22  4  0
  2 20  1  0
  2 24  1  0
  3  6  4  0
  3 27  4  0
  4 22  4  0
  4 26  4  0
  6  7  4  0
  6 13  1  0
  7 19  4  0
  8 18  1  0
  8 23  1  0
  8 28  2  0
  9 17  1  0
  9 24  1  0
 10 11  1  0
 10 24  1  0
 11 23  1  0
 12 14  4  0
 12 16  4  0
 14 19  4  0
 15 18  4  0
 16 20  4  0
 17 25  1  0
 18 26  4  0
 19 29  4  0
 20 29  4  0
 21 23  1  0
 21 25  1  0
 27 29  4  0
M  END
$$$$

 Created by Python create_sdf_string function

 29 32  0  0  0  0  0  0  0  0999 V2000
    5.4450    8.7154   22.6662 C   0  0  0  0  0  0  0  0  0  0  0  0
   10.9154    5.4574   20.5483 C   0  0  0  0  0  0  0  0  0  0  0  0
    7.2709    4.5089   22.7542 C   0  0  0  0  0  0  0  0  0  0  0  0
    5.9698    7.6329   24.6581 C   0  0  0  0  0  0  0  0  0  0  0  0
    4.5542    8.9057   21.7104 O   0  0  0  0  0  0  0  0  0  0  0  0
    6.9895    3.2085   23.0690 C   0  0  0  0  0  0  0  0  0  0  0  0
    7.8391    2.2253   22.7260 N   0  0  0  0  0  0  0  0  0  0  0  0
    8.6968    9.8373   23.6359 C   0  0  0  0  0  0  0  0  0  0  0  0
   12.5135    6.5957   21.8396 C   0  0  0  0  0  0  0  0  0  0  0  0
   10.9406    8.2330   21.1350 C   0  0  0  0  0  0  0  0  0  0  0  0
    9.6648    8.5956   21.7310 C   0  0  0  0  0  0  0  0  0  0  0  0
   10.8829    1.7153   20.9865 C   0  0  0  0  0  0  0  0  0  0  0  0
    5.7768    2.8533   23.7910 C   0  0  0  0  0  0  0  0  0  0  0  0
    9.7977    1.4791   21.6912 N   0  0  0  0  0  0  0  0  0  0  0  0
    6.5976    9.3401   22.6478 N   0  0  0  0  0  0  0  0  0  0  0  0
   11.2031    3.0042   20.6246 C   0  0  0  0  0  0  0  0  0  0  0  0
   12.8688    7.7370   22.7287 C   0  0  0  0  0  0  0  0  0  0  0  0
    7.4487    9.1361   23.6506 C   0  0  0  0  0  0  0  0  0  0  0  0
    8.9772    2.5025   22.0273 C   0  0  0  0  0  0  0  0  0  0  0  0
   10.4859    4.0901   20.9730 C   0  0  0  0  0  0  0  0  0  0  0  0
   11.0962    9.3293   23.5072 C   0  0  0  0  0  0  0  0  0  0  0  0
    5.1273    7.8529   23.6208 N   0  0  0  0  0  0  0  0  0  0  0  0
    9.7552    9.2338   23.0171 N   0  0  0  0  0  0  0  0  0  0  0  0
   11.1797    6.7591   21.3326 N   0  0  0  0  0  0  0  0  0  0  0  0
   11.7728    8.0337   23.7267 C   0  0  0  0  0  0  0  0  0  0  0  0
    7.1194    8.3344   24.6775 C   0  0  0  0  0  0  0  0  0  0  0  0
    8.4311    4.7963   22.0500 C   0  0  0  0  0  0  0  0  0  0  0  0
    8.7393   10.8706   24.1871 O   0  0  0  0  0  0  0  0  0  0  0  0
    9.3093    3.8166   21.6712 C   0  0  0  0  0  0  0  0  0  0  0  0
  1  5  1  0
  1 15  4  0
  1 22  4  0
  2 20  1  0
  2 24  1  0
  3  6  4  0
  3 27  4  0
  4 22  4  0
  4 26  4  0
  6  7  4  0
  6 13  1  0
  7 19  4  0
  8 18  1  0
  8 23  1  0
  8 28  2  0
  9 17  1  0
  9 24  1  0
 10 11  1  0
 10 24  1  0
 11 23  1  0
 12 14  4  0
 12 16  4  0
 14 19  4  0
 15 18  4  0
 16 20  4  0
 17 25  1  0
 18 26  4  0
 19 29  4  0
 20 29  4  0
 21 23  1  0
 21 25  1  0
 27 29  4  0
M  END
$$$$

 Created by Python create_sdf_string function

 29 32  0  0  0  0  0  0  0  0999 V2000
    5.4450    8.7154   22.6662 C   0  0  0  0  0  0  0  0  0  0  0  0
   10.9154    5.4574   20.5483 C   0  0  0  0  0  0  0  0  0  0  0  0
    7.2709    4.5089   22.7542 C   0  0  0  0  0  0  0  0  0  0  0  0
    5.9698    7.6329   24.6581 C   0  0  0  0  0  0  0  0  0  0  0  0
    4.5542    8.9057   21.7104 O   0  0  0  0  0  0  0  0  0  0  0  0
    6.9895    3.2085   23.0690 C   0  0  0  0  0  0  0  0  0  0  0  0
    7.8391    2.2253   22.7260 N   0  0  0  0  0  0  0  0  0  0  0  0
    8.6968    9.8373   23.6359 C   0  0  0  0  0  0  0  0  0  0  0  0
   12.5135    6.5957   21.8396 C   0  0  0  0  0  0  0  0  0  0  0  0
   10.9406    8.2330   21.1350 C   0  0  0  0  0  0  0  0  0  0  0  0
    9.6648    8.5956   21.7310 C   0  0  0  0  0  0  0  0  0  0  0  0
   10.8829    1.7153   20.9865 C   0  0  0  0  0  0  0  0  0  0  0  0
    5.7768    2.8533   23.7910 C   0  0  0  0  0  0  0  0  0  0  0  0
    9.7977    1.4791   21.6912 N   0  0  0  0  0  0  0  0  0  0  0  0
    6.5976    9.3401   22.6478 N   0  0  0  0  0  0  0  0  0  0  0  0
   11.2031    3.0042   20.6246 C   0  0  0  0  0  0  0  0  0  0  0  0
   12.8688    7.7370   22.7287 C   0  0  0  0  0  0  0  0  0  0  0  0
    7.4487    9.1361   23.6506 C   0  0  0  0  0  0  0  0  0  0  0  0
    8.9772    2.5025   22.0273 C   0  0  0  0  0  0  0  0  0  0  0  0
   10.4859    4.0901   20.9730 C   0  0  0  0  0  0  0  0  0  0  0  0
   11.0962    9.3293   23.5072 C   0  0  0  0  0  0  0  0  0  0  0  0
    5.1273    7.8529   23.6208 N   0  0  0  0  0  0  0  0  0  0  0  0
    9.7552    9.2338   23.0171 N   0  0  0  0  0  0  0  0  0  0  0  0
   11.1797    6.7591   21.3326 N   0  0  0  0  0  0  0  0  0  0  0  0
   11.7728    8.0337   23.7267 C   0  0  0  0  0  0  0  0  0  0  0  0
    7.1194    8.3344   24.6775 C   0  0  0  0  0  0  0  0  0  0  0  0
    8.4311    4.7963   22.0500 C   0  0  0  0  0  0  0  0  0  0  0  0
    8.7393   10.8706   24.1871 O   0  0  0  0  0  0  0  0  0  0  0  0
    9.3093    3.8166   21.6712 C   0  0  0  0  0  0  0  0  0  0  0  0
  1  5  1  0
  1 15  4  0
  1 22  4  0
  2 20  1  0
  2 24  1  0
  3  6  4  0
  3 27  4  0
  4 22  4  0
  4 26  4  0
  6  7  4  0
  6 13  1  0
  7 19  4  0
  8 18  1  0
  8 23  1  0
  8 28  2  0
  9 17  1  0
  9 24  1  0
 10 11  1  0
 10 24  1  0
 11 23  1  0
 12 14  4  0
 12 16  4  0
 14 19  4  0
 15 18  4  0
 16 20  4  0
 17 25  1  0
 18 26  4  0
 19 29  4  0
 20 29  4  0
 21 23  1  0
 21 25  1  0
 27 29  4  0
M  END
$$$$

 Created by Python create_sdf_string function

 29 32  0  0  0  0  0  0  0  0999 V2000
    5.4450    8.7154   22.6662 C   0  0  0  0  0  0  0  0  0  0  0  0
   10.9154    5.4574   20.5483 C   0  0  0  0  0  0  0  0  0  0  0  0
    7.2709    4.5089   22.7542 C   0  0  0  0  0  0  0  0  0  0  0  0
    5.9698    7.6329   24.6581 C   0  0  0  0  0  0  0  0  0  0  0  0
    4.5542    8.9057   21.7104 O   0  0  0  0  0  0  0  0  0  0  0  0
    6.9895    3.2085   23.0690 C   0  0  0  0  0  0  0  0  0  0  0  0
    7.8391    2.2253   22.7260 N   0  0  0  0  0  0  0  0  0  0  0  0
    8.6968    9.8373   23.6359 C   0  0  0  0  0  0  0  0  0  0  0  0
   12.5135    6.5957   21.8396 C   0  0  0  0  0  0  0  0  0  0  0  0
   10.9406    8.2330   21.1350 C   0  0  0  0  0  0  0  0  0  0  0  0
    9.6648    8.5956   21.7310 C   0  0  0  0  0  0  0  0  0  0  0  0
   10.8829    1.7153   20.9865 C   0  0  0  0  0  0  0  0  0  0  0  0
    5.7768    2.8533   23.7910 C   0  0  0  0  0  0  0  0  0  0  0  0
    9.7977    1.4791   21.6912 N   0  0  0  0  0  0  0  0  0  0  0  0
    6.5976    9.3401   22.6478 N   0  0  0  0  0  0  0  0  0  0  0  0
   11.2031    3.0042   20.6246 C   0  0  0  0  0  0  0  0  0  0  0  0
   12.8688    7.7370   22.7287 C   0  0  0  0  0  0  0  0  0  0  0  0
    7.4487    9.1361   23.6506 C   0  0  0  0  0  0  0  0  0  0  0  0
    8.9772    2.5025   22.0273 C   0  0  0  0  0  0  0  0  0  0  0  0
   10.4859    4.0901   20.9730 C   0  0  0  0  0  0  0  0  0  0  0  0
   11.0962    9.3293   23.5072 C   0  0  0  0  0  0  0  0  0  0  0  0
    5.1273    7.8529   23.6208 N   0  0  0  0  0  0  0  0  0  0  0  0
    9.7552    9.2338   23.0171 N   0  0  0  0  0  0  0  0  0  0  0  0
   11.1797    6.7591   21.3326 N   0  0  0  0  0  0  0  0  0  0  0  0
   11.7728    8.0337   23.7267 C   0  0  0  0  0  0  0  0  0  0  0  0
    7.1194    8.3344   24.6775 C   0  0  0  0  0  0  0  0  0  0  0  0
    8.4311    4.7963   22.0500 C   0  0  0  0  0  0  0  0  0  0  0  0
    8.7393   10.8706   24.1871 O   0  0  0  0  0  0  0  0  0  0  0  0
    9.3093    3.8166   21.6712 C   0  0  0  0  0  0  0  0  0  0  0  0
  1  5  1  0
  1 15  4  0
  1 22  4  0
  2 20  1  0
  2 24  1  0
  3  6  4  0
  3 27  4  0
  4 22  4  0
  4 26  4  0
  6  7  4  0
  6 13  1  0
  7 19  4  0
  8 18  1  0
  8 23  1  0
  8 28  2  0
  9 17  1  0
  9 24  1  0
 10 11  1  0
 10 24  1  0
 11 23  1  0
 12 14  4  0
 12 16  4  0
 14 19  4  0
 15 18  4  0
 16 20  4  0
 17 25  1  0
 18 26  4  0
 19 29  4  0
 20 29  4  0
 21 23  1  0
 21 25  1  0
 27 29  4  0
M  END
$$$$

 Created by Python create_sdf_string function

 29 32  0  0  0  0  0  0  0  0999 V2000
    5.4450    8.7154   22.6662 C   0  0  0  0  0  0  0  0  0  0  0  0
   10.9154    5.4574   20.5483 C   0  0  0  0  0  0  0  0  0  0  0  0
    7.2709    4.5089   22.7542 C   0  0  0  0  0  0  0  0  0  0  0  0
    5.9698    7.6329   24.6581 C   0  0  0  0  0  0  0  0  0  0  0  0
    4.5542    8.9057   21.7104 O   0  0  0  0  0  0  0  0  0  0  0  0
    6.9895    3.2085   23.0690 C   0  0  0  0  0  0  0  0  0  0  0  0
    7.8391    2.2253   22.7260 N   0  0  0  0  0  0  0  0  0  0  0  0
    8.6968    9.8373   23.6359 C   0  0  0  0  0  0  0  0  0  0  0  0
   12.5135    6.5957   21.8396 C   0  0  0  0  0  0  0  0  0  0  0  0
   10.9406    8.2330   21.1350 C   0  0  0  0  0  0  0  0  0  0  0  0
    9.6648    8.5956   21.7310 C   0  0  0  0  0  0  0  0  0  0  0  0
   10.8829    1.7153   20.9865 C   0  0  0  0  0  0  0  0  0  0  0  0
    5.7768    2.8533   23.7910 C   0  0  0  0  0  0  0  0  0  0  0  0
    9.7977    1.4791   21.6912 N   0  0  0  0  0  0  0  0  0  0  0  0
    6.5976    9.3401   22.6478 N   0  0  0  0  0  0  0  0  0  0  0  0
   11.2031    3.0042   20.6246 C   0  0  0  0  0  0  0  0  0  0  0  0
   12.8688    7.7370   22.7287 C   0  0  0  0  0  0  0  0  0  0  0  0
    7.4487    9.1361   23.6506 C   0  0  0  0  0  0  0  0  0  0  0  0
    8.9772    2.5025   22.0273 C   0  0  0  0  0  0  0  0  0  0  0  0
   10.4859    4.0901   20.9730 C   0  0  0  0  0  0  0  0  0  0  0  0
   11.0962    9.3293   23.5072 C   0  0  0  0  0  0  0  0  0  0  0  0
    5.1273    7.8529   23.6208 N   0  0  0  0  0  0  0  0  0  0  0  0
    9.7552    9.2338   23.0171 N   0  0  0  0  0  0  0  0  0  0  0  0
   11.1797    6.7591   21.3326 N   0  0  0  0  0  0  0  0  0  0  0  0
   11.7728    8.0337   23.7267 C   0  0  0  0  0  0  0  0  0  0  0  0
    7.1194    8.3344   24.6775 C   0  0  0  0  0  0  0  0  0  0  0  0
    8.4311    4.7963   22.0500 C   0  0  0  0  0  0  0  0  0  0  0  0
    8.7393   10.8706   24.1871 O   0  0  0  0  0  0  0  0  0  0  0  0
    9.3093    3.8166   21.6712 C   0  0  0  0  0  0  0  0  0  0  0  0
  1  5  1  0
  1 15  4  0
  1 22  4  0
  2 20  1  0
  2 24  1  0
  3  6  4  0
  3 27  4  0
  4 22  4  0
  4 26  4  0
  6  7  4  0
  6 13  1  0
  7 19  4  0
  8 18  1  0
  8 23  1  0
  8 28  2  0
  9 17  1  0
  9 24  1  0
 10 11  1  0
 10 24  1  0
 11 23  1  0
 12 14  4  0
 12 16  4  0
 14 19  4  0
 15 18  4  0
 16 20  4  0
 17 25  1  0
 18 26  4  0
 19 29  4  0
 20 29  4  0
 21 23  1  0
 21 25  1  0
 27 29  4  0
M  END
$$$$

 Created by Python create_sdf_string function

 29 32  0  0  0  0  0  0  0  0999 V2000
    5.4450    8.7154   22.6662 C   0  0  0  0  0  0  0  0  0  0  0  0
   10.9154    5.4574   20.5483 C   0  0  0  0  0  0  0  0  0  0  0  0
    7.2709    4.5089   22.7542 C   0  0  0  0  0  0  0  0  0  0  0  0
    5.9698    7.6329   24.6581 C   0  0  0  0  0  0  0  0  0  0  0  0
    4.5542    8.9057   21.7104 O   0  0  0  0  0  0  0  0  0  0  0  0
    6.9895    3.2085   23.0690 C   0  0  0  0  0  0  0  0  0  0  0  0
    7.8391    2.2253   22.7260 N   0  0  0  0  0  0  0  0  0  0  0  0
    8.6968    9.8373   23.6359 C   0  0  0  0  0  0  0  0  0  0  0  0
   12.5135    6.5957   21.8396 C   0  0  0  0  0  0  0  0  0  0  0  0
   10.9406    8.2330   21.1350 C   0  0  0  0  0  0  0  0  0  0  0  0
    9.6648    8.5956   21.7310 C   0  0  0  0  0  0  0  0  0  0  0  0
   10.8829    1.7153   20.9865 C   0  0  0  0  0  0  0  0  0  0  0  0
    5.7768    2.8533   23.7910 C   0  0  0  0  0  0  0  0  0  0  0  0
    9.7977    1.4791   21.6912 N   0  0  0  0  0  0  0  0  0  0  0  0
    6.5976    9.3401   22.6478 N   0  0  0  0  0  0  0  0  0  0  0  0
   11.2031    3.0042   20.6246 C   0  0  0  0  0  0  0  0  0  0  0  0
   12.8688    7.7370   22.7287 C   0  0  0  0  0  0  0  0  0  0  0  0
    7.4487    9.1361   23.6506 C   0  0  0  0  0  0  0  0  0  0  0  0
    8.9772    2.5025   22.0273 C   0  0  0  0  0  0  0  0  0  0  0  0
   10.4859    4.0901   20.9730 C   0  0  0  0  0  0  0  0  0  0  0  0
   11.0962    9.3293   23.5072 C   0  0  0  0  0  0  0  0  0  0  0  0
    5.1273    7.8529   23.6208 N   0  0  0  0  0  0  0  0  0  0  0  0
    9.7552    9.2338   23.0171 N   0  0  0  0  0  0  0  0  0  0  0  0
   11.1797    6.7591   21.3326 N   0  0  0  0  0  0  0  0  0  0  0  0
   11.7728    8.0337   23.7267 C   0  0  0  0  0  0  0  0  0  0  0  0
    7.1194    8.3344   24.6775 C   0  0  0  0  0  0  0  0  0  0  0  0
    8.4311    4.7963   22.0500 C   0  0  0  0  0  0  0  0  0  0  0  0
    8.7393   10.8706   24.1871 O   0  0  0  0  0  0  0  0  0  0  0  0
    9.3093    3.8166   21.6712 C   0  0  0  0  0  0  0  0  0  0  0  0
  1  5  1  0
  1 15  4  0
  1 22  4  0
  2 20  1  0
  2 24  1  0
  3  6  4  0
  3 27  4  0
  4 22  4  0
  4 26  4  0
  6  7  4  0
  6 13  1  0
  7 19  4  0
  8 18  1  0
  8 23  1  0
  8 28  2  0
  9 17  1  0
  9 24  1  0
 10 11  1  0
 10 24  1  0
 11 23  1  0
 12 14  4  0
 12 16  4  0
 14 19  4  0
 15 18  4  0
 16 20  4  0
 17 25  1  0
 18 26  4  0
 19 29  4  0
 20 29  4  0
 21 23  1  0
 21 25  1  0
 27 29  4  0
M  END
$$$$

 Created by Python create_sdf_string function

 29 32  0  0  0  0  0  0  0  0999 V2000
    5.4450    8.7154   22.6662 C   0  0  0  0  0  0  0  0  0  0  0  0
   10.9154    5.4574   20.5483 C   0  0  0  0  0  0  0  0  0  0  0  0
    7.2709    4.5089   22.7542 C   0  0  0  0  0  0  0  0  0  0  0  0
    5.9698    7.6329   24.6581 C   0  0  0  0  0  0  0  0  0  0  0  0
    4.5542    8.9057   21.7104 O   0  0  0  0  0  0  0  0  0  0  0  0
    6.9895    3.2085   23.0690 C   0  0  0  0  0  0  0  0  0  0  0  0
    7.8391    2.2253   22.7260 N   0  0  0  0  0  0  0  0  0  0  0  0
    8.6968    9.8373   23.6359 C   0  0  0  0  0  0  0  0  0  0  0  0
   12.5135    6.5957   21.8396 C   0  0  0  0  0  0  0  0  0  0  0  0
   10.9406    8.2330   21.1350 C   0  0  0  0  0  0  0  0  0  0  0  0
    9.6648    8.5956   21.7310 C   0  0  0  0  0  0  0  0  0  0  0  0
   10.8829    1.7153   20.9865 C   0  0  0  0  0  0  0  0  0  0  0  0
    5.7768    2.8533   23.7910 C   0  0  0  0  0  0  0  0  0  0  0  0
    9.7977    1.4791   21.6912 N   0  0  0  0  0  0  0  0  0  0  0  0
    6.5976    9.3401   22.6478 N   0  0  0  0  0  0  0  0  0  0  0  0
   11.2031    3.0042   20.6246 C   0  0  0  0  0  0  0  0  0  0  0  0
   12.8688    7.7370   22.7287 C   0  0  0  0  0  0  0  0  0  0  0  0
    7.4487    9.1361   23.6506 C   0  0  0  0  0  0  0  0  0  0  0  0
    8.9772    2.5025   22.0273 C   0  0  0  0  0  0  0  0  0  0  0  0
   10.4859    4.0901   20.9730 C   0  0  0  0  0  0  0  0  0  0  0  0
   11.0962    9.3293   23.5072 C   0  0  0  0  0  0  0  0  0  0  0  0
    5.1273    7.8529   23.6208 N   0  0  0  0  0  0  0  0  0  0  0  0
    9.7552    9.2338   23.0171 N   0  0  0  0  0  0  0  0  0  0  0  0
   11.1797    6.7591   21.3326 N   0  0  0  0  0  0  0  0  0  0  0  0
   11.7728    8.0337   23.7267 C   0  0  0  0  0  0  0  0  0  0  0  0
    7.1194    8.3344   24.6775 C   0  0  0  0  0  0  0  0  0  0  0  0
    8.4311    4.7963   22.0500 C   0  0  0  0  0  0  0  0  0  0  0  0
    8.7393   10.8706   24.1871 O   0  0  0  0  0  0  0  0  0  0  0  0
    9.3093    3.8166   21.6712 C   0  0  0  0  0  0  0  0  0  0  0  0
  1  5  1  0
  1 15  4  0
  1 22  4  0
  2 20  1  0
  2 24  1  0
  3  6  4  0
  3 27  4  0
  4 22  4  0
  4 26  4  0
  6  7  4  0
  6 13  1  0
  7 19  4  0
  8 18  1  0
  8 23  1  0
  8 28  2  0
  9 17  1  0
  9 24  1  0
 10 11  1  0
 10 24  1  0
 11 23  1  0
 12 14  4  0
 12 16  4  0
 14 19  4  0
 15 18  4  0
 16 20  4  0
 17 25  1  0
 18 26  4  0
 19 29  4  0
 20 29  4  0
 21 23  1  0
 21 25  1  0
 27 29  4  0
M  END
$$$$

 Created by Python create_sdf_string function

 29 32  0  0  0  0  0  0  0  0999 V2000
    5.4450    8.7154   22.6662 C   0  0  0  0  0  0  0  0  0  0  0  0
   10.9154    5.4574   20.5483 C   0  0  0  0  0  0  0  0  0  0  0  0
    7.2709    4.5089   22.7542 C   0  0  0  0  0  0  0  0  0  0  0  0
    5.9698    7.6329   24.6581 C   0  0  0  0  0  0  0  0  0  0  0  0
    4.5542    8.9057   21.7104 O   0  0  0  0  0  0  0  0  0  0  0  0
    6.9895    3.2085   23.0690 C   0  0  0  0  0  0  0  0  0  0  0  0
    7.8391    2.2253   22.7260 N   0  0  0  0  0  0  0  0  0  0  0  0
    8.6968    9.8373   23.6359 C   0  0  0  0  0  0  0  0  0  0  0  0
   12.5135    6.5957   21.8396 C   0  0  0  0  0  0  0  0  0  0  0  0
   10.9406    8.2330   21.1350 C   0  0  0  0  0  0  0  0  0  0  0  0
    9.6648    8.5956   21.7310 C   0  0  0  0  0  0  0  0  0  0  0  0
   10.8829    1.7153   20.9865 C   0  0  0  0  0  0  0  0  0  0  0  0
    5.7768    2.8533   23.7910 C   0  0  0  0  0  0  0  0  0  0  0  0
    9.7977    1.4791   21.6912 N   0  0  0  0  0  0  0  0  0  0  0  0
    6.5976    9.3401   22.6478 N   0  0  0  0  0  0  0  0  0  0  0  0
   11.2031    3.0042   20.6246 C   0  0  0  0  0  0  0  0  0  0  0  0
   12.8688    7.7370   22.7287 C   0  0  0  0  0  0  0  0  0  0  0  0
    7.4487    9.1361   23.6506 C   0  0  0  0  0  0  0  0  0  0  0  0
    8.9772    2.5025   22.0273 C   0  0  0  0  0  0  0  0  0  0  0  0
   10.4859    4.0901   20.9730 C   0  0  0  0  0  0  0  0  0  0  0  0
   11.0962    9.3293   23.5072 C   0  0  0  0  0  0  0  0  0  0  0  0
    5.1273    7.8529   23.6208 N   0  0  0  0  0  0  0  0  0  0  0  0
    9.7552    9.2338   23.0171 N   0  0  0  0  0  0  0  0  0  0  0  0
   11.1797    6.7591   21.3326 N   0  0  0  0  0  0  0  0  0  0  0  0
   11.7728    8.0337   23.7267 C   0  0  0  0  0  0  0  0  0  0  0  0
    7.1194    8.3344   24.6775 C   0  0  0  0  0  0  0  0  0  0  0  0
    8.4311    4.7963   22.0500 C   0  0  0  0  0  0  0  0  0  0  0  0
    8.7393   10.8706   24.1871 O   0  0  0  0  0  0  0  0  0  0  0  0
    9.3093    3.8166   21.6712 C   0  0  0  0  0  0  0  0  0  0  0  0
  1  5  1  0
  1 15  4  0
  1 22  4  0
  2 20  1  0
  2 24  1  0
  3  6  4  0
  3 27  4  0
  4 22  4  0
  4 26  4  0
  6  7  4  0
  6 13  1  0
  7 19  4  0
  8 18  1  0
  8 23  1  0
  8 28  2  0
  9 17  1  0
  9 24  1  0
 10 11  1  0
 10 24  1  0
 11 23  1  0
 12 14  4  0
 12 16  4  0
 14 19  4  0
 15 18  4  0
 16 20  4  0
 17 25  1  0
 18 26  4  0
 19 29  4  0
 20 29  4  0
 21 23  1  0
 21 25  1  0
 27 29  4  0
M  END
$$$$

 Created by Python create_sdf_string function

 29 32  0  0  0  0  0  0  0  0999 V2000
    5.4450    8.7154   22.6662 C   0  0  0  0  0  0  0  0  0  0  0  0
   10.9154    5.4574   20.5483 C   0  0  0  0  0  0  0  0  0  0  0  0
    7.2709    4.5089   22.7542 C   0  0  0  0  0  0  0  0  0  0  0  0
    5.9698    7.6329   24.6581 C   0  0  0  0  0  0  0  0  0  0  0  0
    4.5542    8.9057   21.7104 O   0  0  0  0  0  0  0  0  0  0  0  0
    6.9895    3.2085   23.0690 C   0  0  0  0  0  0  0  0  0  0  0  0
    7.8391    2.2253   22.7260 N   0  0  0  0  0  0  0  0  0  0  0  0
    8.6968    9.8373   23.6359 C   0  0  0  0  0  0  0  0  0  0  0  0
   12.5135    6.5957   21.8396 C   0  0  0  0  0  0  0  0  0  0  0  0
   10.9406    8.2330   21.1350 C   0  0  0  0  0  0  0  0  0  0  0  0
    9.6648    8.5956   21.7310 C   0  0  0  0  0  0  0  0  0  0  0  0
   10.8829    1.7153   20.9865 C   0  0  0  0  0  0  0  0  0  0  0  0
    5.7768    2.8533   23.7910 C   0  0  0  0  0  0  0  0  0  0  0  0
    9.7977    1.4791   21.6912 N   0  0  0  0  0  0  0  0  0  0  0  0
    6.5976    9.3401   22.6478 N   0  0  0  0  0  0  0  0  0  0  0  0
   11.2031    3.0042   20.6246 C   0  0  0  0  0  0  0  0  0  0  0  0
   12.8688    7.7370   22.7287 C   0  0  0  0  0  0  0  0  0  0  0  0
    7.4487    9.1361   23.6506 C   0  0  0  0  0  0  0  0  0  0  0  0
    8.9772    2.5025   22.0273 C   0  0  0  0  0  0  0  0  0  0  0  0
   10.4859    4.0901   20.9730 C   0  0  0  0  0  0  0  0  0  0  0  0
   11.0962    9.3293   23.5072 C   0  0  0  0  0  0  0  0  0  0  0  0
    5.1273    7.8529   23.6208 N   0  0  0  0  0  0  0  0  0  0  0  0
    9.7552    9.2338   23.0171 N   0  0  0  0  0  0  0  0  0  0  0  0
   11.1797    6.7591   21.3326 N   0  0  0  0  0  0  0  0  0  0  0  0
   11.7728    8.0337   23.7267 C   0  0  0  0  0  0  0  0  0  0  0  0
    7.1194    8.3344   24.6775 C   0  0  0  0  0  0  0  0  0  0  0  0
    8.4311    4.7963   22.0500 C   0  0  0  0  0  0  0  0  0  0  0  0
    8.7393   10.8706   24.1871 O   0  0  0  0  0  0  0  0  0  0  0  0
    9.3093    3.8166   21.6712 C   0  0  0  0  0  0  0  0  0  0  0  0
  1  5  1  0
  1 15  4  0
  1 22  4  0
  2 20  1  0
  2 24  1  0
  3  6  4  0
  3 27  4  0
  4 22  4  0
  4 26  4  0
  6  7  4  0
  6 13  1  0
  7 19  4  0
  8 18  1  0
  8 23  1  0
  8 28  2  0
  9 17  1  0
  9 24  1  0
 10 11  1  0
 10 24  1  0
 11 23  1  0
 12 14  4  0
 12 16  4  0
 14 19  4  0
 15 18  4  0
 16 20  4  0
 17 25  1  0
 18 26  4  0
 19 29  4  0
 20 29  4  0
 21 23  1  0
 21 25  1  0
 27 29  4  0
M  END
$$$$

 Created by Python create_sdf_string function

 29 32  0  0  0  0  0  0  0  0999 V2000
    5.4450    8.7154   22.6662 C   0  0  0  0  0  0  0  0  0  0  0  0
   10.9154    5.4574   20.5483 C   0  0  0  0  0  0  0  0  0  0  0  0
    7.2709    4.5089   22.7542 C   0  0  0  0  0  0  0  0  0  0  0  0
    5.9698    7.6329   24.6581 C   0  0  0  0  0  0  0  0  0  0  0  0
    4.5542    8.9057   21.7104 O   0  0  0  0  0  0  0  0  0  0  0  0
    6.9895    3.2085   23.0690 C   0  0  0  0  0  0  0  0  0  0  0  0
    7.8391    2.2253   22.7260 N   0  0  0  0  0  0  0  0  0  0  0  0
    8.6968    9.8373   23.6359 C   0  0  0  0  0  0  0  0  0  0  0  0
   12.5135    6.5957   21.8396 C   0  0  0  0  0  0  0  0  0  0  0  0
   10.9406    8.2330   21.1350 C   0  0  0  0  0  0  0  0  0  0  0  0
    9.6648    8.5956   21.7310 C   0  0  0  0  0  0  0  0  0  0  0  0
   10.8829    1.7153   20.9865 C   0  0  0  0  0  0  0  0  0  0  0  0
    5.7768    2.8533   23.7910 C   0  0  0  0  0  0  0  0  0  0  0  0
    9.7977    1.4791   21.6912 N   0  0  0  0  0  0  0  0  0  0  0  0
    6.5976    9.3401   22.6478 N   0  0  0  0  0  0  0  0  0  0  0  0
   11.2031    3.0042   20.6246 C   0  0  0  0  0  0  0  0  0  0  0  0
   12.8688    7.7370   22.7287 C   0  0  0  0  0  0  0  0  0  0  0  0
    7.4487    9.1361   23.6506 C   0  0  0  0  0  0  0  0  0  0  0  0
    8.9772    2.5025   22.0273 C   0  0  0  0  0  0  0  0  0  0  0  0
   10.4859    4.0901   20.9730 C   0  0  0  0  0  0  0  0  0  0  0  0
   11.0962    9.3293   23.5072 C   0  0  0  0  0  0  0  0  0  0  0  0
    5.1273    7.8529   23.6208 N   0  0  0  0  0  0  0  0  0  0  0  0
    9.7552    9.2338   23.0171 N   0  0  0  0  0  0  0  0  0  0  0  0
   11.1797    6.7591   21.3326 N   0  0  0  0  0  0  0  0  0  0  0  0
   11.7728    8.0337   23.7267 C   0  0  0  0  0  0  0  0  0  0  0  0
    7.1194    8.3344   24.6775 C   0  0  0  0  0  0  0  0  0  0  0  0
    8.4311    4.7963   22.0500 C   0  0  0  0  0  0  0  0  0  0  0  0
    8.7393   10.8706   24.1871 O   0  0  0  0  0  0  0  0  0  0  0  0
    9.3093    3.8166   21.6712 C   0  0  0  0  0  0  0  0  0  0  0  0
  1  5  1  0
  1 15  4  0
  1 22  4  0
  2 20  1  0
  2 24  1  0
  3  6  4  0
  3 27  4  0
  4 22  4  0
  4 26  4  0
  6  7  4  0
  6 13  1  0
  7 19  4  0
  8 18  1  0
  8 23  1  0
  8 28  2  0
  9 17  1  0
  9 24  1  0
 10 11  1  0
 10 24  1  0
 11 23  1  0
 12 14  4  0
 12 16  4  0
 14 19  4  0
 15 18  4  0
 16 20  4  0
 17 25  1  0
 18 26  4  0
 19 29  4  0
 20 29  4  0
 21 23  1  0
 21 25  1  0
 27 29  4  0
M  END
$$$$

 Created by Python create_sdf_string function

 29 32  0  0  0  0  0  0  0  0999 V2000
    5.4450    8.7154   22.6662 C   0  0  0  0  0  0  0  0  0  0  0  0
   10.9154    5.4574   20.5483 C   0  0  0  0  0  0  0  0  0  0  0  0
    7.2709    4.5089   22.7542 C   0  0  0  0  0  0  0  0  0  0  0  0
    5.9698    7.6329   24.6581 C   0  0  0  0  0  0  0  0  0  0  0  0
    4.5542    8.9057   21.7104 O   0  0  0  0  0  0  0  0  0  0  0  0
    6.9895    3.2085   23.0690 C   0  0  0  0  0  0  0  0  0  0  0  0
    7.8391    2.2253   22.7260 N   0  0  0  0  0  0  0  0  0  0  0  0
    8.6968    9.8373   23.6359 C   0  0  0  0  0  0  0  0  0  0  0  0
   12.5135    6.5957   21.8396 C   0  0  0  0  0  0  0  0  0  0  0  0
   10.9406    8.2330   21.1350 C   0  0  0  0  0  0  0  0  0  0  0  0
    9.6648    8.5956   21.7310 C   0  0  0  0  0  0  0  0  0  0  0  0
   10.8829    1.7153   20.9865 C   0  0  0  0  0  0  0  0  0  0  0  0
    5.7768    2.8533   23.7910 C   0  0  0  0  0  0  0  0  0  0  0  0
    9.7977    1.4791   21.6912 N   0  0  0  0  0  0  0  0  0  0  0  0
    6.5976    9.3401   22.6478 N   0  0  0  0  0  0  0  0  0  0  0  0
   11.2031    3.0042   20.6246 C   0  0  0  0  0  0  0  0  0  0  0  0
   12.8688    7.7370   22.7287 C   0  0  0  0  0  0  0  0  0  0  0  0
    7.4487    9.1361   23.6506 C   0  0  0  0  0  0  0  0  0  0  0  0
    8.9772    2.5025   22.0273 C   0  0  0  0  0  0  0  0  0  0  0  0
   10.4859    4.0901   20.9730 C   0  0  0  0  0  0  0  0  0  0  0  0
   11.0962    9.3293   23.5072 C   0  0  0  0  0  0  0  0  0  0  0  0
    5.1273    7.8529   23.6208 N   0  0  0  0  0  0  0  0  0  0  0  0
    9.7552    9.2338   23.0171 N   0  0  0  0  0  0  0  0  0  0  0  0
   11.1797    6.7591   21.3326 N   0  0  0  0  0  0  0  0  0  0  0  0
   11.7728    8.0337   23.7267 C   0  0  0  0  0  0  0  0  0  0  0  0
    7.1194    8.3344   24.6775 C   0  0  0  0  0  0  0  0  0  0  0  0
    8.4311    4.7963   22.0500 C   0  0  0  0  0  0  0  0  0  0  0  0
    8.7393   10.8706   24.1871 O   0  0  0  0  0  0  0  0  0  0  0  0
    9.3093    3.8166   21.6712 C   0  0  0  0  0  0  0  0  0  0  0  0
  1  5  1  0
  1 15  4  0
  1 22  4  0
  2 20  1  0
  2 24  1  0
  3  6  4  0
  3 27  4  0
  4 22  4  0
  4 26  4  0
  6  7  4  0
  6 13  1  0
  7 19  4  0
  8 18  1  0
  8 23  1  0
  8 28  2  0
  9 17  1  0
  9 24  1  0
 10 11  1  0
 10 24  1  0
 11 23  1  0
 12 14  4  0
 12 16  4  0
 14 19  4  0
 15 18  4  0
 16 20  4  0
 17 25  1  0
 18 26  4  0
 19 29  4  0
 20 29  4  0
 21 23  1  0
 21 25  1  0
 27 29  4  0
M  END
$$$$

 Created by Python create_sdf_string function

 29 32  0  0  0  0  0  0  0  0999 V2000
    5.4450    8.7154   22.6662 C   0  0  0  0  0  0  0  0  0  0  0  0
   10.9154    5.4574   20.5483 C   0  0  0  0  0  0  0  0  0  0  0  0
    7.2709    4.5089   22.7542 C   0  0  0  0  0  0  0  0  0  0  0  0
    5.9698    7.6329   24.6581 C   0  0  0  0  0  0  0  0  0  0  0  0
    4.5542    8.9057   21.7104 O   0  0  0  0  0  0  0  0  0  0  0  0
    6.9895    3.2085   23.0690 C   0  0  0  0  0  0  0  0  0  0  0  0
    7.8391    2.2253   22.7260 N   0  0  0  0  0  0  0  0  0  0  0  0
    8.6968    9.8373   23.6359 C   0  0  0  0  0  0  0  0  0  0  0  0
   12.5135    6.5957   21.8396 C   0  0  0  0  0  0  0  0  0  0  0  0
   10.9406    8.2330   21.1350 C   0  0  0  0  0  0  0  0  0  0  0  0
    9.6648    8.5956   21.7310 C   0  0  0  0  0  0  0  0  0  0  0  0
   10.8829    1.7153   20.9865 C   0  0  0  0  0  0  0  0  0  0  0  0
    5.7768    2.8533   23.7910 C   0  0  0  0  0  0  0  0  0  0  0  0
    9.7977    1.4791   21.6912 N   0  0  0  0  0  0  0  0  0  0  0  0
    6.5976    9.3401   22.6478 N   0  0  0  0  0  0  0  0  0  0  0  0
   11.2031    3.0042   20.6246 C   0  0  0  0  0  0  0  0  0  0  0  0
   12.8688    7.7370   22.7287 C   0  0  0  0  0  0  0  0  0  0  0  0
    7.4487    9.1361   23.6506 C   0  0  0  0  0  0  0  0  0  0  0  0
    8.9772    2.5025   22.0273 C   0  0  0  0  0  0  0  0  0  0  0  0
   10.4859    4.0901   20.9730 C   0  0  0  0  0  0  0  0  0  0  0  0
   11.0962    9.3293   23.5072 C   0  0  0  0  0  0  0  0  0  0  0  0
    5.1273    7.8529   23.6208 N   0  0  0  0  0  0  0  0  0  0  0  0
    9.7552    9.2338   23.0171 N   0  0  0  0  0  0  0  0  0  0  0  0
   11.1797    6.7591   21.3326 N   0  0  0  0  0  0  0  0  0  0  0  0
   11.7728    8.0337   23.7267 C   0  0  0  0  0  0  0  0  0  0  0  0
    7.1194    8.3344   24.6775 C   0  0  0  0  0  0  0  0  0  0  0  0
    8.4311    4.7963   22.0500 C   0  0  0  0  0  0  0  0  0  0  0  0
    8.7393   10.8706   24.1871 O   0  0  0  0  0  0  0  0  0  0  0  0
    9.3093    3.8166   21.6712 C   0  0  0  0  0  0  0  0  0  0  0  0
  1  5  1  0
  1 15  4  0
  1 22  4  0
  2 20  1  0
  2 24  1  0
  3  6  4  0
  3 27  4  0
  4 22  4  0
  4 26  4  0
  6  7  4  0
  6 13  1  0
  7 19  4  0
  8 18  1  0
  8 23  1  0
  8 28  2  0
  9 17  1  0
  9 24  1  0
 10 11  1  0
 10 24  1  0
 11 23  1  0
 12 14  4  0
 12 16  4  0
 14 19  4  0
 15 18  4  0
 16 20  4  0
 17 25  1  0
 18 26  4  0
 19 29  4  0
 20 29  4  0
 21 23  1  0
 21 25  1  0
 27 29  4  0
M  END
$$$$

 Created by Python create_sdf_string function

 29 32  0  0  0  0  0  0  0  0999 V2000
    5.4450    8.7154   22.6662 C   0  0  0  0  0  0  0  0  0  0  0  0
   10.9154    5.4574   20.5483 C   0  0  0  0  0  0  0  0  0  0  0  0
    7.2709    4.5089   22.7542 C   0  0  0  0  0  0  0  0  0  0  0  0
    5.9698    7.6329   24.6581 C   0  0  0  0  0  0  0  0  0  0  0  0
    4.5542    8.9057   21.7104 O   0  0  0  0  0  0  0  0  0  0  0  0
    6.9895    3.2085   23.0690 C   0  0  0  0  0  0  0  0  0  0  0  0
    7.8391    2.2253   22.7260 N   0  0  0  0  0  0  0  0  0  0  0  0
    8.6968    9.8373   23.6359 C   0  0  0  0  0  0  0  0  0  0  0  0
   12.5135    6.5957   21.8396 C   0  0  0  0  0  0  0  0  0  0  0  0
   10.9406    8.2330   21.1350 C   0  0  0  0  0  0  0  0  0  0  0  0
    9.6648    8.5956   21.7310 C   0  0  0  0  0  0  0  0  0  0  0  0
   10.8829    1.7153   20.9865 C   0  0  0  0  0  0  0  0  0  0  0  0
    5.7768    2.8533   23.7910 C   0  0  0  0  0  0  0  0  0  0  0  0
    9.7977    1.4791   21.6912 N   0  0  0  0  0  0  0  0  0  0  0  0
    6.5976    9.3401   22.6478 N   0  0  0  0  0  0  0  0  0  0  0  0
   11.2031    3.0042   20.6246 C   0  0  0  0  0  0  0  0  0  0  0  0
   12.8688    7.7370   22.7287 C   0  0  0  0  0  0  0  0  0  0  0  0
    7.4487    9.1361   23.6506 C   0  0  0  0  0  0  0  0  0  0  0  0
    8.9772    2.5025   22.0273 C   0  0  0  0  0  0  0  0  0  0  0  0
   10.4859    4.0901   20.9730 C   0  0  0  0  0  0  0  0  0  0  0  0
   11.0962    9.3293   23.5072 C   0  0  0  0  0  0  0  0  0  0  0  0
    5.1273    7.8529   23.6208 N   0  0  0  0  0  0  0  0  0  0  0  0
    9.7552    9.2338   23.0171 N   0  0  0  0  0  0  0  0  0  0  0  0
   11.1797    6.7591   21.3326 N   0  0  0  0  0  0  0  0  0  0  0  0
   11.7728    8.0337   23.7267 C   0  0  0  0  0  0  0  0  0  0  0  0
    7.1194    8.3344   24.6775 C   0  0  0  0  0  0  0  0  0  0  0  0
    8.4311    4.7963   22.0500 C   0  0  0  0  0  0  0  0  0  0  0  0
    8.7393   10.8706   24.1871 O   0  0  0  0  0  0  0  0  0  0  0  0
    9.3093    3.8166   21.6712 C   0  0  0  0  0  0  0  0  0  0  0  0
  1  5  1  0
  1 15  4  0
  1 22  4  0
  2 20  1  0
  2 24  1  0
  3  6  4  0
  3 27  4  0
  4 22  4  0
  4 26  4  0
  6  7  4  0
  6 13  1  0
  7 19  4  0
  8 18  1  0
  8 23  1  0
  8 28  2  0
  9 17  1  0
  9 24  1  0
 10 11  1  0
 10 24  1  0
 11 23  1  0
 12 14  4  0
 12 16  4  0
 14 19  4  0
 15 18  4  0
 16 20  4  0
 17 25  1  0
 18 26  4  0
 19 29  4  0
 20 29  4  0
 21 23  1  0
 21 25  1  0
 27 29  4  0
M  END
$$$$

 Created by Python create_sdf_string function

 29 32  0  0  0  0  0  0  0  0999 V2000
    5.4450    8.7154   22.6662 C   0  0  0  0  0  0  0  0  0  0  0  0
   10.9154    5.4574   20.5483 C   0  0  0  0  0  0  0  0  0  0  0  0
    7.2709    4.5089   22.7542 C   0  0  0  0  0  0  0  0  0  0  0  0
    5.9698    7.6329   24.6581 C   0  0  0  0  0  0  0  0  0  0  0  0
    4.5542    8.9057   21.7104 O   0  0  0  0  0  0  0  0  0  0  0  0
    6.9895    3.2085   23.0690 C   0  0  0  0  0  0  0  0  0  0  0  0
    7.8391    2.2253   22.7260 N   0  0  0  0  0  0  0  0  0  0  0  0
    8.6968    9.8373   23.6359 C   0  0  0  0  0  0  0  0  0  0  0  0
   12.5135    6.5957   21.8396 C   0  0  0  0  0  0  0  0  0  0  0  0
   10.9406    8.2330   21.1350 C   0  0  0  0  0  0  0  0  0  0  0  0
    9.6648    8.5956   21.7310 C   0  0  0  0  0  0  0  0  0  0  0  0
   10.8829    1.7153   20.9865 C   0  0  0  0  0  0  0  0  0  0  0  0
    5.7768    2.8533   23.7910 C   0  0  0  0  0  0  0  0  0  0  0  0
    9.7977    1.4791   21.6912 N   0  0  0  0  0  0  0  0  0  0  0  0
    6.5976    9.3401   22.6478 N   0  0  0  0  0  0  0  0  0  0  0  0
   11.2031    3.0042   20.6246 C   0  0  0  0  0  0  0  0  0  0  0  0
   12.8688    7.7370   22.7287 C   0  0  0  0  0  0  0  0  0  0  0  0
    7.4487    9.1361   23.6506 C   0  0  0  0  0  0  0  0  0  0  0  0
    8.9772    2.5025   22.0273 C   0  0  0  0  0  0  0  0  0  0  0  0
   10.4859    4.0901   20.9730 C   0  0  0  0  0  0  0  0  0  0  0  0
   11.0962    9.3293   23.5072 C   0  0  0  0  0  0  0  0  0  0  0  0
    5.1273    7.8529   23.6208 N   0  0  0  0  0  0  0  0  0  0  0  0
    9.7552    9.2338   23.0171 N   0  0  0  0  0  0  0  0  0  0  0  0
   11.1797    6.7591   21.3326 N   0  0  0  0  0  0  0  0  0  0  0  0
   11.7728    8.0337   23.7267 C   0  0  0  0  0  0  0  0  0  0  0  0
    7.1194    8.3344   24.6775 C   0  0  0  0  0  0  0  0  0  0  0  0
    8.4311    4.7963   22.0500 C   0  0  0  0  0  0  0  0  0  0  0  0
    8.7393   10.8706   24.1871 O   0  0  0  0  0  0  0  0  0  0  0  0
    9.3093    3.8166   21.6712 C   0  0  0  0  0  0  0  0  0  0  0  0
  1  5  1  0
  1 15  4  0
  1 22  4  0
  2 20  1  0
  2 24  1  0
  3  6  4  0
  3 27  4  0
  4 22  4  0
  4 26  4  0
  6  7  4  0
  6 13  1  0
  7 19  4  0
  8 18  1  0
  8 23  1  0
  8 28  2  0
  9 17  1  0
  9 24  1  0
 10 11  1  0
 10 24  1  0
 11 23  1  0
 12 14  4  0
 12 16  4  0
 14 19  4  0
 15 18  4  0
 16 20  4  0
 17 25  1  0
 18 26  4  0
 19 29  4  0
 20 29  4  0
 21 23  1  0
 21 25  1  0
 27 29  4  0
M  END
$$$$

 Created by Python create_sdf_string function

 29 32  0  0  0  0  0  0  0  0999 V2000
    5.4450    8.7154   22.6662 C   0  0  0  0  0  0  0  0  0  0  0  0
   10.9154    5.4574   20.5483 C   0  0  0  0  0  0  0  0  0  0  0  0
    7.2709    4.5089   22.7542 C   0  0  0  0  0  0  0  0  0  0  0  0
    5.9698    7.6329   24.6581 C   0  0  0  0  0  0  0  0  0  0  0  0
    4.5542    8.9057   21.7104 O   0  0  0  0  0  0  0  0  0  0  0  0
    6.9895    3.2085   23.0690 C   0  0  0  0  0  0  0  0  0  0  0  0
    7.8391    2.2253   22.7260 N   0  0  0  0  0  0  0  0  0  0  0  0
    8.6968    9.8373   23.6359 C   0  0  0  0  0  0  0  0  0  0  0  0
   12.5135    6.5957   21.8396 C   0  0  0  0  0  0  0  0  0  0  0  0
   10.9406    8.2330   21.1350 C   0  0  0  0  0  0  0  0  0  0  0  0
    9.6648    8.5956   21.7310 C   0  0  0  0  0  0  0  0  0  0  0  0
   10.8829    1.7153   20.9865 C   0  0  0  0  0  0  0  0  0  0  0  0
    5.7768    2.8533   23.7910 C   0  0  0  0  0  0  0  0  0  0  0  0
    9.7977    1.4791   21.6912 N   0  0  0  0  0  0  0  0  0  0  0  0
    6.5976    9.3401   22.6478 N   0  0  0  0  0  0  0  0  0  0  0  0
   11.2031    3.0042   20.6246 C   0  0  0  0  0  0  0  0  0  0  0  0
   12.8688    7.7370   22.7287 C   0  0  0  0  0  0  0  0  0  0  0  0
    7.4487    9.1361   23.6506 C   0  0  0  0  0  0  0  0  0  0  0  0
    8.9772    2.5025   22.0273 C   0  0  0  0  0  0  0  0  0  0  0  0
   10.4859    4.0901   20.9730 C   0  0  0  0  0  0  0  0  0  0  0  0
   11.0962    9.3293   23.5072 C   0  0  0  0  0  0  0  0  0  0  0  0
    5.1273    7.8529   23.6208 N   0  0  0  0  0  0  0  0  0  0  0  0
    9.7552    9.2338   23.0171 N   0  0  0  0  0  0  0  0  0  0  0  0
   11.1797    6.7591   21.3326 N   0  0  0  0  0  0  0  0  0  0  0  0
   11.7728    8.0337   23.7267 C   0  0  0  0  0  0  0  0  0  0  0  0
    7.1194    8.3344   24.6775 C   0  0  0  0  0  0  0  0  0  0  0  0
    8.4311    4.7963   22.0500 C   0  0  0  0  0  0  0  0  0  0  0  0
    8.7393   10.8706   24.1871 O   0  0  0  0  0  0  0  0  0  0  0  0
    9.3093    3.8166   21.6712 C   0  0  0  0  0  0  0  0  0  0  0  0
  1  5  1  0
  1 15  4  0
  1 22  4  0
  2 20  1  0
  2 24  1  0
  3  6  4  0
  3 27  4  0
  4 22  4  0
  4 26  4  0
  6  7  4  0
  6 13  1  0
  7 19  4  0
  8 18  1  0
  8 23  1  0
  8 28  2  0
  9 17  1  0
  9 24  1  0
 10 11  1  0
 10 24  1  0
 11 23  1  0
 12 14  4  0
 12 16  4  0
 14 19  4  0
 15 18  4  0
 16 20  4  0
 17 25  1  0
 18 26  4  0
 19 29  4  0
 20 29  4  0
 21 23  1  0
 21 25  1  0
 27 29  4  0
M  END
$$$$

 Created by Python create_sdf_string function

 29 32  0  0  0  0  0  0  0  0999 V2000
    5.4450    8.7154   22.6662 C   0  0  0  0  0  0  0  0  0  0  0  0
   10.9154    5.4574   20.5483 C   0  0  0  0  0  0  0  0  0  0  0  0
    7.2709    4.5089   22.7542 C   0  0  0  0  0  0  0  0  0  0  0  0
    5.9698    7.6329   24.6581 C   0  0  0  0  0  0  0  0  0  0  0  0
    4.5542    8.9057   21.7104 O   0  0  0  0  0  0  0  0  0  0  0  0
    6.9895    3.2085   23.0690 C   0  0  0  0  0  0  0  0  0  0  0  0
    7.8391    2.2253   22.7260 N   0  0  0  0  0  0  0  0  0  0  0  0
    8.6968    9.8373   23.6359 C   0  0  0  0  0  0  0  0  0  0  0  0
   12.5135    6.5957   21.8396 C   0  0  0  0  0  0  0  0  0  0  0  0
   10.9406    8.2330   21.1350 C   0  0  0  0  0  0  0  0  0  0  0  0
    9.6648    8.5956   21.7310 C   0  0  0  0  0  0  0  0  0  0  0  0
   10.8829    1.7153   20.9865 C   0  0  0  0  0  0  0  0  0  0  0  0
    5.7768    2.8533   23.7910 C   0  0  0  0  0  0  0  0  0  0  0  0
    9.7977    1.4791   21.6912 N   0  0  0  0  0  0  0  0  0  0  0  0
    6.5976    9.3401   22.6478 N   0  0  0  0  0  0  0  0  0  0  0  0
   11.2031    3.0042   20.6246 C   0  0  0  0  0  0  0  0  0  0  0  0
   12.8688    7.7370   22.7287 C   0  0  0  0  0  0  0  0  0  0  0  0
    7.4487    9.1361   23.6506 C   0  0  0  0  0  0  0  0  0  0  0  0
    8.9772    2.5025   22.0273 C   0  0  0  0  0  0  0  0  0  0  0  0
   10.4859    4.0901   20.9730 C   0  0  0  0  0  0  0  0  0  0  0  0
   11.0962    9.3293   23.5072 C   0  0  0  0  0  0  0  0  0  0  0  0
    5.1273    7.8529   23.6208 N   0  0  0  0  0  0  0  0  0  0  0  0
    9.7552    9.2338   23.0171 N   0  0  0  0  0  0  0  0  0  0  0  0
   11.1797    6.7591   21.3326 N   0  0  0  0  0  0  0  0  0  0  0  0
   11.7728    8.0337   23.7267 C   0  0  0  0  0  0  0  0  0  0  0  0
    7.1194    8.3344   24.6775 C   0  0  0  0  0  0  0  0  0  0  0  0
    8.4311    4.7963   22.0500 C   0  0  0  0  0  0  0  0  0  0  0  0
    8.7393   10.8706   24.1871 O   0  0  0  0  0  0  0  0  0  0  0  0
    9.3093    3.8166   21.6712 C   0  0  0  0  0  0  0  0  0  0  0  0
  1  5  1  0
  1 15  4  0
  1 22  4  0
  2 20  1  0
  2 24  1  0
  3  6  4  0
  3 27  4  0
  4 22  4  0
  4 26  4  0
  6  7  4  0
  6 13  1  0
  7 19  4  0
  8 18  1  0
  8 23  1  0
  8 28  2  0
  9 17  1  0
  9 24  1  0
 10 11  1  0
 10 24  1  0
 11 23  1  0
 12 14  4  0
 12 16  4  0
 14 19  4  0
 15 18  4  0
 16 20  4  0
 17 25  1  0
 18 26  4  0
 19 29  4  0
 20 29  4  0
 21 23  1  0
 21 25  1  0
 27 29  4  0
M  END
$$$$

 Created by Python create_sdf_string function

 29 32  0  0  0  0  0  0  0  0999 V2000
    5.4450    8.7154   22.6662 C   0  0  0  0  0  0  0  0  0  0  0  0
   10.9154    5.4574   20.5483 C   0  0  0  0  0  0  0  0  0  0  0  0
    7.2709    4.5089   22.7542 C   0  0  0  0  0  0  0  0  0  0  0  0
    5.9698    7.6329   24.6581 C   0  0  0  0  0  0  0  0  0  0  0  0
    4.5542    8.9057   21.7104 O   0  0  0  0  0  0  0  0  0  0  0  0
    6.9895    3.2085   23.0690 C   0  0  0  0  0  0  0  0  0  0  0  0
    7.8391    2.2253   22.7260 N   0  0  0  0  0  0  0  0  0  0  0  0
    8.6968    9.8373   23.6359 C   0  0  0  0  0  0  0  0  0  0  0  0
   12.5135    6.5957   21.8396 C   0  0  0  0  0  0  0  0  0  0  0  0
   10.9406    8.2330   21.1350 C   0  0  0  0  0  0  0  0  0  0  0  0
    9.6648    8.5956   21.7310 C   0  0  0  0  0  0  0  0  0  0  0  0
   10.8829    1.7153   20.9865 C   0  0  0  0  0  0  0  0  0  0  0  0
    5.7768    2.8533   23.7910 C   0  0  0  0  0  0  0  0  0  0  0  0
    9.7977    1.4791   21.6912 N   0  0  0  0  0  0  0  0  0  0  0  0
    6.5976    9.3401   22.6478 N   0  0  0  0  0  0  0  0  0  0  0  0
   11.2031    3.0042   20.6246 C   0  0  0  0  0  0  0  0  0  0  0  0
   12.8688    7.7370   22.7287 C   0  0  0  0  0  0  0  0  0  0  0  0
    7.4487    9.1361   23.6506 C   0  0  0  0  0  0  0  0  0  0  0  0
    8.9772    2.5025   22.0273 C   0  0  0  0  0  0  0  0  0  0  0  0
   10.4859    4.0901   20.9730 C   0  0  0  0  0  0  0  0  0  0  0  0
   11.0962    9.3293   23.5072 C   0  0  0  0  0  0  0  0  0  0  0  0
    5.1273    7.8529   23.6208 N   0  0  0  0  0  0  0  0  0  0  0  0
    9.7552    9.2338   23.0171 N   0  0  0  0  0  0  0  0  0  0  0  0
   11.1797    6.7591   21.3326 N   0  0  0  0  0  0  0  0  0  0  0  0
   11.7728    8.0337   23.7267 C   0  0  0  0  0  0  0  0  0  0  0  0
    7.1194    8.3344   24.6775 C   0  0  0  0  0  0  0  0  0  0  0  0
    8.4311    4.7963   22.0500 C   0  0  0  0  0  0  0  0  0  0  0  0
    8.7393   10.8706   24.1871 O   0  0  0  0  0  0  0  0  0  0  0  0
    9.3093    3.8166   21.6712 C   0  0  0  0  0  0  0  0  0  0  0  0
  1  5  1  0
  1 15  4  0
  1 22  4  0
  2 20  1  0
  2 24  1  0
  3  6  4  0
  3 27  4  0
  4 22  4  0
  4 26  4  0
  6  7  4  0
  6 13  1  0
  7 19  4  0
  8 18  1  0
  8 23  1  0
  8 28  2  0
  9 17  1  0
  9 24  1  0
 10 11  1  0
 10 24  1  0
 11 23  1  0
 12 14  4  0
 12 16  4  0
 14 19  4  0
 15 18  4  0
 16 20  4  0
 17 25  1  0
 18 26  4  0
 19 29  4  0
 20 29  4  0
 21 23  1  0
 21 25  1  0
 27 29  4  0
M  END
$$$$

 Created by Python create_sdf_string function

 29 32  0  0  0  0  0  0  0  0999 V2000
    5.4450    8.7154   22.6662 C   0  0  0  0  0  0  0  0  0  0  0  0
   10.9154    5.4574   20.5483 C   0  0  0  0  0  0  0  0  0  0  0  0
    7.2709    4.5089   22.7542 C   0  0  0  0  0  0  0  0  0  0  0  0
    5.9698    7.6329   24.6581 C   0  0  0  0  0  0  0  0  0  0  0  0
    4.5542    8.9057   21.7104 O   0  0  0  0  0  0  0  0  0  0  0  0
    6.9895    3.2085   23.0690 C   0  0  0  0  0  0  0  0  0  0  0  0
    7.8391    2.2253   22.7260 N   0  0  0  0  0  0  0  0  0  0  0  0
    8.6968    9.8373   23.6359 C   0  0  0  0  0  0  0  0  0  0  0  0
   12.5135    6.5957   21.8396 C   0  0  0  0  0  0  0  0  0  0  0  0
   10.9406    8.2330   21.1350 C   0  0  0  0  0  0  0  0  0  0  0  0
    9.6648    8.5956   21.7310 C   0  0  0  0  0  0  0  0  0  0  0  0
   10.8829    1.7153   20.9865 C   0  0  0  0  0  0  0  0  0  0  0  0
    5.7768    2.8533   23.7910 C   0  0  0  0  0  0  0  0  0  0  0  0
    9.7977    1.4791   21.6912 N   0  0  0  0  0  0  0  0  0  0  0  0
    6.5976    9.3401   22.6478 N   0  0  0  0  0  0  0  0  0  0  0  0
   11.2031    3.0042   20.6246 C   0  0  0  0  0  0  0  0  0  0  0  0
   12.8688    7.7370   22.7287 C   0  0  0  0  0  0  0  0  0  0  0  0
    7.4487    9.1361   23.6506 C   0  0  0  0  0  0  0  0  0  0  0  0
    8.9772    2.5025   22.0273 C   0  0  0  0  0  0  0  0  0  0  0  0
   10.4859    4.0901   20.9730 C   0  0  0  0  0  0  0  0  0  0  0  0
   11.0962    9.3293   23.5072 C   0  0  0  0  0  0  0  0  0  0  0  0
    5.1273    7.8529   23.6208 N   0  0  0  0  0  0  0  0  0  0  0  0
    9.7552    9.2338   23.0171 N   0  0  0  0  0  0  0  0  0  0  0  0
   11.1797    6.7591   21.3326 N   0  0  0  0  0  0  0  0  0  0  0  0
   11.7728    8.0337   23.7267 C   0  0  0  0  0  0  0  0  0  0  0  0
    7.1194    8.3344   24.6775 C   0  0  0  0  0  0  0  0  0  0  0  0
    8.4311    4.7963   22.0500 C   0  0  0  0  0  0  0  0  0  0  0  0
    8.7393   10.8706   24.1871 O   0  0  0  0  0  0  0  0  0  0  0  0
    9.3093    3.8166   21.6712 C   0  0  0  0  0  0  0  0  0  0  0  0
  1  5  1  0
  1 15  4  0
  1 22  4  0
  2 20  1  0
  2 24  1  0
  3  6  4  0
  3 27  4  0
  4 22  4  0
  4 26  4  0
  6  7  4  0
  6 13  1  0
  7 19  4  0
  8 18  1  0
  8 23  1  0
  8 28  2  0
  9 17  1  0
  9 24  1  0
 10 11  1  0
 10 24  1  0
 11 23  1  0
 12 14  4  0
 12 16  4  0
 14 19  4  0
 15 18  4  0
 16 20  4  0
 17 25  1  0
 18 26  4  0
 19 29  4  0
 20 29  4  0
 21 23  1  0
 21 25  1  0
 27 29  4  0
M  END
$$$$

 Created by Python create_sdf_string function

 29 32  0  0  0  0  0  0  0  0999 V2000
    5.4450    8.7154   22.6662 C   0  0  0  0  0  0  0  0  0  0  0  0
   10.9154    5.4574   20.5483 C   0  0  0  0  0  0  0  0  0  0  0  0
    7.2709    4.5089   22.7542 C   0  0  0  0  0  0  0  0  0  0  0  0
    5.9698    7.6329   24.6581 C   0  0  0  0  0  0  0  0  0  0  0  0
    4.5542    8.9057   21.7104 O   0  0  0  0  0  0  0  0  0  0  0  0
    6.9895    3.2085   23.0690 C   0  0  0  0  0  0  0  0  0  0  0  0
    7.8391    2.2253   22.7260 N   0  0  0  0  0  0  0  0  0  0  0  0
    8.6968    9.8373   23.6359 C   0  0  0  0  0  0  0  0  0  0  0  0
   12.5135    6.5957   21.8396 C   0  0  0  0  0  0  0  0  0  0  0  0
   10.9406    8.2330   21.1350 C   0  0  0  0  0  0  0  0  0  0  0  0
    9.6648    8.5956   21.7310 C   0  0  0  0  0  0  0  0  0  0  0  0
   10.8829    1.7153   20.9865 C   0  0  0  0  0  0  0  0  0  0  0  0
    5.7768    2.8533   23.7910 C   0  0  0  0  0  0  0  0  0  0  0  0
    9.7977    1.4791   21.6912 N   0  0  0  0  0  0  0  0  0  0  0  0
    6.5976    9.3401   22.6478 N   0  0  0  0  0  0  0  0  0  0  0  0
   11.2031    3.0042   20.6246 C   0  0  0  0  0  0  0  0  0  0  0  0
   12.8688    7.7370   22.7287 C   0  0  0  0  0  0  0  0  0  0  0  0
    7.4487    9.1361   23.6506 C   0  0  0  0  0  0  0  0  0  0  0  0
    8.9772    2.5025   22.0273 C   0  0  0  0  0  0  0  0  0  0  0  0
   10.4859    4.0901   20.9730 C   0  0  0  0  0  0  0  0  0  0  0  0
   11.0962    9.3293   23.5072 C   0  0  0  0  0  0  0  0  0  0  0  0
    5.1273    7.8529   23.6208 N   0  0  0  0  0  0  0  0  0  0  0  0
    9.7552    9.2338   23.0171 N   0  0  0  0  0  0  0  0  0  0  0  0
   11.1797    6.7591   21.3326 N   0  0  0  0  0  0  0  0  0  0  0  0
   11.7728    8.0337   23.7267 C   0  0  0  0  0  0  0  0  0  0  0  0
    7.1194    8.3344   24.6775 C   0  0  0  0  0  0  0  0  0  0  0  0
    8.4311    4.7963   22.0500 C   0  0  0  0  0  0  0  0  0  0  0  0
    8.7393   10.8706   24.1871 O   0  0  0  0  0  0  0  0  0  0  0  0
    9.3093    3.8166   21.6712 C   0  0  0  0  0  0  0  0  0  0  0  0
  1  5  1  0
  1 15  4  0
  1 22  4  0
  2 20  1  0
  2 24  1  0
  3  6  4  0
  3 27  4  0
  4 22  4  0
  4 26  4  0
  6  7  4  0
  6 13  1  0
  7 19  4  0
  8 18  1  0
  8 23  1  0
  8 28  2  0
  9 17  1  0
  9 24  1  0
 10 11  1  0
 10 24  1  0
 11 23  1  0
 12 14  4  0
 12 16  4  0
 14 19  4  0
 15 18  4  0
 16 20  4  0
 17 25  1  0
 18 26  4  0
 19 29  4  0
 20 29  4  0
 21 23  1  0
 21 25  1  0
 27 29  4  0
M  END
$$$$

 Created by Python create_sdf_string function

 29 32  0  0  0  0  0  0  0  0999 V2000
    5.4450    8.7154   22.6662 C   0  0  0  0  0  0  0  0  0  0  0  0
   10.9154    5.4574   20.5483 C   0  0  0  0  0  0  0  0  0  0  0  0
    7.2709    4.5089   22.7542 C   0  0  0  0  0  0  0  0  0  0  0  0
    5.9698    7.6329   24.6581 C   0  0  0  0  0  0  0  0  0  0  0  0
    4.5542    8.9057   21.7104 O   0  0  0  0  0  0  0  0  0  0  0  0
    6.9895    3.2085   23.0690 C   0  0  0  0  0  0  0  0  0  0  0  0
    7.8391    2.2253   22.7260 N   0  0  0  0  0  0  0  0  0  0  0  0
    8.6968    9.8373   23.6359 C   0  0  0  0  0  0  0  0  0  0  0  0
   12.5135    6.5957   21.8396 C   0  0  0  0  0  0  0  0  0  0  0  0
   10.9406    8.2330   21.1350 C   0  0  0  0  0  0  0  0  0  0  0  0
    9.6648    8.5956   21.7310 C   0  0  0  0  0  0  0  0  0  0  0  0
   10.8829    1.7153   20.9865 C   0  0  0  0  0  0  0  0  0  0  0  0
    5.7768    2.8533   23.7910 C   0  0  0  0  0  0  0  0  0  0  0  0
    9.7977    1.4791   21.6912 N   0  0  0  0  0  0  0  0  0  0  0  0
    6.5976    9.3401   22.6478 N   0  0  0  0  0  0  0  0  0  0  0  0
   11.2031    3.0042   20.6246 C   0  0  0  0  0  0  0  0  0  0  0  0
   12.8688    7.7370   22.7287 C   0  0  0  0  0  0  0  0  0  0  0  0
    7.4487    9.1361   23.6506 C   0  0  0  0  0  0  0  0  0  0  0  0
    8.9772    2.5025   22.0273 C   0  0  0  0  0  0  0  0  0  0  0  0
   10.4859    4.0901   20.9730 C   0  0  0  0  0  0  0  0  0  0  0  0
   11.0962    9.3293   23.5072 C   0  0  0  0  0  0  0  0  0  0  0  0
    5.1273    7.8529   23.6208 N   0  0  0  0  0  0  0  0  0  0  0  0
    9.7552    9.2338   23.0171 N   0  0  0  0  0  0  0  0  0  0  0  0
   11.1797    6.7591   21.3326 N   0  0  0  0  0  0  0  0  0  0  0  0
   11.7728    8.0337   23.7267 C   0  0  0  0  0  0  0  0  0  0  0  0
    7.1194    8.3344   24.6775 C   0  0  0  0  0  0  0  0  0  0  0  0
    8.4311    4.7963   22.0500 C   0  0  0  0  0  0  0  0  0  0  0  0
    8.7393   10.8706   24.1871 O   0  0  0  0  0  0  0  0  0  0  0  0
    9.3093    3.8166   21.6712 C   0  0  0  0  0  0  0  0  0  0  0  0
  1  5  1  0
  1 15  4  0
  1 22  4  0
  2 20  1  0
  2 24  1  0
  3  6  4  0
  3 27  4  0
  4 22  4  0
  4 26  4  0
  6  7  4  0
  6 13  1  0
  7 19  4  0
  8 18  1  0
  8 23  1  0
  8 28  2  0
  9 17  1  0
  9 24  1  0
 10 11  1  0
 10 24  1  0
 11 23  1  0
 12 14  4  0
 12 16  4  0
 14 19  4  0
 15 18  4  0
 16 20  4  0
 17 25  1  0
 18 26  4  0
 19 29  4  0
 20 29  4  0
 21 23  1  0
 21 25  1  0
 27 29  4  0
M  END
$$$$

 Created by Python create_sdf_string function

 29 32  0  0  0  0  0  0  0  0999 V2000
    5.4450    8.7154   22.6662 C   0  0  0  0  0  0  0  0  0  0  0  0
   10.9154    5.4574   20.5483 C   0  0  0  0  0  0  0  0  0  0  0  0
    7.2709    4.5089   22.7542 C   0  0  0  0  0  0  0  0  0  0  0  0
    5.9698    7.6329   24.6581 C   0  0  0  0  0  0  0  0  0  0  0  0
    4.5542    8.9057   21.7104 O   0  0  0  0  0  0  0  0  0  0  0  0
    6.9895    3.2085   23.0690 C   0  0  0  0  0  0  0  0  0  0  0  0
    7.8391    2.2253   22.7260 N   0  0  0  0  0  0  0  0  0  0  0  0
    8.6968    9.8373   23.6359 C   0  0  0  0  0  0  0  0  0  0  0  0
   12.5135    6.5957   21.8396 C   0  0  0  0  0  0  0  0  0  0  0  0
   10.9406    8.2330   21.1350 C   0  0  0  0  0  0  0  0  0  0  0  0
    9.6648    8.5956   21.7310 C   0  0  0  0  0  0  0  0  0  0  0  0
   10.8829    1.7153   20.9865 C   0  0  0  0  0  0  0  0  0  0  0  0
    5.7768    2.8533   23.7910 C   0  0  0  0  0  0  0  0  0  0  0  0
    9.7977    1.4791   21.6912 N   0  0  0  0  0  0  0  0  0  0  0  0
    6.5976    9.3401   22.6478 N   0  0  0  0  0  0  0  0  0  0  0  0
   11.2031    3.0042   20.6246 C   0  0  0  0  0  0  0  0  0  0  0  0
   12.8688    7.7370   22.7287 C   0  0  0  0  0  0  0  0  0  0  0  0
    7.4487    9.1361   23.6506 C   0  0  0  0  0  0  0  0  0  0  0  0
    8.9772    2.5025   22.0273 C   0  0  0  0  0  0  0  0  0  0  0  0
   10.4859    4.0901   20.9730 C   0  0  0  0  0  0  0  0  0  0  0  0
   11.0962    9.3293   23.5072 C   0  0  0  0  0  0  0  0  0  0  0  0
    5.1273    7.8529   23.6208 N   0  0  0  0  0  0  0  0  0  0  0  0
    9.7552    9.2338   23.0171 N   0  0  0  0  0  0  0  0  0  0  0  0
   11.1797    6.7591   21.3326 N   0  0  0  0  0  0  0  0  0  0  0  0
   11.7728    8.0337   23.7267 C   0  0  0  0  0  0  0  0  0  0  0  0
    7.1194    8.3344   24.6775 C   0  0  0  0  0  0  0  0  0  0  0  0
    8.4311    4.7963   22.0500 C   0  0  0  0  0  0  0  0  0  0  0  0
    8.7393   10.8706   24.1871 O   0  0  0  0  0  0  0  0  0  0  0  0
    9.3093    3.8166   21.6712 C   0  0  0  0  0  0  0  0  0  0  0  0
  1  5  1  0
  1 15  4  0
  1 22  4  0
  2 20  1  0
  2 24  1  0
  3  6  4  0
  3 27  4  0
  4 22  4  0
  4 26  4  0
  6  7  4  0
  6 13  1  0
  7 19  4  0
  8 18  1  0
  8 23  1  0
  8 28  2  0
  9 17  1  0
  9 24  1  0
 10 11  1  0
 10 24  1  0
 11 23  1  0
 12 14  4  0
 12 16  4  0
 14 19  4  0
 15 18  4  0
 16 20  4  0
 17 25  1  0
 18 26  4  0
 19 29  4  0
 20 29  4  0
 21 23  1  0
 21 25  1  0
 27 29  4  0
M  END
$$$$

 Created by Python create_sdf_string function

 29 32  0  0  0  0  0  0  0  0999 V2000
    5.4450    8.7154   22.6662 C   0  0  0  0  0  0  0  0  0  0  0  0
   10.9154    5.4574   20.5483 C   0  0  0  0  0  0  0  0  0  0  0  0
    7.2709    4.5089   22.7542 C   0  0  0  0  0  0  0  0  0  0  0  0
    5.9698    7.6329   24.6581 C   0  0  0  0  0  0  0  0  0  0  0  0
    4.5542    8.9057   21.7104 O   0  0  0  0  0  0  0  0  0  0  0  0
    6.9895    3.2085   23.0690 C   0  0  0  0  0  0  0  0  0  0  0  0
    7.8391    2.2253   22.7260 N   0  0  0  0  0  0  0  0  0  0  0  0
    8.6968    9.8373   23.6359 C   0  0  0  0  0  0  0  0  0  0  0  0
   12.5135    6.5957   21.8396 C   0  0  0  0  0  0  0  0  0  0  0  0
   10.9406    8.2330   21.1350 C   0  0  0  0  0  0  0  0  0  0  0  0
    9.6648    8.5956   21.7310 C   0  0  0  0  0  0  0  0  0  0  0  0
   10.8829    1.7153   20.9865 C   0  0  0  0  0  0  0  0  0  0  0  0
    5.7768    2.8533   23.7910 C   0  0  0  0  0  0  0  0  0  0  0  0
    9.7977    1.4791   21.6912 N   0  0  0  0  0  0  0  0  0  0  0  0
    6.5976    9.3401   22.6478 N   0  0  0  0  0  0  0  0  0  0  0  0
   11.2031    3.0042   20.6246 C   0  0  0  0  0  0  0  0  0  0  0  0
   12.8688    7.7370   22.7287 C   0  0  0  0  0  0  0  0  0  0  0  0
    7.4487    9.1361   23.6506 C   0  0  0  0  0  0  0  0  0  0  0  0
    8.9772    2.5025   22.0273 C   0  0  0  0  0  0  0  0  0  0  0  0
   10.4859    4.0901   20.9730 C   0  0  0  0  0  0  0  0  0  0  0  0
   11.0962    9.3293   23.5072 C   0  0  0  0  0  0  0  0  0  0  0  0
    5.1273    7.8529   23.6208 N   0  0  0  0  0  0  0  0  0  0  0  0
    9.7552    9.2338   23.0171 N   0  0  0  0  0  0  0  0  0  0  0  0
   11.1797    6.7591   21.3326 N   0  0  0  0  0  0  0  0  0  0  0  0
   11.7728    8.0337   23.7267 C   0  0  0  0  0  0  0  0  0  0  0  0
    7.1194    8.3344   24.6775 C   0  0  0  0  0  0  0  0  0  0  0  0
    8.4311    4.7963   22.0500 C   0  0  0  0  0  0  0  0  0  0  0  0
    8.7393   10.8706   24.1871 O   0  0  0  0  0  0  0  0  0  0  0  0
    9.3093    3.8166   21.6712 C   0  0  0  0  0  0  0  0  0  0  0  0
  1  5  1  0
  1 15  4  0
  1 22  4  0
  2 20  1  0
  2 24  1  0
  3  6  4  0
  3 27  4  0
  4 22  4  0
  4 26  4  0
  6  7  4  0
  6 13  1  0
  7 19  4  0
  8 18  1  0
  8 23  1  0
  8 28  2  0
  9 17  1  0
  9 24  1  0
 10 11  1  0
 10 24  1  0
 11 23  1  0
 12 14  4  0
 12 16  4  0
 14 19  4  0
 15 18  4  0
 16 20  4  0
 17 25  1  0
 18 26  4  0
 19 29  4  0
 20 29  4  0
 21 23  1  0
 21 25  1  0
 27 29  4  0
M  END
$$$$

 Created by Python create_sdf_string function

 29 32  0  0  0  0  0  0  0  0999 V2000
    5.4450    8.7154   22.6662 C   0  0  0  0  0  0  0  0  0  0  0  0
   10.9154    5.4574   20.5483 C   0  0  0  0  0  0  0  0  0  0  0  0
    7.2709    4.5089   22.7542 C   0  0  0  0  0  0  0  0  0  0  0  0
    5.9698    7.6329   24.6581 C   0  0  0  0  0  0  0  0  0  0  0  0
    4.5542    8.9057   21.7104 O   0  0  0  0  0  0  0  0  0  0  0  0
    6.9895    3.2085   23.0690 C   0  0  0  0  0  0  0  0  0  0  0  0
    7.8391    2.2253   22.7260 N   0  0  0  0  0  0  0  0  0  0  0  0
    8.6968    9.8373   23.6359 C   0  0  0  0  0  0  0  0  0  0  0  0
   12.5135    6.5957   21.8396 C   0  0  0  0  0  0  0  0  0  0  0  0
   10.9406    8.2330   21.1350 C   0  0  0  0  0  0  0  0  0  0  0  0
    9.6648    8.5956   21.7310 C   0  0  0  0  0  0  0  0  0  0  0  0
   10.8829    1.7153   20.9865 C   0  0  0  0  0  0  0  0  0  0  0  0
    5.7768    2.8533   23.7910 C   0  0  0  0  0  0  0  0  0  0  0  0
    9.7977    1.4791   21.6912 N   0  0  0  0  0  0  0  0  0  0  0  0
    6.5976    9.3401   22.6478 N   0  0  0  0  0  0  0  0  0  0  0  0
   11.2031    3.0042   20.6246 C   0  0  0  0  0  0  0  0  0  0  0  0
   12.8688    7.7370   22.7287 C   0  0  0  0  0  0  0  0  0  0  0  0
    7.4487    9.1361   23.6506 C   0  0  0  0  0  0  0  0  0  0  0  0
    8.9772    2.5025   22.0273 C   0  0  0  0  0  0  0  0  0  0  0  0
   10.4859    4.0901   20.9730 C   0  0  0  0  0  0  0  0  0  0  0  0
   11.0962    9.3293   23.5072 C   0  0  0  0  0  0  0  0  0  0  0  0
    5.1273    7.8529   23.6208 N   0  0  0  0  0  0  0  0  0  0  0  0
    9.7552    9.2338   23.0171 N   0  0  0  0  0  0  0  0  0  0  0  0
   11.1797    6.7591   21.3326 N   0  0  0  0  0  0  0  0  0  0  0  0
   11.7728    8.0337   23.7267 C   0  0  0  0  0  0  0  0  0  0  0  0
    7.1194    8.3344   24.6775 C   0  0  0  0  0  0  0  0  0  0  0  0
    8.4311    4.7963   22.0500 C   0  0  0  0  0  0  0  0  0  0  0  0
    8.7393   10.8706   24.1871 O   0  0  0  0  0  0  0  0  0  0  0  0
    9.3093    3.8166   21.6712 C   0  0  0  0  0  0  0  0  0  0  0  0
  1  5  1  0
  1 15  4  0
  1 22  4  0
  2 20  1  0
  2 24  1  0
  3  6  4  0
  3 27  4  0
  4 22  4  0
  4 26  4  0
  6  7  4  0
  6 13  1  0
  7 19  4  0
  8 18  1  0
  8 23  1  0
  8 28  2  0
  9 17  1  0
  9 24  1  0
 10 11  1  0
 10 24  1  0
 11 23  1  0
 12 14  4  0
 12 16  4  0
 14 19  4  0
 15 18  4  0
 16 20  4  0
 17 25  1  0
 18 26  4  0
 19 29  4  0
 20 29  4  0
 21 23  1  0
 21 25  1  0
 27 29  4  0
M  END
$$$$

 Created by Python create_sdf_string function

 29 32  0  0  0  0  0  0  0  0999 V2000
    5.4450    8.7154   22.6662 C   0  0  0  0  0  0  0  0  0  0  0  0
   10.9154    5.4574   20.5483 C   0  0  0  0  0  0  0  0  0  0  0  0
    7.2709    4.5089   22.7542 C   0  0  0  0  0  0  0  0  0  0  0  0
    5.9698    7.6329   24.6581 C   0  0  0  0  0  0  0  0  0  0  0  0
    4.5542    8.9057   21.7104 O   0  0  0  0  0  0  0  0  0  0  0  0
    6.9895    3.2085   23.0690 C   0  0  0  0  0  0  0  0  0  0  0  0
    7.8391    2.2253   22.7260 N   0  0  0  0  0  0  0  0  0  0  0  0
    8.6968    9.8373   23.6359 C   0  0  0  0  0  0  0  0  0  0  0  0
   12.5135    6.5957   21.8396 C   0  0  0  0  0  0  0  0  0  0  0  0
   10.9406    8.2330   21.1350 C   0  0  0  0  0  0  0  0  0  0  0  0
    9.6648    8.5956   21.7310 C   0  0  0  0  0  0  0  0  0  0  0  0
   10.8829    1.7153   20.9865 C   0  0  0  0  0  0  0  0  0  0  0  0
    5.7768    2.8533   23.7910 C   0  0  0  0  0  0  0  0  0  0  0  0
    9.7977    1.4791   21.6912 N   0  0  0  0  0  0  0  0  0  0  0  0
    6.5976    9.3401   22.6478 N   0  0  0  0  0  0  0  0  0  0  0  0
   11.2031    3.0042   20.6246 C   0  0  0  0  0  0  0  0  0  0  0  0
   12.8688    7.7370   22.7287 C   0  0  0  0  0  0  0  0  0  0  0  0
    7.4487    9.1361   23.6506 C   0  0  0  0  0  0  0  0  0  0  0  0
    8.9772    2.5025   22.0273 C   0  0  0  0  0  0  0  0  0  0  0  0
   10.4859    4.0901   20.9730 C   0  0  0  0  0  0  0  0  0  0  0  0
   11.0962    9.3293   23.5072 C   0  0  0  0  0  0  0  0  0  0  0  0
    5.1273    7.8529   23.6208 N   0  0  0  0  0  0  0  0  0  0  0  0
    9.7552    9.2338   23.0171 N   0  0  0  0  0  0  0  0  0  0  0  0
   11.1797    6.7591   21.3326 N   0  0  0  0  0  0  0  0  0  0  0  0
   11.7728    8.0337   23.7267 C   0  0  0  0  0  0  0  0  0  0  0  0
    7.1194    8.3344   24.6775 C   0  0  0  0  0  0  0  0  0  0  0  0
    8.4311    4.7963   22.0500 C   0  0  0  0  0  0  0  0  0  0  0  0
    8.7393   10.8706   24.1871 O   0  0  0  0  0  0  0  0  0  0  0  0
    9.3093    3.8166   21.6712 C   0  0  0  0  0  0  0  0  0  0  0  0
  1  5  1  0
  1 15  4  0
  1 22  4  0
  2 20  1  0
  2 24  1  0
  3  6  4  0
  3 27  4  0
  4 22  4  0
  4 26  4  0
  6  7  4  0
  6 13  1  0
  7 19  4  0
  8 18  1  0
  8 23  1  0
  8 28  2  0
  9 17  1  0
  9 24  1  0
 10 11  1  0
 10 24  1  0
 11 23  1  0
 12 14  4  0
 12 16  4  0
 14 19  4  0
 15 18  4  0
 16 20  4  0
 17 25  1  0
 18 26  4  0
 19 29  4  0
 20 29  4  0
 21 23  1  0
 21 25  1  0
 27 29  4  0
M  END
$$$$

 Created by Python create_sdf_string function

 29 32  0  0  0  0  0  0  0  0999 V2000
    5.4450    8.7154   22.6662 C   0  0  0  0  0  0  0  0  0  0  0  0
   10.9154    5.4574   20.5483 C   0  0  0  0  0  0  0  0  0  0  0  0
    7.2709    4.5089   22.7542 C   0  0  0  0  0  0  0  0  0  0  0  0
    5.9698    7.6329   24.6581 C   0  0  0  0  0  0  0  0  0  0  0  0
    4.5542    8.9057   21.7104 O   0  0  0  0  0  0  0  0  0  0  0  0
    6.9895    3.2085   23.0690 C   0  0  0  0  0  0  0  0  0  0  0  0
    7.8391    2.2253   22.7260 N   0  0  0  0  0  0  0  0  0  0  0  0
    8.6968    9.8373   23.6359 C   0  0  0  0  0  0  0  0  0  0  0  0
   12.5135    6.5957   21.8396 C   0  0  0  0  0  0  0  0  0  0  0  0
   10.9406    8.2330   21.1350 C   0  0  0  0  0  0  0  0  0  0  0  0
    9.6648    8.5956   21.7310 C   0  0  0  0  0  0  0  0  0  0  0  0
   10.8829    1.7153   20.9865 C   0  0  0  0  0  0  0  0  0  0  0  0
    5.7768    2.8533   23.7910 C   0  0  0  0  0  0  0  0  0  0  0  0
    9.7977    1.4791   21.6912 N   0  0  0  0  0  0  0  0  0  0  0  0
    6.5976    9.3401   22.6478 N   0  0  0  0  0  0  0  0  0  0  0  0
   11.2031    3.0042   20.6246 C   0  0  0  0  0  0  0  0  0  0  0  0
   12.8688    7.7370   22.7287 C   0  0  0  0  0  0  0  0  0  0  0  0
    7.4487    9.1361   23.6506 C   0  0  0  0  0  0  0  0  0  0  0  0
    8.9772    2.5025   22.0273 C   0  0  0  0  0  0  0  0  0  0  0  0
   10.4859    4.0901   20.9730 C   0  0  0  0  0  0  0  0  0  0  0  0
   11.0962    9.3293   23.5072 C   0  0  0  0  0  0  0  0  0  0  0  0
    5.1273    7.8529   23.6208 N   0  0  0  0  0  0  0  0  0  0  0  0
    9.7552    9.2338   23.0171 N   0  0  0  0  0  0  0  0  0  0  0  0
   11.1797    6.7591   21.3326 N   0  0  0  0  0  0  0  0  0  0  0  0
   11.7728    8.0337   23.7267 C   0  0  0  0  0  0  0  0  0  0  0  0
    7.1194    8.3344   24.6775 C   0  0  0  0  0  0  0  0  0  0  0  0
    8.4311    4.7963   22.0500 C   0  0  0  0  0  0  0  0  0  0  0  0
    8.7393   10.8706   24.1871 O   0  0  0  0  0  0  0  0  0  0  0  0
    9.3093    3.8166   21.6712 C   0  0  0  0  0  0  0  0  0  0  0  0
  1  5  1  0
  1 15  4  0
  1 22  4  0
  2 20  1  0
  2 24  1  0
  3  6  4  0
  3 27  4  0
  4 22  4  0
  4 26  4  0
  6  7  4  0
  6 13  1  0
  7 19  4  0
  8 18  1  0
  8 23  1  0
  8 28  2  0
  9 17  1  0
  9 24  1  0
 10 11  1  0
 10 24  1  0
 11 23  1  0
 12 14  4  0
 12 16  4  0
 14 19  4  0
 15 18  4  0
 16 20  4  0
 17 25  1  0
 18 26  4  0
 19 29  4  0
 20 29  4  0
 21 23  1  0
 21 25  1  0
 27 29  4  0
M  END
$$$$

 Created by Python create_sdf_string function

 29 32  0  0  0  0  0  0  0  0999 V2000
    5.4450    8.7154   22.6662 C   0  0  0  0  0  0  0  0  0  0  0  0
   10.9154    5.4574   20.5483 C   0  0  0  0  0  0  0  0  0  0  0  0
    7.2709    4.5089   22.7542 C   0  0  0  0  0  0  0  0  0  0  0  0
    5.9698    7.6329   24.6581 C   0  0  0  0  0  0  0  0  0  0  0  0
    4.5542    8.9057   21.7104 O   0  0  0  0  0  0  0  0  0  0  0  0
    6.9895    3.2085   23.0690 C   0  0  0  0  0  0  0  0  0  0  0  0
    7.8391    2.2253   22.7260 N   0  0  0  0  0  0  0  0  0  0  0  0
    8.6968    9.8373   23.6359 C   0  0  0  0  0  0  0  0  0  0  0  0
   12.5135    6.5957   21.8396 C   0  0  0  0  0  0  0  0  0  0  0  0
   10.9406    8.2330   21.1350 C   0  0  0  0  0  0  0  0  0  0  0  0
    9.6648    8.5956   21.7310 C   0  0  0  0  0  0  0  0  0  0  0  0
   10.8829    1.7153   20.9865 C   0  0  0  0  0  0  0  0  0  0  0  0
    5.7768    2.8533   23.7910 C   0  0  0  0  0  0  0  0  0  0  0  0
    9.7977    1.4791   21.6912 N   0  0  0  0  0  0  0  0  0  0  0  0
    6.5976    9.3401   22.6478 N   0  0  0  0  0  0  0  0  0  0  0  0
   11.2031    3.0042   20.6246 C   0  0  0  0  0  0  0  0  0  0  0  0
   12.8688    7.7370   22.7287 C   0  0  0  0  0  0  0  0  0  0  0  0
    7.4487    9.1361   23.6506 C   0  0  0  0  0  0  0  0  0  0  0  0
    8.9772    2.5025   22.0273 C   0  0  0  0  0  0  0  0  0  0  0  0
   10.4859    4.0901   20.9730 C   0  0  0  0  0  0  0  0  0  0  0  0
   11.0962    9.3293   23.5072 C   0  0  0  0  0  0  0  0  0  0  0  0
    5.1273    7.8529   23.6208 N   0  0  0  0  0  0  0  0  0  0  0  0
    9.7552    9.2338   23.0171 N   0  0  0  0  0  0  0  0  0  0  0  0
   11.1797    6.7591   21.3326 N   0  0  0  0  0  0  0  0  0  0  0  0
   11.7728    8.0337   23.7267 C   0  0  0  0  0  0  0  0  0  0  0  0
    7.1194    8.3344   24.6775 C   0  0  0  0  0  0  0  0  0  0  0  0
    8.4311    4.7963   22.0500 C   0  0  0  0  0  0  0  0  0  0  0  0
    8.7393   10.8706   24.1871 O   0  0  0  0  0  0  0  0  0  0  0  0
    9.3093    3.8166   21.6712 C   0  0  0  0  0  0  0  0  0  0  0  0
  1  5  1  0
  1 15  4  0
  1 22  4  0
  2 20  1  0
  2 24  1  0
  3  6  4  0
  3 27  4  0
  4 22  4  0
  4 26  4  0
  6  7  4  0
  6 13  1  0
  7 19  4  0
  8 18  1  0
  8 23  1  0
  8 28  2  0
  9 17  1  0
  9 24  1  0
 10 11  1  0
 10 24  1  0
 11 23  1  0
 12 14  4  0
 12 16  4  0
 14 19  4  0
 15 18  4  0
 16 20  4  0
 17 25  1  0
 18 26  4  0
 19 29  4  0
 20 29  4  0
 21 23  1  0
 21 25  1  0
 27 29  4  0
M  END
$$$$

 Created by Python create_sdf_string function

 29 32  0  0  0  0  0  0  0  0999 V2000
    5.4450    8.7154   22.6662 C   0  0  0  0  0  0  0  0  0  0  0  0
   10.9154    5.4574   20.5483 C   0  0  0  0  0  0  0  0  0  0  0  0
    7.2709    4.5089   22.7542 C   0  0  0  0  0  0  0  0  0  0  0  0
    5.9698    7.6329   24.6581 C   0  0  0  0  0  0  0  0  0  0  0  0
    4.5542    8.9057   21.7104 O   0  0  0  0  0  0  0  0  0  0  0  0
    6.9895    3.2085   23.0690 C   0  0  0  0  0  0  0  0  0  0  0  0
    7.8391    2.2253   22.7260 N   0  0  0  0  0  0  0  0  0  0  0  0
    8.6968    9.8373   23.6359 C   0  0  0  0  0  0  0  0  0  0  0  0
   12.5135    6.5957   21.8396 C   0  0  0  0  0  0  0  0  0  0  0  0
   10.9406    8.2330   21.1350 C   0  0  0  0  0  0  0  0  0  0  0  0
    9.6648    8.5956   21.7310 C   0  0  0  0  0  0  0  0  0  0  0  0
   10.8829    1.7153   20.9865 C   0  0  0  0  0  0  0  0  0  0  0  0
    5.7768    2.8533   23.7910 C   0  0  0  0  0  0  0  0  0  0  0  0
    9.7977    1.4791   21.6912 N   0  0  0  0  0  0  0  0  0  0  0  0
    6.5976    9.3401   22.6478 N   0  0  0  0  0  0  0  0  0  0  0  0
   11.2031    3.0042   20.6246 C   0  0  0  0  0  0  0  0  0  0  0  0
   12.8688    7.7370   22.7287 C   0  0  0  0  0  0  0  0  0  0  0  0
    7.4487    9.1361   23.6506 C   0  0  0  0  0  0  0  0  0  0  0  0
    8.9772    2.5025   22.0273 C   0  0  0  0  0  0  0  0  0  0  0  0
   10.4859    4.0901   20.9730 C   0  0  0  0  0  0  0  0  0  0  0  0
   11.0962    9.3293   23.5072 C   0  0  0  0  0  0  0  0  0  0  0  0
    5.1273    7.8529   23.6208 N   0  0  0  0  0  0  0  0  0  0  0  0
    9.7552    9.2338   23.0171 N   0  0  0  0  0  0  0  0  0  0  0  0
   11.1797    6.7591   21.3326 N   0  0  0  0  0  0  0  0  0  0  0  0
   11.7728    8.0337   23.7267 C   0  0  0  0  0  0  0  0  0  0  0  0
    7.1194    8.3344   24.6775 C   0  0  0  0  0  0  0  0  0  0  0  0
    8.4311    4.7963   22.0500 C   0  0  0  0  0  0  0  0  0  0  0  0
    8.7393   10.8706   24.1871 O   0  0  0  0  0  0  0  0  0  0  0  0
    9.3093    3.8166   21.6712 C   0  0  0  0  0  0  0  0  0  0  0  0
  1  5  1  0
  1 15  4  0
  1 22  4  0
  2 20  1  0
  2 24  1  0
  3  6  4  0
  3 27  4  0
  4 22  4  0
  4 26  4  0
  6  7  4  0
  6 13  1  0
  7 19  4  0
  8 18  1  0
  8 23  1  0
  8 28  2  0
  9 17  1  0
  9 24  1  0
 10 11  1  0
 10 24  1  0
 11 23  1  0
 12 14  4  0
 12 16  4  0
 14 19  4  0
 15 18  4  0
 16 20  4  0
 17 25  1  0
 18 26  4  0
 19 29  4  0
 20 29  4  0
 21 23  1  0
 21 25  1  0
 27 29  4  0
M  END
$$$$

 Created by Python create_sdf_string function

 29 32  0  0  0  0  0  0  0  0999 V2000
    5.4450    8.7154   22.6662 C   0  0  0  0  0  0  0  0  0  0  0  0
   10.9154    5.4574   20.5483 C   0  0  0  0  0  0  0  0  0  0  0  0
    7.2709    4.5089   22.7542 C   0  0  0  0  0  0  0  0  0  0  0  0
    5.9698    7.6329   24.6581 C   0  0  0  0  0  0  0  0  0  0  0  0
    4.5542    8.9057   21.7104 O   0  0  0  0  0  0  0  0  0  0  0  0
    6.9895    3.2085   23.0690 C   0  0  0  0  0  0  0  0  0  0  0  0
    7.8391    2.2253   22.7260 N   0  0  0  0  0  0  0  0  0  0  0  0
    8.6968    9.8373   23.6359 C   0  0  0  0  0  0  0  0  0  0  0  0
   12.5135    6.5957   21.8396 C   0  0  0  0  0  0  0  0  0  0  0  0
   10.9406    8.2330   21.1350 C   0  0  0  0  0  0  0  0  0  0  0  0
    9.6648    8.5956   21.7310 C   0  0  0  0  0  0  0  0  0  0  0  0
   10.8829    1.7153   20.9865 C   0  0  0  0  0  0  0  0  0  0  0  0
    5.7768    2.8533   23.7910 C   0  0  0  0  0  0  0  0  0  0  0  0
    9.7977    1.4791   21.6912 N   0  0  0  0  0  0  0  0  0  0  0  0
    6.5976    9.3401   22.6478 N   0  0  0  0  0  0  0  0  0  0  0  0
   11.2031    3.0042   20.6246 C   0  0  0  0  0  0  0  0  0  0  0  0
   12.8688    7.7370   22.7287 C   0  0  0  0  0  0  0  0  0  0  0  0
    7.4487    9.1361   23.6506 C   0  0  0  0  0  0  0  0  0  0  0  0
    8.9772    2.5025   22.0273 C   0  0  0  0  0  0  0  0  0  0  0  0
   10.4859    4.0901   20.9730 C   0  0  0  0  0  0  0  0  0  0  0  0
   11.0962    9.3293   23.5072 C   0  0  0  0  0  0  0  0  0  0  0  0
    5.1273    7.8529   23.6208 N   0  0  0  0  0  0  0  0  0  0  0  0
    9.7552    9.2338   23.0171 N   0  0  0  0  0  0  0  0  0  0  0  0
   11.1797    6.7591   21.3326 N   0  0  0  0  0  0  0  0  0  0  0  0
   11.7728    8.0337   23.7267 C   0  0  0  0  0  0  0  0  0  0  0  0
    7.1194    8.3344   24.6775 C   0  0  0  0  0  0  0  0  0  0  0  0
    8.4311    4.7963   22.0500 C   0  0  0  0  0  0  0  0  0  0  0  0
    8.7393   10.8706   24.1871 O   0  0  0  0  0  0  0  0  0  0  0  0
    9.3093    3.8166   21.6712 C   0  0  0  0  0  0  0  0  0  0  0  0
  1  5  1  0
  1 15  4  0
  1 22  4  0
  2 20  1  0
  2 24  1  0
  3  6  4  0
  3 27  4  0
  4 22  4  0
  4 26  4  0
  6  7  4  0
  6 13  1  0
  7 19  4  0
  8 18  1  0
  8 23  1  0
  8 28  2  0
  9 17  1  0
  9 24  1  0
 10 11  1  0
 10 24  1  0
 11 23  1  0
 12 14  4  0
 12 16  4  0
 14 19  4  0
 15 18  4  0
 16 20  4  0
 17 25  1  0
 18 26  4  0
 19 29  4  0
 20 29  4  0
 21 23  1  0
 21 25  1  0
 27 29  4  0
M  END
$$$$

 Created by Python create_sdf_string function

 29 32  0  0  0  0  0  0  0  0999 V2000
    5.4450    8.7154   22.6662 C   0  0  0  0  0  0  0  0  0  0  0  0
   10.9154    5.4574   20.5483 C   0  0  0  0  0  0  0  0  0  0  0  0
    7.2709    4.5089   22.7542 C   0  0  0  0  0  0  0  0  0  0  0  0
    5.9698    7.6329   24.6581 C   0  0  0  0  0  0  0  0  0  0  0  0
    4.5542    8.9057   21.7104 O   0  0  0  0  0  0  0  0  0  0  0  0
    6.9895    3.2085   23.0690 C   0  0  0  0  0  0  0  0  0  0  0  0
    7.8391    2.2253   22.7260 N   0  0  0  0  0  0  0  0  0  0  0  0
    8.6968    9.8373   23.6359 C   0  0  0  0  0  0  0  0  0  0  0  0
   12.5135    6.5957   21.8396 C   0  0  0  0  0  0  0  0  0  0  0  0
   10.9406    8.2330   21.1350 C   0  0  0  0  0  0  0  0  0  0  0  0
    9.6648    8.5956   21.7310 C   0  0  0  0  0  0  0  0  0  0  0  0
   10.8829    1.7153   20.9865 C   0  0  0  0  0  0  0  0  0  0  0  0
    5.7768    2.8533   23.7910 C   0  0  0  0  0  0  0  0  0  0  0  0
    9.7977    1.4791   21.6912 N   0  0  0  0  0  0  0  0  0  0  0  0
    6.5976    9.3401   22.6478 N   0  0  0  0  0  0  0  0  0  0  0  0
   11.2031    3.0042   20.6246 C   0  0  0  0  0  0  0  0  0  0  0  0
   12.8688    7.7370   22.7287 C   0  0  0  0  0  0  0  0  0  0  0  0
    7.4487    9.1361   23.6506 C   0  0  0  0  0  0  0  0  0  0  0  0
    8.9772    2.5025   22.0273 C   0  0  0  0  0  0  0  0  0  0  0  0
   10.4859    4.0901   20.9730 C   0  0  0  0  0  0  0  0  0  0  0  0
   11.0962    9.3293   23.5072 C   0  0  0  0  0  0  0  0  0  0  0  0
    5.1273    7.8529   23.6208 N   0  0  0  0  0  0  0  0  0  0  0  0
    9.7552    9.2338   23.0171 N   0  0  0  0  0  0  0  0  0  0  0  0
   11.1797    6.7591   21.3326 N   0  0  0  0  0  0  0  0  0  0  0  0
   11.7728    8.0337   23.7267 C   0  0  0  0  0  0  0  0  0  0  0  0
    7.1194    8.3344   24.6775 C   0  0  0  0  0  0  0  0  0  0  0  0
    8.4311    4.7963   22.0500 C   0  0  0  0  0  0  0  0  0  0  0  0
    8.7393   10.8706   24.1871 O   0  0  0  0  0  0  0  0  0  0  0  0
    9.3093    3.8166   21.6712 C   0  0  0  0  0  0  0  0  0  0  0  0
  1  5  1  0
  1 15  4  0
  1 22  4  0
  2 20  1  0
  2 24  1  0
  3  6  4  0
  3 27  4  0
  4 22  4  0
  4 26  4  0
  6  7  4  0
  6 13  1  0
  7 19  4  0
  8 18  1  0
  8 23  1  0
  8 28  2  0
  9 17  1  0
  9 24  1  0
 10 11  1  0
 10 24  1  0
 11 23  1  0
 12 14  4  0
 12 16  4  0
 14 19  4  0
 15 18  4  0
 16 20  4  0
 17 25  1  0
 18 26  4  0
 19 29  4  0
 20 29  4  0
 21 23  1  0
 21 25  1  0
 27 29  4  0
M  END
$$$$

 Created by Python create_sdf_string function

 29 32  0  0  0  0  0  0  0  0999 V2000
    5.4450    8.7154   22.6662 C   0  0  0  0  0  0  0  0  0  0  0  0
   10.9154    5.4574   20.5483 C   0  0  0  0  0  0  0  0  0  0  0  0
    7.2709    4.5089   22.7542 C   0  0  0  0  0  0  0  0  0  0  0  0
    5.9698    7.6329   24.6581 C   0  0  0  0  0  0  0  0  0  0  0  0
    4.5542    8.9057   21.7104 O   0  0  0  0  0  0  0  0  0  0  0  0
    6.9895    3.2085   23.0690 C   0  0  0  0  0  0  0  0  0  0  0  0
    7.8391    2.2253   22.7260 N   0  0  0  0  0  0  0  0  0  0  0  0
    8.6968    9.8373   23.6359 C   0  0  0  0  0  0  0  0  0  0  0  0
   12.5135    6.5957   21.8396 C   0  0  0  0  0  0  0  0  0  0  0  0
   10.9406    8.2330   21.1350 C   0  0  0  0  0  0  0  0  0  0  0  0
    9.6648    8.5956   21.7310 C   0  0  0  0  0  0  0  0  0  0  0  0
   10.8829    1.7153   20.9865 C   0  0  0  0  0  0  0  0  0  0  0  0
    5.7768    2.8533   23.7910 C   0  0  0  0  0  0  0  0  0  0  0  0
    9.7977    1.4791   21.6912 N   0  0  0  0  0  0  0  0  0  0  0  0
    6.5976    9.3401   22.6478 N   0  0  0  0  0  0  0  0  0  0  0  0
   11.2031    3.0042   20.6246 C   0  0  0  0  0  0  0  0  0  0  0  0
   12.8688    7.7370   22.7287 C   0  0  0  0  0  0  0  0  0  0  0  0
    7.4487    9.1361   23.6506 C   0  0  0  0  0  0  0  0  0  0  0  0
    8.9772    2.5025   22.0273 C   0  0  0  0  0  0  0  0  0  0  0  0
   10.4859    4.0901   20.9730 C   0  0  0  0  0  0  0  0  0  0  0  0
   11.0962    9.3293   23.5072 C   0  0  0  0  0  0  0  0  0  0  0  0
    5.1273    7.8529   23.6208 N   0  0  0  0  0  0  0  0  0  0  0  0
    9.7552    9.2338   23.0171 N   0  0  0  0  0  0  0  0  0  0  0  0
   11.1797    6.7591   21.3326 N   0  0  0  0  0  0  0  0  0  0  0  0
   11.7728    8.0337   23.7267 C   0  0  0  0  0  0  0  0  0  0  0  0
    7.1194    8.3344   24.6775 C   0  0  0  0  0  0  0  0  0  0  0  0
    8.4311    4.7963   22.0500 C   0  0  0  0  0  0  0  0  0  0  0  0
    8.7393   10.8706   24.1871 O   0  0  0  0  0  0  0  0  0  0  0  0
    9.3093    3.8166   21.6712 C   0  0  0  0  0  0  0  0  0  0  0  0
  1  5  1  0
  1 15  4  0
  1 22  4  0
  2 20  1  0
  2 24  1  0
  3  6  4  0
  3 27  4  0
  4 22  4  0
  4 26  4  0
  6  7  4  0
  6 13  1  0
  7 19  4  0
  8 18  1  0
  8 23  1  0
  8 28  2  0
  9 17  1  0
  9 24  1  0
 10 11  1  0
 10 24  1  0
 11 23  1  0
 12 14  4  0
 12 16  4  0
 14 19  4  0
 15 18  4  0
 16 20  4  0
 17 25  1  0
 18 26  4  0
 19 29  4  0
 20 29  4  0
 21 23  1  0
 21 25  1  0
 27 29  4  0
M  END
$$$$

 Created by Python create_sdf_string function

 29 32  0  0  0  0  0  0  0  0999 V2000
    5.4450    8.7154   22.6662 C   0  0  0  0  0  0  0  0  0  0  0  0
   10.9154    5.4574   20.5483 C   0  0  0  0  0  0  0  0  0  0  0  0
    7.2709    4.5089   22.7542 C   0  0  0  0  0  0  0  0  0  0  0  0
    5.9698    7.6329   24.6581 C   0  0  0  0  0  0  0  0  0  0  0  0
    4.5542    8.9057   21.7104 O   0  0  0  0  0  0  0  0  0  0  0  0
    6.9895    3.2085   23.0690 C   0  0  0  0  0  0  0  0  0  0  0  0
    7.8391    2.2253   22.7260 N   0  0  0  0  0  0  0  0  0  0  0  0
    8.6968    9.8373   23.6359 C   0  0  0  0  0  0  0  0  0  0  0  0
   12.5135    6.5957   21.8396 C   0  0  0  0  0  0  0  0  0  0  0  0
   10.9406    8.2330   21.1350 C   0  0  0  0  0  0  0  0  0  0  0  0
    9.6648    8.5956   21.7310 C   0  0  0  0  0  0  0  0  0  0  0  0
   10.8829    1.7153   20.9865 C   0  0  0  0  0  0  0  0  0  0  0  0
    5.7768    2.8533   23.7910 C   0  0  0  0  0  0  0  0  0  0  0  0
    9.7977    1.4791   21.6912 N   0  0  0  0  0  0  0  0  0  0  0  0
    6.5976    9.3401   22.6478 N   0  0  0  0  0  0  0  0  0  0  0  0
   11.2031    3.0042   20.6246 C   0  0  0  0  0  0  0  0  0  0  0  0
   12.8688    7.7370   22.7287 C   0  0  0  0  0  0  0  0  0  0  0  0
    7.4487    9.1361   23.6506 C   0  0  0  0  0  0  0  0  0  0  0  0
    8.9772    2.5025   22.0273 C   0  0  0  0  0  0  0  0  0  0  0  0
   10.4859    4.0901   20.9730 C   0  0  0  0  0  0  0  0  0  0  0  0
   11.0962    9.3293   23.5072 C   0  0  0  0  0  0  0  0  0  0  0  0
    5.1273    7.8529   23.6208 N   0  0  0  0  0  0  0  0  0  0  0  0
    9.7552    9.2338   23.0171 N   0  0  0  0  0  0  0  0  0  0  0  0
   11.1797    6.7591   21.3326 N   0  0  0  0  0  0  0  0  0  0  0  0
   11.7728    8.0337   23.7267 C   0  0  0  0  0  0  0  0  0  0  0  0
    7.1194    8.3344   24.6775 C   0  0  0  0  0  0  0  0  0  0  0  0
    8.4311    4.7963   22.0500 C   0  0  0  0  0  0  0  0  0  0  0  0
    8.7393   10.8706   24.1871 O   0  0  0  0  0  0  0  0  0  0  0  0
    9.3093    3.8166   21.6712 C   0  0  0  0  0  0  0  0  0  0  0  0
  1  5  1  0
  1 15  4  0
  1 22  4  0
  2 20  1  0
  2 24  1  0
  3  6  4  0
  3 27  4  0
  4 22  4  0
  4 26  4  0
  6  7  4  0
  6 13  1  0
  7 19  4  0
  8 18  1  0
  8 23  1  0
  8 28  2  0
  9 17  1  0
  9 24  1  0
 10 11  1  0
 10 24  1  0
 11 23  1  0
 12 14  4  0
 12 16  4  0
 14 19  4  0
 15 18  4  0
 16 20  4  0
 17 25  1  0
 18 26  4  0
 19 29  4  0
 20 29  4  0
 21 23  1  0
 21 25  1  0
 27 29  4  0
M  END
$$$$

 Created by Python create_sdf_string function

 29 32  0  0  0  0  0  0  0  0999 V2000
    5.4450    8.7154   22.6662 C   0  0  0  0  0  0  0  0  0  0  0  0
   10.9154    5.4574   20.5483 C   0  0  0  0  0  0  0  0  0  0  0  0
    7.2709    4.5089   22.7542 C   0  0  0  0  0  0  0  0  0  0  0  0
    5.9698    7.6329   24.6581 C   0  0  0  0  0  0  0  0  0  0  0  0
    4.5542    8.9057   21.7104 O   0  0  0  0  0  0  0  0  0  0  0  0
    6.9895    3.2085   23.0690 C   0  0  0  0  0  0  0  0  0  0  0  0
    7.8391    2.2253   22.7260 N   0  0  0  0  0  0  0  0  0  0  0  0
    8.6968    9.8373   23.6359 C   0  0  0  0  0  0  0  0  0  0  0  0
   12.5135    6.5957   21.8396 C   0  0  0  0  0  0  0  0  0  0  0  0
   10.9406    8.2330   21.1350 C   0  0  0  0  0  0  0  0  0  0  0  0
    9.6648    8.5956   21.7310 C   0  0  0  0  0  0  0  0  0  0  0  0
   10.8829    1.7153   20.9865 C   0  0  0  0  0  0  0  0  0  0  0  0
    5.7768    2.8533   23.7910 C   0  0  0  0  0  0  0  0  0  0  0  0
    9.7977    1.4791   21.6912 N   0  0  0  0  0  0  0  0  0  0  0  0
    6.5976    9.3401   22.6478 N   0  0  0  0  0  0  0  0  0  0  0  0
   11.2031    3.0042   20.6246 C   0  0  0  0  0  0  0  0  0  0  0  0
   12.8688    7.7370   22.7287 C   0  0  0  0  0  0  0  0  0  0  0  0
    7.4487    9.1361   23.6506 C   0  0  0  0  0  0  0  0  0  0  0  0
    8.9772    2.5025   22.0273 C   0  0  0  0  0  0  0  0  0  0  0  0
   10.4859    4.0901   20.9730 C   0  0  0  0  0  0  0  0  0  0  0  0
   11.0962    9.3293   23.5072 C   0  0  0  0  0  0  0  0  0  0  0  0
    5.1273    7.8529   23.6208 N   0  0  0  0  0  0  0  0  0  0  0  0
    9.7552    9.2338   23.0171 N   0  0  0  0  0  0  0  0  0  0  0  0
   11.1797    6.7591   21.3326 N   0  0  0  0  0  0  0  0  0  0  0  0
   11.7728    8.0337   23.7267 C   0  0  0  0  0  0  0  0  0  0  0  0
    7.1194    8.3344   24.6775 C   0  0  0  0  0  0  0  0  0  0  0  0
    8.4311    4.7963   22.0500 C   0  0  0  0  0  0  0  0  0  0  0  0
    8.7393   10.8706   24.1871 O   0  0  0  0  0  0  0  0  0  0  0  0
    9.3093    3.8166   21.6712 C   0  0  0  0  0  0  0  0  0  0  0  0
  1  5  1  0
  1 15  4  0
  1 22  4  0
  2 20  1  0
  2 24  1  0
  3  6  4  0
  3 27  4  0
  4 22  4  0
  4 26  4  0
  6  7  4  0
  6 13  1  0
  7 19  4  0
  8 18  1  0
  8 23  1  0
  8 28  2  0
  9 17  1  0
  9 24  1  0
 10 11  1  0
 10 24  1  0
 11 23  1  0
 12 14  4  0
 12 16  4  0
 14 19  4  0
 15 18  4  0
 16 20  4  0
 17 25  1  0
 18 26  4  0
 19 29  4  0
 20 29  4  0
 21 23  1  0
 21 25  1  0
 27 29  4  0
M  END
$$$$

 Created by Python create_sdf_string function

 29 32  0  0  0  0  0  0  0  0999 V2000
    5.4450    8.7154   22.6662 C   0  0  0  0  0  0  0  0  0  0  0  0
   10.9154    5.4574   20.5483 C   0  0  0  0  0  0  0  0  0  0  0  0
    7.2709    4.5089   22.7542 C   0  0  0  0  0  0  0  0  0  0  0  0
    5.9698    7.6329   24.6581 C   0  0  0  0  0  0  0  0  0  0  0  0
    4.5542    8.9057   21.7104 O   0  0  0  0  0  0  0  0  0  0  0  0
    6.9895    3.2085   23.0690 C   0  0  0  0  0  0  0  0  0  0  0  0
    7.8391    2.2253   22.7260 N   0  0  0  0  0  0  0  0  0  0  0  0
    8.6968    9.8373   23.6359 C   0  0  0  0  0  0  0  0  0  0  0  0
   12.5135    6.5957   21.8396 C   0  0  0  0  0  0  0  0  0  0  0  0
   10.9406    8.2330   21.1350 C   0  0  0  0  0  0  0  0  0  0  0  0
    9.6648    8.5956   21.7310 C   0  0  0  0  0  0  0  0  0  0  0  0
   10.8829    1.7153   20.9865 C   0  0  0  0  0  0  0  0  0  0  0  0
    5.7768    2.8533   23.7910 C   0  0  0  0  0  0  0  0  0  0  0  0
    9.7977    1.4791   21.6912 N   0  0  0  0  0  0  0  0  0  0  0  0
    6.5976    9.3401   22.6478 N   0  0  0  0  0  0  0  0  0  0  0  0
   11.2031    3.0042   20.6246 C   0  0  0  0  0  0  0  0  0  0  0  0
   12.8688    7.7370   22.7287 C   0  0  0  0  0  0  0  0  0  0  0  0
    7.4487    9.1361   23.6506 C   0  0  0  0  0  0  0  0  0  0  0  0
    8.9772    2.5025   22.0273 C   0  0  0  0  0  0  0  0  0  0  0  0
   10.4859    4.0901   20.9730 C   0  0  0  0  0  0  0  0  0  0  0  0
   11.0962    9.3293   23.5072 C   0  0  0  0  0  0  0  0  0  0  0  0
    5.1273    7.8529   23.6208 N   0  0  0  0  0  0  0  0  0  0  0  0
    9.7552    9.2338   23.0171 N   0  0  0  0  0  0  0  0  0  0  0  0
   11.1797    6.7591   21.3326 N   0  0  0  0  0  0  0  0  0  0  0  0
   11.7728    8.0337   23.7267 C   0  0  0  0  0  0  0  0  0  0  0  0
    7.1194    8.3344   24.6775 C   0  0  0  0  0  0  0  0  0  0  0  0
    8.4311    4.7963   22.0500 C   0  0  0  0  0  0  0  0  0  0  0  0
    8.7393   10.8706   24.1871 O   0  0  0  0  0  0  0  0  0  0  0  0
    9.3093    3.8166   21.6712 C   0  0  0  0  0  0  0  0  0  0  0  0
  1  5  1  0
  1 15  4  0
  1 22  4  0
  2 20  1  0
  2 24  1  0
  3  6  4  0
  3 27  4  0
  4 22  4  0
  4 26  4  0
  6  7  4  0
  6 13  1  0
  7 19  4  0
  8 18  1  0
  8 23  1  0
  8 28  2  0
  9 17  1  0
  9 24  1  0
 10 11  1  0
 10 24  1  0
 11 23  1  0
 12 14  4  0
 12 16  4  0
 14 19  4  0
 15 18  4  0
 16 20  4  0
 17 25  1  0
 18 26  4  0
 19 29  4  0
 20 29  4  0
 21 23  1  0
 21 25  1  0
 27 29  4  0
M  END
$$$$

 Created by Python create_sdf_string function

 29 32  0  0  0  0  0  0  0  0999 V2000
    5.4450    8.7154   22.6662 C   0  0  0  0  0  0  0  0  0  0  0  0
   10.9154    5.4574   20.5483 C   0  0  0  0  0  0  0  0  0  0  0  0
    7.2709    4.5089   22.7542 C   0  0  0  0  0  0  0  0  0  0  0  0
    5.9698    7.6329   24.6581 C   0  0  0  0  0  0  0  0  0  0  0  0
    4.5542    8.9057   21.7104 O   0  0  0  0  0  0  0  0  0  0  0  0
    6.9895    3.2085   23.0690 C   0  0  0  0  0  0  0  0  0  0  0  0
    7.8391    2.2253   22.7260 N   0  0  0  0  0  0  0  0  0  0  0  0
    8.6968    9.8373   23.6359 C   0  0  0  0  0  0  0  0  0  0  0  0
   12.5135    6.5957   21.8396 C   0  0  0  0  0  0  0  0  0  0  0  0
   10.9406    8.2330   21.1350 C   0  0  0  0  0  0  0  0  0  0  0  0
    9.6648    8.5956   21.7310 C   0  0  0  0  0  0  0  0  0  0  0  0
   10.8829    1.7153   20.9865 C   0  0  0  0  0  0  0  0  0  0  0  0
    5.7768    2.8533   23.7910 C   0  0  0  0  0  0  0  0  0  0  0  0
    9.7977    1.4791   21.6912 N   0  0  0  0  0  0  0  0  0  0  0  0
    6.5976    9.3401   22.6478 N   0  0  0  0  0  0  0  0  0  0  0  0
   11.2031    3.0042   20.6246 C   0  0  0  0  0  0  0  0  0  0  0  0
   12.8688    7.7370   22.7287 C   0  0  0  0  0  0  0  0  0  0  0  0
    7.4487    9.1361   23.6506 C   0  0  0  0  0  0  0  0  0  0  0  0
    8.9772    2.5025   22.0273 C   0  0  0  0  0  0  0  0  0  0  0  0
   10.4859    4.0901   20.9730 C   0  0  0  0  0  0  0  0  0  0  0  0
   11.0962    9.3293   23.5072 C   0  0  0  0  0  0  0  0  0  0  0  0
    5.1273    7.8529   23.6208 N   0  0  0  0  0  0  0  0  0  0  0  0
    9.7552    9.2338   23.0171 N   0  0  0  0  0  0  0  0  0  0  0  0
   11.1797    6.7591   21.3326 N   0  0  0  0  0  0  0  0  0  0  0  0
   11.7728    8.0337   23.7267 C   0  0  0  0  0  0  0  0  0  0  0  0
    7.1194    8.3344   24.6775 C   0  0  0  0  0  0  0  0  0  0  0  0
    8.4311    4.7963   22.0500 C   0  0  0  0  0  0  0  0  0  0  0  0
    8.7393   10.8706   24.1871 O   0  0  0  0  0  0  0  0  0  0  0  0
    9.3093    3.8166   21.6712 C   0  0  0  0  0  0  0  0  0  0  0  0
  1  5  1  0
  1 15  4  0
  1 22  4  0
  2 20  1  0
  2 24  1  0
  3  6  4  0
  3 27  4  0
  4 22  4  0
  4 26  4  0
  6  7  4  0
  6 13  1  0
  7 19  4  0
  8 18  1  0
  8 23  1  0
  8 28  2  0
  9 17  1  0
  9 24  1  0
 10 11  1  0
 10 24  1  0
 11 23  1  0
 12 14  4  0
 12 16  4  0
 14 19  4  0
 15 18  4  0
 16 20  4  0
 17 25  1  0
 18 26  4  0
 19 29  4  0
 20 29  4  0
 21 23  1  0
 21 25  1  0
 27 29  4  0
M  END
$$$$

 Created by Python create_sdf_string function

 29 32  0  0  0  0  0  0  0  0999 V2000
    5.4450    8.7154   22.6662 C   0  0  0  0  0  0  0  0  0  0  0  0
   10.9154    5.4574   20.5483 C   0  0  0  0  0  0  0  0  0  0  0  0
    7.2709    4.5089   22.7542 C   0  0  0  0  0  0  0  0  0  0  0  0
    5.9698    7.6329   24.6581 C   0  0  0  0  0  0  0  0  0  0  0  0
    4.5542    8.9057   21.7104 O   0  0  0  0  0  0  0  0  0  0  0  0
    6.9895    3.2085   23.0690 C   0  0  0  0  0  0  0  0  0  0  0  0
    7.8391    2.2253   22.7260 N   0  0  0  0  0  0  0  0  0  0  0  0
    8.6968    9.8373   23.6359 C   0  0  0  0  0  0  0  0  0  0  0  0
   12.5135    6.5957   21.8396 C   0  0  0  0  0  0  0  0  0  0  0  0
   10.9406    8.2330   21.1350 C   0  0  0  0  0  0  0  0  0  0  0  0
    9.6648    8.5956   21.7310 C   0  0  0  0  0  0  0  0  0  0  0  0
   10.8829    1.7153   20.9865 C   0  0  0  0  0  0  0  0  0  0  0  0
    5.7768    2.8533   23.7910 C   0  0  0  0  0  0  0  0  0  0  0  0
    9.7977    1.4791   21.6912 N   0  0  0  0  0  0  0  0  0  0  0  0
    6.5976    9.3401   22.6478 N   0  0  0  0  0  0  0  0  0  0  0  0
   11.2031    3.0042   20.6246 C   0  0  0  0  0  0  0  0  0  0  0  0
   12.8688    7.7370   22.7287 C   0  0  0  0  0  0  0  0  0  0  0  0
    7.4487    9.1361   23.6506 C   0  0  0  0  0  0  0  0  0  0  0  0
    8.9772    2.5025   22.0273 C   0  0  0  0  0  0  0  0  0  0  0  0
   10.4859    4.0901   20.9730 C   0  0  0  0  0  0  0  0  0  0  0  0
   11.0962    9.3293   23.5072 C   0  0  0  0  0  0  0  0  0  0  0  0
    5.1273    7.8529   23.6208 N   0  0  0  0  0  0  0  0  0  0  0  0
    9.7552    9.2338   23.0171 N   0  0  0  0  0  0  0  0  0  0  0  0
   11.1797    6.7591   21.3326 N   0  0  0  0  0  0  0  0  0  0  0  0
   11.7728    8.0337   23.7267 C   0  0  0  0  0  0  0  0  0  0  0  0
    7.1194    8.3344   24.6775 C   0  0  0  0  0  0  0  0  0  0  0  0
    8.4311    4.7963   22.0500 C   0  0  0  0  0  0  0  0  0  0  0  0
    8.7393   10.8706   24.1871 O   0  0  0  0  0  0  0  0  0  0  0  0
    9.3093    3.8166   21.6712 C   0  0  0  0  0  0  0  0  0  0  0  0
  1  5  1  0
  1 15  4  0
  1 22  4  0
  2 20  1  0
  2 24  1  0
  3  6  4  0
  3 27  4  0
  4 22  4  0
  4 26  4  0
  6  7  4  0
  6 13  1  0
  7 19  4  0
  8 18  1  0
  8 23  1  0
  8 28  2  0
  9 17  1  0
  9 24  1  0
 10 11  1  0
 10 24  1  0
 11 23  1  0
 12 14  4  0
 12 16  4  0
 14 19  4  0
 15 18  4  0
 16 20  4  0
 17 25  1  0
 18 26  4  0
 19 29  4  0
 20 29  4  0
 21 23  1  0
 21 25  1  0
 27 29  4  0
M  END
$$$$

 Created by Python create_sdf_string function

 29 32  0  0  0  0  0  0  0  0999 V2000
    5.4450    8.7154   22.6662 C   0  0  0  0  0  0  0  0  0  0  0  0
   10.9154    5.4574   20.5483 C   0  0  0  0  0  0  0  0  0  0  0  0
    7.2709    4.5089   22.7542 C   0  0  0  0  0  0  0  0  0  0  0  0
    5.9698    7.6329   24.6581 C   0  0  0  0  0  0  0  0  0  0  0  0
    4.5542    8.9057   21.7104 O   0  0  0  0  0  0  0  0  0  0  0  0
    6.9895    3.2085   23.0690 C   0  0  0  0  0  0  0  0  0  0  0  0
    7.8391    2.2253   22.7260 N   0  0  0  0  0  0  0  0  0  0  0  0
    8.6968    9.8373   23.6359 C   0  0  0  0  0  0  0  0  0  0  0  0
   12.5135    6.5957   21.8396 C   0  0  0  0  0  0  0  0  0  0  0  0
   10.9406    8.2330   21.1350 C   0  0  0  0  0  0  0  0  0  0  0  0
    9.6648    8.5956   21.7310 C   0  0  0  0  0  0  0  0  0  0  0  0
   10.8829    1.7153   20.9865 C   0  0  0  0  0  0  0  0  0  0  0  0
    5.7768    2.8533   23.7910 C   0  0  0  0  0  0  0  0  0  0  0  0
    9.7977    1.4791   21.6912 N   0  0  0  0  0  0  0  0  0  0  0  0
    6.5976    9.3401   22.6478 N   0  0  0  0  0  0  0  0  0  0  0  0
   11.2031    3.0042   20.6246 C   0  0  0  0  0  0  0  0  0  0  0  0
   12.8688    7.7370   22.7287 C   0  0  0  0  0  0  0  0  0  0  0  0
    7.4487    9.1361   23.6506 C   0  0  0  0  0  0  0  0  0  0  0  0
    8.9772    2.5025   22.0273 C   0  0  0  0  0  0  0  0  0  0  0  0
   10.4859    4.0901   20.9730 C   0  0  0  0  0  0  0  0  0  0  0  0
   11.0962    9.3293   23.5072 C   0  0  0  0  0  0  0  0  0  0  0  0
    5.1273    7.8529   23.6208 N   0  0  0  0  0  0  0  0  0  0  0  0
    9.7552    9.2338   23.0171 N   0  0  0  0  0  0  0  0  0  0  0  0
   11.1797    6.7591   21.3326 N   0  0  0  0  0  0  0  0  0  0  0  0
   11.7728    8.0337   23.7267 C   0  0  0  0  0  0  0  0  0  0  0  0
    7.1194    8.3344   24.6775 C   0  0  0  0  0  0  0  0  0  0  0  0
    8.4311    4.7963   22.0500 C   0  0  0  0  0  0  0  0  0  0  0  0
    8.7393   10.8706   24.1871 O   0  0  0  0  0  0  0  0  0  0  0  0
    9.3093    3.8166   21.6712 C   0  0  0  0  0  0  0  0  0  0  0  0
  1  5  1  0
  1 15  4  0
  1 22  4  0
  2 20  1  0
  2 24  1  0
  3  6  4  0
  3 27  4  0
  4 22  4  0
  4 26  4  0
  6  7  4  0
  6 13  1  0
  7 19  4  0
  8 18  1  0
  8 23  1  0
  8 28  2  0
  9 17  1  0
  9 24  1  0
 10 11  1  0
 10 24  1  0
 11 23  1  0
 12 14  4  0
 12 16  4  0
 14 19  4  0
 15 18  4  0
 16 20  4  0
 17 25  1  0
 18 26  4  0
 19 29  4  0
 20 29  4  0
 21 23  1  0
 21 25  1  0
 27 29  4  0
M  END
$$$$

 Created by Python create_sdf_string function

 29 32  0  0  0  0  0  0  0  0999 V2000
    5.4450    8.7154   22.6662 C   0  0  0  0  0  0  0  0  0  0  0  0
   10.9154    5.4574   20.5483 C   0  0  0  0  0  0  0  0  0  0  0  0
    7.2709    4.5089   22.7542 C   0  0  0  0  0  0  0  0  0  0  0  0
    5.9698    7.6329   24.6581 C   0  0  0  0  0  0  0  0  0  0  0  0
    4.5542    8.9057   21.7104 O   0  0  0  0  0  0  0  0  0  0  0  0
    6.9895    3.2085   23.0690 C   0  0  0  0  0  0  0  0  0  0  0  0
    7.8391    2.2253   22.7260 N   0  0  0  0  0  0  0  0  0  0  0  0
    8.6968    9.8373   23.6359 C   0  0  0  0  0  0  0  0  0  0  0  0
   12.5135    6.5957   21.8396 C   0  0  0  0  0  0  0  0  0  0  0  0
   10.9406    8.2330   21.1350 C   0  0  0  0  0  0  0  0  0  0  0  0
    9.6648    8.5956   21.7310 C   0  0  0  0  0  0  0  0  0  0  0  0
   10.8829    1.7153   20.9865 C   0  0  0  0  0  0  0  0  0  0  0  0
    5.7768    2.8533   23.7910 C   0  0  0  0  0  0  0  0  0  0  0  0
    9.7977    1.4791   21.6912 N   0  0  0  0  0  0  0  0  0  0  0  0
    6.5976    9.3401   22.6478 N   0  0  0  0  0  0  0  0  0  0  0  0
   11.2031    3.0042   20.6246 C   0  0  0  0  0  0  0  0  0  0  0  0
   12.8688    7.7370   22.7287 C   0  0  0  0  0  0  0  0  0  0  0  0
    7.4487    9.1361   23.6506 C   0  0  0  0  0  0  0  0  0  0  0  0
    8.9772    2.5025   22.0273 C   0  0  0  0  0  0  0  0  0  0  0  0
   10.4859    4.0901   20.9730 C   0  0  0  0  0  0  0  0  0  0  0  0
   11.0962    9.3293   23.5072 C   0  0  0  0  0  0  0  0  0  0  0  0
    5.1273    7.8529   23.6208 N   0  0  0  0  0  0  0  0  0  0  0  0
    9.7552    9.2338   23.0171 N   0  0  0  0  0  0  0  0  0  0  0  0
   11.1797    6.7591   21.3326 N   0  0  0  0  0  0  0  0  0  0  0  0
   11.7728    8.0337   23.7267 C   0  0  0  0  0  0  0  0  0  0  0  0
    7.1194    8.3344   24.6775 C   0  0  0  0  0  0  0  0  0  0  0  0
    8.4311    4.7963   22.0500 C   0  0  0  0  0  0  0  0  0  0  0  0
    8.7393   10.8706   24.1871 O   0  0  0  0  0  0  0  0  0  0  0  0
    9.3093    3.8166   21.6712 C   0  0  0  0  0  0  0  0  0  0  0  0
  1  5  1  0
  1 15  4  0
  1 22  4  0
  2 20  1  0
  2 24  1  0
  3  6  4  0
  3 27  4  0
  4 22  4  0
  4 26  4  0
  6  7  4  0
  6 13  1  0
  7 19  4  0
  8 18  1  0
  8 23  1  0
  8 28  2  0
  9 17  1  0
  9 24  1  0
 10 11  1  0
 10 24  1  0
 11 23  1  0
 12 14  4  0
 12 16  4  0
 14 19  4  0
 15 18  4  0
 16 20  4  0
 17 25  1  0
 18 26  4  0
 19 29  4  0
 20 29  4  0
 21 23  1  0
 21 25  1  0
 27 29  4  0
M  END
$$$$

 Created by Python create_sdf_string function

 29 32  0  0  0  0  0  0  0  0999 V2000
    5.4450    8.7154   22.6662 C   0  0  0  0  0  0  0  0  0  0  0  0
   10.9154    5.4574   20.5483 C   0  0  0  0  0  0  0  0  0  0  0  0
    7.2709    4.5089   22.7542 C   0  0  0  0  0  0  0  0  0  0  0  0
    5.9698    7.6329   24.6581 C   0  0  0  0  0  0  0  0  0  0  0  0
    4.5542    8.9057   21.7104 O   0  0  0  0  0  0  0  0  0  0  0  0
    6.9895    3.2085   23.0690 C   0  0  0  0  0  0  0  0  0  0  0  0
    7.8391    2.2253   22.7260 N   0  0  0  0  0  0  0  0  0  0  0  0
    8.6968    9.8373   23.6359 C   0  0  0  0  0  0  0  0  0  0  0  0
   12.5135    6.5957   21.8396 C   0  0  0  0  0  0  0  0  0  0  0  0
   10.9406    8.2330   21.1350 C   0  0  0  0  0  0  0  0  0  0  0  0
    9.6648    8.5956   21.7310 C   0  0  0  0  0  0  0  0  0  0  0  0
   10.8829    1.7153   20.9865 C   0  0  0  0  0  0  0  0  0  0  0  0
    5.7768    2.8533   23.7910 C   0  0  0  0  0  0  0  0  0  0  0  0
    9.7977    1.4791   21.6912 N   0  0  0  0  0  0  0  0  0  0  0  0
    6.5976    9.3401   22.6478 N   0  0  0  0  0  0  0  0  0  0  0  0
   11.2031    3.0042   20.6246 C   0  0  0  0  0  0  0  0  0  0  0  0
   12.8688    7.7370   22.7287 C   0  0  0  0  0  0  0  0  0  0  0  0
    7.4487    9.1361   23.6506 C   0  0  0  0  0  0  0  0  0  0  0  0
    8.9772    2.5025   22.0273 C   0  0  0  0  0  0  0  0  0  0  0  0
   10.4859    4.0901   20.9730 C   0  0  0  0  0  0  0  0  0  0  0  0
   11.0962    9.3293   23.5072 C   0  0  0  0  0  0  0  0  0  0  0  0
    5.1273    7.8529   23.6208 N   0  0  0  0  0  0  0  0  0  0  0  0
    9.7552    9.2338   23.0171 N   0  0  0  0  0  0  0  0  0  0  0  0
   11.1797    6.7591   21.3326 N   0  0  0  0  0  0  0  0  0  0  0  0
   11.7728    8.0337   23.7267 C   0  0  0  0  0  0  0  0  0  0  0  0
    7.1194    8.3344   24.6775 C   0  0  0  0  0  0  0  0  0  0  0  0
    8.4311    4.7963   22.0500 C   0  0  0  0  0  0  0  0  0  0  0  0
    8.7393   10.8706   24.1871 O   0  0  0  0  0  0  0  0  0  0  0  0
    9.3093    3.8166   21.6712 C   0  0  0  0  0  0  0  0  0  0  0  0
  1  5  1  0
  1 15  4  0
  1 22  4  0
  2 20  1  0
  2 24  1  0
  3  6  4  0
  3 27  4  0
  4 22  4  0
  4 26  4  0
  6  7  4  0
  6 13  1  0
  7 19  4  0
  8 18  1  0
  8 23  1  0
  8 28  2  0
  9 17  1  0
  9 24  1  0
 10 11  1  0
 10 24  1  0
 11 23  1  0
 12 14  4  0
 12 16  4  0
 14 19  4  0
 15 18  4  0
 16 20  4  0
 17 25  1  0
 18 26  4  0
 19 29  4  0
 20 29  4  0
 21 23  1  0
 21 25  1  0
 27 29  4  0
M  END
$$$$

 Created by Python create_sdf_string function

 29 32  0  0  0  0  0  0  0  0999 V2000
    5.4450    8.7154   22.6662 C   0  0  0  0  0  0  0  0  0  0  0  0
   10.9154    5.4574   20.5483 C   0  0  0  0  0  0  0  0  0  0  0  0
    7.2709    4.5089   22.7542 C   0  0  0  0  0  0  0  0  0  0  0  0
    5.9698    7.6329   24.6581 C   0  0  0  0  0  0  0  0  0  0  0  0
    4.5542    8.9057   21.7104 O   0  0  0  0  0  0  0  0  0  0  0  0
    6.9895    3.2085   23.0690 C   0  0  0  0  0  0  0  0  0  0  0  0
    7.8391    2.2253   22.7260 N   0  0  0  0  0  0  0  0  0  0  0  0
    8.6968    9.8373   23.6359 C   0  0  0  0  0  0  0  0  0  0  0  0
   12.5135    6.5957   21.8396 C   0  0  0  0  0  0  0  0  0  0  0  0
   10.9406    8.2330   21.1350 C   0  0  0  0  0  0  0  0  0  0  0  0
    9.6648    8.5956   21.7310 C   0  0  0  0  0  0  0  0  0  0  0  0
   10.8829    1.7153   20.9865 C   0  0  0  0  0  0  0  0  0  0  0  0
    5.7768    2.8533   23.7910 C   0  0  0  0  0  0  0  0  0  0  0  0
    9.7977    1.4791   21.6912 N   0  0  0  0  0  0  0  0  0  0  0  0
    6.5976    9.3401   22.6478 N   0  0  0  0  0  0  0  0  0  0  0  0
   11.2031    3.0042   20.6246 C   0  0  0  0  0  0  0  0  0  0  0  0
   12.8688    7.7370   22.7287 C   0  0  0  0  0  0  0  0  0  0  0  0
    7.4487    9.1361   23.6506 C   0  0  0  0  0  0  0  0  0  0  0  0
    8.9772    2.5025   22.0273 C   0  0  0  0  0  0  0  0  0  0  0  0
   10.4859    4.0901   20.9730 C   0  0  0  0  0  0  0  0  0  0  0  0
   11.0962    9.3293   23.5072 C   0  0  0  0  0  0  0  0  0  0  0  0
    5.1273    7.8529   23.6208 N   0  0  0  0  0  0  0  0  0  0  0  0
    9.7552    9.2338   23.0171 N   0  0  0  0  0  0  0  0  0  0  0  0
   11.1797    6.7591   21.3326 N   0  0  0  0  0  0  0  0  0  0  0  0
   11.7728    8.0337   23.7267 C   0  0  0  0  0  0  0  0  0  0  0  0
    7.1194    8.3344   24.6775 C   0  0  0  0  0  0  0  0  0  0  0  0
    8.4311    4.7963   22.0500 C   0  0  0  0  0  0  0  0  0  0  0  0
    8.7393   10.8706   24.1871 O   0  0  0  0  0  0  0  0  0  0  0  0
    9.3093    3.8166   21.6712 C   0  0  0  0  0  0  0  0  0  0  0  0
  1  5  1  0
  1 15  4  0
  1 22  4  0
  2 20  1  0
  2 24  1  0
  3  6  4  0
  3 27  4  0
  4 22  4  0
  4 26  4  0
  6  7  4  0
  6 13  1  0
  7 19  4  0
  8 18  1  0
  8 23  1  0
  8 28  2  0
  9 17  1  0
  9 24  1  0
 10 11  1  0
 10 24  1  0
 11 23  1  0
 12 14  4  0
 12 16  4  0
 14 19  4  0
 15 18  4  0
 16 20  4  0
 17 25  1  0
 18 26  4  0
 19 29  4  0
 20 29  4  0
 21 23  1  0
 21 25  1  0
 27 29  4  0
M  END
$$$$

 Created by Python create_sdf_string function

 29 32  0  0  0  0  0  0  0  0999 V2000
    5.4450    8.7154   22.6662 C   0  0  0  0  0  0  0  0  0  0  0  0
   10.9154    5.4574   20.5483 C   0  0  0  0  0  0  0  0  0  0  0  0
    7.2709    4.5089   22.7542 C   0  0  0  0  0  0  0  0  0  0  0  0
    5.9698    7.6329   24.6581 C   0  0  0  0  0  0  0  0  0  0  0  0
    4.5542    8.9057   21.7104 O   0  0  0  0  0  0  0  0  0  0  0  0
    6.9895    3.2085   23.0690 C   0  0  0  0  0  0  0  0  0  0  0  0
    7.8391    2.2253   22.7260 N   0  0  0  0  0  0  0  0  0  0  0  0
    8.6968    9.8373   23.6359 C   0  0  0  0  0  0  0  0  0  0  0  0
   12.5135    6.5957   21.8396 C   0  0  0  0  0  0  0  0  0  0  0  0
   10.9406    8.2330   21.1350 C   0  0  0  0  0  0  0  0  0  0  0  0
    9.6648    8.5956   21.7310 C   0  0  0  0  0  0  0  0  0  0  0  0
   10.8829    1.7153   20.9865 C   0  0  0  0  0  0  0  0  0  0  0  0
    5.7768    2.8533   23.7910 C   0  0  0  0  0  0  0  0  0  0  0  0
    9.7977    1.4791   21.6912 N   0  0  0  0  0  0  0  0  0  0  0  0
    6.5976    9.3401   22.6478 N   0  0  0  0  0  0  0  0  0  0  0  0
   11.2031    3.0042   20.6246 C   0  0  0  0  0  0  0  0  0  0  0  0
   12.8688    7.7370   22.7287 C   0  0  0  0  0  0  0  0  0  0  0  0
    7.4487    9.1361   23.6506 C   0  0  0  0  0  0  0  0  0  0  0  0
    8.9772    2.5025   22.0273 C   0  0  0  0  0  0  0  0  0  0  0  0
   10.4859    4.0901   20.9730 C   0  0  0  0  0  0  0  0  0  0  0  0
   11.0962    9.3293   23.5072 C   0  0  0  0  0  0  0  0  0  0  0  0
    5.1273    7.8529   23.6208 N   0  0  0  0  0  0  0  0  0  0  0  0
    9.7552    9.2338   23.0171 N   0  0  0  0  0  0  0  0  0  0  0  0
   11.1797    6.7591   21.3326 N   0  0  0  0  0  0  0  0  0  0  0  0
   11.7728    8.0337   23.7267 C   0  0  0  0  0  0  0  0  0  0  0  0
    7.1194    8.3344   24.6775 C   0  0  0  0  0  0  0  0  0  0  0  0
    8.4311    4.7963   22.0500 C   0  0  0  0  0  0  0  0  0  0  0  0
    8.7393   10.8706   24.1871 O   0  0  0  0  0  0  0  0  0  0  0  0
    9.3093    3.8166   21.6712 C   0  0  0  0  0  0  0  0  0  0  0  0
  1  5  1  0
  1 15  4  0
  1 22  4  0
  2 20  1  0
  2 24  1  0
  3  6  4  0
  3 27  4  0
  4 22  4  0
  4 26  4  0
  6  7  4  0
  6 13  1  0
  7 19  4  0
  8 18  1  0
  8 23  1  0
  8 28  2  0
  9 17  1  0
  9 24  1  0
 10 11  1  0
 10 24  1  0
 11 23  1  0
 12 14  4  0
 12 16  4  0
 14 19  4  0
 15 18  4  0
 16 20  4  0
 17 25  1  0
 18 26  4  0
 19 29  4  0
 20 29  4  0
 21 23  1  0
 21 25  1  0
 27 29  4  0
M  END
$$$$

 Created by Python create_sdf_string function

 29 32  0  0  0  0  0  0  0  0999 V2000
    5.4450    8.7154   22.6662 C   0  0  0  0  0  0  0  0  0  0  0  0
   10.9154    5.4574   20.5483 C   0  0  0  0  0  0  0  0  0  0  0  0
    7.2709    4.5089   22.7542 C   0  0  0  0  0  0  0  0  0  0  0  0
    5.9698    7.6329   24.6581 C   0  0  0  0  0  0  0  0  0  0  0  0
    4.5542    8.9057   21.7104 O   0  0  0  0  0  0  0  0  0  0  0  0
    6.9895    3.2085   23.0690 C   0  0  0  0  0  0  0  0  0  0  0  0
    7.8391    2.2253   22.7260 N   0  0  0  0  0  0  0  0  0  0  0  0
    8.6968    9.8373   23.6359 C   0  0  0  0  0  0  0  0  0  0  0  0
   12.5135    6.5957   21.8396 C   0  0  0  0  0  0  0  0  0  0  0  0
   10.9406    8.2330   21.1350 C   0  0  0  0  0  0  0  0  0  0  0  0
    9.6648    8.5956   21.7310 C   0  0  0  0  0  0  0  0  0  0  0  0
   10.8829    1.7153   20.9865 C   0  0  0  0  0  0  0  0  0  0  0  0
    5.7768    2.8533   23.7910 C   0  0  0  0  0  0  0  0  0  0  0  0
    9.7977    1.4791   21.6912 N   0  0  0  0  0  0  0  0  0  0  0  0
    6.5976    9.3401   22.6478 N   0  0  0  0  0  0  0  0  0  0  0  0
   11.2031    3.0042   20.6246 C   0  0  0  0  0  0  0  0  0  0  0  0
   12.8688    7.7370   22.7287 C   0  0  0  0  0  0  0  0  0  0  0  0
    7.4487    9.1361   23.6506 C   0  0  0  0  0  0  0  0  0  0  0  0
    8.9772    2.5025   22.0273 C   0  0  0  0  0  0  0  0  0  0  0  0
   10.4859    4.0901   20.9730 C   0  0  0  0  0  0  0  0  0  0  0  0
   11.0962    9.3293   23.5072 C   0  0  0  0  0  0  0  0  0  0  0  0
    5.1273    7.8529   23.6208 N   0  0  0  0  0  0  0  0  0  0  0  0
    9.7552    9.2338   23.0171 N   0  0  0  0  0  0  0  0  0  0  0  0
   11.1797    6.7591   21.3326 N   0  0  0  0  0  0  0  0  0  0  0  0
   11.7728    8.0337   23.7267 C   0  0  0  0  0  0  0  0  0  0  0  0
    7.1194    8.3344   24.6775 C   0  0  0  0  0  0  0  0  0  0  0  0
    8.4311    4.7963   22.0500 C   0  0  0  0  0  0  0  0  0  0  0  0
    8.7393   10.8706   24.1871 O   0  0  0  0  0  0  0  0  0  0  0  0
    9.3093    3.8166   21.6712 C   0  0  0  0  0  0  0  0  0  0  0  0
  1  5  1  0
  1 15  4  0
  1 22  4  0
  2 20  1  0
  2 24  1  0
  3  6  4  0
  3 27  4  0
  4 22  4  0
  4 26  4  0
  6  7  4  0
  6 13  1  0
  7 19  4  0
  8 18  1  0
  8 23  1  0
  8 28  2  0
  9 17  1  0
  9 24  1  0
 10 11  1  0
 10 24  1  0
 11 23  1  0
 12 14  4  0
 12 16  4  0
 14 19  4  0
 15 18  4  0
 16 20  4  0
 17 25  1  0
 18 26  4  0
 19 29  4  0
 20 29  4  0
 21 23  1  0
 21 25  1  0
 27 29  4  0
M  END
$$$$

 Created by Python create_sdf_string function

 29 32  0  0  0  0  0  0  0  0999 V2000
    5.4450    8.7154   22.6662 C   0  0  0  0  0  0  0  0  0  0  0  0
   10.9154    5.4574   20.5483 C   0  0  0  0  0  0  0  0  0  0  0  0
    7.2709    4.5089   22.7542 C   0  0  0  0  0  0  0  0  0  0  0  0
    5.9698    7.6329   24.6581 C   0  0  0  0  0  0  0  0  0  0  0  0
    4.5542    8.9057   21.7104 O   0  0  0  0  0  0  0  0  0  0  0  0
    6.9895    3.2085   23.0690 C   0  0  0  0  0  0  0  0  0  0  0  0
    7.8391    2.2253   22.7260 N   0  0  0  0  0  0  0  0  0  0  0  0
    8.6968    9.8373   23.6359 C   0  0  0  0  0  0  0  0  0  0  0  0
   12.5135    6.5957   21.8396 C   0  0  0  0  0  0  0  0  0  0  0  0
   10.9406    8.2330   21.1350 C   0  0  0  0  0  0  0  0  0  0  0  0
    9.6648    8.5956   21.7310 C   0  0  0  0  0  0  0  0  0  0  0  0
   10.8829    1.7153   20.9865 C   0  0  0  0  0  0  0  0  0  0  0  0
    5.7768    2.8533   23.7910 C   0  0  0  0  0  0  0  0  0  0  0  0
    9.7977    1.4791   21.6912 N   0  0  0  0  0  0  0  0  0  0  0  0
    6.5976    9.3401   22.6478 N   0  0  0  0  0  0  0  0  0  0  0  0
   11.2031    3.0042   20.6246 C   0  0  0  0  0  0  0  0  0  0  0  0
   12.8688    7.7370   22.7287 C   0  0  0  0  0  0  0  0  0  0  0  0
    7.4487    9.1361   23.6506 C   0  0  0  0  0  0  0  0  0  0  0  0
    8.9772    2.5025   22.0273 C   0  0  0  0  0  0  0  0  0  0  0  0
   10.4859    4.0901   20.9730 C   0  0  0  0  0  0  0  0  0  0  0  0
   11.0962    9.3293   23.5072 C   0  0  0  0  0  0  0  0  0  0  0  0
    5.1273    7.8529   23.6208 N   0  0  0  0  0  0  0  0  0  0  0  0
    9.7552    9.2338   23.0171 N   0  0  0  0  0  0  0  0  0  0  0  0
   11.1797    6.7591   21.3326 N   0  0  0  0  0  0  0  0  0  0  0  0
   11.7728    8.0337   23.7267 C   0  0  0  0  0  0  0  0  0  0  0  0
    7.1194    8.3344   24.6775 C   0  0  0  0  0  0  0  0  0  0  0  0
    8.4311    4.7963   22.0500 C   0  0  0  0  0  0  0  0  0  0  0  0
    8.7393   10.8706   24.1871 O   0  0  0  0  0  0  0  0  0  0  0  0
    9.3093    3.8166   21.6712 C   0  0  0  0  0  0  0  0  0  0  0  0
  1  5  1  0
  1 15  4  0
  1 22  4  0
  2 20  1  0
  2 24  1  0
  3  6  4  0
  3 27  4  0
  4 22  4  0
  4 26  4  0
  6  7  4  0
  6 13  1  0
  7 19  4  0
  8 18  1  0
  8 23  1  0
  8 28  2  0
  9 17  1  0
  9 24  1  0
 10 11  1  0
 10 24  1  0
 11 23  1  0
 12 14  4  0
 12 16  4  0
 14 19  4  0
 15 18  4  0
 16 20  4  0
 17 25  1  0
 18 26  4  0
 19 29  4  0
 20 29  4  0
 21 23  1  0
 21 25  1  0
 27 29  4  0
M  END
$$$$

 Created by Python create_sdf_string function

 29 32  0  0  0  0  0  0  0  0999 V2000
    5.4450    8.7154   22.6662 C   0  0  0  0  0  0  0  0  0  0  0  0
   10.9154    5.4574   20.5483 C   0  0  0  0  0  0  0  0  0  0  0  0
    7.2709    4.5089   22.7542 C   0  0  0  0  0  0  0  0  0  0  0  0
    5.9698    7.6329   24.6581 C   0  0  0  0  0  0  0  0  0  0  0  0
    4.5542    8.9057   21.7104 O   0  0  0  0  0  0  0  0  0  0  0  0
    6.9895    3.2085   23.0690 C   0  0  0  0  0  0  0  0  0  0  0  0
    7.8391    2.2253   22.7260 N   0  0  0  0  0  0  0  0  0  0  0  0
    8.6968    9.8373   23.6359 C   0  0  0  0  0  0  0  0  0  0  0  0
   12.5135    6.5957   21.8396 C   0  0  0  0  0  0  0  0  0  0  0  0
   10.9406    8.2330   21.1350 C   0  0  0  0  0  0  0  0  0  0  0  0
    9.6648    8.5956   21.7310 C   0  0  0  0  0  0  0  0  0  0  0  0
   10.8829    1.7153   20.9865 C   0  0  0  0  0  0  0  0  0  0  0  0
    5.7768    2.8533   23.7910 C   0  0  0  0  0  0  0  0  0  0  0  0
    9.7977    1.4791   21.6912 N   0  0  0  0  0  0  0  0  0  0  0  0
    6.5976    9.3401   22.6478 N   0  0  0  0  0  0  0  0  0  0  0  0
   11.2031    3.0042   20.6246 C   0  0  0  0  0  0  0  0  0  0  0  0
   12.8688    7.7370   22.7287 C   0  0  0  0  0  0  0  0  0  0  0  0
    7.4487    9.1361   23.6506 C   0  0  0  0  0  0  0  0  0  0  0  0
    8.9772    2.5025   22.0273 C   0  0  0  0  0  0  0  0  0  0  0  0
   10.4859    4.0901   20.9730 C   0  0  0  0  0  0  0  0  0  0  0  0
   11.0962    9.3293   23.5072 C   0  0  0  0  0  0  0  0  0  0  0  0
    5.1273    7.8529   23.6208 N   0  0  0  0  0  0  0  0  0  0  0  0
    9.7552    9.2338   23.0171 N   0  0  0  0  0  0  0  0  0  0  0  0
   11.1797    6.7591   21.3326 N   0  0  0  0  0  0  0  0  0  0  0  0
   11.7728    8.0337   23.7267 C   0  0  0  0  0  0  0  0  0  0  0  0
    7.1194    8.3344   24.6775 C   0  0  0  0  0  0  0  0  0  0  0  0
    8.4311    4.7963   22.0500 C   0  0  0  0  0  0  0  0  0  0  0  0
    8.7393   10.8706   24.1871 O   0  0  0  0  0  0  0  0  0  0  0  0
    9.3093    3.8166   21.6712 C   0  0  0  0  0  0  0  0  0  0  0  0
  1  5  1  0
  1 15  4  0
  1 22  4  0
  2 20  1  0
  2 24  1  0
  3  6  4  0
  3 27  4  0
  4 22  4  0
  4 26  4  0
  6  7  4  0
  6 13  1  0
  7 19  4  0
  8 18  1  0
  8 23  1  0
  8 28  2  0
  9 17  1  0
  9 24  1  0
 10 11  1  0
 10 24  1  0
 11 23  1  0
 12 14  4  0
 12 16  4  0
 14 19  4  0
 15 18  4  0
 16 20  4  0
 17 25  1  0
 18 26  4  0
 19 29  4  0
 20 29  4  0
 21 23  1  0
 21 25  1  0
 27 29  4  0
M  END
$$$$

 Created by Python create_sdf_string function

 29 32  0  0  0  0  0  0  0  0999 V2000
    5.4450    8.7154   22.6662 C   0  0  0  0  0  0  0  0  0  0  0  0
   10.9154    5.4574   20.5483 C   0  0  0  0  0  0  0  0  0  0  0  0
    7.2709    4.5089   22.7542 C   0  0  0  0  0  0  0  0  0  0  0  0
    5.9698    7.6329   24.6581 C   0  0  0  0  0  0  0  0  0  0  0  0
    4.5542    8.9057   21.7104 O   0  0  0  0  0  0  0  0  0  0  0  0
    6.9895    3.2085   23.0690 C   0  0  0  0  0  0  0  0  0  0  0  0
    7.8391    2.2253   22.7260 N   0  0  0  0  0  0  0  0  0  0  0  0
    8.6968    9.8373   23.6359 C   0  0  0  0  0  0  0  0  0  0  0  0
   12.5135    6.5957   21.8396 C   0  0  0  0  0  0  0  0  0  0  0  0
   10.9406    8.2330   21.1350 C   0  0  0  0  0  0  0  0  0  0  0  0
    9.6648    8.5956   21.7310 C   0  0  0  0  0  0  0  0  0  0  0  0
   10.8829    1.7153   20.9865 C   0  0  0  0  0  0  0  0  0  0  0  0
    5.7768    2.8533   23.7910 C   0  0  0  0  0  0  0  0  0  0  0  0
    9.7977    1.4791   21.6912 N   0  0  0  0  0  0  0  0  0  0  0  0
    6.5976    9.3401   22.6478 N   0  0  0  0  0  0  0  0  0  0  0  0
   11.2031    3.0042   20.6246 C   0  0  0  0  0  0  0  0  0  0  0  0
   12.8688    7.7370   22.7287 C   0  0  0  0  0  0  0  0  0  0  0  0
    7.4487    9.1361   23.6506 C   0  0  0  0  0  0  0  0  0  0  0  0
    8.9772    2.5025   22.0273 C   0  0  0  0  0  0  0  0  0  0  0  0
   10.4859    4.0901   20.9730 C   0  0  0  0  0  0  0  0  0  0  0  0
   11.0962    9.3293   23.5072 C   0  0  0  0  0  0  0  0  0  0  0  0
    5.1273    7.8529   23.6208 N   0  0  0  0  0  0  0  0  0  0  0  0
    9.7552    9.2338   23.0171 N   0  0  0  0  0  0  0  0  0  0  0  0
   11.1797    6.7591   21.3326 N   0  0  0  0  0  0  0  0  0  0  0  0
   11.7728    8.0337   23.7267 C   0  0  0  0  0  0  0  0  0  0  0  0
    7.1194    8.3344   24.6775 C   0  0  0  0  0  0  0  0  0  0  0  0
    8.4311    4.7963   22.0500 C   0  0  0  0  0  0  0  0  0  0  0  0
    8.7393   10.8706   24.1871 O   0  0  0  0  0  0  0  0  0  0  0  0
    9.3093    3.8166   21.6712 C   0  0  0  0  0  0  0  0  0  0  0  0
  1  5  1  0
  1 15  4  0
  1 22  4  0
  2 20  1  0
  2 24  1  0
  3  6  4  0
  3 27  4  0
  4 22  4  0
  4 26  4  0
  6  7  4  0
  6 13  1  0
  7 19  4  0
  8 18  1  0
  8 23  1  0
  8 28  2  0
  9 17  1  0
  9 24  1  0
 10 11  1  0
 10 24  1  0
 11 23  1  0
 12 14  4  0
 12 16  4  0
 14 19  4  0
 15 18  4  0
 16 20  4  0
 17 25  1  0
 18 26  4  0
 19 29  4  0
 20 29  4  0
 21 23  1  0
 21 25  1  0
 27 29  4  0
M  END
$$$$

 Created by Python create_sdf_string function

 29 32  0  0  0  0  0  0  0  0999 V2000
    5.4450    8.7154   22.6662 C   0  0  0  0  0  0  0  0  0  0  0  0
   10.9154    5.4574   20.5483 C   0  0  0  0  0  0  0  0  0  0  0  0
    7.2709    4.5089   22.7542 C   0  0  0  0  0  0  0  0  0  0  0  0
    5.9698    7.6329   24.6581 C   0  0  0  0  0  0  0  0  0  0  0  0
    4.5542    8.9057   21.7104 O   0  0  0  0  0  0  0  0  0  0  0  0
    6.9895    3.2085   23.0690 C   0  0  0  0  0  0  0  0  0  0  0  0
    7.8391    2.2253   22.7260 N   0  0  0  0  0  0  0  0  0  0  0  0
    8.6968    9.8373   23.6359 C   0  0  0  0  0  0  0  0  0  0  0  0
   12.5135    6.5957   21.8396 C   0  0  0  0  0  0  0  0  0  0  0  0
   10.9406    8.2330   21.1350 C   0  0  0  0  0  0  0  0  0  0  0  0
    9.6648    8.5956   21.7310 C   0  0  0  0  0  0  0  0  0  0  0  0
   10.8829    1.7153   20.9865 C   0  0  0  0  0  0  0  0  0  0  0  0
    5.7768    2.8533   23.7910 C   0  0  0  0  0  0  0  0  0  0  0  0
    9.7977    1.4791   21.6912 N   0  0  0  0  0  0  0  0  0  0  0  0
    6.5976    9.3401   22.6478 N   0  0  0  0  0  0  0  0  0  0  0  0
   11.2031    3.0042   20.6246 C   0  0  0  0  0  0  0  0  0  0  0  0
   12.8688    7.7370   22.7287 C   0  0  0  0  0  0  0  0  0  0  0  0
    7.4487    9.1361   23.6506 C   0  0  0  0  0  0  0  0  0  0  0  0
    8.9772    2.5025   22.0273 C   0  0  0  0  0  0  0  0  0  0  0  0
   10.4859    4.0901   20.9730 C   0  0  0  0  0  0  0  0  0  0  0  0
   11.0962    9.3293   23.5072 C   0  0  0  0  0  0  0  0  0  0  0  0
    5.1273    7.8529   23.6208 N   0  0  0  0  0  0  0  0  0  0  0  0
    9.7552    9.2338   23.0171 N   0  0  0  0  0  0  0  0  0  0  0  0
   11.1797    6.7591   21.3326 N   0  0  0  0  0  0  0  0  0  0  0  0
   11.7728    8.0337   23.7267 C   0  0  0  0  0  0  0  0  0  0  0  0
    7.1194    8.3344   24.6775 C   0  0  0  0  0  0  0  0  0  0  0  0
    8.4311    4.7963   22.0500 C   0  0  0  0  0  0  0  0  0  0  0  0
    8.7393   10.8706   24.1871 O   0  0  0  0  0  0  0  0  0  0  0  0
    9.3093    3.8166   21.6712 C   0  0  0  0  0  0  0  0  0  0  0  0
  1  5  1  0
  1 15  4  0
  1 22  4  0
  2 20  1  0
  2 24  1  0
  3  6  4  0
  3 27  4  0
  4 22  4  0
  4 26  4  0
  6  7  4  0
  6 13  1  0
  7 19  4  0
  8 18  1  0
  8 23  1  0
  8 28  2  0
  9 17  1  0
  9 24  1  0
 10 11  1  0
 10 24  1  0
 11 23  1  0
 12 14  4  0
 12 16  4  0
 14 19  4  0
 15 18  4  0
 16 20  4  0
 17 25  1  0
 18 26  4  0
 19 29  4  0
 20 29  4  0
 21 23  1  0
 21 25  1  0
 27 29  4  0
M  END
$$$$

 Created by Python create_sdf_string function

 29 32  0  0  0  0  0  0  0  0999 V2000
    5.4450    8.7154   22.6662 C   0  0  0  0  0  0  0  0  0  0  0  0
   10.9154    5.4574   20.5483 C   0  0  0  0  0  0  0  0  0  0  0  0
    7.2709    4.5089   22.7542 C   0  0  0  0  0  0  0  0  0  0  0  0
    5.9698    7.6329   24.6581 C   0  0  0  0  0  0  0  0  0  0  0  0
    4.5542    8.9057   21.7104 O   0  0  0  0  0  0  0  0  0  0  0  0
    6.9895    3.2085   23.0690 C   0  0  0  0  0  0  0  0  0  0  0  0
    7.8391    2.2253   22.7260 N   0  0  0  0  0  0  0  0  0  0  0  0
    8.6968    9.8373   23.6359 C   0  0  0  0  0  0  0  0  0  0  0  0
   12.5135    6.5957   21.8396 C   0  0  0  0  0  0  0  0  0  0  0  0
   10.9406    8.2330   21.1350 C   0  0  0  0  0  0  0  0  0  0  0  0
    9.6648    8.5956   21.7310 C   0  0  0  0  0  0  0  0  0  0  0  0
   10.8829    1.7153   20.9865 C   0  0  0  0  0  0  0  0  0  0  0  0
    5.7768    2.8533   23.7910 C   0  0  0  0  0  0  0  0  0  0  0  0
    9.7977    1.4791   21.6912 N   0  0  0  0  0  0  0  0  0  0  0  0
    6.5976    9.3401   22.6478 N   0  0  0  0  0  0  0  0  0  0  0  0
   11.2031    3.0042   20.6246 C   0  0  0  0  0  0  0  0  0  0  0  0
   12.8688    7.7370   22.7287 C   0  0  0  0  0  0  0  0  0  0  0  0
    7.4487    9.1361   23.6506 C   0  0  0  0  0  0  0  0  0  0  0  0
    8.9772    2.5025   22.0273 C   0  0  0  0  0  0  0  0  0  0  0  0
   10.4859    4.0901   20.9730 C   0  0  0  0  0  0  0  0  0  0  0  0
   11.0962    9.3293   23.5072 C   0  0  0  0  0  0  0  0  0  0  0  0
    5.1273    7.8529   23.6208 N   0  0  0  0  0  0  0  0  0  0  0  0
    9.7552    9.2338   23.0171 N   0  0  0  0  0  0  0  0  0  0  0  0
   11.1797    6.7591   21.3326 N   0  0  0  0  0  0  0  0  0  0  0  0
   11.7728    8.0337   23.7267 C   0  0  0  0  0  0  0  0  0  0  0  0
    7.1194    8.3344   24.6775 C   0  0  0  0  0  0  0  0  0  0  0  0
    8.4311    4.7963   22.0500 C   0  0  0  0  0  0  0  0  0  0  0  0
    8.7393   10.8706   24.1871 O   0  0  0  0  0  0  0  0  0  0  0  0
    9.3093    3.8166   21.6712 C   0  0  0  0  0  0  0  0  0  0  0  0
  1  5  1  0
  1 15  4  0
  1 22  4  0
  2 20  1  0
  2 24  1  0
  3  6  4  0
  3 27  4  0
  4 22  4  0
  4 26  4  0
  6  7  4  0
  6 13  1  0
  7 19  4  0
  8 18  1  0
  8 23  1  0
  8 28  2  0
  9 17  1  0
  9 24  1  0
 10 11  1  0
 10 24  1  0
 11 23  1  0
 12 14  4  0
 12 16  4  0
 14 19  4  0
 15 18  4  0
 16 20  4  0
 17 25  1  0
 18 26  4  0
 19 29  4  0
 20 29  4  0
 21 23  1  0
 21 25  1  0
 27 29  4  0
M  END
$$$$

 Created by Python create_sdf_string function

 29 32  0  0  0  0  0  0  0  0999 V2000
    5.4450    8.7154   22.6662 C   0  0  0  0  0  0  0  0  0  0  0  0
   10.9154    5.4574   20.5483 C   0  0  0  0  0  0  0  0  0  0  0  0
    7.2709    4.5089   22.7542 C   0  0  0  0  0  0  0  0  0  0  0  0
    5.9698    7.6329   24.6581 C   0  0  0  0  0  0  0  0  0  0  0  0
    4.5542    8.9057   21.7104 O   0  0  0  0  0  0  0  0  0  0  0  0
    6.9895    3.2085   23.0690 C   0  0  0  0  0  0  0  0  0  0  0  0
    7.8391    2.2253   22.7260 N   0  0  0  0  0  0  0  0  0  0  0  0
    8.6968    9.8373   23.6359 C   0  0  0  0  0  0  0  0  0  0  0  0
   12.5135    6.5957   21.8396 C   0  0  0  0  0  0  0  0  0  0  0  0
   10.9406    8.2330   21.1350 C   0  0  0  0  0  0  0  0  0  0  0  0
    9.6648    8.5956   21.7310 C   0  0  0  0  0  0  0  0  0  0  0  0
   10.8829    1.7153   20.9865 C   0  0  0  0  0  0  0  0  0  0  0  0
    5.7768    2.8533   23.7910 C   0  0  0  0  0  0  0  0  0  0  0  0
    9.7977    1.4791   21.6912 N   0  0  0  0  0  0  0  0  0  0  0  0
    6.5976    9.3401   22.6478 N   0  0  0  0  0  0  0  0  0  0  0  0
   11.2031    3.0042   20.6246 C   0  0  0  0  0  0  0  0  0  0  0  0
   12.8688    7.7370   22.7287 C   0  0  0  0  0  0  0  0  0  0  0  0
    7.4487    9.1361   23.6506 C   0  0  0  0  0  0  0  0  0  0  0  0
    8.9772    2.5025   22.0273 C   0  0  0  0  0  0  0  0  0  0  0  0
   10.4859    4.0901   20.9730 C   0  0  0  0  0  0  0  0  0  0  0  0
   11.0962    9.3293   23.5072 C   0  0  0  0  0  0  0  0  0  0  0  0
    5.1273    7.8529   23.6208 N   0  0  0  0  0  0  0  0  0  0  0  0
    9.7552    9.2338   23.0171 N   0  0  0  0  0  0  0  0  0  0  0  0
   11.1797    6.7591   21.3326 N   0  0  0  0  0  0  0  0  0  0  0  0
   11.7728    8.0337   23.7267 C   0  0  0  0  0  0  0  0  0  0  0  0
    7.1194    8.3344   24.6775 C   0  0  0  0  0  0  0  0  0  0  0  0
    8.4311    4.7963   22.0500 C   0  0  0  0  0  0  0  0  0  0  0  0
    8.7393   10.8706   24.1871 O   0  0  0  0  0  0  0  0  0  0  0  0
    9.3093    3.8166   21.6712 C   0  0  0  0  0  0  0  0  0  0  0  0
  1  5  1  0
  1 15  4  0
  1 22  4  0
  2 20  1  0
  2 24  1  0
  3  6  4  0
  3 27  4  0
  4 22  4  0
  4 26  4  0
  6  7  4  0
  6 13  1  0
  7 19  4  0
  8 18  1  0
  8 23  1  0
  8 28  2  0
  9 17  1  0
  9 24  1  0
 10 11  1  0
 10 24  1  0
 11 23  1  0
 12 14  4  0
 12 16  4  0
 14 19  4  0
 15 18  4  0
 16 20  4  0
 17 25  1  0
 18 26  4  0
 19 29  4  0
 20 29  4  0
 21 23  1  0
 21 25  1  0
 27 29  4  0
M  END
$$$$

 Created by Python create_sdf_string function

 29 32  0  0  0  0  0  0  0  0999 V2000
    5.4450    8.7154   22.6662 C   0  0  0  0  0  0  0  0  0  0  0  0
   10.9154    5.4574   20.5483 C   0  0  0  0  0  0  0  0  0  0  0  0
    7.2709    4.5089   22.7542 C   0  0  0  0  0  0  0  0  0  0  0  0
    5.9698    7.6329   24.6581 C   0  0  0  0  0  0  0  0  0  0  0  0
    4.5542    8.9057   21.7104 O   0  0  0  0  0  0  0  0  0  0  0  0
    6.9895    3.2085   23.0690 C   0  0  0  0  0  0  0  0  0  0  0  0
    7.8391    2.2253   22.7260 N   0  0  0  0  0  0  0  0  0  0  0  0
    8.6968    9.8373   23.6359 C   0  0  0  0  0  0  0  0  0  0  0  0
   12.5135    6.5957   21.8396 C   0  0  0  0  0  0  0  0  0  0  0  0
   10.9406    8.2330   21.1350 C   0  0  0  0  0  0  0  0  0  0  0  0
    9.6648    8.5956   21.7310 C   0  0  0  0  0  0  0  0  0  0  0  0
   10.8829    1.7153   20.9865 C   0  0  0  0  0  0  0  0  0  0  0  0
    5.7768    2.8533   23.7910 C   0  0  0  0  0  0  0  0  0  0  0  0
    9.7977    1.4791   21.6912 N   0  0  0  0  0  0  0  0  0  0  0  0
    6.5976    9.3401   22.6478 N   0  0  0  0  0  0  0  0  0  0  0  0
   11.2031    3.0042   20.6246 C   0  0  0  0  0  0  0  0  0  0  0  0
   12.8688    7.7370   22.7287 C   0  0  0  0  0  0  0  0  0  0  0  0
    7.4487    9.1361   23.6506 C   0  0  0  0  0  0  0  0  0  0  0  0
    8.9772    2.5025   22.0273 C   0  0  0  0  0  0  0  0  0  0  0  0
   10.4859    4.0901   20.9730 C   0  0  0  0  0  0  0  0  0  0  0  0
   11.0962    9.3293   23.5072 C   0  0  0  0  0  0  0  0  0  0  0  0
    5.1273    7.8529   23.6208 N   0  0  0  0  0  0  0  0  0  0  0  0
    9.7552    9.2338   23.0171 N   0  0  0  0  0  0  0  0  0  0  0  0
   11.1797    6.7591   21.3326 N   0  0  0  0  0  0  0  0  0  0  0  0
   11.7728    8.0337   23.7267 C   0  0  0  0  0  0  0  0  0  0  0  0
    7.1194    8.3344   24.6775 C   0  0  0  0  0  0  0  0  0  0  0  0
    8.4311    4.7963   22.0500 C   0  0  0  0  0  0  0  0  0  0  0  0
    8.7393   10.8706   24.1871 O   0  0  0  0  0  0  0  0  0  0  0  0
    9.3093    3.8166   21.6712 C   0  0  0  0  0  0  0  0  0  0  0  0
  1  5  1  0
  1 15  4  0
  1 22  4  0
  2 20  1  0
  2 24  1  0
  3  6  4  0
  3 27  4  0
  4 22  4  0
  4 26  4  0
  6  7  4  0
  6 13  1  0
  7 19  4  0
  8 18  1  0
  8 23  1  0
  8 28  2  0
  9 17  1  0
  9 24  1  0
 10 11  1  0
 10 24  1  0
 11 23  1  0
 12 14  4  0
 12 16  4  0
 14 19  4  0
 15 18  4  0
 16 20  4  0
 17 25  1  0
 18 26  4  0
 19 29  4  0
 20 29  4  0
 21 23  1  0
 21 25  1  0
 27 29  4  0
M  END
$$$$

 Created by Python create_sdf_string function

 29 32  0  0  0  0  0  0  0  0999 V2000
    5.4450    8.7154   22.6662 C   0  0  0  0  0  0  0  0  0  0  0  0
   10.9154    5.4574   20.5483 C   0  0  0  0  0  0  0  0  0  0  0  0
    7.2709    4.5089   22.7542 C   0  0  0  0  0  0  0  0  0  0  0  0
    5.9698    7.6329   24.6581 C   0  0  0  0  0  0  0  0  0  0  0  0
    4.5542    8.9057   21.7104 O   0  0  0  0  0  0  0  0  0  0  0  0
    6.9895    3.2085   23.0690 C   0  0  0  0  0  0  0  0  0  0  0  0
    7.8391    2.2253   22.7260 N   0  0  0  0  0  0  0  0  0  0  0  0
    8.6968    9.8373   23.6359 C   0  0  0  0  0  0  0  0  0  0  0  0
   12.5135    6.5957   21.8396 C   0  0  0  0  0  0  0  0  0  0  0  0
   10.9406    8.2330   21.1350 C   0  0  0  0  0  0  0  0  0  0  0  0
    9.6648    8.5956   21.7310 C   0  0  0  0  0  0  0  0  0  0  0  0
   10.8829    1.7153   20.9865 C   0  0  0  0  0  0  0  0  0  0  0  0
    5.7768    2.8533   23.7910 C   0  0  0  0  0  0  0  0  0  0  0  0
    9.7977    1.4791   21.6912 N   0  0  0  0  0  0  0  0  0  0  0  0
    6.5976    9.3401   22.6478 N   0  0  0  0  0  0  0  0  0  0  0  0
   11.2031    3.0042   20.6246 C   0  0  0  0  0  0  0  0  0  0  0  0
   12.8688    7.7370   22.7287 C   0  0  0  0  0  0  0  0  0  0  0  0
    7.4487    9.1361   23.6506 C   0  0  0  0  0  0  0  0  0  0  0  0
    8.9772    2.5025   22.0273 C   0  0  0  0  0  0  0  0  0  0  0  0
   10.4859    4.0901   20.9730 C   0  0  0  0  0  0  0  0  0  0  0  0
   11.0962    9.3293   23.5072 C   0  0  0  0  0  0  0  0  0  0  0  0
    5.1273    7.8529   23.6208 N   0  0  0  0  0  0  0  0  0  0  0  0
    9.7552    9.2338   23.0171 N   0  0  0  0  0  0  0  0  0  0  0  0
   11.1797    6.7591   21.3326 N   0  0  0  0  0  0  0  0  0  0  0  0
   11.7728    8.0337   23.7267 C   0  0  0  0  0  0  0  0  0  0  0  0
    7.1194    8.3344   24.6775 C   0  0  0  0  0  0  0  0  0  0  0  0
    8.4311    4.7963   22.0500 C   0  0  0  0  0  0  0  0  0  0  0  0
    8.7393   10.8706   24.1871 O   0  0  0  0  0  0  0  0  0  0  0  0
    9.3093    3.8166   21.6712 C   0  0  0  0  0  0  0  0  0  0  0  0
  1  5  1  0
  1 15  4  0
  1 22  4  0
  2 20  1  0
  2 24  1  0
  3  6  4  0
  3 27  4  0
  4 22  4  0
  4 26  4  0
  6  7  4  0
  6 13  1  0
  7 19  4  0
  8 18  1  0
  8 23  1  0
  8 28  2  0
  9 17  1  0
  9 24  1  0
 10 11  1  0
 10 24  1  0
 11 23  1  0
 12 14  4  0
 12 16  4  0
 14 19  4  0
 15 18  4  0
 16 20  4  0
 17 25  1  0
 18 26  4  0
 19 29  4  0
 20 29  4  0
 21 23  1  0
 21 25  1  0
 27 29  4  0
M  END
$$$$

 Created by Python create_sdf_string function

 29 32  0  0  0  0  0  0  0  0999 V2000
    5.4450    8.7154   22.6662 C   0  0  0  0  0  0  0  0  0  0  0  0
   10.9154    5.4574   20.5483 C   0  0  0  0  0  0  0  0  0  0  0  0
    7.2709    4.5089   22.7542 C   0  0  0  0  0  0  0  0  0  0  0  0
    5.9698    7.6329   24.6581 C   0  0  0  0  0  0  0  0  0  0  0  0
    4.5542    8.9057   21.7104 O   0  0  0  0  0  0  0  0  0  0  0  0
    6.9895    3.2085   23.0690 C   0  0  0  0  0  0  0  0  0  0  0  0
    7.8391    2.2253   22.7260 N   0  0  0  0  0  0  0  0  0  0  0  0
    8.6968    9.8373   23.6359 C   0  0  0  0  0  0  0  0  0  0  0  0
   12.5135    6.5957   21.8396 C   0  0  0  0  0  0  0  0  0  0  0  0
   10.9406    8.2330   21.1350 C   0  0  0  0  0  0  0  0  0  0  0  0
    9.6648    8.5956   21.7310 C   0  0  0  0  0  0  0  0  0  0  0  0
   10.8829    1.7153   20.9865 C   0  0  0  0  0  0  0  0  0  0  0  0
    5.7768    2.8533   23.7910 C   0  0  0  0  0  0  0  0  0  0  0  0
    9.7977    1.4791   21.6912 N   0  0  0  0  0  0  0  0  0  0  0  0
    6.5976    9.3401   22.6478 N   0  0  0  0  0  0  0  0  0  0  0  0
   11.2031    3.0042   20.6246 C   0  0  0  0  0  0  0  0  0  0  0  0
   12.8688    7.7370   22.7287 C   0  0  0  0  0  0  0  0  0  0  0  0
    7.4487    9.1361   23.6506 C   0  0  0  0  0  0  0  0  0  0  0  0
    8.9772    2.5025   22.0273 C   0  0  0  0  0  0  0  0  0  0  0  0
   10.4859    4.0901   20.9730 C   0  0  0  0  0  0  0  0  0  0  0  0
   11.0962    9.3293   23.5072 C   0  0  0  0  0  0  0  0  0  0  0  0
    5.1273    7.8529   23.6208 N   0  0  0  0  0  0  0  0  0  0  0  0
    9.7552    9.2338   23.0171 N   0  0  0  0  0  0  0  0  0  0  0  0
   11.1797    6.7591   21.3326 N   0  0  0  0  0  0  0  0  0  0  0  0
   11.7728    8.0337   23.7267 C   0  0  0  0  0  0  0  0  0  0  0  0
    7.1194    8.3344   24.6775 C   0  0  0  0  0  0  0  0  0  0  0  0
    8.4311    4.7963   22.0500 C   0  0  0  0  0  0  0  0  0  0  0  0
    8.7393   10.8706   24.1871 O   0  0  0  0  0  0  0  0  0  0  0  0
    9.3093    3.8166   21.6712 C   0  0  0  0  0  0  0  0  0  0  0  0
  1  5  1  0
  1 15  4  0
  1 22  4  0
  2 20  1  0
  2 24  1  0
  3  6  4  0
  3 27  4  0
  4 22  4  0
  4 26  4  0
  6  7  4  0
  6 13  1  0
  7 19  4  0
  8 18  1  0
  8 23  1  0
  8 28  2  0
  9 17  1  0
  9 24  1  0
 10 11  1  0
 10 24  1  0
 11 23  1  0
 12 14  4  0
 12 16  4  0
 14 19  4  0
 15 18  4  0
 16 20  4  0
 17 25  1  0
 18 26  4  0
 19 29  4  0
 20 29  4  0
 21 23  1  0
 21 25  1  0
 27 29  4  0
M  END
$$$$

 Created by Python create_sdf_string function

 29 32  0  0  0  0  0  0  0  0999 V2000
    5.4450    8.7154   22.6662 C   0  0  0  0  0  0  0  0  0  0  0  0
   10.9154    5.4574   20.5483 C   0  0  0  0  0  0  0  0  0  0  0  0
    7.2709    4.5089   22.7542 C   0  0  0  0  0  0  0  0  0  0  0  0
    5.9698    7.6329   24.6581 C   0  0  0  0  0  0  0  0  0  0  0  0
    4.5542    8.9057   21.7104 O   0  0  0  0  0  0  0  0  0  0  0  0
    6.9895    3.2085   23.0690 C   0  0  0  0  0  0  0  0  0  0  0  0
    7.8391    2.2253   22.7260 N   0  0  0  0  0  0  0  0  0  0  0  0
    8.6968    9.8373   23.6359 C   0  0  0  0  0  0  0  0  0  0  0  0
   12.5135    6.5957   21.8396 C   0  0  0  0  0  0  0  0  0  0  0  0
   10.9406    8.2330   21.1350 C   0  0  0  0  0  0  0  0  0  0  0  0
    9.6648    8.5956   21.7310 C   0  0  0  0  0  0  0  0  0  0  0  0
   10.8829    1.7153   20.9865 C   0  0  0  0  0  0  0  0  0  0  0  0
    5.7768    2.8533   23.7910 C   0  0  0  0  0  0  0  0  0  0  0  0
    9.7977    1.4791   21.6912 N   0  0  0  0  0  0  0  0  0  0  0  0
    6.5976    9.3401   22.6478 N   0  0  0  0  0  0  0  0  0  0  0  0
   11.2031    3.0042   20.6246 C   0  0  0  0  0  0  0  0  0  0  0  0
   12.8688    7.7370   22.7287 C   0  0  0  0  0  0  0  0  0  0  0  0
    7.4487    9.1361   23.6506 C   0  0  0  0  0  0  0  0  0  0  0  0
    8.9772    2.5025   22.0273 C   0  0  0  0  0  0  0  0  0  0  0  0
   10.4859    4.0901   20.9730 C   0  0  0  0  0  0  0  0  0  0  0  0
   11.0962    9.3293   23.5072 C   0  0  0  0  0  0  0  0  0  0  0  0
    5.1273    7.8529   23.6208 N   0  0  0  0  0  0  0  0  0  0  0  0
    9.7552    9.2338   23.0171 N   0  0  0  0  0  0  0  0  0  0  0  0
   11.1797    6.7591   21.3326 N   0  0  0  0  0  0  0  0  0  0  0  0
   11.7728    8.0337   23.7267 C   0  0  0  0  0  0  0  0  0  0  0  0
    7.1194    8.3344   24.6775 C   0  0  0  0  0  0  0  0  0  0  0  0
    8.4311    4.7963   22.0500 C   0  0  0  0  0  0  0  0  0  0  0  0
    8.7393   10.8706   24.1871 O   0  0  0  0  0  0  0  0  0  0  0  0
    9.3093    3.8166   21.6712 C   0  0  0  0  0  0  0  0  0  0  0  0
  1  5  1  0
  1 15  4  0
  1 22  4  0
  2 20  1  0
  2 24  1  0
  3  6  4  0
  3 27  4  0
  4 22  4  0
  4 26  4  0
  6  7  4  0
  6 13  1  0
  7 19  4  0
  8 18  1  0
  8 23  1  0
  8 28  2  0
  9 17  1  0
  9 24  1  0
 10 11  1  0
 10 24  1  0
 11 23  1  0
 12 14  4  0
 12 16  4  0
 14 19  4  0
 15 18  4  0
 16 20  4  0
 17 25  1  0
 18 26  4  0
 19 29  4  0
 20 29  4  0
 21 23  1  0
 21 25  1  0
 27 29  4  0
M  END
$$$$

 Created by Python create_sdf_string function

 29 32  0  0  0  0  0  0  0  0999 V2000
    5.4450    8.7154   22.6662 C   0  0  0  0  0  0  0  0  0  0  0  0
   10.9154    5.4574   20.5483 C   0  0  0  0  0  0  0  0  0  0  0  0
    7.2709    4.5089   22.7542 C   0  0  0  0  0  0  0  0  0  0  0  0
    5.9698    7.6329   24.6581 C   0  0  0  0  0  0  0  0  0  0  0  0
    4.5542    8.9057   21.7104 O   0  0  0  0  0  0  0  0  0  0  0  0
    6.9895    3.2085   23.0690 C   0  0  0  0  0  0  0  0  0  0  0  0
    7.8391    2.2253   22.7260 N   0  0  0  0  0  0  0  0  0  0  0  0
    8.6968    9.8373   23.6359 C   0  0  0  0  0  0  0  0  0  0  0  0
   12.5135    6.5957   21.8396 C   0  0  0  0  0  0  0  0  0  0  0  0
   10.9406    8.2330   21.1350 C   0  0  0  0  0  0  0  0  0  0  0  0
    9.6648    8.5956   21.7310 C   0  0  0  0  0  0  0  0  0  0  0  0
   10.8829    1.7153   20.9865 C   0  0  0  0  0  0  0  0  0  0  0  0
    5.7768    2.8533   23.7910 C   0  0  0  0  0  0  0  0  0  0  0  0
    9.7977    1.4791   21.6912 N   0  0  0  0  0  0  0  0  0  0  0  0
    6.5976    9.3401   22.6478 N   0  0  0  0  0  0  0  0  0  0  0  0
   11.2031    3.0042   20.6246 C   0  0  0  0  0  0  0  0  0  0  0  0
   12.8688    7.7370   22.7287 C   0  0  0  0  0  0  0  0  0  0  0  0
    7.4487    9.1361   23.6506 C   0  0  0  0  0  0  0  0  0  0  0  0
    8.9772    2.5025   22.0273 C   0  0  0  0  0  0  0  0  0  0  0  0
   10.4859    4.0901   20.9730 C   0  0  0  0  0  0  0  0  0  0  0  0
   11.0962    9.3293   23.5072 C   0  0  0  0  0  0  0  0  0  0  0  0
    5.1273    7.8529   23.6208 N   0  0  0  0  0  0  0  0  0  0  0  0
    9.7552    9.2338   23.0171 N   0  0  0  0  0  0  0  0  0  0  0  0
   11.1797    6.7591   21.3326 N   0  0  0  0  0  0  0  0  0  0  0  0
   11.7728    8.0337   23.7267 C   0  0  0  0  0  0  0  0  0  0  0  0
    7.1194    8.3344   24.6775 C   0  0  0  0  0  0  0  0  0  0  0  0
    8.4311    4.7963   22.0500 C   0  0  0  0  0  0  0  0  0  0  0  0
    8.7393   10.8706   24.1871 O   0  0  0  0  0  0  0  0  0  0  0  0
    9.3093    3.8166   21.6712 C   0  0  0  0  0  0  0  0  0  0  0  0
  1  5  1  0
  1 15  4  0
  1 22  4  0
  2 20  1  0
  2 24  1  0
  3  6  4  0
  3 27  4  0
  4 22  4  0
  4 26  4  0
  6  7  4  0
  6 13  1  0
  7 19  4  0
  8 18  1  0
  8 23  1  0
  8 28  2  0
  9 17  1  0
  9 24  1  0
 10 11  1  0
 10 24  1  0
 11 23  1  0
 12 14  4  0
 12 16  4  0
 14 19  4  0
 15 18  4  0
 16 20  4  0
 17 25  1  0
 18 26  4  0
 19 29  4  0
 20 29  4  0
 21 23  1  0
 21 25  1  0
 27 29  4  0
M  END
$$$$

 Created by Python create_sdf_string function

 29 32  0  0  0  0  0  0  0  0999 V2000
    5.4450    8.7154   22.6662 C   0  0  0  0  0  0  0  0  0  0  0  0
   10.9154    5.4574   20.5483 C   0  0  0  0  0  0  0  0  0  0  0  0
    7.2709    4.5089   22.7542 C   0  0  0  0  0  0  0  0  0  0  0  0
    5.9698    7.6329   24.6581 C   0  0  0  0  0  0  0  0  0  0  0  0
    4.5542    8.9057   21.7104 O   0  0  0  0  0  0  0  0  0  0  0  0
    6.9895    3.2085   23.0690 C   0  0  0  0  0  0  0  0  0  0  0  0
    7.8391    2.2253   22.7260 N   0  0  0  0  0  0  0  0  0  0  0  0
    8.6968    9.8373   23.6359 C   0  0  0  0  0  0  0  0  0  0  0  0
   12.5135    6.5957   21.8396 C   0  0  0  0  0  0  0  0  0  0  0  0
   10.9406    8.2330   21.1350 C   0  0  0  0  0  0  0  0  0  0  0  0
    9.6648    8.5956   21.7310 C   0  0  0  0  0  0  0  0  0  0  0  0
   10.8829    1.7153   20.9865 C   0  0  0  0  0  0  0  0  0  0  0  0
    5.7768    2.8533   23.7910 C   0  0  0  0  0  0  0  0  0  0  0  0
    9.7977    1.4791   21.6912 N   0  0  0  0  0  0  0  0  0  0  0  0
    6.5976    9.3401   22.6478 N   0  0  0  0  0  0  0  0  0  0  0  0
   11.2031    3.0042   20.6246 C   0  0  0  0  0  0  0  0  0  0  0  0
   12.8688    7.7370   22.7287 C   0  0  0  0  0  0  0  0  0  0  0  0
    7.4487    9.1361   23.6506 C   0  0  0  0  0  0  0  0  0  0  0  0
    8.9772    2.5025   22.0273 C   0  0  0  0  0  0  0  0  0  0  0  0
   10.4859    4.0901   20.9730 C   0  0  0  0  0  0  0  0  0  0  0  0
   11.0962    9.3293   23.5072 C   0  0  0  0  0  0  0  0  0  0  0  0
    5.1273    7.8529   23.6208 N   0  0  0  0  0  0  0  0  0  0  0  0
    9.7552    9.2338   23.0171 N   0  0  0  0  0  0  0  0  0  0  0  0
   11.1797    6.7591   21.3326 N   0  0  0  0  0  0  0  0  0  0  0  0
   11.7728    8.0337   23.7267 C   0  0  0  0  0  0  0  0  0  0  0  0
    7.1194    8.3344   24.6775 C   0  0  0  0  0  0  0  0  0  0  0  0
    8.4311    4.7963   22.0500 C   0  0  0  0  0  0  0  0  0  0  0  0
    8.7393   10.8706   24.1871 O   0  0  0  0  0  0  0  0  0  0  0  0
    9.3093    3.8166   21.6712 C   0  0  0  0  0  0  0  0  0  0  0  0
  1  5  1  0
  1 15  4  0
  1 22  4  0
  2 20  1  0
  2 24  1  0
  3  6  4  0
  3 27  4  0
  4 22  4  0
  4 26  4  0
  6  7  4  0
  6 13  1  0
  7 19  4  0
  8 18  1  0
  8 23  1  0
  8 28  2  0
  9 17  1  0
  9 24  1  0
 10 11  1  0
 10 24  1  0
 11 23  1  0
 12 14  4  0
 12 16  4  0
 14 19  4  0
 15 18  4  0
 16 20  4  0
 17 25  1  0
 18 26  4  0
 19 29  4  0
 20 29  4  0
 21 23  1  0
 21 25  1  0
 27 29  4  0
M  END
$$$$

 Created by Python create_sdf_string function

 29 32  0  0  0  0  0  0  0  0999 V2000
    5.4450    8.7154   22.6662 C   0  0  0  0  0  0  0  0  0  0  0  0
   10.9154    5.4574   20.5483 C   0  0  0  0  0  0  0  0  0  0  0  0
    7.2709    4.5089   22.7542 C   0  0  0  0  0  0  0  0  0  0  0  0
    5.9698    7.6329   24.6581 C   0  0  0  0  0  0  0  0  0  0  0  0
    4.5542    8.9057   21.7104 O   0  0  0  0  0  0  0  0  0  0  0  0
    6.9895    3.2085   23.0690 C   0  0  0  0  0  0  0  0  0  0  0  0
    7.8391    2.2253   22.7260 N   0  0  0  0  0  0  0  0  0  0  0  0
    8.6968    9.8373   23.6359 C   0  0  0  0  0  0  0  0  0  0  0  0
   12.5135    6.5957   21.8396 C   0  0  0  0  0  0  0  0  0  0  0  0
   10.9406    8.2330   21.1350 C   0  0  0  0  0  0  0  0  0  0  0  0
    9.6648    8.5956   21.7310 C   0  0  0  0  0  0  0  0  0  0  0  0
   10.8829    1.7153   20.9865 C   0  0  0  0  0  0  0  0  0  0  0  0
    5.7768    2.8533   23.7910 C   0  0  0  0  0  0  0  0  0  0  0  0
    9.7977    1.4791   21.6912 N   0  0  0  0  0  0  0  0  0  0  0  0
    6.5976    9.3401   22.6478 N   0  0  0  0  0  0  0  0  0  0  0  0
   11.2031    3.0042   20.6246 C   0  0  0  0  0  0  0  0  0  0  0  0
   12.8688    7.7370   22.7287 C   0  0  0  0  0  0  0  0  0  0  0  0
    7.4487    9.1361   23.6506 C   0  0  0  0  0  0  0  0  0  0  0  0
    8.9772    2.5025   22.0273 C   0  0  0  0  0  0  0  0  0  0  0  0
   10.4859    4.0901   20.9730 C   0  0  0  0  0  0  0  0  0  0  0  0
   11.0962    9.3293   23.5072 C   0  0  0  0  0  0  0  0  0  0  0  0
    5.1273    7.8529   23.6208 N   0  0  0  0  0  0  0  0  0  0  0  0
    9.7552    9.2338   23.0171 N   0  0  0  0  0  0  0  0  0  0  0  0
   11.1797    6.7591   21.3326 N   0  0  0  0  0  0  0  0  0  0  0  0
   11.7728    8.0337   23.7267 C   0  0  0  0  0  0  0  0  0  0  0  0
    7.1194    8.3344   24.6775 C   0  0  0  0  0  0  0  0  0  0  0  0
    8.4311    4.7963   22.0500 C   0  0  0  0  0  0  0  0  0  0  0  0
    8.7393   10.8706   24.1871 O   0  0  0  0  0  0  0  0  0  0  0  0
    9.3093    3.8166   21.6712 C   0  0  0  0  0  0  0  0  0  0  0  0
  1  5  1  0
  1 15  4  0
  1 22  4  0
  2 20  1  0
  2 24  1  0
  3  6  4  0
  3 27  4  0
  4 22  4  0
  4 26  4  0
  6  7  4  0
  6 13  1  0
  7 19  4  0
  8 18  1  0
  8 23  1  0
  8 28  2  0
  9 17  1  0
  9 24  1  0
 10 11  1  0
 10 24  1  0
 11 23  1  0
 12 14  4  0
 12 16  4  0
 14 19  4  0
 15 18  4  0
 16 20  4  0
 17 25  1  0
 18 26  4  0
 19 29  4  0
 20 29  4  0
 21 23  1  0
 21 25  1  0
 27 29  4  0
M  END
$$$$

 Created by Python create_sdf_string function

 29 32  0  0  0  0  0  0  0  0999 V2000
    5.4450    8.7154   22.6662 C   0  0  0  0  0  0  0  0  0  0  0  0
   10.9154    5.4574   20.5483 C   0  0  0  0  0  0  0  0  0  0  0  0
    7.2709    4.5089   22.7542 C   0  0  0  0  0  0  0  0  0  0  0  0
    5.9698    7.6329   24.6581 C   0  0  0  0  0  0  0  0  0  0  0  0
    4.5542    8.9057   21.7104 O   0  0  0  0  0  0  0  0  0  0  0  0
    6.9895    3.2085   23.0690 C   0  0  0  0  0  0  0  0  0  0  0  0
    7.8391    2.2253   22.7260 N   0  0  0  0  0  0  0  0  0  0  0  0
    8.6968    9.8373   23.6359 C   0  0  0  0  0  0  0  0  0  0  0  0
   12.5135    6.5957   21.8396 C   0  0  0  0  0  0  0  0  0  0  0  0
   10.9406    8.2330   21.1350 C   0  0  0  0  0  0  0  0  0  0  0  0
    9.6648    8.5956   21.7310 C   0  0  0  0  0  0  0  0  0  0  0  0
   10.8829    1.7153   20.9865 C   0  0  0  0  0  0  0  0  0  0  0  0
    5.7768    2.8533   23.7910 C   0  0  0  0  0  0  0  0  0  0  0  0
    9.7977    1.4791   21.6912 N   0  0  0  0  0  0  0  0  0  0  0  0
    6.5976    9.3401   22.6478 N   0  0  0  0  0  0  0  0  0  0  0  0
   11.2031    3.0042   20.6246 C   0  0  0  0  0  0  0  0  0  0  0  0
   12.8688    7.7370   22.7287 C   0  0  0  0  0  0  0  0  0  0  0  0
    7.4487    9.1361   23.6506 C   0  0  0  0  0  0  0  0  0  0  0  0
    8.9772    2.5025   22.0273 C   0  0  0  0  0  0  0  0  0  0  0  0
   10.4859    4.0901   20.9730 C   0  0  0  0  0  0  0  0  0  0  0  0
   11.0962    9.3293   23.5072 C   0  0  0  0  0  0  0  0  0  0  0  0
    5.1273    7.8529   23.6208 N   0  0  0  0  0  0  0  0  0  0  0  0
    9.7552    9.2338   23.0171 N   0  0  0  0  0  0  0  0  0  0  0  0
   11.1797    6.7591   21.3326 N   0  0  0  0  0  0  0  0  0  0  0  0
   11.7728    8.0337   23.7267 C   0  0  0  0  0  0  0  0  0  0  0  0
    7.1194    8.3344   24.6775 C   0  0  0  0  0  0  0  0  0  0  0  0
    8.4311    4.7963   22.0500 C   0  0  0  0  0  0  0  0  0  0  0  0
    8.7393   10.8706   24.1871 O   0  0  0  0  0  0  0  0  0  0  0  0
    9.3093    3.8166   21.6712 C   0  0  0  0  0  0  0  0  0  0  0  0
  1  5  1  0
  1 15  4  0
  1 22  4  0
  2 20  1  0
  2 24  1  0
  3  6  4  0
  3 27  4  0
  4 22  4  0
  4 26  4  0
  6  7  4  0
  6 13  1  0
  7 19  4  0
  8 18  1  0
  8 23  1  0
  8 28  2  0
  9 17  1  0
  9 24  1  0
 10 11  1  0
 10 24  1  0
 11 23  1  0
 12 14  4  0
 12 16  4  0
 14 19  4  0
 15 18  4  0
 16 20  4  0
 17 25  1  0
 18 26  4  0
 19 29  4  0
 20 29  4  0
 21 23  1  0
 21 25  1  0
 27 29  4  0
M  END
$$$$

 Created by Python create_sdf_string function

 29 32  0  0  0  0  0  0  0  0999 V2000
    5.4450    8.7154   22.6662 C   0  0  0  0  0  0  0  0  0  0  0  0
   10.9154    5.4574   20.5483 C   0  0  0  0  0  0  0  0  0  0  0  0
    7.2709    4.5089   22.7542 C   0  0  0  0  0  0  0  0  0  0  0  0
    5.9698    7.6329   24.6581 C   0  0  0  0  0  0  0  0  0  0  0  0
    4.5542    8.9057   21.7104 O   0  0  0  0  0  0  0  0  0  0  0  0
    6.9895    3.2085   23.0690 C   0  0  0  0  0  0  0  0  0  0  0  0
    7.8391    2.2253   22.7260 N   0  0  0  0  0  0  0  0  0  0  0  0
    8.6968    9.8373   23.6359 C   0  0  0  0  0  0  0  0  0  0  0  0
   12.5135    6.5957   21.8396 C   0  0  0  0  0  0  0  0  0  0  0  0
   10.9406    8.2330   21.1350 C   0  0  0  0  0  0  0  0  0  0  0  0
    9.6648    8.5956   21.7310 C   0  0  0  0  0  0  0  0  0  0  0  0
   10.8829    1.7153   20.9865 C   0  0  0  0  0  0  0  0  0  0  0  0
    5.7768    2.8533   23.7910 C   0  0  0  0  0  0  0  0  0  0  0  0
    9.7977    1.4791   21.6912 N   0  0  0  0  0  0  0  0  0  0  0  0
    6.5976    9.3401   22.6478 N   0  0  0  0  0  0  0  0  0  0  0  0
   11.2031    3.0042   20.6246 C   0  0  0  0  0  0  0  0  0  0  0  0
   12.8688    7.7370   22.7287 C   0  0  0  0  0  0  0  0  0  0  0  0
    7.4487    9.1361   23.6506 C   0  0  0  0  0  0  0  0  0  0  0  0
    8.9772    2.5025   22.0273 C   0  0  0  0  0  0  0  0  0  0  0  0
   10.4859    4.0901   20.9730 C   0  0  0  0  0  0  0  0  0  0  0  0
   11.0962    9.3293   23.5072 C   0  0  0  0  0  0  0  0  0  0  0  0
    5.1273    7.8529   23.6208 N   0  0  0  0  0  0  0  0  0  0  0  0
    9.7552    9.2338   23.0171 N   0  0  0  0  0  0  0  0  0  0  0  0
   11.1797    6.7591   21.3326 N   0  0  0  0  0  0  0  0  0  0  0  0
   11.7728    8.0337   23.7267 C   0  0  0  0  0  0  0  0  0  0  0  0
    7.1194    8.3344   24.6775 C   0  0  0  0  0  0  0  0  0  0  0  0
    8.4311    4.7963   22.0500 C   0  0  0  0  0  0  0  0  0  0  0  0
    8.7393   10.8706   24.1871 O   0  0  0  0  0  0  0  0  0  0  0  0
    9.3093    3.8166   21.6712 C   0  0  0  0  0  0  0  0  0  0  0  0
  1  5  1  0
  1 15  4  0
  1 22  4  0
  2 20  1  0
  2 24  1  0
  3  6  4  0
  3 27  4  0
  4 22  4  0
  4 26  4  0
  6  7  4  0
  6 13  1  0
  7 19  4  0
  8 18  1  0
  8 23  1  0
  8 28  2  0
  9 17  1  0
  9 24  1  0
 10 11  1  0
 10 24  1  0
 11 23  1  0
 12 14  4  0
 12 16  4  0
 14 19  4  0
 15 18  4  0
 16 20  4  0
 17 25  1  0
 18 26  4  0
 19 29  4  0
 20 29  4  0
 21 23  1  0
 21 25  1  0
 27 29  4  0
M  END
$$$$

 Created by Python create_sdf_string function

 29 32  0  0  0  0  0  0  0  0999 V2000
    5.4450    8.7154   22.6662 C   0  0  0  0  0  0  0  0  0  0  0  0
   10.9154    5.4574   20.5483 C   0  0  0  0  0  0  0  0  0  0  0  0
    7.2709    4.5089   22.7542 C   0  0  0  0  0  0  0  0  0  0  0  0
    5.9698    7.6329   24.6581 C   0  0  0  0  0  0  0  0  0  0  0  0
    4.5542    8.9057   21.7104 O   0  0  0  0  0  0  0  0  0  0  0  0
    6.9895    3.2085   23.0690 C   0  0  0  0  0  0  0  0  0  0  0  0
    7.8391    2.2253   22.7260 N   0  0  0  0  0  0  0  0  0  0  0  0
    8.6968    9.8373   23.6359 C   0  0  0  0  0  0  0  0  0  0  0  0
   12.5135    6.5957   21.8396 C   0  0  0  0  0  0  0  0  0  0  0  0
   10.9406    8.2330   21.1350 C   0  0  0  0  0  0  0  0  0  0  0  0
    9.6648    8.5956   21.7310 C   0  0  0  0  0  0  0  0  0  0  0  0
   10.8829    1.7153   20.9865 C   0  0  0  0  0  0  0  0  0  0  0  0
    5.7768    2.8533   23.7910 C   0  0  0  0  0  0  0  0  0  0  0  0
    9.7977    1.4791   21.6912 N   0  0  0  0  0  0  0  0  0  0  0  0
    6.5976    9.3401   22.6478 N   0  0  0  0  0  0  0  0  0  0  0  0
   11.2031    3.0042   20.6246 C   0  0  0  0  0  0  0  0  0  0  0  0
   12.8688    7.7370   22.7287 C   0  0  0  0  0  0  0  0  0  0  0  0
    7.4487    9.1361   23.6506 C   0  0  0  0  0  0  0  0  0  0  0  0
    8.9772    2.5025   22.0273 C   0  0  0  0  0  0  0  0  0  0  0  0
   10.4859    4.0901   20.9730 C   0  0  0  0  0  0  0  0  0  0  0  0
   11.0962    9.3293   23.5072 C   0  0  0  0  0  0  0  0  0  0  0  0
    5.1273    7.8529   23.6208 N   0  0  0  0  0  0  0  0  0  0  0  0
    9.7552    9.2338   23.0171 N   0  0  0  0  0  0  0  0  0  0  0  0
   11.1797    6.7591   21.3326 N   0  0  0  0  0  0  0  0  0  0  0  0
   11.7728    8.0337   23.7267 C   0  0  0  0  0  0  0  0  0  0  0  0
    7.1194    8.3344   24.6775 C   0  0  0  0  0  0  0  0  0  0  0  0
    8.4311    4.7963   22.0500 C   0  0  0  0  0  0  0  0  0  0  0  0
    8.7393   10.8706   24.1871 O   0  0  0  0  0  0  0  0  0  0  0  0
    9.3093    3.8166   21.6712 C   0  0  0  0  0  0  0  0  0  0  0  0
  1  5  1  0
  1 15  4  0
  1 22  4  0
  2 20  1  0
  2 24  1  0
  3  6  4  0
  3 27  4  0
  4 22  4  0
  4 26  4  0
  6  7  4  0
  6 13  1  0
  7 19  4  0
  8 18  1  0
  8 23  1  0
  8 28  2  0
  9 17  1  0
  9 24  1  0
 10 11  1  0
 10 24  1  0
 11 23  1  0
 12 14  4  0
 12 16  4  0
 14 19  4  0
 15 18  4  0
 16 20  4  0
 17 25  1  0
 18 26  4  0
 19 29  4  0
 20 29  4  0
 21 23  1  0
 21 25  1  0
 27 29  4  0
M  END
$$$$

 Created by Python create_sdf_string function

 29 32  0  0  0  0  0  0  0  0999 V2000
    5.4450    8.7154   22.6662 C   0  0  0  0  0  0  0  0  0  0  0  0
   10.9154    5.4574   20.5483 C   0  0  0  0  0  0  0  0  0  0  0  0
    7.2709    4.5089   22.7542 C   0  0  0  0  0  0  0  0  0  0  0  0
    5.9698    7.6329   24.6581 C   0  0  0  0  0  0  0  0  0  0  0  0
    4.5542    8.9057   21.7104 O   0  0  0  0  0  0  0  0  0  0  0  0
    6.9895    3.2085   23.0690 C   0  0  0  0  0  0  0  0  0  0  0  0
    7.8391    2.2253   22.7260 N   0  0  0  0  0  0  0  0  0  0  0  0
    8.6968    9.8373   23.6359 C   0  0  0  0  0  0  0  0  0  0  0  0
   12.5135    6.5957   21.8396 C   0  0  0  0  0  0  0  0  0  0  0  0
   10.9406    8.2330   21.1350 C   0  0  0  0  0  0  0  0  0  0  0  0
    9.6648    8.5956   21.7310 C   0  0  0  0  0  0  0  0  0  0  0  0
   10.8829    1.7153   20.9865 C   0  0  0  0  0  0  0  0  0  0  0  0
    5.7768    2.8533   23.7910 C   0  0  0  0  0  0  0  0  0  0  0  0
    9.7977    1.4791   21.6912 N   0  0  0  0  0  0  0  0  0  0  0  0
    6.5976    9.3401   22.6478 N   0  0  0  0  0  0  0  0  0  0  0  0
   11.2031    3.0042   20.6246 C   0  0  0  0  0  0  0  0  0  0  0  0
   12.8688    7.7370   22.7287 C   0  0  0  0  0  0  0  0  0  0  0  0
    7.4487    9.1361   23.6506 C   0  0  0  0  0  0  0  0  0  0  0  0
    8.9772    2.5025   22.0273 C   0  0  0  0  0  0  0  0  0  0  0  0
   10.4859    4.0901   20.9730 C   0  0  0  0  0  0  0  0  0  0  0  0
   11.0962    9.3293   23.5072 C   0  0  0  0  0  0  0  0  0  0  0  0
    5.1273    7.8529   23.6208 N   0  0  0  0  0  0  0  0  0  0  0  0
    9.7552    9.2338   23.0171 N   0  0  0  0  0  0  0  0  0  0  0  0
   11.1797    6.7591   21.3326 N   0  0  0  0  0  0  0  0  0  0  0  0
   11.7728    8.0337   23.7267 C   0  0  0  0  0  0  0  0  0  0  0  0
    7.1194    8.3344   24.6775 C   0  0  0  0  0  0  0  0  0  0  0  0
    8.4311    4.7963   22.0500 C   0  0  0  0  0  0  0  0  0  0  0  0
    8.7393   10.8706   24.1871 O   0  0  0  0  0  0  0  0  0  0  0  0
    9.3093    3.8166   21.6712 C   0  0  0  0  0  0  0  0  0  0  0  0
  1  5  1  0
  1 15  4  0
  1 22  4  0
  2 20  1  0
  2 24  1  0
  3  6  4  0
  3 27  4  0
  4 22  4  0
  4 26  4  0
  6  7  4  0
  6 13  1  0
  7 19  4  0
  8 18  1  0
  8 23  1  0
  8 28  2  0
  9 17  1  0
  9 24  1  0
 10 11  1  0
 10 24  1  0
 11 23  1  0
 12 14  4  0
 12 16  4  0
 14 19  4  0
 15 18  4  0
 16 20  4  0
 17 25  1  0
 18 26  4  0
 19 29  4  0
 20 29  4  0
 21 23  1  0
 21 25  1  0
 27 29  4  0
M  END
$$$$

 Created by Python create_sdf_string function

 29 32  0  0  0  0  0  0  0  0999 V2000
    5.4450    8.7154   22.6662 C   0  0  0  0  0  0  0  0  0  0  0  0
   10.9154    5.4574   20.5483 C   0  0  0  0  0  0  0  0  0  0  0  0
    7.2709    4.5089   22.7542 C   0  0  0  0  0  0  0  0  0  0  0  0
    5.9698    7.6329   24.6581 C   0  0  0  0  0  0  0  0  0  0  0  0
    4.5542    8.9057   21.7104 O   0  0  0  0  0  0  0  0  0  0  0  0
    6.9895    3.2085   23.0690 C   0  0  0  0  0  0  0  0  0  0  0  0
    7.8391    2.2253   22.7260 N   0  0  0  0  0  0  0  0  0  0  0  0
    8.6968    9.8373   23.6359 C   0  0  0  0  0  0  0  0  0  0  0  0
   12.5135    6.5957   21.8396 C   0  0  0  0  0  0  0  0  0  0  0  0
   10.9406    8.2330   21.1350 C   0  0  0  0  0  0  0  0  0  0  0  0
    9.6648    8.5956   21.7310 C   0  0  0  0  0  0  0  0  0  0  0  0
   10.8829    1.7153   20.9865 C   0  0  0  0  0  0  0  0  0  0  0  0
    5.7768    2.8533   23.7910 C   0  0  0  0  0  0  0  0  0  0  0  0
    9.7977    1.4791   21.6912 N   0  0  0  0  0  0  0  0  0  0  0  0
    6.5976    9.3401   22.6478 N   0  0  0  0  0  0  0  0  0  0  0  0
   11.2031    3.0042   20.6246 C   0  0  0  0  0  0  0  0  0  0  0  0
   12.8688    7.7370   22.7287 C   0  0  0  0  0  0  0  0  0  0  0  0
    7.4487    9.1361   23.6506 C   0  0  0  0  0  0  0  0  0  0  0  0
    8.9772    2.5025   22.0273 C   0  0  0  0  0  0  0  0  0  0  0  0
   10.4859    4.0901   20.9730 C   0  0  0  0  0  0  0  0  0  0  0  0
   11.0962    9.3293   23.5072 C   0  0  0  0  0  0  0  0  0  0  0  0
    5.1273    7.8529   23.6208 N   0  0  0  0  0  0  0  0  0  0  0  0
    9.7552    9.2338   23.0171 N   0  0  0  0  0  0  0  0  0  0  0  0
   11.1797    6.7591   21.3326 N   0  0  0  0  0  0  0  0  0  0  0  0
   11.7728    8.0337   23.7267 C   0  0  0  0  0  0  0  0  0  0  0  0
    7.1194    8.3344   24.6775 C   0  0  0  0  0  0  0  0  0  0  0  0
    8.4311    4.7963   22.0500 C   0  0  0  0  0  0  0  0  0  0  0  0
    8.7393   10.8706   24.1871 O   0  0  0  0  0  0  0  0  0  0  0  0
    9.3093    3.8166   21.6712 C   0  0  0  0  0  0  0  0  0  0  0  0
  1  5  1  0
  1 15  4  0
  1 22  4  0
  2 20  1  0
  2 24  1  0
  3  6  4  0
  3 27  4  0
  4 22  4  0
  4 26  4  0
  6  7  4  0
  6 13  1  0
  7 19  4  0
  8 18  1  0
  8 23  1  0
  8 28  2  0
  9 17  1  0
  9 24  1  0
 10 11  1  0
 10 24  1  0
 11 23  1  0
 12 14  4  0
 12 16  4  0
 14 19  4  0
 15 18  4  0
 16 20  4  0
 17 25  1  0
 18 26  4  0
 19 29  4  0
 20 29  4  0
 21 23  1  0
 21 25  1  0
 27 29  4  0
M  END
$$$$

 Created by Python create_sdf_string function

 29 32  0  0  0  0  0  0  0  0999 V2000
    5.4450    8.7154   22.6662 C   0  0  0  0  0  0  0  0  0  0  0  0
   10.9154    5.4574   20.5483 C   0  0  0  0  0  0  0  0  0  0  0  0
    7.2709    4.5089   22.7542 C   0  0  0  0  0  0  0  0  0  0  0  0
    5.9698    7.6329   24.6581 C   0  0  0  0  0  0  0  0  0  0  0  0
    4.5542    8.9057   21.7104 O   0  0  0  0  0  0  0  0  0  0  0  0
    6.9895    3.2085   23.0690 C   0  0  0  0  0  0  0  0  0  0  0  0
    7.8391    2.2253   22.7260 N   0  0  0  0  0  0  0  0  0  0  0  0
    8.6968    9.8373   23.6359 C   0  0  0  0  0  0  0  0  0  0  0  0
   12.5135    6.5957   21.8396 C   0  0  0  0  0  0  0  0  0  0  0  0
   10.9406    8.2330   21.1350 C   0  0  0  0  0  0  0  0  0  0  0  0
    9.6648    8.5956   21.7310 C   0  0  0  0  0  0  0  0  0  0  0  0
   10.8829    1.7153   20.9865 C   0  0  0  0  0  0  0  0  0  0  0  0
    5.7768    2.8533   23.7910 C   0  0  0  0  0  0  0  0  0  0  0  0
    9.7977    1.4791   21.6912 N   0  0  0  0  0  0  0  0  0  0  0  0
    6.5976    9.3401   22.6478 N   0  0  0  0  0  0  0  0  0  0  0  0
   11.2031    3.0042   20.6246 C   0  0  0  0  0  0  0  0  0  0  0  0
   12.8688    7.7370   22.7287 C   0  0  0  0  0  0  0  0  0  0  0  0
    7.4487    9.1361   23.6506 C   0  0  0  0  0  0  0  0  0  0  0  0
    8.9772    2.5025   22.0273 C   0  0  0  0  0  0  0  0  0  0  0  0
   10.4859    4.0901   20.9730 C   0  0  0  0  0  0  0  0  0  0  0  0
   11.0962    9.3293   23.5072 C   0  0  0  0  0  0  0  0  0  0  0  0
    5.1273    7.8529   23.6208 N   0  0  0  0  0  0  0  0  0  0  0  0
    9.7552    9.2338   23.0171 N   0  0  0  0  0  0  0  0  0  0  0  0
   11.1797    6.7591   21.3326 N   0  0  0  0  0  0  0  0  0  0  0  0
   11.7728    8.0337   23.7267 C   0  0  0  0  0  0  0  0  0  0  0  0
    7.1194    8.3344   24.6775 C   0  0  0  0  0  0  0  0  0  0  0  0
    8.4311    4.7963   22.0500 C   0  0  0  0  0  0  0  0  0  0  0  0
    8.7393   10.8706   24.1871 O   0  0  0  0  0  0  0  0  0  0  0  0
    9.3093    3.8166   21.6712 C   0  0  0  0  0  0  0  0  0  0  0  0
  1  5  1  0
  1 15  4  0
  1 22  4  0
  2 20  1  0
  2 24  1  0
  3  6  4  0
  3 27  4  0
  4 22  4  0
  4 26  4  0
  6  7  4  0
  6 13  1  0
  7 19  4  0
  8 18  1  0
  8 23  1  0
  8 28  2  0
  9 17  1  0
  9 24  1  0
 10 11  1  0
 10 24  1  0
 11 23  1  0
 12 14  4  0
 12 16  4  0
 14 19  4  0
 15 18  4  0
 16 20  4  0
 17 25  1  0
 18 26  4  0
 19 29  4  0
 20 29  4  0
 21 23  1  0
 21 25  1  0
 27 29  4  0
M  END
$$$$

 Created by Python create_sdf_string function

 29 32  0  0  0  0  0  0  0  0999 V2000
    5.4450    8.7154   22.6662 C   0  0  0  0  0  0  0  0  0  0  0  0
   10.9154    5.4574   20.5483 C   0  0  0  0  0  0  0  0  0  0  0  0
    7.2709    4.5089   22.7542 C   0  0  0  0  0  0  0  0  0  0  0  0
    5.9698    7.6329   24.6581 C   0  0  0  0  0  0  0  0  0  0  0  0
    4.5542    8.9057   21.7104 O   0  0  0  0  0  0  0  0  0  0  0  0
    6.9895    3.2085   23.0690 C   0  0  0  0  0  0  0  0  0  0  0  0
    7.8391    2.2253   22.7260 N   0  0  0  0  0  0  0  0  0  0  0  0
    8.6968    9.8373   23.6359 C   0  0  0  0  0  0  0  0  0  0  0  0
   12.5135    6.5957   21.8396 C   0  0  0  0  0  0  0  0  0  0  0  0
   10.9406    8.2330   21.1350 C   0  0  0  0  0  0  0  0  0  0  0  0
    9.6648    8.5956   21.7310 C   0  0  0  0  0  0  0  0  0  0  0  0
   10.8829    1.7153   20.9865 C   0  0  0  0  0  0  0  0  0  0  0  0
    5.7768    2.8533   23.7910 C   0  0  0  0  0  0  0  0  0  0  0  0
    9.7977    1.4791   21.6912 N   0  0  0  0  0  0  0  0  0  0  0  0
    6.5976    9.3401   22.6478 N   0  0  0  0  0  0  0  0  0  0  0  0
   11.2031    3.0042   20.6246 C   0  0  0  0  0  0  0  0  0  0  0  0
   12.8688    7.7370   22.7287 C   0  0  0  0  0  0  0  0  0  0  0  0
    7.4487    9.1361   23.6506 C   0  0  0  0  0  0  0  0  0  0  0  0
    8.9772    2.5025   22.0273 C   0  0  0  0  0  0  0  0  0  0  0  0
   10.4859    4.0901   20.9730 C   0  0  0  0  0  0  0  0  0  0  0  0
   11.0962    9.3293   23.5072 C   0  0  0  0  0  0  0  0  0  0  0  0
    5.1273    7.8529   23.6208 N   0  0  0  0  0  0  0  0  0  0  0  0
    9.7552    9.2338   23.0171 N   0  0  0  0  0  0  0  0  0  0  0  0
   11.1797    6.7591   21.3326 N   0  0  0  0  0  0  0  0  0  0  0  0
   11.7728    8.0337   23.7267 C   0  0  0  0  0  0  0  0  0  0  0  0
    7.1194    8.3344   24.6775 C   0  0  0  0  0  0  0  0  0  0  0  0
    8.4311    4.7963   22.0500 C   0  0  0  0  0  0  0  0  0  0  0  0
    8.7393   10.8706   24.1871 O   0  0  0  0  0  0  0  0  0  0  0  0
    9.3093    3.8166   21.6712 C   0  0  0  0  0  0  0  0  0  0  0  0
  1  5  1  0
  1 15  4  0
  1 22  4  0
  2 20  1  0
  2 24  1  0
  3  6  4  0
  3 27  4  0
  4 22  4  0
  4 26  4  0
  6  7  4  0
  6 13  1  0
  7 19  4  0
  8 18  1  0
  8 23  1  0
  8 28  2  0
  9 17  1  0
  9 24  1  0
 10 11  1  0
 10 24  1  0
 11 23  1  0
 12 14  4  0
 12 16  4  0
 14 19  4  0
 15 18  4  0
 16 20  4  0
 17 25  1  0
 18 26  4  0
 19 29  4  0
 20 29  4  0
 21 23  1  0
 21 25  1  0
 27 29  4  0
M  END
$$$$

 Created by Python create_sdf_string function

 29 32  0  0  0  0  0  0  0  0999 V2000
    5.4450    8.7154   22.6662 C   0  0  0  0  0  0  0  0  0  0  0  0
   10.9154    5.4574   20.5483 C   0  0  0  0  0  0  0  0  0  0  0  0
    7.2709    4.5089   22.7542 C   0  0  0  0  0  0  0  0  0  0  0  0
    5.9698    7.6329   24.6581 C   0  0  0  0  0  0  0  0  0  0  0  0
    4.5542    8.9057   21.7104 O   0  0  0  0  0  0  0  0  0  0  0  0
    6.9895    3.2085   23.0690 C   0  0  0  0  0  0  0  0  0  0  0  0
    7.8391    2.2253   22.7260 N   0  0  0  0  0  0  0  0  0  0  0  0
    8.6968    9.8373   23.6359 C   0  0  0  0  0  0  0  0  0  0  0  0
   12.5135    6.5957   21.8396 C   0  0  0  0  0  0  0  0  0  0  0  0
   10.9406    8.2330   21.1350 C   0  0  0  0  0  0  0  0  0  0  0  0
    9.6648    8.5956   21.7310 C   0  0  0  0  0  0  0  0  0  0  0  0
   10.8829    1.7153   20.9865 C   0  0  0  0  0  0  0  0  0  0  0  0
    5.7768    2.8533   23.7910 C   0  0  0  0  0  0  0  0  0  0  0  0
    9.7977    1.4791   21.6912 N   0  0  0  0  0  0  0  0  0  0  0  0
    6.5976    9.3401   22.6478 N   0  0  0  0  0  0  0  0  0  0  0  0
   11.2031    3.0042   20.6246 C   0  0  0  0  0  0  0  0  0  0  0  0
   12.8688    7.7370   22.7287 C   0  0  0  0  0  0  0  0  0  0  0  0
    7.4487    9.1361   23.6506 C   0  0  0  0  0  0  0  0  0  0  0  0
    8.9772    2.5025   22.0273 C   0  0  0  0  0  0  0  0  0  0  0  0
   10.4859    4.0901   20.9730 C   0  0  0  0  0  0  0  0  0  0  0  0
   11.0962    9.3293   23.5072 C   0  0  0  0  0  0  0  0  0  0  0  0
    5.1273    7.8529   23.6208 N   0  0  0  0  0  0  0  0  0  0  0  0
    9.7552    9.2338   23.0171 N   0  0  0  0  0  0  0  0  0  0  0  0
   11.1797    6.7591   21.3326 N   0  0  0  0  0  0  0  0  0  0  0  0
   11.7728    8.0337   23.7267 C   0  0  0  0  0  0  0  0  0  0  0  0
    7.1194    8.3344   24.6775 C   0  0  0  0  0  0  0  0  0  0  0  0
    8.4311    4.7963   22.0500 C   0  0  0  0  0  0  0  0  0  0  0  0
    8.7393   10.8706   24.1871 O   0  0  0  0  0  0  0  0  0  0  0  0
    9.3093    3.8166   21.6712 C   0  0  0  0  0  0  0  0  0  0  0  0
  1  5  1  0
  1 15  4  0
  1 22  4  0
  2 20  1  0
  2 24  1  0
  3  6  4  0
  3 27  4  0
  4 22  4  0
  4 26  4  0
  6  7  4  0
  6 13  1  0
  7 19  4  0
  8 18  1  0
  8 23  1  0
  8 28  2  0
  9 17  1  0
  9 24  1  0
 10 11  1  0
 10 24  1  0
 11 23  1  0
 12 14  4  0
 12 16  4  0
 14 19  4  0
 15 18  4  0
 16 20  4  0
 17 25  1  0
 18 26  4  0
 19 29  4  0
 20 29  4  0
 21 23  1  0
 21 25  1  0
 27 29  4  0
M  END
$$$$

 Created by Python create_sdf_string function

 29 32  0  0  0  0  0  0  0  0999 V2000
    5.4450    8.7154   22.6662 C   0  0  0  0  0  0  0  0  0  0  0  0
   10.9154    5.4574   20.5483 C   0  0  0  0  0  0  0  0  0  0  0  0
    7.2709    4.5089   22.7542 C   0  0  0  0  0  0  0  0  0  0  0  0
    5.9698    7.6329   24.6581 C   0  0  0  0  0  0  0  0  0  0  0  0
    4.5542    8.9057   21.7104 O   0  0  0  0  0  0  0  0  0  0  0  0
    6.9895    3.2085   23.0690 C   0  0  0  0  0  0  0  0  0  0  0  0
    7.8391    2.2253   22.7260 N   0  0  0  0  0  0  0  0  0  0  0  0
    8.6968    9.8373   23.6359 C   0  0  0  0  0  0  0  0  0  0  0  0
   12.5135    6.5957   21.8396 C   0  0  0  0  0  0  0  0  0  0  0  0
   10.9406    8.2330   21.1350 C   0  0  0  0  0  0  0  0  0  0  0  0
    9.6648    8.5956   21.7310 C   0  0  0  0  0  0  0  0  0  0  0  0
   10.8829    1.7153   20.9865 C   0  0  0  0  0  0  0  0  0  0  0  0
    5.7768    2.8533   23.7910 C   0  0  0  0  0  0  0  0  0  0  0  0
    9.7977    1.4791   21.6912 N   0  0  0  0  0  0  0  0  0  0  0  0
    6.5976    9.3401   22.6478 N   0  0  0  0  0  0  0  0  0  0  0  0
   11.2031    3.0042   20.6246 C   0  0  0  0  0  0  0  0  0  0  0  0
   12.8688    7.7370   22.7287 C   0  0  0  0  0  0  0  0  0  0  0  0
    7.4487    9.1361   23.6506 C   0  0  0  0  0  0  0  0  0  0  0  0
    8.9772    2.5025   22.0273 C   0  0  0  0  0  0  0  0  0  0  0  0
   10.4859    4.0901   20.9730 C   0  0  0  0  0  0  0  0  0  0  0  0
   11.0962    9.3293   23.5072 C   0  0  0  0  0  0  0  0  0  0  0  0
    5.1273    7.8529   23.6208 N   0  0  0  0  0  0  0  0  0  0  0  0
    9.7552    9.2338   23.0171 N   0  0  0  0  0  0  0  0  0  0  0  0
   11.1797    6.7591   21.3326 N   0  0  0  0  0  0  0  0  0  0  0  0
   11.7728    8.0337   23.7267 C   0  0  0  0  0  0  0  0  0  0  0  0
    7.1194    8.3344   24.6775 C   0  0  0  0  0  0  0  0  0  0  0  0
    8.4311    4.7963   22.0500 C   0  0  0  0  0  0  0  0  0  0  0  0
    8.7393   10.8706   24.1871 O   0  0  0  0  0  0  0  0  0  0  0  0
    9.3093    3.8166   21.6712 C   0  0  0  0  0  0  0  0  0  0  0  0
  1  5  1  0
  1 15  4  0
  1 22  4  0
  2 20  1  0
  2 24  1  0
  3  6  4  0
  3 27  4  0
  4 22  4  0
  4 26  4  0
  6  7  4  0
  6 13  1  0
  7 19  4  0
  8 18  1  0
  8 23  1  0
  8 28  2  0
  9 17  1  0
  9 24  1  0
 10 11  1  0
 10 24  1  0
 11 23  1  0
 12 14  4  0
 12 16  4  0
 14 19  4  0
 15 18  4  0
 16 20  4  0
 17 25  1  0
 18 26  4  0
 19 29  4  0
 20 29  4  0
 21 23  1  0
 21 25  1  0
 27 29  4  0
M  END
$$$$

 Created by Python create_sdf_string function

 29 32  0  0  0  0  0  0  0  0999 V2000
    5.4450    8.7154   22.6662 C   0  0  0  0  0  0  0  0  0  0  0  0
   10.9154    5.4574   20.5483 C   0  0  0  0  0  0  0  0  0  0  0  0
    7.2709    4.5089   22.7542 C   0  0  0  0  0  0  0  0  0  0  0  0
    5.9698    7.6329   24.6581 C   0  0  0  0  0  0  0  0  0  0  0  0
    4.5542    8.9057   21.7104 O   0  0  0  0  0  0  0  0  0  0  0  0
    6.9895    3.2085   23.0690 C   0  0  0  0  0  0  0  0  0  0  0  0
    7.8391    2.2253   22.7260 N   0  0  0  0  0  0  0  0  0  0  0  0
    8.6968    9.8373   23.6359 C   0  0  0  0  0  0  0  0  0  0  0  0
   12.5135    6.5957   21.8396 C   0  0  0  0  0  0  0  0  0  0  0  0
   10.9406    8.2330   21.1350 C   0  0  0  0  0  0  0  0  0  0  0  0
    9.6648    8.5956   21.7310 C   0  0  0  0  0  0  0  0  0  0  0  0
   10.8829    1.7153   20.9865 C   0  0  0  0  0  0  0  0  0  0  0  0
    5.7768    2.8533   23.7910 C   0  0  0  0  0  0  0  0  0  0  0  0
    9.7977    1.4791   21.6912 N   0  0  0  0  0  0  0  0  0  0  0  0
    6.5976    9.3401   22.6478 N   0  0  0  0  0  0  0  0  0  0  0  0
   11.2031    3.0042   20.6246 C   0  0  0  0  0  0  0  0  0  0  0  0
   12.8688    7.7370   22.7287 C   0  0  0  0  0  0  0  0  0  0  0  0
    7.4487    9.1361   23.6506 C   0  0  0  0  0  0  0  0  0  0  0  0
    8.9772    2.5025   22.0273 C   0  0  0  0  0  0  0  0  0  0  0  0
   10.4859    4.0901   20.9730 C   0  0  0  0  0  0  0  0  0  0  0  0
   11.0962    9.3293   23.5072 C   0  0  0  0  0  0  0  0  0  0  0  0
    5.1273    7.8529   23.6208 N   0  0  0  0  0  0  0  0  0  0  0  0
    9.7552    9.2338   23.0171 N   0  0  0  0  0  0  0  0  0  0  0  0
   11.1797    6.7591   21.3326 N   0  0  0  0  0  0  0  0  0  0  0  0
   11.7728    8.0337   23.7267 C   0  0  0  0  0  0  0  0  0  0  0  0
    7.1194    8.3344   24.6775 C   0  0  0  0  0  0  0  0  0  0  0  0
    8.4311    4.7963   22.0500 C   0  0  0  0  0  0  0  0  0  0  0  0
    8.7393   10.8706   24.1871 O   0  0  0  0  0  0  0  0  0  0  0  0
    9.3093    3.8166   21.6712 C   0  0  0  0  0  0  0  0  0  0  0  0
  1  5  1  0
  1 15  4  0
  1 22  4  0
  2 20  1  0
  2 24  1  0
  3  6  4  0
  3 27  4  0
  4 22  4  0
  4 26  4  0
  6  7  4  0
  6 13  1  0
  7 19  4  0
  8 18  1  0
  8 23  1  0
  8 28  2  0
  9 17  1  0
  9 24  1  0
 10 11  1  0
 10 24  1  0
 11 23  1  0
 12 14  4  0
 12 16  4  0
 14 19  4  0
 15 18  4  0
 16 20  4  0
 17 25  1  0
 18 26  4  0
 19 29  4  0
 20 29  4  0
 21 23  1  0
 21 25  1  0
 27 29  4  0
M  END
$$$$

 Created by Python create_sdf_string function

 29 32  0  0  0  0  0  0  0  0999 V2000
    5.4450    8.7154   22.6662 C   0  0  0  0  0  0  0  0  0  0  0  0
   10.9154    5.4574   20.5483 C   0  0  0  0  0  0  0  0  0  0  0  0
    7.2709    4.5089   22.7542 C   0  0  0  0  0  0  0  0  0  0  0  0
    5.9698    7.6329   24.6581 C   0  0  0  0  0  0  0  0  0  0  0  0
    4.5542    8.9057   21.7104 O   0  0  0  0  0  0  0  0  0  0  0  0
    6.9895    3.2085   23.0690 C   0  0  0  0  0  0  0  0  0  0  0  0
    7.8391    2.2253   22.7260 N   0  0  0  0  0  0  0  0  0  0  0  0
    8.6968    9.8373   23.6359 C   0  0  0  0  0  0  0  0  0  0  0  0
   12.5135    6.5957   21.8396 C   0  0  0  0  0  0  0  0  0  0  0  0
   10.9406    8.2330   21.1350 C   0  0  0  0  0  0  0  0  0  0  0  0
    9.6648    8.5956   21.7310 C   0  0  0  0  0  0  0  0  0  0  0  0
   10.8829    1.7153   20.9865 C   0  0  0  0  0  0  0  0  0  0  0  0
    5.7768    2.8533   23.7910 C   0  0  0  0  0  0  0  0  0  0  0  0
    9.7977    1.4791   21.6912 N   0  0  0  0  0  0  0  0  0  0  0  0
    6.5976    9.3401   22.6478 N   0  0  0  0  0  0  0  0  0  0  0  0
   11.2031    3.0042   20.6246 C   0  0  0  0  0  0  0  0  0  0  0  0
   12.8688    7.7370   22.7287 C   0  0  0  0  0  0  0  0  0  0  0  0
    7.4487    9.1361   23.6506 C   0  0  0  0  0  0  0  0  0  0  0  0
    8.9772    2.5025   22.0273 C   0  0  0  0  0  0  0  0  0  0  0  0
   10.4859    4.0901   20.9730 C   0  0  0  0  0  0  0  0  0  0  0  0
   11.0962    9.3293   23.5072 C   0  0  0  0  0  0  0  0  0  0  0  0
    5.1273    7.8529   23.6208 N   0  0  0  0  0  0  0  0  0  0  0  0
    9.7552    9.2338   23.0171 N   0  0  0  0  0  0  0  0  0  0  0  0
   11.1797    6.7591   21.3326 N   0  0  0  0  0  0  0  0  0  0  0  0
   11.7728    8.0337   23.7267 C   0  0  0  0  0  0  0  0  0  0  0  0
    7.1194    8.3344   24.6775 C   0  0  0  0  0  0  0  0  0  0  0  0
    8.4311    4.7963   22.0500 C   0  0  0  0  0  0  0  0  0  0  0  0
    8.7393   10.8706   24.1871 O   0  0  0  0  0  0  0  0  0  0  0  0
    9.3093    3.8166   21.6712 C   0  0  0  0  0  0  0  0  0  0  0  0
  1  5  1  0
  1 15  4  0
  1 22  4  0
  2 20  1  0
  2 24  1  0
  3  6  4  0
  3 27  4  0
  4 22  4  0
  4 26  4  0
  6  7  4  0
  6 13  1  0
  7 19  4  0
  8 18  1  0
  8 23  1  0
  8 28  2  0
  9 17  1  0
  9 24  1  0
 10 11  1  0
 10 24  1  0
 11 23  1  0
 12 14  4  0
 12 16  4  0
 14 19  4  0
 15 18  4  0
 16 20  4  0
 17 25  1  0
 18 26  4  0
 19 29  4  0
 20 29  4  0
 21 23  1  0
 21 25  1  0
 27 29  4  0
M  END
$$$$

 Created by Python create_sdf_string function

 29 32  0  0  0  0  0  0  0  0999 V2000
    5.4450    8.7154   22.6662 C   0  0  0  0  0  0  0  0  0  0  0  0
   10.9154    5.4574   20.5483 C   0  0  0  0  0  0  0  0  0  0  0  0
    7.2709    4.5089   22.7542 C   0  0  0  0  0  0  0  0  0  0  0  0
    5.9698    7.6329   24.6581 C   0  0  0  0  0  0  0  0  0  0  0  0
    4.5542    8.9057   21.7104 O   0  0  0  0  0  0  0  0  0  0  0  0
    6.9895    3.2085   23.0690 C   0  0  0  0  0  0  0  0  0  0  0  0
    7.8391    2.2253   22.7260 N   0  0  0  0  0  0  0  0  0  0  0  0
    8.6968    9.8373   23.6359 C   0  0  0  0  0  0  0  0  0  0  0  0
   12.5135    6.5957   21.8396 C   0  0  0  0  0  0  0  0  0  0  0  0
   10.9406    8.2330   21.1350 C   0  0  0  0  0  0  0  0  0  0  0  0
    9.6648    8.5956   21.7310 C   0  0  0  0  0  0  0  0  0  0  0  0
   10.8829    1.7153   20.9865 C   0  0  0  0  0  0  0  0  0  0  0  0
    5.7768    2.8533   23.7910 C   0  0  0  0  0  0  0  0  0  0  0  0
    9.7977    1.4791   21.6912 N   0  0  0  0  0  0  0  0  0  0  0  0
    6.5976    9.3401   22.6478 N   0  0  0  0  0  0  0  0  0  0  0  0
   11.2031    3.0042   20.6246 C   0  0  0  0  0  0  0  0  0  0  0  0
   12.8688    7.7370   22.7287 C   0  0  0  0  0  0  0  0  0  0  0  0
    7.4487    9.1361   23.6506 C   0  0  0  0  0  0  0  0  0  0  0  0
    8.9772    2.5025   22.0273 C   0  0  0  0  0  0  0  0  0  0  0  0
   10.4859    4.0901   20.9730 C   0  0  0  0  0  0  0  0  0  0  0  0
   11.0962    9.3293   23.5072 C   0  0  0  0  0  0  0  0  0  0  0  0
    5.1273    7.8529   23.6208 N   0  0  0  0  0  0  0  0  0  0  0  0
    9.7552    9.2338   23.0171 N   0  0  0  0  0  0  0  0  0  0  0  0
   11.1797    6.7591   21.3326 N   0  0  0  0  0  0  0  0  0  0  0  0
   11.7728    8.0337   23.7267 C   0  0  0  0  0  0  0  0  0  0  0  0
    7.1194    8.3344   24.6775 C   0  0  0  0  0  0  0  0  0  0  0  0
    8.4311    4.7963   22.0500 C   0  0  0  0  0  0  0  0  0  0  0  0
    8.7393   10.8706   24.1871 O   0  0  0  0  0  0  0  0  0  0  0  0
    9.3093    3.8166   21.6712 C   0  0  0  0  0  0  0  0  0  0  0  0
  1  5  1  0
  1 15  4  0
  1 22  4  0
  2 20  1  0
  2 24  1  0
  3  6  4  0
  3 27  4  0
  4 22  4  0
  4 26  4  0
  6  7  4  0
  6 13  1  0
  7 19  4  0
  8 18  1  0
  8 23  1  0
  8 28  2  0
  9 17  1  0
  9 24  1  0
 10 11  1  0
 10 24  1  0
 11 23  1  0
 12 14  4  0
 12 16  4  0
 14 19  4  0
 15 18  4  0
 16 20  4  0
 17 25  1  0
 18 26  4  0
 19 29  4  0
 20 29  4  0
 21 23  1  0
 21 25  1  0
 27 29  4  0
M  END
$$$$

 Created by Python create_sdf_string function

 29 32  0  0  0  0  0  0  0  0999 V2000
    5.4450    8.7154   22.6662 C   0  0  0  0  0  0  0  0  0  0  0  0
   10.9154    5.4574   20.5483 C   0  0  0  0  0  0  0  0  0  0  0  0
    7.2709    4.5089   22.7542 C   0  0  0  0  0  0  0  0  0  0  0  0
    5.9698    7.6329   24.6581 C   0  0  0  0  0  0  0  0  0  0  0  0
    4.5542    8.9057   21.7104 O   0  0  0  0  0  0  0  0  0  0  0  0
    6.9895    3.2085   23.0690 C   0  0  0  0  0  0  0  0  0  0  0  0
    7.8391    2.2253   22.7260 N   0  0  0  0  0  0  0  0  0  0  0  0
    8.6968    9.8373   23.6359 C   0  0  0  0  0  0  0  0  0  0  0  0
   12.5135    6.5957   21.8396 C   0  0  0  0  0  0  0  0  0  0  0  0
   10.9406    8.2330   21.1350 C   0  0  0  0  0  0  0  0  0  0  0  0
    9.6648    8.5956   21.7310 C   0  0  0  0  0  0  0  0  0  0  0  0
   10.8829    1.7153   20.9865 C   0  0  0  0  0  0  0  0  0  0  0  0
    5.7768    2.8533   23.7910 C   0  0  0  0  0  0  0  0  0  0  0  0
    9.7977    1.4791   21.6912 N   0  0  0  0  0  0  0  0  0  0  0  0
    6.5976    9.3401   22.6478 N   0  0  0  0  0  0  0  0  0  0  0  0
   11.2031    3.0042   20.6246 C   0  0  0  0  0  0  0  0  0  0  0  0
   12.8688    7.7370   22.7287 C   0  0  0  0  0  0  0  0  0  0  0  0
    7.4487    9.1361   23.6506 C   0  0  0  0  0  0  0  0  0  0  0  0
    8.9772    2.5025   22.0273 C   0  0  0  0  0  0  0  0  0  0  0  0
   10.4859    4.0901   20.9730 C   0  0  0  0  0  0  0  0  0  0  0  0
   11.0962    9.3293   23.5072 C   0  0  0  0  0  0  0  0  0  0  0  0
    5.1273    7.8529   23.6208 N   0  0  0  0  0  0  0  0  0  0  0  0
    9.7552    9.2338   23.0171 N   0  0  0  0  0  0  0  0  0  0  0  0
   11.1797    6.7591   21.3326 N   0  0  0  0  0  0  0  0  0  0  0  0
   11.7728    8.0337   23.7267 C   0  0  0  0  0  0  0  0  0  0  0  0
    7.1194    8.3344   24.6775 C   0  0  0  0  0  0  0  0  0  0  0  0
    8.4311    4.7963   22.0500 C   0  0  0  0  0  0  0  0  0  0  0  0
    8.7393   10.8706   24.1871 O   0  0  0  0  0  0  0  0  0  0  0  0
    9.3093    3.8166   21.6712 C   0  0  0  0  0  0  0  0  0  0  0  0
  1  5  1  0
  1 15  4  0
  1 22  4  0
  2 20  1  0
  2 24  1  0
  3  6  4  0
  3 27  4  0
  4 22  4  0
  4 26  4  0
  6  7  4  0
  6 13  1  0
  7 19  4  0
  8 18  1  0
  8 23  1  0
  8 28  2  0
  9 17  1  0
  9 24  1  0
 10 11  1  0
 10 24  1  0
 11 23  1  0
 12 14  4  0
 12 16  4  0
 14 19  4  0
 15 18  4  0
 16 20  4  0
 17 25  1  0
 18 26  4  0
 19 29  4  0
 20 29  4  0
 21 23  1  0
 21 25  1  0
 27 29  4  0
M  END
$$$$

 Created by Python create_sdf_string function

 29 32  0  0  0  0  0  0  0  0999 V2000
    5.4450    8.7154   22.6662 C   0  0  0  0  0  0  0  0  0  0  0  0
   10.9154    5.4574   20.5483 C   0  0  0  0  0  0  0  0  0  0  0  0
    7.2709    4.5089   22.7542 C   0  0  0  0  0  0  0  0  0  0  0  0
    5.9698    7.6329   24.6581 C   0  0  0  0  0  0  0  0  0  0  0  0
    4.5542    8.9057   21.7104 O   0  0  0  0  0  0  0  0  0  0  0  0
    6.9895    3.2085   23.0690 C   0  0  0  0  0  0  0  0  0  0  0  0
    7.8391    2.2253   22.7260 N   0  0  0  0  0  0  0  0  0  0  0  0
    8.6968    9.8373   23.6359 C   0  0  0  0  0  0  0  0  0  0  0  0
   12.5135    6.5957   21.8396 C   0  0  0  0  0  0  0  0  0  0  0  0
   10.9406    8.2330   21.1350 C   0  0  0  0  0  0  0  0  0  0  0  0
    9.6648    8.5956   21.7310 C   0  0  0  0  0  0  0  0  0  0  0  0
   10.8829    1.7153   20.9865 C   0  0  0  0  0  0  0  0  0  0  0  0
    5.7768    2.8533   23.7910 C   0  0  0  0  0  0  0  0  0  0  0  0
    9.7977    1.4791   21.6912 N   0  0  0  0  0  0  0  0  0  0  0  0
    6.5976    9.3401   22.6478 N   0  0  0  0  0  0  0  0  0  0  0  0
   11.2031    3.0042   20.6246 C   0  0  0  0  0  0  0  0  0  0  0  0
   12.8688    7.7370   22.7287 C   0  0  0  0  0  0  0  0  0  0  0  0
    7.4487    9.1361   23.6506 C   0  0  0  0  0  0  0  0  0  0  0  0
    8.9772    2.5025   22.0273 C   0  0  0  0  0  0  0  0  0  0  0  0
   10.4859    4.0901   20.9730 C   0  0  0  0  0  0  0  0  0  0  0  0
   11.0962    9.3293   23.5072 C   0  0  0  0  0  0  0  0  0  0  0  0
    5.1273    7.8529   23.6208 N   0  0  0  0  0  0  0  0  0  0  0  0
    9.7552    9.2338   23.0171 N   0  0  0  0  0  0  0  0  0  0  0  0
   11.1797    6.7591   21.3326 N   0  0  0  0  0  0  0  0  0  0  0  0
   11.7728    8.0337   23.7267 C   0  0  0  0  0  0  0  0  0  0  0  0
    7.1194    8.3344   24.6775 C   0  0  0  0  0  0  0  0  0  0  0  0
    8.4311    4.7963   22.0500 C   0  0  0  0  0  0  0  0  0  0  0  0
    8.7393   10.8706   24.1871 O   0  0  0  0  0  0  0  0  0  0  0  0
    9.3093    3.8166   21.6712 C   0  0  0  0  0  0  0  0  0  0  0  0
  1  5  1  0
  1 15  4  0
  1 22  4  0
  2 20  1  0
  2 24  1  0
  3  6  4  0
  3 27  4  0
  4 22  4  0
  4 26  4  0
  6  7  4  0
  6 13  1  0
  7 19  4  0
  8 18  1  0
  8 23  1  0
  8 28  2  0
  9 17  1  0
  9 24  1  0
 10 11  1  0
 10 24  1  0
 11 23  1  0
 12 14  4  0
 12 16  4  0
 14 19  4  0
 15 18  4  0
 16 20  4  0
 17 25  1  0
 18 26  4  0
 19 29  4  0
 20 29  4  0
 21 23  1  0
 21 25  1  0
 27 29  4  0
M  END
$$$$

 Created by Python create_sdf_string function

 29 32  0  0  0  0  0  0  0  0999 V2000
    5.4450    8.7154   22.6662 C   0  0  0  0  0  0  0  0  0  0  0  0
   10.9154    5.4574   20.5483 C   0  0  0  0  0  0  0  0  0  0  0  0
    7.2709    4.5089   22.7542 C   0  0  0  0  0  0  0  0  0  0  0  0
    5.9698    7.6329   24.6581 C   0  0  0  0  0  0  0  0  0  0  0  0
    4.5542    8.9057   21.7104 O   0  0  0  0  0  0  0  0  0  0  0  0
    6.9895    3.2085   23.0690 C   0  0  0  0  0  0  0  0  0  0  0  0
    7.8391    2.2253   22.7260 N   0  0  0  0  0  0  0  0  0  0  0  0
    8.6968    9.8373   23.6359 C   0  0  0  0  0  0  0  0  0  0  0  0
   12.5135    6.5957   21.8396 C   0  0  0  0  0  0  0  0  0  0  0  0
   10.9406    8.2330   21.1350 C   0  0  0  0  0  0  0  0  0  0  0  0
    9.6648    8.5956   21.7310 C   0  0  0  0  0  0  0  0  0  0  0  0
   10.8829    1.7153   20.9865 C   0  0  0  0  0  0  0  0  0  0  0  0
    5.7768    2.8533   23.7910 C   0  0  0  0  0  0  0  0  0  0  0  0
    9.7977    1.4791   21.6912 N   0  0  0  0  0  0  0  0  0  0  0  0
    6.5976    9.3401   22.6478 N   0  0  0  0  0  0  0  0  0  0  0  0
   11.2031    3.0042   20.6246 C   0  0  0  0  0  0  0  0  0  0  0  0
   12.8688    7.7370   22.7287 C   0  0  0  0  0  0  0  0  0  0  0  0
    7.4487    9.1361   23.6506 C   0  0  0  0  0  0  0  0  0  0  0  0
    8.9772    2.5025   22.0273 C   0  0  0  0  0  0  0  0  0  0  0  0
   10.4859    4.0901   20.9730 C   0  0  0  0  0  0  0  0  0  0  0  0
   11.0962    9.3293   23.5072 C   0  0  0  0  0  0  0  0  0  0  0  0
    5.1273    7.8529   23.6208 N   0  0  0  0  0  0  0  0  0  0  0  0
    9.7552    9.2338   23.0171 N   0  0  0  0  0  0  0  0  0  0  0  0
   11.1797    6.7591   21.3326 N   0  0  0  0  0  0  0  0  0  0  0  0
   11.7728    8.0337   23.7267 C   0  0  0  0  0  0  0  0  0  0  0  0
    7.1194    8.3344   24.6775 C   0  0  0  0  0  0  0  0  0  0  0  0
    8.4311    4.7963   22.0500 C   0  0  0  0  0  0  0  0  0  0  0  0
    8.7393   10.8706   24.1871 O   0  0  0  0  0  0  0  0  0  0  0  0
    9.3093    3.8166   21.6712 C   0  0  0  0  0  0  0  0  0  0  0  0
  1  5  1  0
  1 15  4  0
  1 22  4  0
  2 20  1  0
  2 24  1  0
  3  6  4  0
  3 27  4  0
  4 22  4  0
  4 26  4  0
  6  7  4  0
  6 13  1  0
  7 19  4  0
  8 18  1  0
  8 23  1  0
  8 28  2  0
  9 17  1  0
  9 24  1  0
 10 11  1  0
 10 24  1  0
 11 23  1  0
 12 14  4  0
 12 16  4  0
 14 19  4  0
 15 18  4  0
 16 20  4  0
 17 25  1  0
 18 26  4  0
 19 29  4  0
 20 29  4  0
 21 23  1  0
 21 25  1  0
 27 29  4  0
M  END
$$$$

 Created by Python create_sdf_string function

 29 32  0  0  0  0  0  0  0  0999 V2000
    5.4450    8.7154   22.6662 C   0  0  0  0  0  0  0  0  0  0  0  0
   10.9154    5.4574   20.5483 C   0  0  0  0  0  0  0  0  0  0  0  0
    7.2709    4.5089   22.7542 C   0  0  0  0  0  0  0  0  0  0  0  0
    5.9698    7.6329   24.6581 C   0  0  0  0  0  0  0  0  0  0  0  0
    4.5542    8.9057   21.7104 O   0  0  0  0  0  0  0  0  0  0  0  0
    6.9895    3.2085   23.0690 C   0  0  0  0  0  0  0  0  0  0  0  0
    7.8391    2.2253   22.7260 N   0  0  0  0  0  0  0  0  0  0  0  0
    8.6968    9.8373   23.6359 C   0  0  0  0  0  0  0  0  0  0  0  0
   12.5135    6.5957   21.8396 C   0  0  0  0  0  0  0  0  0  0  0  0
   10.9406    8.2330   21.1350 C   0  0  0  0  0  0  0  0  0  0  0  0
    9.6648    8.5956   21.7310 C   0  0  0  0  0  0  0  0  0  0  0  0
   10.8829    1.7153   20.9865 C   0  0  0  0  0  0  0  0  0  0  0  0
    5.7768    2.8533   23.7910 C   0  0  0  0  0  0  0  0  0  0  0  0
    9.7977    1.4791   21.6912 N   0  0  0  0  0  0  0  0  0  0  0  0
    6.5976    9.3401   22.6478 N   0  0  0  0  0  0  0  0  0  0  0  0
   11.2031    3.0042   20.6246 C   0  0  0  0  0  0  0  0  0  0  0  0
   12.8688    7.7370   22.7287 C   0  0  0  0  0  0  0  0  0  0  0  0
    7.4487    9.1361   23.6506 C   0  0  0  0  0  0  0  0  0  0  0  0
    8.9772    2.5025   22.0273 C   0  0  0  0  0  0  0  0  0  0  0  0
   10.4859    4.0901   20.9730 C   0  0  0  0  0  0  0  0  0  0  0  0
   11.0962    9.3293   23.5072 C   0  0  0  0  0  0  0  0  0  0  0  0
    5.1273    7.8529   23.6208 N   0  0  0  0  0  0  0  0  0  0  0  0
    9.7552    9.2338   23.0171 N   0  0  0  0  0  0  0  0  0  0  0  0
   11.1797    6.7591   21.3326 N   0  0  0  0  0  0  0  0  0  0  0  0
   11.7728    8.0337   23.7267 C   0  0  0  0  0  0  0  0  0  0  0  0
    7.1194    8.3344   24.6775 C   0  0  0  0  0  0  0  0  0  0  0  0
    8.4311    4.7963   22.0500 C   0  0  0  0  0  0  0  0  0  0  0  0
    8.7393   10.8706   24.1871 O   0  0  0  0  0  0  0  0  0  0  0  0
    9.3093    3.8166   21.6712 C   0  0  0  0  0  0  0  0  0  0  0  0
  1  5  1  0
  1 15  4  0
  1 22  4  0
  2 20  1  0
  2 24  1  0
  3  6  4  0
  3 27  4  0
  4 22  4  0
  4 26  4  0
  6  7  4  0
  6 13  1  0
  7 19  4  0
  8 18  1  0
  8 23  1  0
  8 28  2  0
  9 17  1  0
  9 24  1  0
 10 11  1  0
 10 24  1  0
 11 23  1  0
 12 14  4  0
 12 16  4  0
 14 19  4  0
 15 18  4  0
 16 20  4  0
 17 25  1  0
 18 26  4  0
 19 29  4  0
 20 29  4  0
 21 23  1  0
 21 25  1  0
 27 29  4  0
M  END
$$$$

 Created by Python create_sdf_string function

 29 32  0  0  0  0  0  0  0  0999 V2000
    5.4450    8.7154   22.6662 C   0  0  0  0  0  0  0  0  0  0  0  0
   10.9154    5.4574   20.5483 C   0  0  0  0  0  0  0  0  0  0  0  0
    7.2709    4.5089   22.7542 C   0  0  0  0  0  0  0  0  0  0  0  0
    5.9698    7.6329   24.6581 C   0  0  0  0  0  0  0  0  0  0  0  0
    4.5542    8.9057   21.7104 O   0  0  0  0  0  0  0  0  0  0  0  0
    6.9895    3.2085   23.0690 C   0  0  0  0  0  0  0  0  0  0  0  0
    7.8391    2.2253   22.7260 N   0  0  0  0  0  0  0  0  0  0  0  0
    8.6968    9.8373   23.6359 C   0  0  0  0  0  0  0  0  0  0  0  0
   12.5135    6.5957   21.8396 C   0  0  0  0  0  0  0  0  0  0  0  0
   10.9406    8.2330   21.1350 C   0  0  0  0  0  0  0  0  0  0  0  0
    9.6648    8.5956   21.7310 C   0  0  0  0  0  0  0  0  0  0  0  0
   10.8829    1.7153   20.9865 C   0  0  0  0  0  0  0  0  0  0  0  0
    5.7768    2.8533   23.7910 C   0  0  0  0  0  0  0  0  0  0  0  0
    9.7977    1.4791   21.6912 N   0  0  0  0  0  0  0  0  0  0  0  0
    6.5976    9.3401   22.6478 N   0  0  0  0  0  0  0  0  0  0  0  0
   11.2031    3.0042   20.6246 C   0  0  0  0  0  0  0  0  0  0  0  0
   12.8688    7.7370   22.7287 C   0  0  0  0  0  0  0  0  0  0  0  0
    7.4487    9.1361   23.6506 C   0  0  0  0  0  0  0  0  0  0  0  0
    8.9772    2.5025   22.0273 C   0  0  0  0  0  0  0  0  0  0  0  0
   10.4859    4.0901   20.9730 C   0  0  0  0  0  0  0  0  0  0  0  0
   11.0962    9.3293   23.5072 C   0  0  0  0  0  0  0  0  0  0  0  0
    5.1273    7.8529   23.6208 N   0  0  0  0  0  0  0  0  0  0  0  0
    9.7552    9.2338   23.0171 N   0  0  0  0  0  0  0  0  0  0  0  0
   11.1797    6.7591   21.3326 N   0  0  0  0  0  0  0  0  0  0  0  0
   11.7728    8.0337   23.7267 C   0  0  0  0  0  0  0  0  0  0  0  0
    7.1194    8.3344   24.6775 C   0  0  0  0  0  0  0  0  0  0  0  0
    8.4311    4.7963   22.0500 C   0  0  0  0  0  0  0  0  0  0  0  0
    8.7393   10.8706   24.1871 O   0  0  0  0  0  0  0  0  0  0  0  0
    9.3093    3.8166   21.6712 C   0  0  0  0  0  0  0  0  0  0  0  0
  1  5  1  0
  1 15  4  0
  1 22  4  0
  2 20  1  0
  2 24  1  0
  3  6  4  0
  3 27  4  0
  4 22  4  0
  4 26  4  0
  6  7  4  0
  6 13  1  0
  7 19  4  0
  8 18  1  0
  8 23  1  0
  8 28  2  0
  9 17  1  0
  9 24  1  0
 10 11  1  0
 10 24  1  0
 11 23  1  0
 12 14  4  0
 12 16  4  0
 14 19  4  0
 15 18  4  0
 16 20  4  0
 17 25  1  0
 18 26  4  0
 19 29  4  0
 20 29  4  0
 21 23  1  0
 21 25  1  0
 27 29  4  0
M  END
$$$$

 Created by Python create_sdf_string function

 29 32  0  0  0  0  0  0  0  0999 V2000
    5.4450    8.7154   22.6662 C   0  0  0  0  0  0  0  0  0  0  0  0
   10.9154    5.4574   20.5483 C   0  0  0  0  0  0  0  0  0  0  0  0
    7.2709    4.5089   22.7542 C   0  0  0  0  0  0  0  0  0  0  0  0
    5.9698    7.6329   24.6581 C   0  0  0  0  0  0  0  0  0  0  0  0
    4.5542    8.9057   21.7104 O   0  0  0  0  0  0  0  0  0  0  0  0
    6.9895    3.2085   23.0690 C   0  0  0  0  0  0  0  0  0  0  0  0
    7.8391    2.2253   22.7260 N   0  0  0  0  0  0  0  0  0  0  0  0
    8.6968    9.8373   23.6359 C   0  0  0  0  0  0  0  0  0  0  0  0
   12.5135    6.5957   21.8396 C   0  0  0  0  0  0  0  0  0  0  0  0
   10.9406    8.2330   21.1350 C   0  0  0  0  0  0  0  0  0  0  0  0
    9.6648    8.5956   21.7310 C   0  0  0  0  0  0  0  0  0  0  0  0
   10.8829    1.7153   20.9865 C   0  0  0  0  0  0  0  0  0  0  0  0
    5.7768    2.8533   23.7910 C   0  0  0  0  0  0  0  0  0  0  0  0
    9.7977    1.4791   21.6912 N   0  0  0  0  0  0  0  0  0  0  0  0
    6.5976    9.3401   22.6478 N   0  0  0  0  0  0  0  0  0  0  0  0
   11.2031    3.0042   20.6246 C   0  0  0  0  0  0  0  0  0  0  0  0
   12.8688    7.7370   22.7287 C   0  0  0  0  0  0  0  0  0  0  0  0
    7.4487    9.1361   23.6506 C   0  0  0  0  0  0  0  0  0  0  0  0
    8.9772    2.5025   22.0273 C   0  0  0  0  0  0  0  0  0  0  0  0
   10.4859    4.0901   20.9730 C   0  0  0  0  0  0  0  0  0  0  0  0
   11.0962    9.3293   23.5072 C   0  0  0  0  0  0  0  0  0  0  0  0
    5.1273    7.8529   23.6208 N   0  0  0  0  0  0  0  0  0  0  0  0
    9.7552    9.2338   23.0171 N   0  0  0  0  0  0  0  0  0  0  0  0
   11.1797    6.7591   21.3326 N   0  0  0  0  0  0  0  0  0  0  0  0
   11.7728    8.0337   23.7267 C   0  0  0  0  0  0  0  0  0  0  0  0
    7.1194    8.3344   24.6775 C   0  0  0  0  0  0  0  0  0  0  0  0
    8.4311    4.7963   22.0500 C   0  0  0  0  0  0  0  0  0  0  0  0
    8.7393   10.8706   24.1871 O   0  0  0  0  0  0  0  0  0  0  0  0
    9.3093    3.8166   21.6712 C   0  0  0  0  0  0  0  0  0  0  0  0
  1  5  1  0
  1 15  4  0
  1 22  4  0
  2 20  1  0
  2 24  1  0
  3  6  4  0
  3 27  4  0
  4 22  4  0
  4 26  4  0
  6  7  4  0
  6 13  1  0
  7 19  4  0
  8 18  1  0
  8 23  1  0
  8 28  2  0
  9 17  1  0
  9 24  1  0
 10 11  1  0
 10 24  1  0
 11 23  1  0
 12 14  4  0
 12 16  4  0
 14 19  4  0
 15 18  4  0
 16 20  4  0
 17 25  1  0
 18 26  4  0
 19 29  4  0
 20 29  4  0
 21 23  1  0
 21 25  1  0
 27 29  4  0
M  END
$$$$

 Created by Python create_sdf_string function

 29 32  0  0  0  0  0  0  0  0999 V2000
    5.4450    8.7154   22.6662 C   0  0  0  0  0  0  0  0  0  0  0  0
   10.9154    5.4574   20.5483 C   0  0  0  0  0  0  0  0  0  0  0  0
    7.2709    4.5089   22.7542 C   0  0  0  0  0  0  0  0  0  0  0  0
    5.9698    7.6329   24.6581 C   0  0  0  0  0  0  0  0  0  0  0  0
    4.5542    8.9057   21.7104 O   0  0  0  0  0  0  0  0  0  0  0  0
    6.9895    3.2085   23.0690 C   0  0  0  0  0  0  0  0  0  0  0  0
    7.8391    2.2253   22.7260 N   0  0  0  0  0  0  0  0  0  0  0  0
    8.6968    9.8373   23.6359 C   0  0  0  0  0  0  0  0  0  0  0  0
   12.5135    6.5957   21.8396 C   0  0  0  0  0  0  0  0  0  0  0  0
   10.9406    8.2330   21.1350 C   0  0  0  0  0  0  0  0  0  0  0  0
    9.6648    8.5956   21.7310 C   0  0  0  0  0  0  0  0  0  0  0  0
   10.8829    1.7153   20.9865 C   0  0  0  0  0  0  0  0  0  0  0  0
    5.7768    2.8533   23.7910 C   0  0  0  0  0  0  0  0  0  0  0  0
    9.7977    1.4791   21.6912 N   0  0  0  0  0  0  0  0  0  0  0  0
    6.5976    9.3401   22.6478 N   0  0  0  0  0  0  0  0  0  0  0  0
   11.2031    3.0042   20.6246 C   0  0  0  0  0  0  0  0  0  0  0  0
   12.8688    7.7370   22.7287 C   0  0  0  0  0  0  0  0  0  0  0  0
    7.4487    9.1361   23.6506 C   0  0  0  0  0  0  0  0  0  0  0  0
    8.9772    2.5025   22.0273 C   0  0  0  0  0  0  0  0  0  0  0  0
   10.4859    4.0901   20.9730 C   0  0  0  0  0  0  0  0  0  0  0  0
   11.0962    9.3293   23.5072 C   0  0  0  0  0  0  0  0  0  0  0  0
    5.1273    7.8529   23.6208 N   0  0  0  0  0  0  0  0  0  0  0  0
    9.7552    9.2338   23.0171 N   0  0  0  0  0  0  0  0  0  0  0  0
   11.1797    6.7591   21.3326 N   0  0  0  0  0  0  0  0  0  0  0  0
   11.7728    8.0337   23.7267 C   0  0  0  0  0  0  0  0  0  0  0  0
    7.1194    8.3344   24.6775 C   0  0  0  0  0  0  0  0  0  0  0  0
    8.4311    4.7963   22.0500 C   0  0  0  0  0  0  0  0  0  0  0  0
    8.7393   10.8706   24.1871 O   0  0  0  0  0  0  0  0  0  0  0  0
    9.3093    3.8166   21.6712 C   0  0  0  0  0  0  0  0  0  0  0  0
  1  5  1  0
  1 15  4  0
  1 22  4  0
  2 20  1  0
  2 24  1  0
  3  6  4  0
  3 27  4  0
  4 22  4  0
  4 26  4  0
  6  7  4  0
  6 13  1  0
  7 19  4  0
  8 18  1  0
  8 23  1  0
  8 28  2  0
  9 17  1  0
  9 24  1  0
 10 11  1  0
 10 24  1  0
 11 23  1  0
 12 14  4  0
 12 16  4  0
 14 19  4  0
 15 18  4  0
 16 20  4  0
 17 25  1  0
 18 26  4  0
 19 29  4  0
 20 29  4  0
 21 23  1  0
 21 25  1  0
 27 29  4  0
M  END
$$$$

 Created by Python create_sdf_string function

 29 32  0  0  0  0  0  0  0  0999 V2000
    5.4450    8.7154   22.6662 C   0  0  0  0  0  0  0  0  0  0  0  0
   10.9154    5.4574   20.5483 C   0  0  0  0  0  0  0  0  0  0  0  0
    7.2709    4.5089   22.7542 C   0  0  0  0  0  0  0  0  0  0  0  0
    5.9698    7.6329   24.6581 C   0  0  0  0  0  0  0  0  0  0  0  0
    4.5542    8.9057   21.7104 O   0  0  0  0  0  0  0  0  0  0  0  0
    6.9895    3.2085   23.0690 C   0  0  0  0  0  0  0  0  0  0  0  0
    7.8391    2.2253   22.7260 N   0  0  0  0  0  0  0  0  0  0  0  0
    8.6968    9.8373   23.6359 C   0  0  0  0  0  0  0  0  0  0  0  0
   12.5135    6.5957   21.8396 C   0  0  0  0  0  0  0  0  0  0  0  0
   10.9406    8.2330   21.1350 C   0  0  0  0  0  0  0  0  0  0  0  0
    9.6648    8.5956   21.7310 C   0  0  0  0  0  0  0  0  0  0  0  0
   10.8829    1.7153   20.9865 C   0  0  0  0  0  0  0  0  0  0  0  0
    5.7768    2.8533   23.7910 C   0  0  0  0  0  0  0  0  0  0  0  0
    9.7977    1.4791   21.6912 N   0  0  0  0  0  0  0  0  0  0  0  0
    6.5976    9.3401   22.6478 N   0  0  0  0  0  0  0  0  0  0  0  0
   11.2031    3.0042   20.6246 C   0  0  0  0  0  0  0  0  0  0  0  0
   12.8688    7.7370   22.7287 C   0  0  0  0  0  0  0  0  0  0  0  0
    7.4487    9.1361   23.6506 C   0  0  0  0  0  0  0  0  0  0  0  0
    8.9772    2.5025   22.0273 C   0  0  0  0  0  0  0  0  0  0  0  0
   10.4859    4.0901   20.9730 C   0  0  0  0  0  0  0  0  0  0  0  0
   11.0962    9.3293   23.5072 C   0  0  0  0  0  0  0  0  0  0  0  0
    5.1273    7.8529   23.6208 N   0  0  0  0  0  0  0  0  0  0  0  0
    9.7552    9.2338   23.0171 N   0  0  0  0  0  0  0  0  0  0  0  0
   11.1797    6.7591   21.3326 N   0  0  0  0  0  0  0  0  0  0  0  0
   11.7728    8.0337   23.7267 C   0  0  0  0  0  0  0  0  0  0  0  0
    7.1194    8.3344   24.6775 C   0  0  0  0  0  0  0  0  0  0  0  0
    8.4311    4.7963   22.0500 C   0  0  0  0  0  0  0  0  0  0  0  0
    8.7393   10.8706   24.1871 O   0  0  0  0  0  0  0  0  0  0  0  0
    9.3093    3.8166   21.6712 C   0  0  0  0  0  0  0  0  0  0  0  0
  1  5  1  0
  1 15  4  0
  1 22  4  0
  2 20  1  0
  2 24  1  0
  3  6  4  0
  3 27  4  0
  4 22  4  0
  4 26  4  0
  6  7  4  0
  6 13  1  0
  7 19  4  0
  8 18  1  0
  8 23  1  0
  8 28  2  0
  9 17  1  0
  9 24  1  0
 10 11  1  0
 10 24  1  0
 11 23  1  0
 12 14  4  0
 12 16  4  0
 14 19  4  0
 15 18  4  0
 16 20  4  0
 17 25  1  0
 18 26  4  0
 19 29  4  0
 20 29  4  0
 21 23  1  0
 21 25  1  0
 27 29  4  0
M  END
$$$$

 Created by Python create_sdf_string function

 29 32  0  0  0  0  0  0  0  0999 V2000
    5.4450    8.7154   22.6662 C   0  0  0  0  0  0  0  0  0  0  0  0
   10.9154    5.4574   20.5483 C   0  0  0  0  0  0  0  0  0  0  0  0
    7.2709    4.5089   22.7542 C   0  0  0  0  0  0  0  0  0  0  0  0
    5.9698    7.6329   24.6581 C   0  0  0  0  0  0  0  0  0  0  0  0
    4.5542    8.9057   21.7104 O   0  0  0  0  0  0  0  0  0  0  0  0
    6.9895    3.2085   23.0690 C   0  0  0  0  0  0  0  0  0  0  0  0
    7.8391    2.2253   22.7260 N   0  0  0  0  0  0  0  0  0  0  0  0
    8.6968    9.8373   23.6359 C   0  0  0  0  0  0  0  0  0  0  0  0
   12.5135    6.5957   21.8396 C   0  0  0  0  0  0  0  0  0  0  0  0
   10.9406    8.2330   21.1350 C   0  0  0  0  0  0  0  0  0  0  0  0
    9.6648    8.5956   21.7310 C   0  0  0  0  0  0  0  0  0  0  0  0
   10.8829    1.7153   20.9865 C   0  0  0  0  0  0  0  0  0  0  0  0
    5.7768    2.8533   23.7910 C   0  0  0  0  0  0  0  0  0  0  0  0
    9.7977    1.4791   21.6912 N   0  0  0  0  0  0  0  0  0  0  0  0
    6.5976    9.3401   22.6478 N   0  0  0  0  0  0  0  0  0  0  0  0
   11.2031    3.0042   20.6246 C   0  0  0  0  0  0  0  0  0  0  0  0
   12.8688    7.7370   22.7287 C   0  0  0  0  0  0  0  0  0  0  0  0
    7.4487    9.1361   23.6506 C   0  0  0  0  0  0  0  0  0  0  0  0
    8.9772    2.5025   22.0273 C   0  0  0  0  0  0  0  0  0  0  0  0
   10.4859    4.0901   20.9730 C   0  0  0  0  0  0  0  0  0  0  0  0
   11.0962    9.3293   23.5072 C   0  0  0  0  0  0  0  0  0  0  0  0
    5.1273    7.8529   23.6208 N   0  0  0  0  0  0  0  0  0  0  0  0
    9.7552    9.2338   23.0171 N   0  0  0  0  0  0  0  0  0  0  0  0
   11.1797    6.7591   21.3326 N   0  0  0  0  0  0  0  0  0  0  0  0
   11.7728    8.0337   23.7267 C   0  0  0  0  0  0  0  0  0  0  0  0
    7.1194    8.3344   24.6775 C   0  0  0  0  0  0  0  0  0  0  0  0
    8.4311    4.7963   22.0500 C   0  0  0  0  0  0  0  0  0  0  0  0
    8.7393   10.8706   24.1871 O   0  0  0  0  0  0  0  0  0  0  0  0
    9.3093    3.8166   21.6712 C   0  0  0  0  0  0  0  0  0  0  0  0
  1  5  1  0
  1 15  4  0
  1 22  4  0
  2 20  1  0
  2 24  1  0
  3  6  4  0
  3 27  4  0
  4 22  4  0
  4 26  4  0
  6  7  4  0
  6 13  1  0
  7 19  4  0
  8 18  1  0
  8 23  1  0
  8 28  2  0
  9 17  1  0
  9 24  1  0
 10 11  1  0
 10 24  1  0
 11 23  1  0
 12 14  4  0
 12 16  4  0
 14 19  4  0
 15 18  4  0
 16 20  4  0
 17 25  1  0
 18 26  4  0
 19 29  4  0
 20 29  4  0
 21 23  1  0
 21 25  1  0
 27 29  4  0
M  END
$$$$

 Created by Python create_sdf_string function

 29 32  0  0  0  0  0  0  0  0999 V2000
    5.4450    8.7154   22.6662 C   0  0  0  0  0  0  0  0  0  0  0  0
   10.9154    5.4574   20.5483 C   0  0  0  0  0  0  0  0  0  0  0  0
    7.2709    4.5089   22.7542 C   0  0  0  0  0  0  0  0  0  0  0  0
    5.9698    7.6329   24.6581 C   0  0  0  0  0  0  0  0  0  0  0  0
    4.5542    8.9057   21.7104 O   0  0  0  0  0  0  0  0  0  0  0  0
    6.9895    3.2085   23.0690 C   0  0  0  0  0  0  0  0  0  0  0  0
    7.8391    2.2253   22.7260 N   0  0  0  0  0  0  0  0  0  0  0  0
    8.6968    9.8373   23.6359 C   0  0  0  0  0  0  0  0  0  0  0  0
   12.5135    6.5957   21.8396 C   0  0  0  0  0  0  0  0  0  0  0  0
   10.9406    8.2330   21.1350 C   0  0  0  0  0  0  0  0  0  0  0  0
    9.6648    8.5956   21.7310 C   0  0  0  0  0  0  0  0  0  0  0  0
   10.8829    1.7153   20.9865 C   0  0  0  0  0  0  0  0  0  0  0  0
    5.7768    2.8533   23.7910 C   0  0  0  0  0  0  0  0  0  0  0  0
    9.7977    1.4791   21.6912 N   0  0  0  0  0  0  0  0  0  0  0  0
    6.5976    9.3401   22.6478 N   0  0  0  0  0  0  0  0  0  0  0  0
   11.2031    3.0042   20.6246 C   0  0  0  0  0  0  0  0  0  0  0  0
   12.8688    7.7370   22.7287 C   0  0  0  0  0  0  0  0  0  0  0  0
    7.4487    9.1361   23.6506 C   0  0  0  0  0  0  0  0  0  0  0  0
    8.9772    2.5025   22.0273 C   0  0  0  0  0  0  0  0  0  0  0  0
   10.4859    4.0901   20.9730 C   0  0  0  0  0  0  0  0  0  0  0  0
   11.0962    9.3293   23.5072 C   0  0  0  0  0  0  0  0  0  0  0  0
    5.1273    7.8529   23.6208 N   0  0  0  0  0  0  0  0  0  0  0  0
    9.7552    9.2338   23.0171 N   0  0  0  0  0  0  0  0  0  0  0  0
   11.1797    6.7591   21.3326 N   0  0  0  0  0  0  0  0  0  0  0  0
   11.7728    8.0337   23.7267 C   0  0  0  0  0  0  0  0  0  0  0  0
    7.1194    8.3344   24.6775 C   0  0  0  0  0  0  0  0  0  0  0  0
    8.4311    4.7963   22.0500 C   0  0  0  0  0  0  0  0  0  0  0  0
    8.7393   10.8706   24.1871 O   0  0  0  0  0  0  0  0  0  0  0  0
    9.3093    3.8166   21.6712 C   0  0  0  0  0  0  0  0  0  0  0  0
  1  5  1  0
  1 15  4  0
  1 22  4  0
  2 20  1  0
  2 24  1  0
  3  6  4  0
  3 27  4  0
  4 22  4  0
  4 26  4  0
  6  7  4  0
  6 13  1  0
  7 19  4  0
  8 18  1  0
  8 23  1  0
  8 28  2  0
  9 17  1  0
  9 24  1  0
 10 11  1  0
 10 24  1  0
 11 23  1  0
 12 14  4  0
 12 16  4  0
 14 19  4  0
 15 18  4  0
 16 20  4  0
 17 25  1  0
 18 26  4  0
 19 29  4  0
 20 29  4  0
 21 23  1  0
 21 25  1  0
 27 29  4  0
M  END
$$$$

 Created by Python create_sdf_string function

 29 32  0  0  0  0  0  0  0  0999 V2000
    5.4450    8.7154   22.6662 C   0  0  0  0  0  0  0  0  0  0  0  0
   10.9154    5.4574   20.5483 C   0  0  0  0  0  0  0  0  0  0  0  0
    7.2709    4.5089   22.7542 C   0  0  0  0  0  0  0  0  0  0  0  0
    5.9698    7.6329   24.6581 C   0  0  0  0  0  0  0  0  0  0  0  0
    4.5542    8.9057   21.7104 O   0  0  0  0  0  0  0  0  0  0  0  0
    6.9895    3.2085   23.0690 C   0  0  0  0  0  0  0  0  0  0  0  0
    7.8391    2.2253   22.7260 N   0  0  0  0  0  0  0  0  0  0  0  0
    8.6968    9.8373   23.6359 C   0  0  0  0  0  0  0  0  0  0  0  0
   12.5135    6.5957   21.8396 C   0  0  0  0  0  0  0  0  0  0  0  0
   10.9406    8.2330   21.1350 C   0  0  0  0  0  0  0  0  0  0  0  0
    9.6648    8.5956   21.7310 C   0  0  0  0  0  0  0  0  0  0  0  0
   10.8829    1.7153   20.9865 C   0  0  0  0  0  0  0  0  0  0  0  0
    5.7768    2.8533   23.7910 C   0  0  0  0  0  0  0  0  0  0  0  0
    9.7977    1.4791   21.6912 N   0  0  0  0  0  0  0  0  0  0  0  0
    6.5976    9.3401   22.6478 N   0  0  0  0  0  0  0  0  0  0  0  0
   11.2031    3.0042   20.6246 C   0  0  0  0  0  0  0  0  0  0  0  0
   12.8688    7.7370   22.7287 C   0  0  0  0  0  0  0  0  0  0  0  0
    7.4487    9.1361   23.6506 C   0  0  0  0  0  0  0  0  0  0  0  0
    8.9772    2.5025   22.0273 C   0  0  0  0  0  0  0  0  0  0  0  0
   10.4859    4.0901   20.9730 C   0  0  0  0  0  0  0  0  0  0  0  0
   11.0962    9.3293   23.5072 C   0  0  0  0  0  0  0  0  0  0  0  0
    5.1273    7.8529   23.6208 N   0  0  0  0  0  0  0  0  0  0  0  0
    9.7552    9.2338   23.0171 N   0  0  0  0  0  0  0  0  0  0  0  0
   11.1797    6.7591   21.3326 N   0  0  0  0  0  0  0  0  0  0  0  0
   11.7728    8.0337   23.7267 C   0  0  0  0  0  0  0  0  0  0  0  0
    7.1194    8.3344   24.6775 C   0  0  0  0  0  0  0  0  0  0  0  0
    8.4311    4.7963   22.0500 C   0  0  0  0  0  0  0  0  0  0  0  0
    8.7393   10.8706   24.1871 O   0  0  0  0  0  0  0  0  0  0  0  0
    9.3093    3.8166   21.6712 C   0  0  0  0  0  0  0  0  0  0  0  0
  1  5  1  0
  1 15  4  0
  1 22  4  0
  2 20  1  0
  2 24  1  0
  3  6  4  0
  3 27  4  0
  4 22  4  0
  4 26  4  0
  6  7  4  0
  6 13  1  0
  7 19  4  0
  8 18  1  0
  8 23  1  0
  8 28  2  0
  9 17  1  0
  9 24  1  0
 10 11  1  0
 10 24  1  0
 11 23  1  0
 12 14  4  0
 12 16  4  0
 14 19  4  0
 15 18  4  0
 16 20  4  0
 17 25  1  0
 18 26  4  0
 19 29  4  0
 20 29  4  0
 21 23  1  0
 21 25  1  0
 27 29  4  0
M  END
$$$$

 Created by Python create_sdf_string function

 29 32  0  0  0  0  0  0  0  0999 V2000
    5.4450    8.7154   22.6662 C   0  0  0  0  0  0  0  0  0  0  0  0
   10.9154    5.4574   20.5483 C   0  0  0  0  0  0  0  0  0  0  0  0
    7.2709    4.5089   22.7542 C   0  0  0  0  0  0  0  0  0  0  0  0
    5.9698    7.6329   24.6581 C   0  0  0  0  0  0  0  0  0  0  0  0
    4.5542    8.9057   21.7104 O   0  0  0  0  0  0  0  0  0  0  0  0
    6.9895    3.2085   23.0690 C   0  0  0  0  0  0  0  0  0  0  0  0
    7.8391    2.2253   22.7260 N   0  0  0  0  0  0  0  0  0  0  0  0
    8.6968    9.8373   23.6359 C   0  0  0  0  0  0  0  0  0  0  0  0
   12.5135    6.5957   21.8396 C   0  0  0  0  0  0  0  0  0  0  0  0
   10.9406    8.2330   21.1350 C   0  0  0  0  0  0  0  0  0  0  0  0
    9.6648    8.5956   21.7310 C   0  0  0  0  0  0  0  0  0  0  0  0
   10.8829    1.7153   20.9865 C   0  0  0  0  0  0  0  0  0  0  0  0
    5.7768    2.8533   23.7910 C   0  0  0  0  0  0  0  0  0  0  0  0
    9.7977    1.4791   21.6912 N   0  0  0  0  0  0  0  0  0  0  0  0
    6.5976    9.3401   22.6478 N   0  0  0  0  0  0  0  0  0  0  0  0
   11.2031    3.0042   20.6246 C   0  0  0  0  0  0  0  0  0  0  0  0
   12.8688    7.7370   22.7287 C   0  0  0  0  0  0  0  0  0  0  0  0
    7.4487    9.1361   23.6506 C   0  0  0  0  0  0  0  0  0  0  0  0
    8.9772    2.5025   22.0273 C   0  0  0  0  0  0  0  0  0  0  0  0
   10.4859    4.0901   20.9730 C   0  0  0  0  0  0  0  0  0  0  0  0
   11.0962    9.3293   23.5072 C   0  0  0  0  0  0  0  0  0  0  0  0
    5.1273    7.8529   23.6208 N   0  0  0  0  0  0  0  0  0  0  0  0
    9.7552    9.2338   23.0171 N   0  0  0  0  0  0  0  0  0  0  0  0
   11.1797    6.7591   21.3326 N   0  0  0  0  0  0  0  0  0  0  0  0
   11.7728    8.0337   23.7267 C   0  0  0  0  0  0  0  0  0  0  0  0
    7.1194    8.3344   24.6775 C   0  0  0  0  0  0  0  0  0  0  0  0
    8.4311    4.7963   22.0500 C   0  0  0  0  0  0  0  0  0  0  0  0
    8.7393   10.8706   24.1871 O   0  0  0  0  0  0  0  0  0  0  0  0
    9.3093    3.8166   21.6712 C   0  0  0  0  0  0  0  0  0  0  0  0
  1  5  1  0
  1 15  4  0
  1 22  4  0
  2 20  1  0
  2 24  1  0
  3  6  4  0
  3 27  4  0
  4 22  4  0
  4 26  4  0
  6  7  4  0
  6 13  1  0
  7 19  4  0
  8 18  1  0
  8 23  1  0
  8 28  2  0
  9 17  1  0
  9 24  1  0
 10 11  1  0
 10 24  1  0
 11 23  1  0
 12 14  4  0
 12 16  4  0
 14 19  4  0
 15 18  4  0
 16 20  4  0
 17 25  1  0
 18 26  4  0
 19 29  4  0
 20 29  4  0
 21 23  1  0
 21 25  1  0
 27 29  4  0
M  END
$$$$

 Created by Python create_sdf_string function

 29 32  0  0  0  0  0  0  0  0999 V2000
    5.4450    8.7154   22.6662 C   0  0  0  0  0  0  0  0  0  0  0  0
   10.9154    5.4574   20.5483 C   0  0  0  0  0  0  0  0  0  0  0  0
    7.2709    4.5089   22.7542 C   0  0  0  0  0  0  0  0  0  0  0  0
    5.9698    7.6329   24.6581 C   0  0  0  0  0  0  0  0  0  0  0  0
    4.5542    8.9057   21.7104 O   0  0  0  0  0  0  0  0  0  0  0  0
    6.9895    3.2085   23.0690 C   0  0  0  0  0  0  0  0  0  0  0  0
    7.8391    2.2253   22.7260 N   0  0  0  0  0  0  0  0  0  0  0  0
    8.6968    9.8373   23.6359 C   0  0  0  0  0  0  0  0  0  0  0  0
   12.5135    6.5957   21.8396 C   0  0  0  0  0  0  0  0  0  0  0  0
   10.9406    8.2330   21.1350 C   0  0  0  0  0  0  0  0  0  0  0  0
    9.6648    8.5956   21.7310 C   0  0  0  0  0  0  0  0  0  0  0  0
   10.8829    1.7153   20.9865 C   0  0  0  0  0  0  0  0  0  0  0  0
    5.7768    2.8533   23.7910 C   0  0  0  0  0  0  0  0  0  0  0  0
    9.7977    1.4791   21.6912 N   0  0  0  0  0  0  0  0  0  0  0  0
    6.5976    9.3401   22.6478 N   0  0  0  0  0  0  0  0  0  0  0  0
   11.2031    3.0042   20.6246 C   0  0  0  0  0  0  0  0  0  0  0  0
   12.8688    7.7370   22.7287 C   0  0  0  0  0  0  0  0  0  0  0  0
    7.4487    9.1361   23.6506 C   0  0  0  0  0  0  0  0  0  0  0  0
    8.9772    2.5025   22.0273 C   0  0  0  0  0  0  0  0  0  0  0  0
   10.4859    4.0901   20.9730 C   0  0  0  0  0  0  0  0  0  0  0  0
   11.0962    9.3293   23.5072 C   0  0  0  0  0  0  0  0  0  0  0  0
    5.1273    7.8529   23.6208 N   0  0  0  0  0  0  0  0  0  0  0  0
    9.7552    9.2338   23.0171 N   0  0  0  0  0  0  0  0  0  0  0  0
   11.1797    6.7591   21.3326 N   0  0  0  0  0  0  0  0  0  0  0  0
   11.7728    8.0337   23.7267 C   0  0  0  0  0  0  0  0  0  0  0  0
    7.1194    8.3344   24.6775 C   0  0  0  0  0  0  0  0  0  0  0  0
    8.4311    4.7963   22.0500 C   0  0  0  0  0  0  0  0  0  0  0  0
    8.7393   10.8706   24.1871 O   0  0  0  0  0  0  0  0  0  0  0  0
    9.3093    3.8166   21.6712 C   0  0  0  0  0  0  0  0  0  0  0  0
  1  5  1  0
  1 15  4  0
  1 22  4  0
  2 20  1  0
  2 24  1  0
  3  6  4  0
  3 27  4  0
  4 22  4  0
  4 26  4  0
  6  7  4  0
  6 13  1  0
  7 19  4  0
  8 18  1  0
  8 23  1  0
  8 28  2  0
  9 17  1  0
  9 24  1  0
 10 11  1  0
 10 24  1  0
 11 23  1  0
 12 14  4  0
 12 16  4  0
 14 19  4  0
 15 18  4  0
 16 20  4  0
 17 25  1  0
 18 26  4  0
 19 29  4  0
 20 29  4  0
 21 23  1  0
 21 25  1  0
 27 29  4  0
M  END
$$$$

 Created by Python create_sdf_string function

 29 32  0  0  0  0  0  0  0  0999 V2000
    5.4450    8.7154   22.6662 C   0  0  0  0  0  0  0  0  0  0  0  0
   10.9154    5.4574   20.5483 C   0  0  0  0  0  0  0  0  0  0  0  0
    7.2709    4.5089   22.7542 C   0  0  0  0  0  0  0  0  0  0  0  0
    5.9698    7.6329   24.6581 C   0  0  0  0  0  0  0  0  0  0  0  0
    4.5542    8.9057   21.7104 O   0  0  0  0  0  0  0  0  0  0  0  0
    6.9895    3.2085   23.0690 C   0  0  0  0  0  0  0  0  0  0  0  0
    7.8391    2.2253   22.7260 N   0  0  0  0  0  0  0  0  0  0  0  0
    8.6968    9.8373   23.6359 C   0  0  0  0  0  0  0  0  0  0  0  0
   12.5135    6.5957   21.8396 C   0  0  0  0  0  0  0  0  0  0  0  0
   10.9406    8.2330   21.1350 C   0  0  0  0  0  0  0  0  0  0  0  0
    9.6648    8.5956   21.7310 C   0  0  0  0  0  0  0  0  0  0  0  0
   10.8829    1.7153   20.9865 C   0  0  0  0  0  0  0  0  0  0  0  0
    5.7768    2.8533   23.7910 C   0  0  0  0  0  0  0  0  0  0  0  0
    9.7977    1.4791   21.6912 N   0  0  0  0  0  0  0  0  0  0  0  0
    6.5976    9.3401   22.6478 N   0  0  0  0  0  0  0  0  0  0  0  0
   11.2031    3.0042   20.6246 C   0  0  0  0  0  0  0  0  0  0  0  0
   12.8688    7.7370   22.7287 C   0  0  0  0  0  0  0  0  0  0  0  0
    7.4487    9.1361   23.6506 C   0  0  0  0  0  0  0  0  0  0  0  0
    8.9772    2.5025   22.0273 C   0  0  0  0  0  0  0  0  0  0  0  0
   10.4859    4.0901   20.9730 C   0  0  0  0  0  0  0  0  0  0  0  0
   11.0962    9.3293   23.5072 C   0  0  0  0  0  0  0  0  0  0  0  0
    5.1273    7.8529   23.6208 N   0  0  0  0  0  0  0  0  0  0  0  0
    9.7552    9.2338   23.0171 N   0  0  0  0  0  0  0  0  0  0  0  0
   11.1797    6.7591   21.3326 N   0  0  0  0  0  0  0  0  0  0  0  0
   11.7728    8.0337   23.7267 C   0  0  0  0  0  0  0  0  0  0  0  0
    7.1194    8.3344   24.6775 C   0  0  0  0  0  0  0  0  0  0  0  0
    8.4311    4.7963   22.0500 C   0  0  0  0  0  0  0  0  0  0  0  0
    8.7393   10.8706   24.1871 O   0  0  0  0  0  0  0  0  0  0  0  0
    9.3093    3.8166   21.6712 C   0  0  0  0  0  0  0  0  0  0  0  0
  1  5  1  0
  1 15  4  0
  1 22  4  0
  2 20  1  0
  2 24  1  0
  3  6  4  0
  3 27  4  0
  4 22  4  0
  4 26  4  0
  6  7  4  0
  6 13  1  0
  7 19  4  0
  8 18  1  0
  8 23  1  0
  8 28  2  0
  9 17  1  0
  9 24  1  0
 10 11  1  0
 10 24  1  0
 11 23  1  0
 12 14  4  0
 12 16  4  0
 14 19  4  0
 15 18  4  0
 16 20  4  0
 17 25  1  0
 18 26  4  0
 19 29  4  0
 20 29  4  0
 21 23  1  0
 21 25  1  0
 27 29  4  0
M  END
$$$$

 Created by Python create_sdf_string function

 29 32  0  0  0  0  0  0  0  0999 V2000
    5.4450    8.7154   22.6662 C   0  0  0  0  0  0  0  0  0  0  0  0
   10.9154    5.4574   20.5483 C   0  0  0  0  0  0  0  0  0  0  0  0
    7.2709    4.5089   22.7542 C   0  0  0  0  0  0  0  0  0  0  0  0
    5.9698    7.6329   24.6581 C   0  0  0  0  0  0  0  0  0  0  0  0
    4.5542    8.9057   21.7104 O   0  0  0  0  0  0  0  0  0  0  0  0
    6.9895    3.2085   23.0690 C   0  0  0  0  0  0  0  0  0  0  0  0
    7.8391    2.2253   22.7260 N   0  0  0  0  0  0  0  0  0  0  0  0
    8.6968    9.8373   23.6359 C   0  0  0  0  0  0  0  0  0  0  0  0
   12.5135    6.5957   21.8396 C   0  0  0  0  0  0  0  0  0  0  0  0
   10.9406    8.2330   21.1350 C   0  0  0  0  0  0  0  0  0  0  0  0
    9.6648    8.5956   21.7310 C   0  0  0  0  0  0  0  0  0  0  0  0
   10.8829    1.7153   20.9865 C   0  0  0  0  0  0  0  0  0  0  0  0
    5.7768    2.8533   23.7910 C   0  0  0  0  0  0  0  0  0  0  0  0
    9.7977    1.4791   21.6912 N   0  0  0  0  0  0  0  0  0  0  0  0
    6.5976    9.3401   22.6478 N   0  0  0  0  0  0  0  0  0  0  0  0
   11.2031    3.0042   20.6246 C   0  0  0  0  0  0  0  0  0  0  0  0
   12.8688    7.7370   22.7287 C   0  0  0  0  0  0  0  0  0  0  0  0
    7.4487    9.1361   23.6506 C   0  0  0  0  0  0  0  0  0  0  0  0
    8.9772    2.5025   22.0273 C   0  0  0  0  0  0  0  0  0  0  0  0
   10.4859    4.0901   20.9730 C   0  0  0  0  0  0  0  0  0  0  0  0
   11.0962    9.3293   23.5072 C   0  0  0  0  0  0  0  0  0  0  0  0
    5.1273    7.8529   23.6208 N   0  0  0  0  0  0  0  0  0  0  0  0
    9.7552    9.2338   23.0171 N   0  0  0  0  0  0  0  0  0  0  0  0
   11.1797    6.7591   21.3326 N   0  0  0  0  0  0  0  0  0  0  0  0
   11.7728    8.0337   23.7267 C   0  0  0  0  0  0  0  0  0  0  0  0
    7.1194    8.3344   24.6775 C   0  0  0  0  0  0  0  0  0  0  0  0
    8.4311    4.7963   22.0500 C   0  0  0  0  0  0  0  0  0  0  0  0
    8.7393   10.8706   24.1871 O   0  0  0  0  0  0  0  0  0  0  0  0
    9.3093    3.8166   21.6712 C   0  0  0  0  0  0  0  0  0  0  0  0
  1  5  1  0
  1 15  4  0
  1 22  4  0
  2 20  1  0
  2 24  1  0
  3  6  4  0
  3 27  4  0
  4 22  4  0
  4 26  4  0
  6  7  4  0
  6 13  1  0
  7 19  4  0
  8 18  1  0
  8 23  1  0
  8 28  2  0
  9 17  1  0
  9 24  1  0
 10 11  1  0
 10 24  1  0
 11 23  1  0
 12 14  4  0
 12 16  4  0
 14 19  4  0
 15 18  4  0
 16 20  4  0
 17 25  1  0
 18 26  4  0
 19 29  4  0
 20 29  4  0
 21 23  1  0
 21 25  1  0
 27 29  4  0
M  END
$$$$

 Created by Python create_sdf_string function

 29 32  0  0  0  0  0  0  0  0999 V2000
    5.4450    8.7154   22.6662 C   0  0  0  0  0  0  0  0  0  0  0  0
   10.9154    5.4574   20.5483 C   0  0  0  0  0  0  0  0  0  0  0  0
    7.2709    4.5089   22.7542 C   0  0  0  0  0  0  0  0  0  0  0  0
    5.9698    7.6329   24.6581 C   0  0  0  0  0  0  0  0  0  0  0  0
    4.5542    8.9057   21.7104 O   0  0  0  0  0  0  0  0  0  0  0  0
    6.9895    3.2085   23.0690 C   0  0  0  0  0  0  0  0  0  0  0  0
    7.8391    2.2253   22.7260 N   0  0  0  0  0  0  0  0  0  0  0  0
    8.6968    9.8373   23.6359 C   0  0  0  0  0  0  0  0  0  0  0  0
   12.5135    6.5957   21.8396 C   0  0  0  0  0  0  0  0  0  0  0  0
   10.9406    8.2330   21.1350 C   0  0  0  0  0  0  0  0  0  0  0  0
    9.6648    8.5956   21.7310 C   0  0  0  0  0  0  0  0  0  0  0  0
   10.8829    1.7153   20.9865 C   0  0  0  0  0  0  0  0  0  0  0  0
    5.7768    2.8533   23.7910 C   0  0  0  0  0  0  0  0  0  0  0  0
    9.7977    1.4791   21.6912 N   0  0  0  0  0  0  0  0  0  0  0  0
    6.5976    9.3401   22.6478 N   0  0  0  0  0  0  0  0  0  0  0  0
   11.2031    3.0042   20.6246 C   0  0  0  0  0  0  0  0  0  0  0  0
   12.8688    7.7370   22.7287 C   0  0  0  0  0  0  0  0  0  0  0  0
    7.4487    9.1361   23.6506 C   0  0  0  0  0  0  0  0  0  0  0  0
    8.9772    2.5025   22.0273 C   0  0  0  0  0  0  0  0  0  0  0  0
   10.4859    4.0901   20.9730 C   0  0  0  0  0  0  0  0  0  0  0  0
   11.0962    9.3293   23.5072 C   0  0  0  0  0  0  0  0  0  0  0  0
    5.1273    7.8529   23.6208 N   0  0  0  0  0  0  0  0  0  0  0  0
    9.7552    9.2338   23.0171 N   0  0  0  0  0  0  0  0  0  0  0  0
   11.1797    6.7591   21.3326 N   0  0  0  0  0  0  0  0  0  0  0  0
   11.7728    8.0337   23.7267 C   0  0  0  0  0  0  0  0  0  0  0  0
    7.1194    8.3344   24.6775 C   0  0  0  0  0  0  0  0  0  0  0  0
    8.4311    4.7963   22.0500 C   0  0  0  0  0  0  0  0  0  0  0  0
    8.7393   10.8706   24.1871 O   0  0  0  0  0  0  0  0  0  0  0  0
    9.3093    3.8166   21.6712 C   0  0  0  0  0  0  0  0  0  0  0  0
  1  5  1  0
  1 15  4  0
  1 22  4  0
  2 20  1  0
  2 24  1  0
  3  6  4  0
  3 27  4  0
  4 22  4  0
  4 26  4  0
  6  7  4  0
  6 13  1  0
  7 19  4  0
  8 18  1  0
  8 23  1  0
  8 28  2  0
  9 17  1  0
  9 24  1  0
 10 11  1  0
 10 24  1  0
 11 23  1  0
 12 14  4  0
 12 16  4  0
 14 19  4  0
 15 18  4  0
 16 20  4  0
 17 25  1  0
 18 26  4  0
 19 29  4  0
 20 29  4  0
 21 23  1  0
 21 25  1  0
 27 29  4  0
M  END
$$$$

 Created by Python create_sdf_string function

 29 32  0  0  0  0  0  0  0  0999 V2000
    5.4450    8.7154   22.6662 C   0  0  0  0  0  0  0  0  0  0  0  0
   10.9154    5.4574   20.5483 C   0  0  0  0  0  0  0  0  0  0  0  0
    7.2709    4.5089   22.7542 C   0  0  0  0  0  0  0  0  0  0  0  0
    5.9698    7.6329   24.6581 C   0  0  0  0  0  0  0  0  0  0  0  0
    4.5542    8.9057   21.7104 O   0  0  0  0  0  0  0  0  0  0  0  0
    6.9895    3.2085   23.0690 C   0  0  0  0  0  0  0  0  0  0  0  0
    7.8391    2.2253   22.7260 N   0  0  0  0  0  0  0  0  0  0  0  0
    8.6968    9.8373   23.6359 C   0  0  0  0  0  0  0  0  0  0  0  0
   12.5135    6.5957   21.8396 C   0  0  0  0  0  0  0  0  0  0  0  0
   10.9406    8.2330   21.1350 C   0  0  0  0  0  0  0  0  0  0  0  0
    9.6648    8.5956   21.7310 C   0  0  0  0  0  0  0  0  0  0  0  0
   10.8829    1.7153   20.9865 C   0  0  0  0  0  0  0  0  0  0  0  0
    5.7768    2.8533   23.7910 C   0  0  0  0  0  0  0  0  0  0  0  0
    9.7977    1.4791   21.6912 N   0  0  0  0  0  0  0  0  0  0  0  0
    6.5976    9.3401   22.6478 N   0  0  0  0  0  0  0  0  0  0  0  0
   11.2031    3.0042   20.6246 C   0  0  0  0  0  0  0  0  0  0  0  0
   12.8688    7.7370   22.7287 C   0  0  0  0  0  0  0  0  0  0  0  0
    7.4487    9.1361   23.6506 C   0  0  0  0  0  0  0  0  0  0  0  0
    8.9772    2.5025   22.0273 C   0  0  0  0  0  0  0  0  0  0  0  0
   10.4859    4.0901   20.9730 C   0  0  0  0  0  0  0  0  0  0  0  0
   11.0962    9.3293   23.5072 C   0  0  0  0  0  0  0  0  0  0  0  0
    5.1273    7.8529   23.6208 N   0  0  0  0  0  0  0  0  0  0  0  0
    9.7552    9.2338   23.0171 N   0  0  0  0  0  0  0  0  0  0  0  0
   11.1797    6.7591   21.3326 N   0  0  0  0  0  0  0  0  0  0  0  0
   11.7728    8.0337   23.7267 C   0  0  0  0  0  0  0  0  0  0  0  0
    7.1194    8.3344   24.6775 C   0  0  0  0  0  0  0  0  0  0  0  0
    8.4311    4.7963   22.0500 C   0  0  0  0  0  0  0  0  0  0  0  0
    8.7393   10.8706   24.1871 O   0  0  0  0  0  0  0  0  0  0  0  0
    9.3093    3.8166   21.6712 C   0  0  0  0  0  0  0  0  0  0  0  0
  1  5  1  0
  1 15  4  0
  1 22  4  0
  2 20  1  0
  2 24  1  0
  3  6  4  0
  3 27  4  0
  4 22  4  0
  4 26  4  0
  6  7  4  0
  6 13  1  0
  7 19  4  0
  8 18  1  0
  8 23  1  0
  8 28  2  0
  9 17  1  0
  9 24  1  0
 10 11  1  0
 10 24  1  0
 11 23  1  0
 12 14  4  0
 12 16  4  0
 14 19  4  0
 15 18  4  0
 16 20  4  0
 17 25  1  0
 18 26  4  0
 19 29  4  0
 20 29  4  0
 21 23  1  0
 21 25  1  0
 27 29  4  0
M  END
$$$$

 Created by Python create_sdf_string function

 29 32  0  0  0  0  0  0  0  0999 V2000
    5.4450    8.7154   22.6662 C   0  0  0  0  0  0  0  0  0  0  0  0
   10.9154    5.4574   20.5483 C   0  0  0  0  0  0  0  0  0  0  0  0
    7.2709    4.5089   22.7542 C   0  0  0  0  0  0  0  0  0  0  0  0
    5.9698    7.6329   24.6581 C   0  0  0  0  0  0  0  0  0  0  0  0
    4.5542    8.9057   21.7104 O   0  0  0  0  0  0  0  0  0  0  0  0
    6.9895    3.2085   23.0690 C   0  0  0  0  0  0  0  0  0  0  0  0
    7.8391    2.2253   22.7260 N   0  0  0  0  0  0  0  0  0  0  0  0
    8.6968    9.8373   23.6359 C   0  0  0  0  0  0  0  0  0  0  0  0
   12.5135    6.5957   21.8396 C   0  0  0  0  0  0  0  0  0  0  0  0
   10.9406    8.2330   21.1350 C   0  0  0  0  0  0  0  0  0  0  0  0
    9.6648    8.5956   21.7310 C   0  0  0  0  0  0  0  0  0  0  0  0
   10.8829    1.7153   20.9865 C   0  0  0  0  0  0  0  0  0  0  0  0
    5.7768    2.8533   23.7910 C   0  0  0  0  0  0  0  0  0  0  0  0
    9.7977    1.4791   21.6912 N   0  0  0  0  0  0  0  0  0  0  0  0
    6.5976    9.3401   22.6478 N   0  0  0  0  0  0  0  0  0  0  0  0
   11.2031    3.0042   20.6246 C   0  0  0  0  0  0  0  0  0  0  0  0
   12.8688    7.7370   22.7287 C   0  0  0  0  0  0  0  0  0  0  0  0
    7.4487    9.1361   23.6506 C   0  0  0  0  0  0  0  0  0  0  0  0
    8.9772    2.5025   22.0273 C   0  0  0  0  0  0  0  0  0  0  0  0
   10.4859    4.0901   20.9730 C   0  0  0  0  0  0  0  0  0  0  0  0
   11.0962    9.3293   23.5072 C   0  0  0  0  0  0  0  0  0  0  0  0
    5.1273    7.8529   23.6208 N   0  0  0  0  0  0  0  0  0  0  0  0
    9.7552    9.2338   23.0171 N   0  0  0  0  0  0  0  0  0  0  0  0
   11.1797    6.7591   21.3326 N   0  0  0  0  0  0  0  0  0  0  0  0
   11.7728    8.0337   23.7267 C   0  0  0  0  0  0  0  0  0  0  0  0
    7.1194    8.3344   24.6775 C   0  0  0  0  0  0  0  0  0  0  0  0
    8.4311    4.7963   22.0500 C   0  0  0  0  0  0  0  0  0  0  0  0
    8.7393   10.8706   24.1871 O   0  0  0  0  0  0  0  0  0  0  0  0
    9.3093    3.8166   21.6712 C   0  0  0  0  0  0  0  0  0  0  0  0
  1  5  1  0
  1 15  4  0
  1 22  4  0
  2 20  1  0
  2 24  1  0
  3  6  4  0
  3 27  4  0
  4 22  4  0
  4 26  4  0
  6  7  4  0
  6 13  1  0
  7 19  4  0
  8 18  1  0
  8 23  1  0
  8 28  2  0
  9 17  1  0
  9 24  1  0
 10 11  1  0
 10 24  1  0
 11 23  1  0
 12 14  4  0
 12 16  4  0
 14 19  4  0
 15 18  4  0
 16 20  4  0
 17 25  1  0
 18 26  4  0
 19 29  4  0
 20 29  4  0
 21 23  1  0
 21 25  1  0
 27 29  4  0
M  END
$$$$

 Created by Python create_sdf_string function

 29 32  0  0  0  0  0  0  0  0999 V2000
    5.4450    8.7154   22.6662 C   0  0  0  0  0  0  0  0  0  0  0  0
   10.9154    5.4574   20.5483 C   0  0  0  0  0  0  0  0  0  0  0  0
    7.2709    4.5089   22.7542 C   0  0  0  0  0  0  0  0  0  0  0  0
    5.9698    7.6329   24.6581 C   0  0  0  0  0  0  0  0  0  0  0  0
    4.5542    8.9057   21.7104 O   0  0  0  0  0  0  0  0  0  0  0  0
    6.9895    3.2085   23.0690 C   0  0  0  0  0  0  0  0  0  0  0  0
    7.8391    2.2253   22.7260 N   0  0  0  0  0  0  0  0  0  0  0  0
    8.6968    9.8373   23.6359 C   0  0  0  0  0  0  0  0  0  0  0  0
   12.5135    6.5957   21.8396 C   0  0  0  0  0  0  0  0  0  0  0  0
   10.9406    8.2330   21.1350 C   0  0  0  0  0  0  0  0  0  0  0  0
    9.6648    8.5956   21.7310 C   0  0  0  0  0  0  0  0  0  0  0  0
   10.8829    1.7153   20.9865 C   0  0  0  0  0  0  0  0  0  0  0  0
    5.7768    2.8533   23.7910 C   0  0  0  0  0  0  0  0  0  0  0  0
    9.7977    1.4791   21.6912 N   0  0  0  0  0  0  0  0  0  0  0  0
    6.5976    9.3401   22.6478 N   0  0  0  0  0  0  0  0  0  0  0  0
   11.2031    3.0042   20.6246 C   0  0  0  0  0  0  0  0  0  0  0  0
   12.8688    7.7370   22.7287 C   0  0  0  0  0  0  0  0  0  0  0  0
    7.4487    9.1361   23.6506 C   0  0  0  0  0  0  0  0  0  0  0  0
    8.9772    2.5025   22.0273 C   0  0  0  0  0  0  0  0  0  0  0  0
   10.4859    4.0901   20.9730 C   0  0  0  0  0  0  0  0  0  0  0  0
   11.0962    9.3293   23.5072 C   0  0  0  0  0  0  0  0  0  0  0  0
    5.1273    7.8529   23.6208 N   0  0  0  0  0  0  0  0  0  0  0  0
    9.7552    9.2338   23.0171 N   0  0  0  0  0  0  0  0  0  0  0  0
   11.1797    6.7591   21.3326 N   0  0  0  0  0  0  0  0  0  0  0  0
   11.7728    8.0337   23.7267 C   0  0  0  0  0  0  0  0  0  0  0  0
    7.1194    8.3344   24.6775 C   0  0  0  0  0  0  0  0  0  0  0  0
    8.4311    4.7963   22.0500 C   0  0  0  0  0  0  0  0  0  0  0  0
    8.7393   10.8706   24.1871 O   0  0  0  0  0  0  0  0  0  0  0  0
    9.3093    3.8166   21.6712 C   0  0  0  0  0  0  0  0  0  0  0  0
  1  5  1  0
  1 15  4  0
  1 22  4  0
  2 20  1  0
  2 24  1  0
  3  6  4  0
  3 27  4  0
  4 22  4  0
  4 26  4  0
  6  7  4  0
  6 13  1  0
  7 19  4  0
  8 18  1  0
  8 23  1  0
  8 28  2  0
  9 17  1  0
  9 24  1  0
 10 11  1  0
 10 24  1  0
 11 23  1  0
 12 14  4  0
 12 16  4  0
 14 19  4  0
 15 18  4  0
 16 20  4  0
 17 25  1  0
 18 26  4  0
 19 29  4  0
 20 29  4  0
 21 23  1  0
 21 25  1  0
 27 29  4  0
M  END
$$$$

 Created by Python create_sdf_string function

 29 32  0  0  0  0  0  0  0  0999 V2000
    5.4450    8.7154   22.6662 C   0  0  0  0  0  0  0  0  0  0  0  0
   10.9154    5.4574   20.5483 C   0  0  0  0  0  0  0  0  0  0  0  0
    7.2709    4.5089   22.7542 C   0  0  0  0  0  0  0  0  0  0  0  0
    5.9698    7.6329   24.6581 C   0  0  0  0  0  0  0  0  0  0  0  0
    4.5542    8.9057   21.7104 O   0  0  0  0  0  0  0  0  0  0  0  0
    6.9895    3.2085   23.0690 C   0  0  0  0  0  0  0  0  0  0  0  0
    7.8391    2.2253   22.7260 N   0  0  0  0  0  0  0  0  0  0  0  0
    8.6968    9.8373   23.6359 C   0  0  0  0  0  0  0  0  0  0  0  0
   12.5135    6.5957   21.8396 C   0  0  0  0  0  0  0  0  0  0  0  0
   10.9406    8.2330   21.1350 C   0  0  0  0  0  0  0  0  0  0  0  0
    9.6648    8.5956   21.7310 C   0  0  0  0  0  0  0  0  0  0  0  0
   10.8829    1.7153   20.9865 C   0  0  0  0  0  0  0  0  0  0  0  0
    5.7768    2.8533   23.7910 C   0  0  0  0  0  0  0  0  0  0  0  0
    9.7977    1.4791   21.6912 N   0  0  0  0  0  0  0  0  0  0  0  0
    6.5976    9.3401   22.6478 N   0  0  0  0  0  0  0  0  0  0  0  0
   11.2031    3.0042   20.6246 C   0  0  0  0  0  0  0  0  0  0  0  0
   12.8688    7.7370   22.7287 C   0  0  0  0  0  0  0  0  0  0  0  0
    7.4487    9.1361   23.6506 C   0  0  0  0  0  0  0  0  0  0  0  0
    8.9772    2.5025   22.0273 C   0  0  0  0  0  0  0  0  0  0  0  0
   10.4859    4.0901   20.9730 C   0  0  0  0  0  0  0  0  0  0  0  0
   11.0962    9.3293   23.5072 C   0  0  0  0  0  0  0  0  0  0  0  0
    5.1273    7.8529   23.6208 N   0  0  0  0  0  0  0  0  0  0  0  0
    9.7552    9.2338   23.0171 N   0  0  0  0  0  0  0  0  0  0  0  0
   11.1797    6.7591   21.3326 N   0  0  0  0  0  0  0  0  0  0  0  0
   11.7728    8.0337   23.7267 C   0  0  0  0  0  0  0  0  0  0  0  0
    7.1194    8.3344   24.6775 C   0  0  0  0  0  0  0  0  0  0  0  0
    8.4311    4.7963   22.0500 C   0  0  0  0  0  0  0  0  0  0  0  0
    8.7393   10.8706   24.1871 O   0  0  0  0  0  0  0  0  0  0  0  0
    9.3093    3.8166   21.6712 C   0  0  0  0  0  0  0  0  0  0  0  0
  1  5  1  0
  1 15  4  0
  1 22  4  0
  2 20  1  0
  2 24  1  0
  3  6  4  0
  3 27  4  0
  4 22  4  0
  4 26  4  0
  6  7  4  0
  6 13  1  0
  7 19  4  0
  8 18  1  0
  8 23  1  0
  8 28  2  0
  9 17  1  0
  9 24  1  0
 10 11  1  0
 10 24  1  0
 11 23  1  0
 12 14  4  0
 12 16  4  0
 14 19  4  0
 15 18  4  0
 16 20  4  0
 17 25  1  0
 18 26  4  0
 19 29  4  0
 20 29  4  0
 21 23  1  0
 21 25  1  0
 27 29  4  0
M  END
$$$$

 Created by Python create_sdf_string function

 29 32  0  0  0  0  0  0  0  0999 V2000
    5.4450    8.7154   22.6662 C   0  0  0  0  0  0  0  0  0  0  0  0
   10.9154    5.4574   20.5483 C   0  0  0  0  0  0  0  0  0  0  0  0
    7.2709    4.5089   22.7542 C   0  0  0  0  0  0  0  0  0  0  0  0
    5.9698    7.6329   24.6581 C   0  0  0  0  0  0  0  0  0  0  0  0
    4.5542    8.9057   21.7104 O   0  0  0  0  0  0  0  0  0  0  0  0
    6.9895    3.2085   23.0690 C   0  0  0  0  0  0  0  0  0  0  0  0
    7.8391    2.2253   22.7260 N   0  0  0  0  0  0  0  0  0  0  0  0
    8.6968    9.8373   23.6359 C   0  0  0  0  0  0  0  0  0  0  0  0
   12.5135    6.5957   21.8396 C   0  0  0  0  0  0  0  0  0  0  0  0
   10.9406    8.2330   21.1350 C   0  0  0  0  0  0  0  0  0  0  0  0
    9.6648    8.5956   21.7310 C   0  0  0  0  0  0  0  0  0  0  0  0
   10.8829    1.7153   20.9865 C   0  0  0  0  0  0  0  0  0  0  0  0
    5.7768    2.8533   23.7910 C   0  0  0  0  0  0  0  0  0  0  0  0
    9.7977    1.4791   21.6912 N   0  0  0  0  0  0  0  0  0  0  0  0
    6.5976    9.3401   22.6478 N   0  0  0  0  0  0  0  0  0  0  0  0
   11.2031    3.0042   20.6246 C   0  0  0  0  0  0  0  0  0  0  0  0
   12.8688    7.7370   22.7287 C   0  0  0  0  0  0  0  0  0  0  0  0
    7.4487    9.1361   23.6506 C   0  0  0  0  0  0  0  0  0  0  0  0
    8.9772    2.5025   22.0273 C   0  0  0  0  0  0  0  0  0  0  0  0
   10.4859    4.0901   20.9730 C   0  0  0  0  0  0  0  0  0  0  0  0
   11.0962    9.3293   23.5072 C   0  0  0  0  0  0  0  0  0  0  0  0
    5.1273    7.8529   23.6208 N   0  0  0  0  0  0  0  0  0  0  0  0
    9.7552    9.2338   23.0171 N   0  0  0  0  0  0  0  0  0  0  0  0
   11.1797    6.7591   21.3326 N   0  0  0  0  0  0  0  0  0  0  0  0
   11.7728    8.0337   23.7267 C   0  0  0  0  0  0  0  0  0  0  0  0
    7.1194    8.3344   24.6775 C   0  0  0  0  0  0  0  0  0  0  0  0
    8.4311    4.7963   22.0500 C   0  0  0  0  0  0  0  0  0  0  0  0
    8.7393   10.8706   24.1871 O   0  0  0  0  0  0  0  0  0  0  0  0
    9.3093    3.8166   21.6712 C   0  0  0  0  0  0  0  0  0  0  0  0
  1  5  1  0
  1 15  4  0
  1 22  4  0
  2 20  1  0
  2 24  1  0
  3  6  4  0
  3 27  4  0
  4 22  4  0
  4 26  4  0
  6  7  4  0
  6 13  1  0
  7 19  4  0
  8 18  1  0
  8 23  1  0
  8 28  2  0
  9 17  1  0
  9 24  1  0
 10 11  1  0
 10 24  1  0
 11 23  1  0
 12 14  4  0
 12 16  4  0
 14 19  4  0
 15 18  4  0
 16 20  4  0
 17 25  1  0
 18 26  4  0
 19 29  4  0
 20 29  4  0
 21 23  1  0
 21 25  1  0
 27 29  4  0
M  END
$$$$

 Created by Python create_sdf_string function

 29 32  0  0  0  0  0  0  0  0999 V2000
    5.4450    8.7154   22.6662 C   0  0  0  0  0  0  0  0  0  0  0  0
   10.9154    5.4574   20.5483 C   0  0  0  0  0  0  0  0  0  0  0  0
    7.2709    4.5089   22.7542 C   0  0  0  0  0  0  0  0  0  0  0  0
    5.9698    7.6329   24.6581 C   0  0  0  0  0  0  0  0  0  0  0  0
    4.5542    8.9057   21.7104 O   0  0  0  0  0  0  0  0  0  0  0  0
    6.9895    3.2085   23.0690 C   0  0  0  0  0  0  0  0  0  0  0  0
    7.8391    2.2253   22.7260 N   0  0  0  0  0  0  0  0  0  0  0  0
    8.6968    9.8373   23.6359 C   0  0  0  0  0  0  0  0  0  0  0  0
   12.5135    6.5957   21.8396 C   0  0  0  0  0  0  0  0  0  0  0  0
   10.9406    8.2330   21.1350 C   0  0  0  0  0  0  0  0  0  0  0  0
    9.6648    8.5956   21.7310 C   0  0  0  0  0  0  0  0  0  0  0  0
   10.8829    1.7153   20.9865 C   0  0  0  0  0  0  0  0  0  0  0  0
    5.7768    2.8533   23.7910 C   0  0  0  0  0  0  0  0  0  0  0  0
    9.7977    1.4791   21.6912 N   0  0  0  0  0  0  0  0  0  0  0  0
    6.5976    9.3401   22.6478 N   0  0  0  0  0  0  0  0  0  0  0  0
   11.2031    3.0042   20.6246 C   0  0  0  0  0  0  0  0  0  0  0  0
   12.8688    7.7370   22.7287 C   0  0  0  0  0  0  0  0  0  0  0  0
    7.4487    9.1361   23.6506 C   0  0  0  0  0  0  0  0  0  0  0  0
    8.9772    2.5025   22.0273 C   0  0  0  0  0  0  0  0  0  0  0  0
   10.4859    4.0901   20.9730 C   0  0  0  0  0  0  0  0  0  0  0  0
   11.0962    9.3293   23.5072 C   0  0  0  0  0  0  0  0  0  0  0  0
    5.1273    7.8529   23.6208 N   0  0  0  0  0  0  0  0  0  0  0  0
    9.7552    9.2338   23.0171 N   0  0  0  0  0  0  0  0  0  0  0  0
   11.1797    6.7591   21.3326 N   0  0  0  0  0  0  0  0  0  0  0  0
   11.7728    8.0337   23.7267 C   0  0  0  0  0  0  0  0  0  0  0  0
    7.1194    8.3344   24.6775 C   0  0  0  0  0  0  0  0  0  0  0  0
    8.4311    4.7963   22.0500 C   0  0  0  0  0  0  0  0  0  0  0  0
    8.7393   10.8706   24.1871 O   0  0  0  0  0  0  0  0  0  0  0  0
    9.3093    3.8166   21.6712 C   0  0  0  0  0  0  0  0  0  0  0  0
  1  5  1  0
  1 15  4  0
  1 22  4  0
  2 20  1  0
  2 24  1  0
  3  6  4  0
  3 27  4  0
  4 22  4  0
  4 26  4  0
  6  7  4  0
  6 13  1  0
  7 19  4  0
  8 18  1  0
  8 23  1  0
  8 28  2  0
  9 17  1  0
  9 24  1  0
 10 11  1  0
 10 24  1  0
 11 23  1  0
 12 14  4  0
 12 16  4  0
 14 19  4  0
 15 18  4  0
 16 20  4  0
 17 25  1  0
 18 26  4  0
 19 29  4  0
 20 29  4  0
 21 23  1  0
 21 25  1  0
 27 29  4  0
M  END
$$$$

 Created by Python create_sdf_string function

 29 32  0  0  0  0  0  0  0  0999 V2000
    5.4450    8.7154   22.6662 C   0  0  0  0  0  0  0  0  0  0  0  0
   10.9154    5.4574   20.5483 C   0  0  0  0  0  0  0  0  0  0  0  0
    7.2709    4.5089   22.7542 C   0  0  0  0  0  0  0  0  0  0  0  0
    5.9698    7.6329   24.6581 C   0  0  0  0  0  0  0  0  0  0  0  0
    4.5542    8.9057   21.7104 O   0  0  0  0  0  0  0  0  0  0  0  0
    6.9895    3.2085   23.0690 C   0  0  0  0  0  0  0  0  0  0  0  0
    7.8391    2.2253   22.7260 N   0  0  0  0  0  0  0  0  0  0  0  0
    8.6968    9.8373   23.6359 C   0  0  0  0  0  0  0  0  0  0  0  0
   12.5135    6.5957   21.8396 C   0  0  0  0  0  0  0  0  0  0  0  0
   10.9406    8.2330   21.1350 C   0  0  0  0  0  0  0  0  0  0  0  0
    9.6648    8.5956   21.7310 C   0  0  0  0  0  0  0  0  0  0  0  0
   10.8829    1.7153   20.9865 C   0  0  0  0  0  0  0  0  0  0  0  0
    5.7768    2.8533   23.7910 C   0  0  0  0  0  0  0  0  0  0  0  0
    9.7977    1.4791   21.6912 N   0  0  0  0  0  0  0  0  0  0  0  0
    6.5976    9.3401   22.6478 N   0  0  0  0  0  0  0  0  0  0  0  0
   11.2031    3.0042   20.6246 C   0  0  0  0  0  0  0  0  0  0  0  0
   12.8688    7.7370   22.7287 C   0  0  0  0  0  0  0  0  0  0  0  0
    7.4487    9.1361   23.6506 C   0  0  0  0  0  0  0  0  0  0  0  0
    8.9772    2.5025   22.0273 C   0  0  0  0  0  0  0  0  0  0  0  0
   10.4859    4.0901   20.9730 C   0  0  0  0  0  0  0  0  0  0  0  0
   11.0962    9.3293   23.5072 C   0  0  0  0  0  0  0  0  0  0  0  0
    5.1273    7.8529   23.6208 N   0  0  0  0  0  0  0  0  0  0  0  0
    9.7552    9.2338   23.0171 N   0  0  0  0  0  0  0  0  0  0  0  0
   11.1797    6.7591   21.3326 N   0  0  0  0  0  0  0  0  0  0  0  0
   11.7728    8.0337   23.7267 C   0  0  0  0  0  0  0  0  0  0  0  0
    7.1194    8.3344   24.6775 C   0  0  0  0  0  0  0  0  0  0  0  0
    8.4311    4.7963   22.0500 C   0  0  0  0  0  0  0  0  0  0  0  0
    8.7393   10.8706   24.1871 O   0  0  0  0  0  0  0  0  0  0  0  0
    9.3093    3.8166   21.6712 C   0  0  0  0  0  0  0  0  0  0  0  0
  1  5  1  0
  1 15  4  0
  1 22  4  0
  2 20  1  0
  2 24  1  0
  3  6  4  0
  3 27  4  0
  4 22  4  0
  4 26  4  0
  6  7  4  0
  6 13  1  0
  7 19  4  0
  8 18  1  0
  8 23  1  0
  8 28  2  0
  9 17  1  0
  9 24  1  0
 10 11  1  0
 10 24  1  0
 11 23  1  0
 12 14  4  0
 12 16  4  0
 14 19  4  0
 15 18  4  0
 16 20  4  0
 17 25  1  0
 18 26  4  0
 19 29  4  0
 20 29  4  0
 21 23  1  0
 21 25  1  0
 27 29  4  0
M  END
$$$$

 Created by Python create_sdf_string function

 29 32  0  0  0  0  0  0  0  0999 V2000
    5.4450    8.7154   22.6662 C   0  0  0  0  0  0  0  0  0  0  0  0
   10.9154    5.4574   20.5483 C   0  0  0  0  0  0  0  0  0  0  0  0
    7.2709    4.5089   22.7542 C   0  0  0  0  0  0  0  0  0  0  0  0
    5.9698    7.6329   24.6581 C   0  0  0  0  0  0  0  0  0  0  0  0
    4.5542    8.9057   21.7104 O   0  0  0  0  0  0  0  0  0  0  0  0
    6.9895    3.2085   23.0690 C   0  0  0  0  0  0  0  0  0  0  0  0
    7.8391    2.2253   22.7260 N   0  0  0  0  0  0  0  0  0  0  0  0
    8.6968    9.8373   23.6359 C   0  0  0  0  0  0  0  0  0  0  0  0
   12.5135    6.5957   21.8396 C   0  0  0  0  0  0  0  0  0  0  0  0
   10.9406    8.2330   21.1350 C   0  0  0  0  0  0  0  0  0  0  0  0
    9.6648    8.5956   21.7310 C   0  0  0  0  0  0  0  0  0  0  0  0
   10.8829    1.7153   20.9865 C   0  0  0  0  0  0  0  0  0  0  0  0
    5.7768    2.8533   23.7910 C   0  0  0  0  0  0  0  0  0  0  0  0
    9.7977    1.4791   21.6912 N   0  0  0  0  0  0  0  0  0  0  0  0
    6.5976    9.3401   22.6478 N   0  0  0  0  0  0  0  0  0  0  0  0
   11.2031    3.0042   20.6246 C   0  0  0  0  0  0  0  0  0  0  0  0
   12.8688    7.7370   22.7287 C   0  0  0  0  0  0  0  0  0  0  0  0
    7.4487    9.1361   23.6506 C   0  0  0  0  0  0  0  0  0  0  0  0
    8.9772    2.5025   22.0273 C   0  0  0  0  0  0  0  0  0  0  0  0
   10.4859    4.0901   20.9730 C   0  0  0  0  0  0  0  0  0  0  0  0
   11.0962    9.3293   23.5072 C   0  0  0  0  0  0  0  0  0  0  0  0
    5.1273    7.8529   23.6208 N   0  0  0  0  0  0  0  0  0  0  0  0
    9.7552    9.2338   23.0171 N   0  0  0  0  0  0  0  0  0  0  0  0
   11.1797    6.7591   21.3326 N   0  0  0  0  0  0  0  0  0  0  0  0
   11.7728    8.0337   23.7267 C   0  0  0  0  0  0  0  0  0  0  0  0
    7.1194    8.3344   24.6775 C   0  0  0  0  0  0  0  0  0  0  0  0
    8.4311    4.7963   22.0500 C   0  0  0  0  0  0  0  0  0  0  0  0
    8.7393   10.8706   24.1871 O   0  0  0  0  0  0  0  0  0  0  0  0
    9.3093    3.8166   21.6712 C   0  0  0  0  0  0  0  0  0  0  0  0
  1  5  1  0
  1 15  4  0
  1 22  4  0
  2 20  1  0
  2 24  1  0
  3  6  4  0
  3 27  4  0
  4 22  4  0
  4 26  4  0
  6  7  4  0
  6 13  1  0
  7 19  4  0
  8 18  1  0
  8 23  1  0
  8 28  2  0
  9 17  1  0
  9 24  1  0
 10 11  1  0
 10 24  1  0
 11 23  1  0
 12 14  4  0
 12 16  4  0
 14 19  4  0
 15 18  4  0
 16 20  4  0
 17 25  1  0
 18 26  4  0
 19 29  4  0
 20 29  4  0
 21 23  1  0
 21 25  1  0
 27 29  4  0
M  END
$$$$

 Created by Python create_sdf_string function

 29 32  0  0  0  0  0  0  0  0999 V2000
    5.4450    8.7154   22.6662 C   0  0  0  0  0  0  0  0  0  0  0  0
   10.9154    5.4574   20.5483 C   0  0  0  0  0  0  0  0  0  0  0  0
    7.2709    4.5089   22.7542 C   0  0  0  0  0  0  0  0  0  0  0  0
    5.9698    7.6329   24.6581 C   0  0  0  0  0  0  0  0  0  0  0  0
    4.5542    8.9057   21.7104 O   0  0  0  0  0  0  0  0  0  0  0  0
    6.9895    3.2085   23.0690 C   0  0  0  0  0  0  0  0  0  0  0  0
    7.8391    2.2253   22.7260 N   0  0  0  0  0  0  0  0  0  0  0  0
    8.6968    9.8373   23.6359 C   0  0  0  0  0  0  0  0  0  0  0  0
   12.5135    6.5957   21.8396 C   0  0  0  0  0  0  0  0  0  0  0  0
   10.9406    8.2330   21.1350 C   0  0  0  0  0  0  0  0  0  0  0  0
    9.6648    8.5956   21.7310 C   0  0  0  0  0  0  0  0  0  0  0  0
   10.8829    1.7153   20.9865 C   0  0  0  0  0  0  0  0  0  0  0  0
    5.7768    2.8533   23.7910 C   0  0  0  0  0  0  0  0  0  0  0  0
    9.7977    1.4791   21.6912 N   0  0  0  0  0  0  0  0  0  0  0  0
    6.5976    9.3401   22.6478 N   0  0  0  0  0  0  0  0  0  0  0  0
   11.2031    3.0042   20.6246 C   0  0  0  0  0  0  0  0  0  0  0  0
   12.8688    7.7370   22.7287 C   0  0  0  0  0  0  0  0  0  0  0  0
    7.4487    9.1361   23.6506 C   0  0  0  0  0  0  0  0  0  0  0  0
    8.9772    2.5025   22.0273 C   0  0  0  0  0  0  0  0  0  0  0  0
   10.4859    4.0901   20.9730 C   0  0  0  0  0  0  0  0  0  0  0  0
   11.0962    9.3293   23.5072 C   0  0  0  0  0  0  0  0  0  0  0  0
    5.1273    7.8529   23.6208 N   0  0  0  0  0  0  0  0  0  0  0  0
    9.7552    9.2338   23.0171 N   0  0  0  0  0  0  0  0  0  0  0  0
   11.1797    6.7591   21.3326 N   0  0  0  0  0  0  0  0  0  0  0  0
   11.7728    8.0337   23.7267 C   0  0  0  0  0  0  0  0  0  0  0  0
    7.1194    8.3344   24.6775 C   0  0  0  0  0  0  0  0  0  0  0  0
    8.4311    4.7963   22.0500 C   0  0  0  0  0  0  0  0  0  0  0  0
    8.7393   10.8706   24.1871 O   0  0  0  0  0  0  0  0  0  0  0  0
    9.3093    3.8166   21.6712 C   0  0  0  0  0  0  0  0  0  0  0  0
  1  5  1  0
  1 15  4  0
  1 22  4  0
  2 20  1  0
  2 24  1  0
  3  6  4  0
  3 27  4  0
  4 22  4  0
  4 26  4  0
  6  7  4  0
  6 13  1  0
  7 19  4  0
  8 18  1  0
  8 23  1  0
  8 28  2  0
  9 17  1  0
  9 24  1  0
 10 11  1  0
 10 24  1  0
 11 23  1  0
 12 14  4  0
 12 16  4  0
 14 19  4  0
 15 18  4  0
 16 20  4  0
 17 25  1  0
 18 26  4  0
 19 29  4  0
 20 29  4  0
 21 23  1  0
 21 25  1  0
 27 29  4  0
M  END
$$$$

 Created by Python create_sdf_string function

 29 32  0  0  0  0  0  0  0  0999 V2000
    5.4450    8.7154   22.6662 C   0  0  0  0  0  0  0  0  0  0  0  0
   10.9154    5.4574   20.5483 C   0  0  0  0  0  0  0  0  0  0  0  0
    7.2709    4.5089   22.7542 C   0  0  0  0  0  0  0  0  0  0  0  0
    5.9698    7.6329   24.6581 C   0  0  0  0  0  0  0  0  0  0  0  0
    4.5542    8.9057   21.7104 O   0  0  0  0  0  0  0  0  0  0  0  0
    6.9895    3.2085   23.0690 C   0  0  0  0  0  0  0  0  0  0  0  0
    7.8391    2.2253   22.7260 N   0  0  0  0  0  0  0  0  0  0  0  0
    8.6968    9.8373   23.6359 C   0  0  0  0  0  0  0  0  0  0  0  0
   12.5135    6.5957   21.8396 C   0  0  0  0  0  0  0  0  0  0  0  0
   10.9406    8.2330   21.1350 C   0  0  0  0  0  0  0  0  0  0  0  0
    9.6648    8.5956   21.7310 C   0  0  0  0  0  0  0  0  0  0  0  0
   10.8829    1.7153   20.9865 C   0  0  0  0  0  0  0  0  0  0  0  0
    5.7768    2.8533   23.7910 C   0  0  0  0  0  0  0  0  0  0  0  0
    9.7977    1.4791   21.6912 N   0  0  0  0  0  0  0  0  0  0  0  0
    6.5976    9.3401   22.6478 N   0  0  0  0  0  0  0  0  0  0  0  0
   11.2031    3.0042   20.6246 C   0  0  0  0  0  0  0  0  0  0  0  0
   12.8688    7.7370   22.7287 C   0  0  0  0  0  0  0  0  0  0  0  0
    7.4487    9.1361   23.6506 C   0  0  0  0  0  0  0  0  0  0  0  0
    8.9772    2.5025   22.0273 C   0  0  0  0  0  0  0  0  0  0  0  0
   10.4859    4.0901   20.9730 C   0  0  0  0  0  0  0  0  0  0  0  0
   11.0962    9.3293   23.5072 C   0  0  0  0  0  0  0  0  0  0  0  0
    5.1273    7.8529   23.6208 N   0  0  0  0  0  0  0  0  0  0  0  0
    9.7552    9.2338   23.0171 N   0  0  0  0  0  0  0  0  0  0  0  0
   11.1797    6.7591   21.3326 N   0  0  0  0  0  0  0  0  0  0  0  0
   11.7728    8.0337   23.7267 C   0  0  0  0  0  0  0  0  0  0  0  0
    7.1194    8.3344   24.6775 C   0  0  0  0  0  0  0  0  0  0  0  0
    8.4311    4.7963   22.0500 C   0  0  0  0  0  0  0  0  0  0  0  0
    8.7393   10.8706   24.1871 O   0  0  0  0  0  0  0  0  0  0  0  0
    9.3093    3.8166   21.6712 C   0  0  0  0  0  0  0  0  0  0  0  0
  1  5  1  0
  1 15  4  0
  1 22  4  0
  2 20  1  0
  2 24  1  0
  3  6  4  0
  3 27  4  0
  4 22  4  0
  4 26  4  0
  6  7  4  0
  6 13  1  0
  7 19  4  0
  8 18  1  0
  8 23  1  0
  8 28  2  0
  9 17  1  0
  9 24  1  0
 10 11  1  0
 10 24  1  0
 11 23  1  0
 12 14  4  0
 12 16  4  0
 14 19  4  0
 15 18  4  0
 16 20  4  0
 17 25  1  0
 18 26  4  0
 19 29  4  0
 20 29  4  0
 21 23  1  0
 21 25  1  0
 27 29  4  0
M  END
$$$$

 Created by Python create_sdf_string function

 29 32  0  0  0  0  0  0  0  0999 V2000
    5.4450    8.7154   22.6662 C   0  0  0  0  0  0  0  0  0  0  0  0
   10.9154    5.4574   20.5483 C   0  0  0  0  0  0  0  0  0  0  0  0
    7.2709    4.5089   22.7542 C   0  0  0  0  0  0  0  0  0  0  0  0
    5.9698    7.6329   24.6581 C   0  0  0  0  0  0  0  0  0  0  0  0
    4.5542    8.9057   21.7104 O   0  0  0  0  0  0  0  0  0  0  0  0
    6.9895    3.2085   23.0690 C   0  0  0  0  0  0  0  0  0  0  0  0
    7.8391    2.2253   22.7260 N   0  0  0  0  0  0  0  0  0  0  0  0
    8.6968    9.8373   23.6359 C   0  0  0  0  0  0  0  0  0  0  0  0
   12.5135    6.5957   21.8396 C   0  0  0  0  0  0  0  0  0  0  0  0
   10.9406    8.2330   21.1350 C   0  0  0  0  0  0  0  0  0  0  0  0
    9.6648    8.5956   21.7310 C   0  0  0  0  0  0  0  0  0  0  0  0
   10.8829    1.7153   20.9865 C   0  0  0  0  0  0  0  0  0  0  0  0
    5.7768    2.8533   23.7910 C   0  0  0  0  0  0  0  0  0  0  0  0
    9.7977    1.4791   21.6912 N   0  0  0  0  0  0  0  0  0  0  0  0
    6.5976    9.3401   22.6478 N   0  0  0  0  0  0  0  0  0  0  0  0
   11.2031    3.0042   20.6246 C   0  0  0  0  0  0  0  0  0  0  0  0
   12.8688    7.7370   22.7287 C   0  0  0  0  0  0  0  0  0  0  0  0
    7.4487    9.1361   23.6506 C   0  0  0  0  0  0  0  0  0  0  0  0
    8.9772    2.5025   22.0273 C   0  0  0  0  0  0  0  0  0  0  0  0
   10.4859    4.0901   20.9730 C   0  0  0  0  0  0  0  0  0  0  0  0
   11.0962    9.3293   23.5072 C   0  0  0  0  0  0  0  0  0  0  0  0
    5.1273    7.8529   23.6208 N   0  0  0  0  0  0  0  0  0  0  0  0
    9.7552    9.2338   23.0171 N   0  0  0  0  0  0  0  0  0  0  0  0
   11.1797    6.7591   21.3326 N   0  0  0  0  0  0  0  0  0  0  0  0
   11.7728    8.0337   23.7267 C   0  0  0  0  0  0  0  0  0  0  0  0
    7.1194    8.3344   24.6775 C   0  0  0  0  0  0  0  0  0  0  0  0
    8.4311    4.7963   22.0500 C   0  0  0  0  0  0  0  0  0  0  0  0
    8.7393   10.8706   24.1871 O   0  0  0  0  0  0  0  0  0  0  0  0
    9.3093    3.8166   21.6712 C   0  0  0  0  0  0  0  0  0  0  0  0
  1  5  1  0
  1 15  4  0
  1 22  4  0
  2 20  1  0
  2 24  1  0
  3  6  4  0
  3 27  4  0
  4 22  4  0
  4 26  4  0
  6  7  4  0
  6 13  1  0
  7 19  4  0
  8 18  1  0
  8 23  1  0
  8 28  2  0
  9 17  1  0
  9 24  1  0
 10 11  1  0
 10 24  1  0
 11 23  1  0
 12 14  4  0
 12 16  4  0
 14 19  4  0
 15 18  4  0
 16 20  4  0
 17 25  1  0
 18 26  4  0
 19 29  4  0
 20 29  4  0
 21 23  1  0
 21 25  1  0
 27 29  4  0
M  END
$$$$

 Created by Python create_sdf_string function

 29 32  0  0  0  0  0  0  0  0999 V2000
    5.4450    8.7154   22.6662 C   0  0  0  0  0  0  0  0  0  0  0  0
   10.9154    5.4574   20.5483 C   0  0  0  0  0  0  0  0  0  0  0  0
    7.2709    4.5089   22.7542 C   0  0  0  0  0  0  0  0  0  0  0  0
    5.9698    7.6329   24.6581 C   0  0  0  0  0  0  0  0  0  0  0  0
    4.5542    8.9057   21.7104 O   0  0  0  0  0  0  0  0  0  0  0  0
    6.9895    3.2085   23.0690 C   0  0  0  0  0  0  0  0  0  0  0  0
    7.8391    2.2253   22.7260 N   0  0  0  0  0  0  0  0  0  0  0  0
    8.6968    9.8373   23.6359 C   0  0  0  0  0  0  0  0  0  0  0  0
   12.5135    6.5957   21.8396 C   0  0  0  0  0  0  0  0  0  0  0  0
   10.9406    8.2330   21.1350 C   0  0  0  0  0  0  0  0  0  0  0  0
    9.6648    8.5956   21.7310 C   0  0  0  0  0  0  0  0  0  0  0  0
   10.8829    1.7153   20.9865 C   0  0  0  0  0  0  0  0  0  0  0  0
    5.7768    2.8533   23.7910 C   0  0  0  0  0  0  0  0  0  0  0  0
    9.7977    1.4791   21.6912 N   0  0  0  0  0  0  0  0  0  0  0  0
    6.5976    9.3401   22.6478 N   0  0  0  0  0  0  0  0  0  0  0  0
   11.2031    3.0042   20.6246 C   0  0  0  0  0  0  0  0  0  0  0  0
   12.8688    7.7370   22.7287 C   0  0  0  0  0  0  0  0  0  0  0  0
    7.4487    9.1361   23.6506 C   0  0  0  0  0  0  0  0  0  0  0  0
    8.9772    2.5025   22.0273 C   0  0  0  0  0  0  0  0  0  0  0  0
   10.4859    4.0901   20.9730 C   0  0  0  0  0  0  0  0  0  0  0  0
   11.0962    9.3293   23.5072 C   0  0  0  0  0  0  0  0  0  0  0  0
    5.1273    7.8529   23.6208 N   0  0  0  0  0  0  0  0  0  0  0  0
    9.7552    9.2338   23.0171 N   0  0  0  0  0  0  0  0  0  0  0  0
   11.1797    6.7591   21.3326 N   0  0  0  0  0  0  0  0  0  0  0  0
   11.7728    8.0337   23.7267 C   0  0  0  0  0  0  0  0  0  0  0  0
    7.1194    8.3344   24.6775 C   0  0  0  0  0  0  0  0  0  0  0  0
    8.4311    4.7963   22.0500 C   0  0  0  0  0  0  0  0  0  0  0  0
    8.7393   10.8706   24.1871 O   0  0  0  0  0  0  0  0  0  0  0  0
    9.3093    3.8166   21.6712 C   0  0  0  0  0  0  0  0  0  0  0  0
  1  5  1  0
  1 15  4  0
  1 22  4  0
  2 20  1  0
  2 24  1  0
  3  6  4  0
  3 27  4  0
  4 22  4  0
  4 26  4  0
  6  7  4  0
  6 13  1  0
  7 19  4  0
  8 18  1  0
  8 23  1  0
  8 28  2  0
  9 17  1  0
  9 24  1  0
 10 11  1  0
 10 24  1  0
 11 23  1  0
 12 14  4  0
 12 16  4  0
 14 19  4  0
 15 18  4  0
 16 20  4  0
 17 25  1  0
 18 26  4  0
 19 29  4  0
 20 29  4  0
 21 23  1  0
 21 25  1  0
 27 29  4  0
M  END
$$$$

 Created by Python create_sdf_string function

 29 32  0  0  0  0  0  0  0  0999 V2000
    5.4450    8.7154   22.6662 C   0  0  0  0  0  0  0  0  0  0  0  0
   10.9154    5.4574   20.5483 C   0  0  0  0  0  0  0  0  0  0  0  0
    7.2709    4.5089   22.7542 C   0  0  0  0  0  0  0  0  0  0  0  0
    5.9698    7.6329   24.6581 C   0  0  0  0  0  0  0  0  0  0  0  0
    4.5542    8.9057   21.7104 O   0  0  0  0  0  0  0  0  0  0  0  0
    6.9895    3.2085   23.0690 C   0  0  0  0  0  0  0  0  0  0  0  0
    7.8391    2.2253   22.7260 N   0  0  0  0  0  0  0  0  0  0  0  0
    8.6968    9.8373   23.6359 C   0  0  0  0  0  0  0  0  0  0  0  0
   12.5135    6.5957   21.8396 C   0  0  0  0  0  0  0  0  0  0  0  0
   10.9406    8.2330   21.1350 C   0  0  0  0  0  0  0  0  0  0  0  0
    9.6648    8.5956   21.7310 C   0  0  0  0  0  0  0  0  0  0  0  0
   10.8829    1.7153   20.9865 C   0  0  0  0  0  0  0  0  0  0  0  0
    5.7768    2.8533   23.7910 C   0  0  0  0  0  0  0  0  0  0  0  0
    9.7977    1.4791   21.6912 N   0  0  0  0  0  0  0  0  0  0  0  0
    6.5976    9.3401   22.6478 N   0  0  0  0  0  0  0  0  0  0  0  0
   11.2031    3.0042   20.6246 C   0  0  0  0  0  0  0  0  0  0  0  0
   12.8688    7.7370   22.7287 C   0  0  0  0  0  0  0  0  0  0  0  0
    7.4487    9.1361   23.6506 C   0  0  0  0  0  0  0  0  0  0  0  0
    8.9772    2.5025   22.0273 C   0  0  0  0  0  0  0  0  0  0  0  0
   10.4859    4.0901   20.9730 C   0  0  0  0  0  0  0  0  0  0  0  0
   11.0962    9.3293   23.5072 C   0  0  0  0  0  0  0  0  0  0  0  0
    5.1273    7.8529   23.6208 N   0  0  0  0  0  0  0  0  0  0  0  0
    9.7552    9.2338   23.0171 N   0  0  0  0  0  0  0  0  0  0  0  0
   11.1797    6.7591   21.3326 N   0  0  0  0  0  0  0  0  0  0  0  0
   11.7728    8.0337   23.7267 C   0  0  0  0  0  0  0  0  0  0  0  0
    7.1194    8.3344   24.6775 C   0  0  0  0  0  0  0  0  0  0  0  0
    8.4311    4.7963   22.0500 C   0  0  0  0  0  0  0  0  0  0  0  0
    8.7393   10.8706   24.1871 O   0  0  0  0  0  0  0  0  0  0  0  0
    9.3093    3.8166   21.6712 C   0  0  0  0  0  0  0  0  0  0  0  0
  1  5  1  0
  1 15  4  0
  1 22  4  0
  2 20  1  0
  2 24  1  0
  3  6  4  0
  3 27  4  0
  4 22  4  0
  4 26  4  0
  6  7  4  0
  6 13  1  0
  7 19  4  0
  8 18  1  0
  8 23  1  0
  8 28  2  0
  9 17  1  0
  9 24  1  0
 10 11  1  0
 10 24  1  0
 11 23  1  0
 12 14  4  0
 12 16  4  0
 14 19  4  0
 15 18  4  0
 16 20  4  0
 17 25  1  0
 18 26  4  0
 19 29  4  0
 20 29  4  0
 21 23  1  0
 21 25  1  0
 27 29  4  0
M  END
$$$$

 Created by Python create_sdf_string function

 29 32  0  0  0  0  0  0  0  0999 V2000
    5.4450    8.7154   22.6662 C   0  0  0  0  0  0  0  0  0  0  0  0
   10.9154    5.4574   20.5483 C   0  0  0  0  0  0  0  0  0  0  0  0
    7.2709    4.5089   22.7542 C   0  0  0  0  0  0  0  0  0  0  0  0
    5.9698    7.6329   24.6581 C   0  0  0  0  0  0  0  0  0  0  0  0
    4.5542    8.9057   21.7104 O   0  0  0  0  0  0  0  0  0  0  0  0
    6.9895    3.2085   23.0690 C   0  0  0  0  0  0  0  0  0  0  0  0
    7.8391    2.2253   22.7260 N   0  0  0  0  0  0  0  0  0  0  0  0
    8.6968    9.8373   23.6359 C   0  0  0  0  0  0  0  0  0  0  0  0
   12.5135    6.5957   21.8396 C   0  0  0  0  0  0  0  0  0  0  0  0
   10.9406    8.2330   21.1350 C   0  0  0  0  0  0  0  0  0  0  0  0
    9.6648    8.5956   21.7310 C   0  0  0  0  0  0  0  0  0  0  0  0
   10.8829    1.7153   20.9865 C   0  0  0  0  0  0  0  0  0  0  0  0
    5.7768    2.8533   23.7910 C   0  0  0  0  0  0  0  0  0  0  0  0
    9.7977    1.4791   21.6912 N   0  0  0  0  0  0  0  0  0  0  0  0
    6.5976    9.3401   22.6478 N   0  0  0  0  0  0  0  0  0  0  0  0
   11.2031    3.0042   20.6246 C   0  0  0  0  0  0  0  0  0  0  0  0
   12.8688    7.7370   22.7287 C   0  0  0  0  0  0  0  0  0  0  0  0
    7.4487    9.1361   23.6506 C   0  0  0  0  0  0  0  0  0  0  0  0
    8.9772    2.5025   22.0273 C   0  0  0  0  0  0  0  0  0  0  0  0
   10.4859    4.0901   20.9730 C   0  0  0  0  0  0  0  0  0  0  0  0
   11.0962    9.3293   23.5072 C   0  0  0  0  0  0  0  0  0  0  0  0
    5.1273    7.8529   23.6208 N   0  0  0  0  0  0  0  0  0  0  0  0
    9.7552    9.2338   23.0171 N   0  0  0  0  0  0  0  0  0  0  0  0
   11.1797    6.7591   21.3326 N   0  0  0  0  0  0  0  0  0  0  0  0
   11.7728    8.0337   23.7267 C   0  0  0  0  0  0  0  0  0  0  0  0
    7.1194    8.3344   24.6775 C   0  0  0  0  0  0  0  0  0  0  0  0
    8.4311    4.7963   22.0500 C   0  0  0  0  0  0  0  0  0  0  0  0
    8.7393   10.8706   24.1871 O   0  0  0  0  0  0  0  0  0  0  0  0
    9.3093    3.8166   21.6712 C   0  0  0  0  0  0  0  0  0  0  0  0
  1  5  1  0
  1 15  4  0
  1 22  4  0
  2 20  1  0
  2 24  1  0
  3  6  4  0
  3 27  4  0
  4 22  4  0
  4 26  4  0
  6  7  4  0
  6 13  1  0
  7 19  4  0
  8 18  1  0
  8 23  1  0
  8 28  2  0
  9 17  1  0
  9 24  1  0
 10 11  1  0
 10 24  1  0
 11 23  1  0
 12 14  4  0
 12 16  4  0
 14 19  4  0
 15 18  4  0
 16 20  4  0
 17 25  1  0
 18 26  4  0
 19 29  4  0
 20 29  4  0
 21 23  1  0
 21 25  1  0
 27 29  4  0
M  END
$$$$

 Created by Python create_sdf_string function

 29 32  0  0  0  0  0  0  0  0999 V2000
    5.4450    8.7154   22.6662 C   0  0  0  0  0  0  0  0  0  0  0  0
   10.9154    5.4574   20.5483 C   0  0  0  0  0  0  0  0  0  0  0  0
    7.2709    4.5089   22.7542 C   0  0  0  0  0  0  0  0  0  0  0  0
    5.9698    7.6329   24.6581 C   0  0  0  0  0  0  0  0  0  0  0  0
    4.5542    8.9057   21.7104 O   0  0  0  0  0  0  0  0  0  0  0  0
    6.9895    3.2085   23.0690 C   0  0  0  0  0  0  0  0  0  0  0  0
    7.8391    2.2253   22.7260 N   0  0  0  0  0  0  0  0  0  0  0  0
    8.6968    9.8373   23.6359 C   0  0  0  0  0  0  0  0  0  0  0  0
   12.5135    6.5957   21.8396 C   0  0  0  0  0  0  0  0  0  0  0  0
   10.9406    8.2330   21.1350 C   0  0  0  0  0  0  0  0  0  0  0  0
    9.6648    8.5956   21.7310 C   0  0  0  0  0  0  0  0  0  0  0  0
   10.8829    1.7153   20.9865 C   0  0  0  0  0  0  0  0  0  0  0  0
    5.7768    2.8533   23.7910 C   0  0  0  0  0  0  0  0  0  0  0  0
    9.7977    1.4791   21.6912 N   0  0  0  0  0  0  0  0  0  0  0  0
    6.5976    9.3401   22.6478 N   0  0  0  0  0  0  0  0  0  0  0  0
   11.2031    3.0042   20.6246 C   0  0  0  0  0  0  0  0  0  0  0  0
   12.8688    7.7370   22.7287 C   0  0  0  0  0  0  0  0  0  0  0  0
    7.4487    9.1361   23.6506 C   0  0  0  0  0  0  0  0  0  0  0  0
    8.9772    2.5025   22.0273 C   0  0  0  0  0  0  0  0  0  0  0  0
   10.4859    4.0901   20.9730 C   0  0  0  0  0  0  0  0  0  0  0  0
   11.0962    9.3293   23.5072 C   0  0  0  0  0  0  0  0  0  0  0  0
    5.1273    7.8529   23.6208 N   0  0  0  0  0  0  0  0  0  0  0  0
    9.7552    9.2338   23.0171 N   0  0  0  0  0  0  0  0  0  0  0  0
   11.1797    6.7591   21.3326 N   0  0  0  0  0  0  0  0  0  0  0  0
   11.7728    8.0337   23.7267 C   0  0  0  0  0  0  0  0  0  0  0  0
    7.1194    8.3344   24.6775 C   0  0  0  0  0  0  0  0  0  0  0  0
    8.4311    4.7963   22.0500 C   0  0  0  0  0  0  0  0  0  0  0  0
    8.7393   10.8706   24.1871 O   0  0  0  0  0  0  0  0  0  0  0  0
    9.3093    3.8166   21.6712 C   0  0  0  0  0  0  0  0  0  0  0  0
  1  5  1  0
  1 15  4  0
  1 22  4  0
  2 20  1  0
  2 24  1  0
  3  6  4  0
  3 27  4  0
  4 22  4  0
  4 26  4  0
  6  7  4  0
  6 13  1  0
  7 19  4  0
  8 18  1  0
  8 23  1  0
  8 28  2  0
  9 17  1  0
  9 24  1  0
 10 11  1  0
 10 24  1  0
 11 23  1  0
 12 14  4  0
 12 16  4  0
 14 19  4  0
 15 18  4  0
 16 20  4  0
 17 25  1  0
 18 26  4  0
 19 29  4  0
 20 29  4  0
 21 23  1  0
 21 25  1  0
 27 29  4  0
M  END
$$$$

 Created by Python create_sdf_string function

 29 32  0  0  0  0  0  0  0  0999 V2000
    5.4450    8.7154   22.6662 C   0  0  0  0  0  0  0  0  0  0  0  0
   10.9154    5.4574   20.5483 C   0  0  0  0  0  0  0  0  0  0  0  0
    7.2709    4.5089   22.7542 C   0  0  0  0  0  0  0  0  0  0  0  0
    5.9698    7.6329   24.6581 C   0  0  0  0  0  0  0  0  0  0  0  0
    4.5542    8.9057   21.7104 O   0  0  0  0  0  0  0  0  0  0  0  0
    6.9895    3.2085   23.0690 C   0  0  0  0  0  0  0  0  0  0  0  0
    7.8391    2.2253   22.7260 N   0  0  0  0  0  0  0  0  0  0  0  0
    8.6968    9.8373   23.6359 C   0  0  0  0  0  0  0  0  0  0  0  0
   12.5135    6.5957   21.8396 C   0  0  0  0  0  0  0  0  0  0  0  0
   10.9406    8.2330   21.1350 C   0  0  0  0  0  0  0  0  0  0  0  0
    9.6648    8.5956   21.7310 C   0  0  0  0  0  0  0  0  0  0  0  0
   10.8829    1.7153   20.9865 C   0  0  0  0  0  0  0  0  0  0  0  0
    5.7768    2.8533   23.7910 C   0  0  0  0  0  0  0  0  0  0  0  0
    9.7977    1.4791   21.6912 N   0  0  0  0  0  0  0  0  0  0  0  0
    6.5976    9.3401   22.6478 N   0  0  0  0  0  0  0  0  0  0  0  0
   11.2031    3.0042   20.6246 C   0  0  0  0  0  0  0  0  0  0  0  0
   12.8688    7.7370   22.7287 C   0  0  0  0  0  0  0  0  0  0  0  0
    7.4487    9.1361   23.6506 C   0  0  0  0  0  0  0  0  0  0  0  0
    8.9772    2.5025   22.0273 C   0  0  0  0  0  0  0  0  0  0  0  0
   10.4859    4.0901   20.9730 C   0  0  0  0  0  0  0  0  0  0  0  0
   11.0962    9.3293   23.5072 C   0  0  0  0  0  0  0  0  0  0  0  0
    5.1273    7.8529   23.6208 N   0  0  0  0  0  0  0  0  0  0  0  0
    9.7552    9.2338   23.0171 N   0  0  0  0  0  0  0  0  0  0  0  0
   11.1797    6.7591   21.3326 N   0  0  0  0  0  0  0  0  0  0  0  0
   11.7728    8.0337   23.7267 C   0  0  0  0  0  0  0  0  0  0  0  0
    7.1194    8.3344   24.6775 C   0  0  0  0  0  0  0  0  0  0  0  0
    8.4311    4.7963   22.0500 C   0  0  0  0  0  0  0  0  0  0  0  0
    8.7393   10.8706   24.1871 O   0  0  0  0  0  0  0  0  0  0  0  0
    9.3093    3.8166   21.6712 C   0  0  0  0  0  0  0  0  0  0  0  0
  1  5  1  0
  1 15  4  0
  1 22  4  0
  2 20  1  0
  2 24  1  0
  3  6  4  0
  3 27  4  0
  4 22  4  0
  4 26  4  0
  6  7  4  0
  6 13  1  0
  7 19  4  0
  8 18  1  0
  8 23  1  0
  8 28  2  0
  9 17  1  0
  9 24  1  0
 10 11  1  0
 10 24  1  0
 11 23  1  0
 12 14  4  0
 12 16  4  0
 14 19  4  0
 15 18  4  0
 16 20  4  0
 17 25  1  0
 18 26  4  0
 19 29  4  0
 20 29  4  0
 21 23  1  0
 21 25  1  0
 27 29  4  0
M  END
$$$$

 Created by Python create_sdf_string function

 29 32  0  0  0  0  0  0  0  0999 V2000
    5.4450    8.7154   22.6662 C   0  0  0  0  0  0  0  0  0  0  0  0
   10.9154    5.4574   20.5483 C   0  0  0  0  0  0  0  0  0  0  0  0
    7.2709    4.5089   22.7542 C   0  0  0  0  0  0  0  0  0  0  0  0
    5.9698    7.6329   24.6581 C   0  0  0  0  0  0  0  0  0  0  0  0
    4.5542    8.9057   21.7104 O   0  0  0  0  0  0  0  0  0  0  0  0
    6.9895    3.2085   23.0690 C   0  0  0  0  0  0  0  0  0  0  0  0
    7.8391    2.2253   22.7260 N   0  0  0  0  0  0  0  0  0  0  0  0
    8.6968    9.8373   23.6359 C   0  0  0  0  0  0  0  0  0  0  0  0
   12.5135    6.5957   21.8396 C   0  0  0  0  0  0  0  0  0  0  0  0
   10.9406    8.2330   21.1350 C   0  0  0  0  0  0  0  0  0  0  0  0
    9.6648    8.5956   21.7310 C   0  0  0  0  0  0  0  0  0  0  0  0
   10.8829    1.7153   20.9865 C   0  0  0  0  0  0  0  0  0  0  0  0
    5.7768    2.8533   23.7910 C   0  0  0  0  0  0  0  0  0  0  0  0
    9.7977    1.4791   21.6912 N   0  0  0  0  0  0  0  0  0  0  0  0
    6.5976    9.3401   22.6478 N   0  0  0  0  0  0  0  0  0  0  0  0
   11.2031    3.0042   20.6246 C   0  0  0  0  0  0  0  0  0  0  0  0
   12.8688    7.7370   22.7287 C   0  0  0  0  0  0  0  0  0  0  0  0
    7.4487    9.1361   23.6506 C   0  0  0  0  0  0  0  0  0  0  0  0
    8.9772    2.5025   22.0273 C   0  0  0  0  0  0  0  0  0  0  0  0
   10.4859    4.0901   20.9730 C   0  0  0  0  0  0  0  0  0  0  0  0
   11.0962    9.3293   23.5072 C   0  0  0  0  0  0  0  0  0  0  0  0
    5.1273    7.8529   23.6208 N   0  0  0  0  0  0  0  0  0  0  0  0
    9.7552    9.2338   23.0171 N   0  0  0  0  0  0  0  0  0  0  0  0
   11.1797    6.7591   21.3326 N   0  0  0  0  0  0  0  0  0  0  0  0
   11.7728    8.0337   23.7267 C   0  0  0  0  0  0  0  0  0  0  0  0
    7.1194    8.3344   24.6775 C   0  0  0  0  0  0  0  0  0  0  0  0
    8.4311    4.7963   22.0500 C   0  0  0  0  0  0  0  0  0  0  0  0
    8.7393   10.8706   24.1871 O   0  0  0  0  0  0  0  0  0  0  0  0
    9.3093    3.8166   21.6712 C   0  0  0  0  0  0  0  0  0  0  0  0
  1  5  1  0
  1 15  4  0
  1 22  4  0
  2 20  1  0
  2 24  1  0
  3  6  4  0
  3 27  4  0
  4 22  4  0
  4 26  4  0
  6  7  4  0
  6 13  1  0
  7 19  4  0
  8 18  1  0
  8 23  1  0
  8 28  2  0
  9 17  1  0
  9 24  1  0
 10 11  1  0
 10 24  1  0
 11 23  1  0
 12 14  4  0
 12 16  4  0
 14 19  4  0
 15 18  4  0
 16 20  4  0
 17 25  1  0
 18 26  4  0
 19 29  4  0
 20 29  4  0
 21 23  1  0
 21 25  1  0
 27 29  4  0
M  END
$$$$

 Created by Python create_sdf_string function

 29 32  0  0  0  0  0  0  0  0999 V2000
    5.4450    8.7154   22.6662 C   0  0  0  0  0  0  0  0  0  0  0  0
   10.9154    5.4574   20.5483 C   0  0  0  0  0  0  0  0  0  0  0  0
    7.2709    4.5089   22.7542 C   0  0  0  0  0  0  0  0  0  0  0  0
    5.9698    7.6329   24.6581 C   0  0  0  0  0  0  0  0  0  0  0  0
    4.5542    8.9057   21.7104 O   0  0  0  0  0  0  0  0  0  0  0  0
    6.9895    3.2085   23.0690 C   0  0  0  0  0  0  0  0  0  0  0  0
    7.8391    2.2253   22.7260 N   0  0  0  0  0  0  0  0  0  0  0  0
    8.6968    9.8373   23.6359 C   0  0  0  0  0  0  0  0  0  0  0  0
   12.5135    6.5957   21.8396 C   0  0  0  0  0  0  0  0  0  0  0  0
   10.9406    8.2330   21.1350 C   0  0  0  0  0  0  0  0  0  0  0  0
    9.6648    8.5956   21.7310 C   0  0  0  0  0  0  0  0  0  0  0  0
   10.8829    1.7153   20.9865 C   0  0  0  0  0  0  0  0  0  0  0  0
    5.7768    2.8533   23.7910 C   0  0  0  0  0  0  0  0  0  0  0  0
    9.7977    1.4791   21.6912 N   0  0  0  0  0  0  0  0  0  0  0  0
    6.5976    9.3401   22.6478 N   0  0  0  0  0  0  0  0  0  0  0  0
   11.2031    3.0042   20.6246 C   0  0  0  0  0  0  0  0  0  0  0  0
   12.8688    7.7370   22.7287 C   0  0  0  0  0  0  0  0  0  0  0  0
    7.4487    9.1361   23.6506 C   0  0  0  0  0  0  0  0  0  0  0  0
    8.9772    2.5025   22.0273 C   0  0  0  0  0  0  0  0  0  0  0  0
   10.4859    4.0901   20.9730 C   0  0  0  0  0  0  0  0  0  0  0  0
   11.0962    9.3293   23.5072 C   0  0  0  0  0  0  0  0  0  0  0  0
    5.1273    7.8529   23.6208 N   0  0  0  0  0  0  0  0  0  0  0  0
    9.7552    9.2338   23.0171 N   0  0  0  0  0  0  0  0  0  0  0  0
   11.1797    6.7591   21.3326 N   0  0  0  0  0  0  0  0  0  0  0  0
   11.7728    8.0337   23.7267 C   0  0  0  0  0  0  0  0  0  0  0  0
    7.1194    8.3344   24.6775 C   0  0  0  0  0  0  0  0  0  0  0  0
    8.4311    4.7963   22.0500 C   0  0  0  0  0  0  0  0  0  0  0  0
    8.7393   10.8706   24.1871 O   0  0  0  0  0  0  0  0  0  0  0  0
    9.3093    3.8166   21.6712 C   0  0  0  0  0  0  0  0  0  0  0  0
  1  5  1  0
  1 15  4  0
  1 22  4  0
  2 20  1  0
  2 24  1  0
  3  6  4  0
  3 27  4  0
  4 22  4  0
  4 26  4  0
  6  7  4  0
  6 13  1  0
  7 19  4  0
  8 18  1  0
  8 23  1  0
  8 28  2  0
  9 17  1  0
  9 24  1  0
 10 11  1  0
 10 24  1  0
 11 23  1  0
 12 14  4  0
 12 16  4  0
 14 19  4  0
 15 18  4  0
 16 20  4  0
 17 25  1  0
 18 26  4  0
 19 29  4  0
 20 29  4  0
 21 23  1  0
 21 25  1  0
 27 29  4  0
M  END
$$$$

 Created by Python create_sdf_string function

 29 32  0  0  0  0  0  0  0  0999 V2000
    5.4450    8.7154   22.6662 C   0  0  0  0  0  0  0  0  0  0  0  0
   10.9154    5.4574   20.5483 C   0  0  0  0  0  0  0  0  0  0  0  0
    7.2709    4.5089   22.7542 C   0  0  0  0  0  0  0  0  0  0  0  0
    5.9698    7.6329   24.6581 C   0  0  0  0  0  0  0  0  0  0  0  0
    4.5542    8.9057   21.7104 O   0  0  0  0  0  0  0  0  0  0  0  0
    6.9895    3.2085   23.0690 C   0  0  0  0  0  0  0  0  0  0  0  0
    7.8391    2.2253   22.7260 N   0  0  0  0  0  0  0  0  0  0  0  0
    8.6968    9.8373   23.6359 C   0  0  0  0  0  0  0  0  0  0  0  0
   12.5135    6.5957   21.8396 C   0  0  0  0  0  0  0  0  0  0  0  0
   10.9406    8.2330   21.1350 C   0  0  0  0  0  0  0  0  0  0  0  0
    9.6648    8.5956   21.7310 C   0  0  0  0  0  0  0  0  0  0  0  0
   10.8829    1.7153   20.9865 C   0  0  0  0  0  0  0  0  0  0  0  0
    5.7768    2.8533   23.7910 C   0  0  0  0  0  0  0  0  0  0  0  0
    9.7977    1.4791   21.6912 N   0  0  0  0  0  0  0  0  0  0  0  0
    6.5976    9.3401   22.6478 N   0  0  0  0  0  0  0  0  0  0  0  0
   11.2031    3.0042   20.6246 C   0  0  0  0  0  0  0  0  0  0  0  0
   12.8688    7.7370   22.7287 C   0  0  0  0  0  0  0  0  0  0  0  0
    7.4487    9.1361   23.6506 C   0  0  0  0  0  0  0  0  0  0  0  0
    8.9772    2.5025   22.0273 C   0  0  0  0  0  0  0  0  0  0  0  0
   10.4859    4.0901   20.9730 C   0  0  0  0  0  0  0  0  0  0  0  0
   11.0962    9.3293   23.5072 C   0  0  0  0  0  0  0  0  0  0  0  0
    5.1273    7.8529   23.6208 N   0  0  0  0  0  0  0  0  0  0  0  0
    9.7552    9.2338   23.0171 N   0  0  0  0  0  0  0  0  0  0  0  0
   11.1797    6.7591   21.3326 N   0  0  0  0  0  0  0  0  0  0  0  0
   11.7728    8.0337   23.7267 C   0  0  0  0  0  0  0  0  0  0  0  0
    7.1194    8.3344   24.6775 C   0  0  0  0  0  0  0  0  0  0  0  0
    8.4311    4.7963   22.0500 C   0  0  0  0  0  0  0  0  0  0  0  0
    8.7393   10.8706   24.1871 O   0  0  0  0  0  0  0  0  0  0  0  0
    9.3093    3.8166   21.6712 C   0  0  0  0  0  0  0  0  0  0  0  0
  1  5  1  0
  1 15  4  0
  1 22  4  0
  2 20  1  0
  2 24  1  0
  3  6  4  0
  3 27  4  0
  4 22  4  0
  4 26  4  0
  6  7  4  0
  6 13  1  0
  7 19  4  0
  8 18  1  0
  8 23  1  0
  8 28  2  0
  9 17  1  0
  9 24  1  0
 10 11  1  0
 10 24  1  0
 11 23  1  0
 12 14  4  0
 12 16  4  0
 14 19  4  0
 15 18  4  0
 16 20  4  0
 17 25  1  0
 18 26  4  0
 19 29  4  0
 20 29  4  0
 21 23  1  0
 21 25  1  0
 27 29  4  0
M  END
$$$$

 Created by Python create_sdf_string function

 29 32  0  0  0  0  0  0  0  0999 V2000
    5.4450    8.7154   22.6662 C   0  0  0  0  0  0  0  0  0  0  0  0
   10.9154    5.4574   20.5483 C   0  0  0  0  0  0  0  0  0  0  0  0
    7.2709    4.5089   22.7542 C   0  0  0  0  0  0  0  0  0  0  0  0
    5.9698    7.6329   24.6581 C   0  0  0  0  0  0  0  0  0  0  0  0
    4.5542    8.9057   21.7104 O   0  0  0  0  0  0  0  0  0  0  0  0
    6.9895    3.2085   23.0690 C   0  0  0  0  0  0  0  0  0  0  0  0
    7.8391    2.2253   22.7260 N   0  0  0  0  0  0  0  0  0  0  0  0
    8.6968    9.8373   23.6359 C   0  0  0  0  0  0  0  0  0  0  0  0
   12.5135    6.5957   21.8396 C   0  0  0  0  0  0  0  0  0  0  0  0
   10.9406    8.2330   21.1350 C   0  0  0  0  0  0  0  0  0  0  0  0
    9.6648    8.5956   21.7310 C   0  0  0  0  0  0  0  0  0  0  0  0
   10.8829    1.7153   20.9865 C   0  0  0  0  0  0  0  0  0  0  0  0
    5.7768    2.8533   23.7910 C   0  0  0  0  0  0  0  0  0  0  0  0
    9.7977    1.4791   21.6912 N   0  0  0  0  0  0  0  0  0  0  0  0
    6.5976    9.3401   22.6478 N   0  0  0  0  0  0  0  0  0  0  0  0
   11.2031    3.0042   20.6246 C   0  0  0  0  0  0  0  0  0  0  0  0
   12.8688    7.7370   22.7287 C   0  0  0  0  0  0  0  0  0  0  0  0
    7.4487    9.1361   23.6506 C   0  0  0  0  0  0  0  0  0  0  0  0
    8.9772    2.5025   22.0273 C   0  0  0  0  0  0  0  0  0  0  0  0
   10.4859    4.0901   20.9730 C   0  0  0  0  0  0  0  0  0  0  0  0
   11.0962    9.3293   23.5072 C   0  0  0  0  0  0  0  0  0  0  0  0
    5.1273    7.8529   23.6208 N   0  0  0  0  0  0  0  0  0  0  0  0
    9.7552    9.2338   23.0171 N   0  0  0  0  0  0  0  0  0  0  0  0
   11.1797    6.7591   21.3326 N   0  0  0  0  0  0  0  0  0  0  0  0
   11.7728    8.0337   23.7267 C   0  0  0  0  0  0  0  0  0  0  0  0
    7.1194    8.3344   24.6775 C   0  0  0  0  0  0  0  0  0  0  0  0
    8.4311    4.7963   22.0500 C   0  0  0  0  0  0  0  0  0  0  0  0
    8.7393   10.8706   24.1871 O   0  0  0  0  0  0  0  0  0  0  0  0
    9.3093    3.8166   21.6712 C   0  0  0  0  0  0  0  0  0  0  0  0
  1  5  1  0
  1 15  4  0
  1 22  4  0
  2 20  1  0
  2 24  1  0
  3  6  4  0
  3 27  4  0
  4 22  4  0
  4 26  4  0
  6  7  4  0
  6 13  1  0
  7 19  4  0
  8 18  1  0
  8 23  1  0
  8 28  2  0
  9 17  1  0
  9 24  1  0
 10 11  1  0
 10 24  1  0
 11 23  1  0
 12 14  4  0
 12 16  4  0
 14 19  4  0
 15 18  4  0
 16 20  4  0
 17 25  1  0
 18 26  4  0
 19 29  4  0
 20 29  4  0
 21 23  1  0
 21 25  1  0
 27 29  4  0
M  END
$$$$

 Created by Python create_sdf_string function

 29 32  0  0  0  0  0  0  0  0999 V2000
    5.4450    8.7154   22.6662 C   0  0  0  0  0  0  0  0  0  0  0  0
   10.9154    5.4574   20.5483 C   0  0  0  0  0  0  0  0  0  0  0  0
    7.2709    4.5089   22.7542 C   0  0  0  0  0  0  0  0  0  0  0  0
    5.9698    7.6329   24.6581 C   0  0  0  0  0  0  0  0  0  0  0  0
    4.5542    8.9057   21.7104 O   0  0  0  0  0  0  0  0  0  0  0  0
    6.9895    3.2085   23.0690 C   0  0  0  0  0  0  0  0  0  0  0  0
    7.8391    2.2253   22.7260 N   0  0  0  0  0  0  0  0  0  0  0  0
    8.6968    9.8373   23.6359 C   0  0  0  0  0  0  0  0  0  0  0  0
   12.5135    6.5957   21.8396 C   0  0  0  0  0  0  0  0  0  0  0  0
   10.9406    8.2330   21.1350 C   0  0  0  0  0  0  0  0  0  0  0  0
    9.6648    8.5956   21.7310 C   0  0  0  0  0  0  0  0  0  0  0  0
   10.8829    1.7153   20.9865 C   0  0  0  0  0  0  0  0  0  0  0  0
    5.7768    2.8533   23.7910 C   0  0  0  0  0  0  0  0  0  0  0  0
    9.7977    1.4791   21.6912 N   0  0  0  0  0  0  0  0  0  0  0  0
    6.5976    9.3401   22.6478 N   0  0  0  0  0  0  0  0  0  0  0  0
   11.2031    3.0042   20.6246 C   0  0  0  0  0  0  0  0  0  0  0  0
   12.8688    7.7370   22.7287 C   0  0  0  0  0  0  0  0  0  0  0  0
    7.4487    9.1361   23.6506 C   0  0  0  0  0  0  0  0  0  0  0  0
    8.9772    2.5025   22.0273 C   0  0  0  0  0  0  0  0  0  0  0  0
   10.4859    4.0901   20.9730 C   0  0  0  0  0  0  0  0  0  0  0  0
   11.0962    9.3293   23.5072 C   0  0  0  0  0  0  0  0  0  0  0  0
    5.1273    7.8529   23.6208 N   0  0  0  0  0  0  0  0  0  0  0  0
    9.7552    9.2338   23.0171 N   0  0  0  0  0  0  0  0  0  0  0  0
   11.1797    6.7591   21.3326 N   0  0  0  0  0  0  0  0  0  0  0  0
   11.7728    8.0337   23.7267 C   0  0  0  0  0  0  0  0  0  0  0  0
    7.1194    8.3344   24.6775 C   0  0  0  0  0  0  0  0  0  0  0  0
    8.4311    4.7963   22.0500 C   0  0  0  0  0  0  0  0  0  0  0  0
    8.7393   10.8706   24.1871 O   0  0  0  0  0  0  0  0  0  0  0  0
    9.3093    3.8166   21.6712 C   0  0  0  0  0  0  0  0  0  0  0  0
  1  5  1  0
  1 15  4  0
  1 22  4  0
  2 20  1  0
  2 24  1  0
  3  6  4  0
  3 27  4  0
  4 22  4  0
  4 26  4  0
  6  7  4  0
  6 13  1  0
  7 19  4  0
  8 18  1  0
  8 23  1  0
  8 28  2  0
  9 17  1  0
  9 24  1  0
 10 11  1  0
 10 24  1  0
 11 23  1  0
 12 14  4  0
 12 16  4  0
 14 19  4  0
 15 18  4  0
 16 20  4  0
 17 25  1  0
 18 26  4  0
 19 29  4  0
 20 29  4  0
 21 23  1  0
 21 25  1  0
 27 29  4  0
M  END
$$$$

 Created by Python create_sdf_string function

 29 32  0  0  0  0  0  0  0  0999 V2000
    5.4450    8.7154   22.6662 C   0  0  0  0  0  0  0  0  0  0  0  0
   10.9154    5.4574   20.5483 C   0  0  0  0  0  0  0  0  0  0  0  0
    7.2709    4.5089   22.7542 C   0  0  0  0  0  0  0  0  0  0  0  0
    5.9698    7.6329   24.6581 C   0  0  0  0  0  0  0  0  0  0  0  0
    4.5542    8.9057   21.7104 O   0  0  0  0  0  0  0  0  0  0  0  0
    6.9895    3.2085   23.0690 C   0  0  0  0  0  0  0  0  0  0  0  0
    7.8391    2.2253   22.7260 N   0  0  0  0  0  0  0  0  0  0  0  0
    8.6968    9.8373   23.6359 C   0  0  0  0  0  0  0  0  0  0  0  0
   12.5135    6.5957   21.8396 C   0  0  0  0  0  0  0  0  0  0  0  0
   10.9406    8.2330   21.1350 C   0  0  0  0  0  0  0  0  0  0  0  0
    9.6648    8.5956   21.7310 C   0  0  0  0  0  0  0  0  0  0  0  0
   10.8829    1.7153   20.9865 C   0  0  0  0  0  0  0  0  0  0  0  0
    5.7768    2.8533   23.7910 C   0  0  0  0  0  0  0  0  0  0  0  0
    9.7977    1.4791   21.6912 N   0  0  0  0  0  0  0  0  0  0  0  0
    6.5976    9.3401   22.6478 N   0  0  0  0  0  0  0  0  0  0  0  0
   11.2031    3.0042   20.6246 C   0  0  0  0  0  0  0  0  0  0  0  0
   12.8688    7.7370   22.7287 C   0  0  0  0  0  0  0  0  0  0  0  0
    7.4487    9.1361   23.6506 C   0  0  0  0  0  0  0  0  0  0  0  0
    8.9772    2.5025   22.0273 C   0  0  0  0  0  0  0  0  0  0  0  0
   10.4859    4.0901   20.9730 C   0  0  0  0  0  0  0  0  0  0  0  0
   11.0962    9.3293   23.5072 C   0  0  0  0  0  0  0  0  0  0  0  0
    5.1273    7.8529   23.6208 N   0  0  0  0  0  0  0  0  0  0  0  0
    9.7552    9.2338   23.0171 N   0  0  0  0  0  0  0  0  0  0  0  0
   11.1797    6.7591   21.3326 N   0  0  0  0  0  0  0  0  0  0  0  0
   11.7728    8.0337   23.7267 C   0  0  0  0  0  0  0  0  0  0  0  0
    7.1194    8.3344   24.6775 C   0  0  0  0  0  0  0  0  0  0  0  0
    8.4311    4.7963   22.0500 C   0  0  0  0  0  0  0  0  0  0  0  0
    8.7393   10.8706   24.1871 O   0  0  0  0  0  0  0  0  0  0  0  0
    9.3093    3.8166   21.6712 C   0  0  0  0  0  0  0  0  0  0  0  0
  1  5  1  0
  1 15  4  0
  1 22  4  0
  2 20  1  0
  2 24  1  0
  3  6  4  0
  3 27  4  0
  4 22  4  0
  4 26  4  0
  6  7  4  0
  6 13  1  0
  7 19  4  0
  8 18  1  0
  8 23  1  0
  8 28  2  0
  9 17  1  0
  9 24  1  0
 10 11  1  0
 10 24  1  0
 11 23  1  0
 12 14  4  0
 12 16  4  0
 14 19  4  0
 15 18  4  0
 16 20  4  0
 17 25  1  0
 18 26  4  0
 19 29  4  0
 20 29  4  0
 21 23  1  0
 21 25  1  0
 27 29  4  0
M  END
$$$$

 Created by Python create_sdf_string function

 29 32  0  0  0  0  0  0  0  0999 V2000
    5.4450    8.7154   22.6662 C   0  0  0  0  0  0  0  0  0  0  0  0
   10.9154    5.4574   20.5483 C   0  0  0  0  0  0  0  0  0  0  0  0
    7.2709    4.5089   22.7542 C   0  0  0  0  0  0  0  0  0  0  0  0
    5.9698    7.6329   24.6581 C   0  0  0  0  0  0  0  0  0  0  0  0
    4.5542    8.9057   21.7104 O   0  0  0  0  0  0  0  0  0  0  0  0
    6.9895    3.2085   23.0690 C   0  0  0  0  0  0  0  0  0  0  0  0
    7.8391    2.2253   22.7260 N   0  0  0  0  0  0  0  0  0  0  0  0
    8.6968    9.8373   23.6359 C   0  0  0  0  0  0  0  0  0  0  0  0
   12.5135    6.5957   21.8396 C   0  0  0  0  0  0  0  0  0  0  0  0
   10.9406    8.2330   21.1350 C   0  0  0  0  0  0  0  0  0  0  0  0
    9.6648    8.5956   21.7310 C   0  0  0  0  0  0  0  0  0  0  0  0
   10.8829    1.7153   20.9865 C   0  0  0  0  0  0  0  0  0  0  0  0
    5.7768    2.8533   23.7910 C   0  0  0  0  0  0  0  0  0  0  0  0
    9.7977    1.4791   21.6912 N   0  0  0  0  0  0  0  0  0  0  0  0
    6.5976    9.3401   22.6478 N   0  0  0  0  0  0  0  0  0  0  0  0
   11.2031    3.0042   20.6246 C   0  0  0  0  0  0  0  0  0  0  0  0
   12.8688    7.7370   22.7287 C   0  0  0  0  0  0  0  0  0  0  0  0
    7.4487    9.1361   23.6506 C   0  0  0  0  0  0  0  0  0  0  0  0
    8.9772    2.5025   22.0273 C   0  0  0  0  0  0  0  0  0  0  0  0
   10.4859    4.0901   20.9730 C   0  0  0  0  0  0  0  0  0  0  0  0
   11.0962    9.3293   23.5072 C   0  0  0  0  0  0  0  0  0  0  0  0
    5.1273    7.8529   23.6208 N   0  0  0  0  0  0  0  0  0  0  0  0
    9.7552    9.2338   23.0171 N   0  0  0  0  0  0  0  0  0  0  0  0
   11.1797    6.7591   21.3326 N   0  0  0  0  0  0  0  0  0  0  0  0
   11.7728    8.0337   23.7267 C   0  0  0  0  0  0  0  0  0  0  0  0
    7.1194    8.3344   24.6775 C   0  0  0  0  0  0  0  0  0  0  0  0
    8.4311    4.7963   22.0500 C   0  0  0  0  0  0  0  0  0  0  0  0
    8.7393   10.8706   24.1871 O   0  0  0  0  0  0  0  0  0  0  0  0
    9.3093    3.8166   21.6712 C   0  0  0  0  0  0  0  0  0  0  0  0
  1  5  1  0
  1 15  4  0
  1 22  4  0
  2 20  1  0
  2 24  1  0
  3  6  4  0
  3 27  4  0
  4 22  4  0
  4 26  4  0
  6  7  4  0
  6 13  1  0
  7 19  4  0
  8 18  1  0
  8 23  1  0
  8 28  2  0
  9 17  1  0
  9 24  1  0
 10 11  1  0
 10 24  1  0
 11 23  1  0
 12 14  4  0
 12 16  4  0
 14 19  4  0
 15 18  4  0
 16 20  4  0
 17 25  1  0
 18 26  4  0
 19 29  4  0
 20 29  4  0
 21 23  1  0
 21 25  1  0
 27 29  4  0
M  END
$$$$

 Created by Python create_sdf_string function

 29 32  0  0  0  0  0  0  0  0999 V2000
    5.4450    8.7154   22.6662 C   0  0  0  0  0  0  0  0  0  0  0  0
   10.9154    5.4574   20.5483 C   0  0  0  0  0  0  0  0  0  0  0  0
    7.2709    4.5089   22.7542 C   0  0  0  0  0  0  0  0  0  0  0  0
    5.9698    7.6329   24.6581 C   0  0  0  0  0  0  0  0  0  0  0  0
    4.5542    8.9057   21.7104 O   0  0  0  0  0  0  0  0  0  0  0  0
    6.9895    3.2085   23.0690 C   0  0  0  0  0  0  0  0  0  0  0  0
    7.8391    2.2253   22.7260 N   0  0  0  0  0  0  0  0  0  0  0  0
    8.6968    9.8373   23.6359 C   0  0  0  0  0  0  0  0  0  0  0  0
   12.5135    6.5957   21.8396 C   0  0  0  0  0  0  0  0  0  0  0  0
   10.9406    8.2330   21.1350 C   0  0  0  0  0  0  0  0  0  0  0  0
    9.6648    8.5956   21.7310 C   0  0  0  0  0  0  0  0  0  0  0  0
   10.8829    1.7153   20.9865 C   0  0  0  0  0  0  0  0  0  0  0  0
    5.7768    2.8533   23.7910 C   0  0  0  0  0  0  0  0  0  0  0  0
    9.7977    1.4791   21.6912 N   0  0  0  0  0  0  0  0  0  0  0  0
    6.5976    9.3401   22.6478 N   0  0  0  0  0  0  0  0  0  0  0  0
   11.2031    3.0042   20.6246 C   0  0  0  0  0  0  0  0  0  0  0  0
   12.8688    7.7370   22.7287 C   0  0  0  0  0  0  0  0  0  0  0  0
    7.4487    9.1361   23.6506 C   0  0  0  0  0  0  0  0  0  0  0  0
    8.9772    2.5025   22.0273 C   0  0  0  0  0  0  0  0  0  0  0  0
   10.4859    4.0901   20.9730 C   0  0  0  0  0  0  0  0  0  0  0  0
   11.0962    9.3293   23.5072 C   0  0  0  0  0  0  0  0  0  0  0  0
    5.1273    7.8529   23.6208 N   0  0  0  0  0  0  0  0  0  0  0  0
    9.7552    9.2338   23.0171 N   0  0  0  0  0  0  0  0  0  0  0  0
   11.1797    6.7591   21.3326 N   0  0  0  0  0  0  0  0  0  0  0  0
   11.7728    8.0337   23.7267 C   0  0  0  0  0  0  0  0  0  0  0  0
    7.1194    8.3344   24.6775 C   0  0  0  0  0  0  0  0  0  0  0  0
    8.4311    4.7963   22.0500 C   0  0  0  0  0  0  0  0  0  0  0  0
    8.7393   10.8706   24.1871 O   0  0  0  0  0  0  0  0  0  0  0  0
    9.3093    3.8166   21.6712 C   0  0  0  0  0  0  0  0  0  0  0  0
  1  5  1  0
  1 15  4  0
  1 22  4  0
  2 20  1  0
  2 24  1  0
  3  6  4  0
  3 27  4  0
  4 22  4  0
  4 26  4  0
  6  7  4  0
  6 13  1  0
  7 19  4  0
  8 18  1  0
  8 23  1  0
  8 28  2  0
  9 17  1  0
  9 24  1  0
 10 11  1  0
 10 24  1  0
 11 23  1  0
 12 14  4  0
 12 16  4  0
 14 19  4  0
 15 18  4  0
 16 20  4  0
 17 25  1  0
 18 26  4  0
 19 29  4  0
 20 29  4  0
 21 23  1  0
 21 25  1  0
 27 29  4  0
M  END
$$$$

 Created by Python create_sdf_string function

 29 32  0  0  0  0  0  0  0  0999 V2000
    5.4450    8.7154   22.6662 C   0  0  0  0  0  0  0  0  0  0  0  0
   10.9154    5.4574   20.5483 C   0  0  0  0  0  0  0  0  0  0  0  0
    7.2709    4.5089   22.7542 C   0  0  0  0  0  0  0  0  0  0  0  0
    5.9698    7.6329   24.6581 C   0  0  0  0  0  0  0  0  0  0  0  0
    4.5542    8.9057   21.7104 O   0  0  0  0  0  0  0  0  0  0  0  0
    6.9895    3.2085   23.0690 C   0  0  0  0  0  0  0  0  0  0  0  0
    7.8391    2.2253   22.7260 N   0  0  0  0  0  0  0  0  0  0  0  0
    8.6968    9.8373   23.6359 C   0  0  0  0  0  0  0  0  0  0  0  0
   12.5135    6.5957   21.8396 C   0  0  0  0  0  0  0  0  0  0  0  0
   10.9406    8.2330   21.1350 C   0  0  0  0  0  0  0  0  0  0  0  0
    9.6648    8.5956   21.7310 C   0  0  0  0  0  0  0  0  0  0  0  0
   10.8829    1.7153   20.9865 C   0  0  0  0  0  0  0  0  0  0  0  0
    5.7768    2.8533   23.7910 C   0  0  0  0  0  0  0  0  0  0  0  0
    9.7977    1.4791   21.6912 N   0  0  0  0  0  0  0  0  0  0  0  0
    6.5976    9.3401   22.6478 N   0  0  0  0  0  0  0  0  0  0  0  0
   11.2031    3.0042   20.6246 C   0  0  0  0  0  0  0  0  0  0  0  0
   12.8688    7.7370   22.7287 C   0  0  0  0  0  0  0  0  0  0  0  0
    7.4487    9.1361   23.6506 C   0  0  0  0  0  0  0  0  0  0  0  0
    8.9772    2.5025   22.0273 C   0  0  0  0  0  0  0  0  0  0  0  0
   10.4859    4.0901   20.9730 C   0  0  0  0  0  0  0  0  0  0  0  0
   11.0962    9.3293   23.5072 C   0  0  0  0  0  0  0  0  0  0  0  0
    5.1273    7.8529   23.6208 N   0  0  0  0  0  0  0  0  0  0  0  0
    9.7552    9.2338   23.0171 N   0  0  0  0  0  0  0  0  0  0  0  0
   11.1797    6.7591   21.3326 N   0  0  0  0  0  0  0  0  0  0  0  0
   11.7728    8.0337   23.7267 C   0  0  0  0  0  0  0  0  0  0  0  0
    7.1194    8.3344   24.6775 C   0  0  0  0  0  0  0  0  0  0  0  0
    8.4311    4.7963   22.0500 C   0  0  0  0  0  0  0  0  0  0  0  0
    8.7393   10.8706   24.1871 O   0  0  0  0  0  0  0  0  0  0  0  0
    9.3093    3.8166   21.6712 C   0  0  0  0  0  0  0  0  0  0  0  0
  1  5  1  0
  1 15  4  0
  1 22  4  0
  2 20  1  0
  2 24  1  0
  3  6  4  0
  3 27  4  0
  4 22  4  0
  4 26  4  0
  6  7  4  0
  6 13  1  0
  7 19  4  0
  8 18  1  0
  8 23  1  0
  8 28  2  0
  9 17  1  0
  9 24  1  0
 10 11  1  0
 10 24  1  0
 11 23  1  0
 12 14  4  0
 12 16  4  0
 14 19  4  0
 15 18  4  0
 16 20  4  0
 17 25  1  0
 18 26  4  0
 19 29  4  0
 20 29  4  0
 21 23  1  0
 21 25  1  0
 27 29  4  0
M  END
$$$$

 Created by Python create_sdf_string function

 29 32  0  0  0  0  0  0  0  0999 V2000
    5.4450    8.7154   22.6662 C   0  0  0  0  0  0  0  0  0  0  0  0
   10.9154    5.4574   20.5483 C   0  0  0  0  0  0  0  0  0  0  0  0
    7.2709    4.5089   22.7542 C   0  0  0  0  0  0  0  0  0  0  0  0
    5.9698    7.6329   24.6581 C   0  0  0  0  0  0  0  0  0  0  0  0
    4.5542    8.9057   21.7104 O   0  0  0  0  0  0  0  0  0  0  0  0
    6.9895    3.2085   23.0690 C   0  0  0  0  0  0  0  0  0  0  0  0
    7.8391    2.2253   22.7260 N   0  0  0  0  0  0  0  0  0  0  0  0
    8.6968    9.8373   23.6359 C   0  0  0  0  0  0  0  0  0  0  0  0
   12.5135    6.5957   21.8396 C   0  0  0  0  0  0  0  0  0  0  0  0
   10.9406    8.2330   21.1350 C   0  0  0  0  0  0  0  0  0  0  0  0
    9.6648    8.5956   21.7310 C   0  0  0  0  0  0  0  0  0  0  0  0
   10.8829    1.7153   20.9865 C   0  0  0  0  0  0  0  0  0  0  0  0
    5.7768    2.8533   23.7910 C   0  0  0  0  0  0  0  0  0  0  0  0
    9.7977    1.4791   21.6912 N   0  0  0  0  0  0  0  0  0  0  0  0
    6.5976    9.3401   22.6478 N   0  0  0  0  0  0  0  0  0  0  0  0
   11.2031    3.0042   20.6246 C   0  0  0  0  0  0  0  0  0  0  0  0
   12.8688    7.7370   22.7287 C   0  0  0  0  0  0  0  0  0  0  0  0
    7.4487    9.1361   23.6506 C   0  0  0  0  0  0  0  0  0  0  0  0
    8.9772    2.5025   22.0273 C   0  0  0  0  0  0  0  0  0  0  0  0
   10.4859    4.0901   20.9730 C   0  0  0  0  0  0  0  0  0  0  0  0
   11.0962    9.3293   23.5072 C   0  0  0  0  0  0  0  0  0  0  0  0
    5.1273    7.8529   23.6208 N   0  0  0  0  0  0  0  0  0  0  0  0
    9.7552    9.2338   23.0171 N   0  0  0  0  0  0  0  0  0  0  0  0
   11.1797    6.7591   21.3326 N   0  0  0  0  0  0  0  0  0  0  0  0
   11.7728    8.0337   23.7267 C   0  0  0  0  0  0  0  0  0  0  0  0
    7.1194    8.3344   24.6775 C   0  0  0  0  0  0  0  0  0  0  0  0
    8.4311    4.7963   22.0500 C   0  0  0  0  0  0  0  0  0  0  0  0
    8.7393   10.8706   24.1871 O   0  0  0  0  0  0  0  0  0  0  0  0
    9.3093    3.8166   21.6712 C   0  0  0  0  0  0  0  0  0  0  0  0
  1  5  1  0
  1 15  4  0
  1 22  4  0
  2 20  1  0
  2 24  1  0
  3  6  4  0
  3 27  4  0
  4 22  4  0
  4 26  4  0
  6  7  4  0
  6 13  1  0
  7 19  4  0
  8 18  1  0
  8 23  1  0
  8 28  2  0
  9 17  1  0
  9 24  1  0
 10 11  1  0
 10 24  1  0
 11 23  1  0
 12 14  4  0
 12 16  4  0
 14 19  4  0
 15 18  4  0
 16 20  4  0
 17 25  1  0
 18 26  4  0
 19 29  4  0
 20 29  4  0
 21 23  1  0
 21 25  1  0
 27 29  4  0
M  END
$$$$

 Created by Python create_sdf_string function

 29 32  0  0  0  0  0  0  0  0999 V2000
    5.4450    8.7154   22.6662 C   0  0  0  0  0  0  0  0  0  0  0  0
   10.9154    5.4574   20.5483 C   0  0  0  0  0  0  0  0  0  0  0  0
    7.2709    4.5089   22.7542 C   0  0  0  0  0  0  0  0  0  0  0  0
    5.9698    7.6329   24.6581 C   0  0  0  0  0  0  0  0  0  0  0  0
    4.5542    8.9057   21.7104 O   0  0  0  0  0  0  0  0  0  0  0  0
    6.9895    3.2085   23.0690 C   0  0  0  0  0  0  0  0  0  0  0  0
    7.8391    2.2253   22.7260 N   0  0  0  0  0  0  0  0  0  0  0  0
    8.6968    9.8373   23.6359 C   0  0  0  0  0  0  0  0  0  0  0  0
   12.5135    6.5957   21.8396 C   0  0  0  0  0  0  0  0  0  0  0  0
   10.9406    8.2330   21.1350 C   0  0  0  0  0  0  0  0  0  0  0  0
    9.6648    8.5956   21.7310 C   0  0  0  0  0  0  0  0  0  0  0  0
   10.8829    1.7153   20.9865 C   0  0  0  0  0  0  0  0  0  0  0  0
    5.7768    2.8533   23.7910 C   0  0  0  0  0  0  0  0  0  0  0  0
    9.7977    1.4791   21.6912 N   0  0  0  0  0  0  0  0  0  0  0  0
    6.5976    9.3401   22.6478 N   0  0  0  0  0  0  0  0  0  0  0  0
   11.2031    3.0042   20.6246 C   0  0  0  0  0  0  0  0  0  0  0  0
   12.8688    7.7370   22.7287 C   0  0  0  0  0  0  0  0  0  0  0  0
    7.4487    9.1361   23.6506 C   0  0  0  0  0  0  0  0  0  0  0  0
    8.9772    2.5025   22.0273 C   0  0  0  0  0  0  0  0  0  0  0  0
   10.4859    4.0901   20.9730 C   0  0  0  0  0  0  0  0  0  0  0  0
   11.0962    9.3293   23.5072 C   0  0  0  0  0  0  0  0  0  0  0  0
    5.1273    7.8529   23.6208 N   0  0  0  0  0  0  0  0  0  0  0  0
    9.7552    9.2338   23.0171 N   0  0  0  0  0  0  0  0  0  0  0  0
   11.1797    6.7591   21.3326 N   0  0  0  0  0  0  0  0  0  0  0  0
   11.7728    8.0337   23.7267 C   0  0  0  0  0  0  0  0  0  0  0  0
    7.1194    8.3344   24.6775 C   0  0  0  0  0  0  0  0  0  0  0  0
    8.4311    4.7963   22.0500 C   0  0  0  0  0  0  0  0  0  0  0  0
    8.7393   10.8706   24.1871 O   0  0  0  0  0  0  0  0  0  0  0  0
    9.3093    3.8166   21.6712 C   0  0  0  0  0  0  0  0  0  0  0  0
  1  5  1  0
  1 15  4  0
  1 22  4  0
  2 20  1  0
  2 24  1  0
  3  6  4  0
  3 27  4  0
  4 22  4  0
  4 26  4  0
  6  7  4  0
  6 13  1  0
  7 19  4  0
  8 18  1  0
  8 23  1  0
  8 28  2  0
  9 17  1  0
  9 24  1  0
 10 11  1  0
 10 24  1  0
 11 23  1  0
 12 14  4  0
 12 16  4  0
 14 19  4  0
 15 18  4  0
 16 20  4  0
 17 25  1  0
 18 26  4  0
 19 29  4  0
 20 29  4  0
 21 23  1  0
 21 25  1  0
 27 29  4  0
M  END
$$$$

 Created by Python create_sdf_string function

 29 32  0  0  0  0  0  0  0  0999 V2000
    5.4450    8.7154   22.6662 C   0  0  0  0  0  0  0  0  0  0  0  0
   10.9154    5.4574   20.5483 C   0  0  0  0  0  0  0  0  0  0  0  0
    7.2709    4.5089   22.7542 C   0  0  0  0  0  0  0  0  0  0  0  0
    5.9698    7.6329   24.6581 C   0  0  0  0  0  0  0  0  0  0  0  0
    4.5542    8.9057   21.7104 O   0  0  0  0  0  0  0  0  0  0  0  0
    6.9895    3.2085   23.0690 C   0  0  0  0  0  0  0  0  0  0  0  0
    7.8391    2.2253   22.7260 N   0  0  0  0  0  0  0  0  0  0  0  0
    8.6968    9.8373   23.6359 C   0  0  0  0  0  0  0  0  0  0  0  0
   12.5135    6.5957   21.8396 C   0  0  0  0  0  0  0  0  0  0  0  0
   10.9406    8.2330   21.1350 C   0  0  0  0  0  0  0  0  0  0  0  0
    9.6648    8.5956   21.7310 C   0  0  0  0  0  0  0  0  0  0  0  0
   10.8829    1.7153   20.9865 C   0  0  0  0  0  0  0  0  0  0  0  0
    5.7768    2.8533   23.7910 C   0  0  0  0  0  0  0  0  0  0  0  0
    9.7977    1.4791   21.6912 N   0  0  0  0  0  0  0  0  0  0  0  0
    6.5976    9.3401   22.6478 N   0  0  0  0  0  0  0  0  0  0  0  0
   11.2031    3.0042   20.6246 C   0  0  0  0  0  0  0  0  0  0  0  0
   12.8688    7.7370   22.7287 C   0  0  0  0  0  0  0  0  0  0  0  0
    7.4487    9.1361   23.6506 C   0  0  0  0  0  0  0  0  0  0  0  0
    8.9772    2.5025   22.0273 C   0  0  0  0  0  0  0  0  0  0  0  0
   10.4859    4.0901   20.9730 C   0  0  0  0  0  0  0  0  0  0  0  0
   11.0962    9.3293   23.5072 C   0  0  0  0  0  0  0  0  0  0  0  0
    5.1273    7.8529   23.6208 N   0  0  0  0  0  0  0  0  0  0  0  0
    9.7552    9.2338   23.0171 N   0  0  0  0  0  0  0  0  0  0  0  0
   11.1797    6.7591   21.3326 N   0  0  0  0  0  0  0  0  0  0  0  0
   11.7728    8.0337   23.7267 C   0  0  0  0  0  0  0  0  0  0  0  0
    7.1194    8.3344   24.6775 C   0  0  0  0  0  0  0  0  0  0  0  0
    8.4311    4.7963   22.0500 C   0  0  0  0  0  0  0  0  0  0  0  0
    8.7393   10.8706   24.1871 O   0  0  0  0  0  0  0  0  0  0  0  0
    9.3093    3.8166   21.6712 C   0  0  0  0  0  0  0  0  0  0  0  0
  1  5  1  0
  1 15  4  0
  1 22  4  0
  2 20  1  0
  2 24  1  0
  3  6  4  0
  3 27  4  0
  4 22  4  0
  4 26  4  0
  6  7  4  0
  6 13  1  0
  7 19  4  0
  8 18  1  0
  8 23  1  0
  8 28  2  0
  9 17  1  0
  9 24  1  0
 10 11  1  0
 10 24  1  0
 11 23  1  0
 12 14  4  0
 12 16  4  0
 14 19  4  0
 15 18  4  0
 16 20  4  0
 17 25  1  0
 18 26  4  0
 19 29  4  0
 20 29  4  0
 21 23  1  0
 21 25  1  0
 27 29  4  0
M  END
$$$$

 Created by Python create_sdf_string function

 29 32  0  0  0  0  0  0  0  0999 V2000
    5.4450    8.7154   22.6662 C   0  0  0  0  0  0  0  0  0  0  0  0
   10.9154    5.4574   20.5483 C   0  0  0  0  0  0  0  0  0  0  0  0
    7.2709    4.5089   22.7542 C   0  0  0  0  0  0  0  0  0  0  0  0
    5.9698    7.6329   24.6581 C   0  0  0  0  0  0  0  0  0  0  0  0
    4.5542    8.9057   21.7104 O   0  0  0  0  0  0  0  0  0  0  0  0
    6.9895    3.2085   23.0690 C   0  0  0  0  0  0  0  0  0  0  0  0
    7.8391    2.2253   22.7260 N   0  0  0  0  0  0  0  0  0  0  0  0
    8.6968    9.8373   23.6359 C   0  0  0  0  0  0  0  0  0  0  0  0
   12.5135    6.5957   21.8396 C   0  0  0  0  0  0  0  0  0  0  0  0
   10.9406    8.2330   21.1350 C   0  0  0  0  0  0  0  0  0  0  0  0
    9.6648    8.5956   21.7310 C   0  0  0  0  0  0  0  0  0  0  0  0
   10.8829    1.7153   20.9865 C   0  0  0  0  0  0  0  0  0  0  0  0
    5.7768    2.8533   23.7910 C   0  0  0  0  0  0  0  0  0  0  0  0
    9.7977    1.4791   21.6912 N   0  0  0  0  0  0  0  0  0  0  0  0
    6.5976    9.3401   22.6478 N   0  0  0  0  0  0  0  0  0  0  0  0
   11.2031    3.0042   20.6246 C   0  0  0  0  0  0  0  0  0  0  0  0
   12.8688    7.7370   22.7287 C   0  0  0  0  0  0  0  0  0  0  0  0
    7.4487    9.1361   23.6506 C   0  0  0  0  0  0  0  0  0  0  0  0
    8.9772    2.5025   22.0273 C   0  0  0  0  0  0  0  0  0  0  0  0
   10.4859    4.0901   20.9730 C   0  0  0  0  0  0  0  0  0  0  0  0
   11.0962    9.3293   23.5072 C   0  0  0  0  0  0  0  0  0  0  0  0
    5.1273    7.8529   23.6208 N   0  0  0  0  0  0  0  0  0  0  0  0
    9.7552    9.2338   23.0171 N   0  0  0  0  0  0  0  0  0  0  0  0
   11.1797    6.7591   21.3326 N   0  0  0  0  0  0  0  0  0  0  0  0
   11.7728    8.0337   23.7267 C   0  0  0  0  0  0  0  0  0  0  0  0
    7.1194    8.3344   24.6775 C   0  0  0  0  0  0  0  0  0  0  0  0
    8.4311    4.7963   22.0500 C   0  0  0  0  0  0  0  0  0  0  0  0
    8.7393   10.8706   24.1871 O   0  0  0  0  0  0  0  0  0  0  0  0
    9.3093    3.8166   21.6712 C   0  0  0  0  0  0  0  0  0  0  0  0
  1  5  1  0
  1 15  4  0
  1 22  4  0
  2 20  1  0
  2 24  1  0
  3  6  4  0
  3 27  4  0
  4 22  4  0
  4 26  4  0
  6  7  4  0
  6 13  1  0
  7 19  4  0
  8 18  1  0
  8 23  1  0
  8 28  2  0
  9 17  1  0
  9 24  1  0
 10 11  1  0
 10 24  1  0
 11 23  1  0
 12 14  4  0
 12 16  4  0
 14 19  4  0
 15 18  4  0
 16 20  4  0
 17 25  1  0
 18 26  4  0
 19 29  4  0
 20 29  4  0
 21 23  1  0
 21 25  1  0
 27 29  4  0
M  END
$$$$

 Created by Python create_sdf_string function

 29 32  0  0  0  0  0  0  0  0999 V2000
    5.4450    8.7154   22.6662 C   0  0  0  0  0  0  0  0  0  0  0  0
   10.9154    5.4574   20.5483 C   0  0  0  0  0  0  0  0  0  0  0  0
    7.2709    4.5089   22.7542 C   0  0  0  0  0  0  0  0  0  0  0  0
    5.9698    7.6329   24.6581 C   0  0  0  0  0  0  0  0  0  0  0  0
    4.5542    8.9057   21.7104 O   0  0  0  0  0  0  0  0  0  0  0  0
    6.9895    3.2085   23.0690 C   0  0  0  0  0  0  0  0  0  0  0  0
    7.8391    2.2253   22.7260 N   0  0  0  0  0  0  0  0  0  0  0  0
    8.6968    9.8373   23.6359 C   0  0  0  0  0  0  0  0  0  0  0  0
   12.5135    6.5957   21.8396 C   0  0  0  0  0  0  0  0  0  0  0  0
   10.9406    8.2330   21.1350 C   0  0  0  0  0  0  0  0  0  0  0  0
    9.6648    8.5956   21.7310 C   0  0  0  0  0  0  0  0  0  0  0  0
   10.8829    1.7153   20.9865 C   0  0  0  0  0  0  0  0  0  0  0  0
    5.7768    2.8533   23.7910 C   0  0  0  0  0  0  0  0  0  0  0  0
    9.7977    1.4791   21.6912 N   0  0  0  0  0  0  0  0  0  0  0  0
    6.5976    9.3401   22.6478 N   0  0  0  0  0  0  0  0  0  0  0  0
   11.2031    3.0042   20.6246 C   0  0  0  0  0  0  0  0  0  0  0  0
   12.8688    7.7370   22.7287 C   0  0  0  0  0  0  0  0  0  0  0  0
    7.4487    9.1361   23.6506 C   0  0  0  0  0  0  0  0  0  0  0  0
    8.9772    2.5025   22.0273 C   0  0  0  0  0  0  0  0  0  0  0  0
   10.4859    4.0901   20.9730 C   0  0  0  0  0  0  0  0  0  0  0  0
   11.0962    9.3293   23.5072 C   0  0  0  0  0  0  0  0  0  0  0  0
    5.1273    7.8529   23.6208 N   0  0  0  0  0  0  0  0  0  0  0  0
    9.7552    9.2338   23.0171 N   0  0  0  0  0  0  0  0  0  0  0  0
   11.1797    6.7591   21.3326 N   0  0  0  0  0  0  0  0  0  0  0  0
   11.7728    8.0337   23.7267 C   0  0  0  0  0  0  0  0  0  0  0  0
    7.1194    8.3344   24.6775 C   0  0  0  0  0  0  0  0  0  0  0  0
    8.4311    4.7963   22.0500 C   0  0  0  0  0  0  0  0  0  0  0  0
    8.7393   10.8706   24.1871 O   0  0  0  0  0  0  0  0  0  0  0  0
    9.3093    3.8166   21.6712 C   0  0  0  0  0  0  0  0  0  0  0  0
  1  5  1  0
  1 15  4  0
  1 22  4  0
  2 20  1  0
  2 24  1  0
  3  6  4  0
  3 27  4  0
  4 22  4  0
  4 26  4  0
  6  7  4  0
  6 13  1  0
  7 19  4  0
  8 18  1  0
  8 23  1  0
  8 28  2  0
  9 17  1  0
  9 24  1  0
 10 11  1  0
 10 24  1  0
 11 23  1  0
 12 14  4  0
 12 16  4  0
 14 19  4  0
 15 18  4  0
 16 20  4  0
 17 25  1  0
 18 26  4  0
 19 29  4  0
 20 29  4  0
 21 23  1  0
 21 25  1  0
 27 29  4  0
M  END
$$$$

 Created by Python create_sdf_string function

 29 32  0  0  0  0  0  0  0  0999 V2000
    5.4450    8.7154   22.6662 C   0  0  0  0  0  0  0  0  0  0  0  0
   10.9154    5.4574   20.5483 C   0  0  0  0  0  0  0  0  0  0  0  0
    7.2709    4.5089   22.7542 C   0  0  0  0  0  0  0  0  0  0  0  0
    5.9698    7.6329   24.6581 C   0  0  0  0  0  0  0  0  0  0  0  0
    4.5542    8.9057   21.7104 O   0  0  0  0  0  0  0  0  0  0  0  0
    6.9895    3.2085   23.0690 C   0  0  0  0  0  0  0  0  0  0  0  0
    7.8391    2.2253   22.7260 N   0  0  0  0  0  0  0  0  0  0  0  0
    8.6968    9.8373   23.6359 C   0  0  0  0  0  0  0  0  0  0  0  0
   12.5135    6.5957   21.8396 C   0  0  0  0  0  0  0  0  0  0  0  0
   10.9406    8.2330   21.1350 C   0  0  0  0  0  0  0  0  0  0  0  0
    9.6648    8.5956   21.7310 C   0  0  0  0  0  0  0  0  0  0  0  0
   10.8829    1.7153   20.9865 C   0  0  0  0  0  0  0  0  0  0  0  0
    5.7768    2.8533   23.7910 C   0  0  0  0  0  0  0  0  0  0  0  0
    9.7977    1.4791   21.6912 N   0  0  0  0  0  0  0  0  0  0  0  0
    6.5976    9.3401   22.6478 N   0  0  0  0  0  0  0  0  0  0  0  0
   11.2031    3.0042   20.6246 C   0  0  0  0  0  0  0  0  0  0  0  0
   12.8688    7.7370   22.7287 C   0  0  0  0  0  0  0  0  0  0  0  0
    7.4487    9.1361   23.6506 C   0  0  0  0  0  0  0  0  0  0  0  0
    8.9772    2.5025   22.0273 C   0  0  0  0  0  0  0  0  0  0  0  0
   10.4859    4.0901   20.9730 C   0  0  0  0  0  0  0  0  0  0  0  0
   11.0962    9.3293   23.5072 C   0  0  0  0  0  0  0  0  0  0  0  0
    5.1273    7.8529   23.6208 N   0  0  0  0  0  0  0  0  0  0  0  0
    9.7552    9.2338   23.0171 N   0  0  0  0  0  0  0  0  0  0  0  0
   11.1797    6.7591   21.3326 N   0  0  0  0  0  0  0  0  0  0  0  0
   11.7728    8.0337   23.7267 C   0  0  0  0  0  0  0  0  0  0  0  0
    7.1194    8.3344   24.6775 C   0  0  0  0  0  0  0  0  0  0  0  0
    8.4311    4.7963   22.0500 C   0  0  0  0  0  0  0  0  0  0  0  0
    8.7393   10.8706   24.1871 O   0  0  0  0  0  0  0  0  0  0  0  0
    9.3093    3.8166   21.6712 C   0  0  0  0  0  0  0  0  0  0  0  0
  1  5  1  0
  1 15  4  0
  1 22  4  0
  2 20  1  0
  2 24  1  0
  3  6  4  0
  3 27  4  0
  4 22  4  0
  4 26  4  0
  6  7  4  0
  6 13  1  0
  7 19  4  0
  8 18  1  0
  8 23  1  0
  8 28  2  0
  9 17  1  0
  9 24  1  0
 10 11  1  0
 10 24  1  0
 11 23  1  0
 12 14  4  0
 12 16  4  0
 14 19  4  0
 15 18  4  0
 16 20  4  0
 17 25  1  0
 18 26  4  0
 19 29  4  0
 20 29  4  0
 21 23  1  0
 21 25  1  0
 27 29  4  0
M  END
$$$$

 Created by Python create_sdf_string function

 29 32  0  0  0  0  0  0  0  0999 V2000
    5.4450    8.7154   22.6662 C   0  0  0  0  0  0  0  0  0  0  0  0
   10.9154    5.4574   20.5483 C   0  0  0  0  0  0  0  0  0  0  0  0
    7.2709    4.5089   22.7542 C   0  0  0  0  0  0  0  0  0  0  0  0
    5.9698    7.6329   24.6581 C   0  0  0  0  0  0  0  0  0  0  0  0
    4.5542    8.9057   21.7104 O   0  0  0  0  0  0  0  0  0  0  0  0
    6.9895    3.2085   23.0690 C   0  0  0  0  0  0  0  0  0  0  0  0
    7.8391    2.2253   22.7260 N   0  0  0  0  0  0  0  0  0  0  0  0
    8.6968    9.8373   23.6359 C   0  0  0  0  0  0  0  0  0  0  0  0
   12.5135    6.5957   21.8396 C   0  0  0  0  0  0  0  0  0  0  0  0
   10.9406    8.2330   21.1350 C   0  0  0  0  0  0  0  0  0  0  0  0
    9.6648    8.5956   21.7310 C   0  0  0  0  0  0  0  0  0  0  0  0
   10.8829    1.7153   20.9865 C   0  0  0  0  0  0  0  0  0  0  0  0
    5.7768    2.8533   23.7910 C   0  0  0  0  0  0  0  0  0  0  0  0
    9.7977    1.4791   21.6912 N   0  0  0  0  0  0  0  0  0  0  0  0
    6.5976    9.3401   22.6478 N   0  0  0  0  0  0  0  0  0  0  0  0
   11.2031    3.0042   20.6246 C   0  0  0  0  0  0  0  0  0  0  0  0
   12.8688    7.7370   22.7287 C   0  0  0  0  0  0  0  0  0  0  0  0
    7.4487    9.1361   23.6506 C   0  0  0  0  0  0  0  0  0  0  0  0
    8.9772    2.5025   22.0273 C   0  0  0  0  0  0  0  0  0  0  0  0
   10.4859    4.0901   20.9730 C   0  0  0  0  0  0  0  0  0  0  0  0
   11.0962    9.3293   23.5072 C   0  0  0  0  0  0  0  0  0  0  0  0
    5.1273    7.8529   23.6208 N   0  0  0  0  0  0  0  0  0  0  0  0
    9.7552    9.2338   23.0171 N   0  0  0  0  0  0  0  0  0  0  0  0
   11.1797    6.7591   21.3326 N   0  0  0  0  0  0  0  0  0  0  0  0
   11.7728    8.0337   23.7267 C   0  0  0  0  0  0  0  0  0  0  0  0
    7.1194    8.3344   24.6775 C   0  0  0  0  0  0  0  0  0  0  0  0
    8.4311    4.7963   22.0500 C   0  0  0  0  0  0  0  0  0  0  0  0
    8.7393   10.8706   24.1871 O   0  0  0  0  0  0  0  0  0  0  0  0
    9.3093    3.8166   21.6712 C   0  0  0  0  0  0  0  0  0  0  0  0
  1  5  1  0
  1 15  4  0
  1 22  4  0
  2 20  1  0
  2 24  1  0
  3  6  4  0
  3 27  4  0
  4 22  4  0
  4 26  4  0
  6  7  4  0
  6 13  1  0
  7 19  4  0
  8 18  1  0
  8 23  1  0
  8 28  2  0
  9 17  1  0
  9 24  1  0
 10 11  1  0
 10 24  1  0
 11 23  1  0
 12 14  4  0
 12 16  4  0
 14 19  4  0
 15 18  4  0
 16 20  4  0
 17 25  1  0
 18 26  4  0
 19 29  4  0
 20 29  4  0
 21 23  1  0
 21 25  1  0
 27 29  4  0
M  END
$$$$

 Created by Python create_sdf_string function

 29 32  0  0  0  0  0  0  0  0999 V2000
    5.4450    8.7154   22.6662 C   0  0  0  0  0  0  0  0  0  0  0  0
   10.9154    5.4574   20.5483 C   0  0  0  0  0  0  0  0  0  0  0  0
    7.2709    4.5089   22.7542 C   0  0  0  0  0  0  0  0  0  0  0  0
    5.9698    7.6329   24.6581 C   0  0  0  0  0  0  0  0  0  0  0  0
    4.5542    8.9057   21.7104 O   0  0  0  0  0  0  0  0  0  0  0  0
    6.9895    3.2085   23.0690 C   0  0  0  0  0  0  0  0  0  0  0  0
    7.8391    2.2253   22.7260 N   0  0  0  0  0  0  0  0  0  0  0  0
    8.6968    9.8373   23.6359 C   0  0  0  0  0  0  0  0  0  0  0  0
   12.5135    6.5957   21.8396 C   0  0  0  0  0  0  0  0  0  0  0  0
   10.9406    8.2330   21.1350 C   0  0  0  0  0  0  0  0  0  0  0  0
    9.6648    8.5956   21.7310 C   0  0  0  0  0  0  0  0  0  0  0  0
   10.8829    1.7153   20.9865 C   0  0  0  0  0  0  0  0  0  0  0  0
    5.7768    2.8533   23.7910 C   0  0  0  0  0  0  0  0  0  0  0  0
    9.7977    1.4791   21.6912 N   0  0  0  0  0  0  0  0  0  0  0  0
    6.5976    9.3401   22.6478 N   0  0  0  0  0  0  0  0  0  0  0  0
   11.2031    3.0042   20.6246 C   0  0  0  0  0  0  0  0  0  0  0  0
   12.8688    7.7370   22.7287 C   0  0  0  0  0  0  0  0  0  0  0  0
    7.4487    9.1361   23.6506 C   0  0  0  0  0  0  0  0  0  0  0  0
    8.9772    2.5025   22.0273 C   0  0  0  0  0  0  0  0  0  0  0  0
   10.4859    4.0901   20.9730 C   0  0  0  0  0  0  0  0  0  0  0  0
   11.0962    9.3293   23.5072 C   0  0  0  0  0  0  0  0  0  0  0  0
    5.1273    7.8529   23.6208 N   0  0  0  0  0  0  0  0  0  0  0  0
    9.7552    9.2338   23.0171 N   0  0  0  0  0  0  0  0  0  0  0  0
   11.1797    6.7591   21.3326 N   0  0  0  0  0  0  0  0  0  0  0  0
   11.7728    8.0337   23.7267 C   0  0  0  0  0  0  0  0  0  0  0  0
    7.1194    8.3344   24.6775 C   0  0  0  0  0  0  0  0  0  0  0  0
    8.4311    4.7963   22.0500 C   0  0  0  0  0  0  0  0  0  0  0  0
    8.7393   10.8706   24.1871 O   0  0  0  0  0  0  0  0  0  0  0  0
    9.3093    3.8166   21.6712 C   0  0  0  0  0  0  0  0  0  0  0  0
  1  5  1  0
  1 15  4  0
  1 22  4  0
  2 20  1  0
  2 24  1  0
  3  6  4  0
  3 27  4  0
  4 22  4  0
  4 26  4  0
  6  7  4  0
  6 13  1  0
  7 19  4  0
  8 18  1  0
  8 23  1  0
  8 28  2  0
  9 17  1  0
  9 24  1  0
 10 11  1  0
 10 24  1  0
 11 23  1  0
 12 14  4  0
 12 16  4  0
 14 19  4  0
 15 18  4  0
 16 20  4  0
 17 25  1  0
 18 26  4  0
 19 29  4  0
 20 29  4  0
 21 23  1  0
 21 25  1  0
 27 29  4  0
M  END
$$$$

 Created by Python create_sdf_string function

 29 32  0  0  0  0  0  0  0  0999 V2000
    5.4450    8.7154   22.6662 C   0  0  0  0  0  0  0  0  0  0  0  0
   10.9154    5.4574   20.5483 C   0  0  0  0  0  0  0  0  0  0  0  0
    7.2709    4.5089   22.7542 C   0  0  0  0  0  0  0  0  0  0  0  0
    5.9698    7.6329   24.6581 C   0  0  0  0  0  0  0  0  0  0  0  0
    4.5542    8.9057   21.7104 O   0  0  0  0  0  0  0  0  0  0  0  0
    6.9895    3.2085   23.0690 C   0  0  0  0  0  0  0  0  0  0  0  0
    7.8391    2.2253   22.7260 N   0  0  0  0  0  0  0  0  0  0  0  0
    8.6968    9.8373   23.6359 C   0  0  0  0  0  0  0  0  0  0  0  0
   12.5135    6.5957   21.8396 C   0  0  0  0  0  0  0  0  0  0  0  0
   10.9406    8.2330   21.1350 C   0  0  0  0  0  0  0  0  0  0  0  0
    9.6648    8.5956   21.7310 C   0  0  0  0  0  0  0  0  0  0  0  0
   10.8829    1.7153   20.9865 C   0  0  0  0  0  0  0  0  0  0  0  0
    5.7768    2.8533   23.7910 C   0  0  0  0  0  0  0  0  0  0  0  0
    9.7977    1.4791   21.6912 N   0  0  0  0  0  0  0  0  0  0  0  0
    6.5976    9.3401   22.6478 N   0  0  0  0  0  0  0  0  0  0  0  0
   11.2031    3.0042   20.6246 C   0  0  0  0  0  0  0  0  0  0  0  0
   12.8688    7.7370   22.7287 C   0  0  0  0  0  0  0  0  0  0  0  0
    7.4487    9.1361   23.6506 C   0  0  0  0  0  0  0  0  0  0  0  0
    8.9772    2.5025   22.0273 C   0  0  0  0  0  0  0  0  0  0  0  0
   10.4859    4.0901   20.9730 C   0  0  0  0  0  0  0  0  0  0  0  0
   11.0962    9.3293   23.5072 C   0  0  0  0  0  0  0  0  0  0  0  0
    5.1273    7.8529   23.6208 N   0  0  0  0  0  0  0  0  0  0  0  0
    9.7552    9.2338   23.0171 N   0  0  0  0  0  0  0  0  0  0  0  0
   11.1797    6.7591   21.3326 N   0  0  0  0  0  0  0  0  0  0  0  0
   11.7728    8.0337   23.7267 C   0  0  0  0  0  0  0  0  0  0  0  0
    7.1194    8.3344   24.6775 C   0  0  0  0  0  0  0  0  0  0  0  0
    8.4311    4.7963   22.0500 C   0  0  0  0  0  0  0  0  0  0  0  0
    8.7393   10.8706   24.1871 O   0  0  0  0  0  0  0  0  0  0  0  0
    9.3093    3.8166   21.6712 C   0  0  0  0  0  0  0  0  0  0  0  0
  1  5  1  0
  1 15  4  0
  1 22  4  0
  2 20  1  0
  2 24  1  0
  3  6  4  0
  3 27  4  0
  4 22  4  0
  4 26  4  0
  6  7  4  0
  6 13  1  0
  7 19  4  0
  8 18  1  0
  8 23  1  0
  8 28  2  0
  9 17  1  0
  9 24  1  0
 10 11  1  0
 10 24  1  0
 11 23  1  0
 12 14  4  0
 12 16  4  0
 14 19  4  0
 15 18  4  0
 16 20  4  0
 17 25  1  0
 18 26  4  0
 19 29  4  0
 20 29  4  0
 21 23  1  0
 21 25  1  0
 27 29  4  0
M  END
$$$$

 Created by Python create_sdf_string function

 29 32  0  0  0  0  0  0  0  0999 V2000
    5.4450    8.7154   22.6662 C   0  0  0  0  0  0  0  0  0  0  0  0
   10.9154    5.4574   20.5483 C   0  0  0  0  0  0  0  0  0  0  0  0
    7.2709    4.5089   22.7542 C   0  0  0  0  0  0  0  0  0  0  0  0
    5.9698    7.6329   24.6581 C   0  0  0  0  0  0  0  0  0  0  0  0
    4.5542    8.9057   21.7104 O   0  0  0  0  0  0  0  0  0  0  0  0
    6.9895    3.2085   23.0690 C   0  0  0  0  0  0  0  0  0  0  0  0
    7.8391    2.2253   22.7260 N   0  0  0  0  0  0  0  0  0  0  0  0
    8.6968    9.8373   23.6359 C   0  0  0  0  0  0  0  0  0  0  0  0
   12.5135    6.5957   21.8396 C   0  0  0  0  0  0  0  0  0  0  0  0
   10.9406    8.2330   21.1350 C   0  0  0  0  0  0  0  0  0  0  0  0
    9.6648    8.5956   21.7310 C   0  0  0  0  0  0  0  0  0  0  0  0
   10.8829    1.7153   20.9865 C   0  0  0  0  0  0  0  0  0  0  0  0
    5.7768    2.8533   23.7910 C   0  0  0  0  0  0  0  0  0  0  0  0
    9.7977    1.4791   21.6912 N   0  0  0  0  0  0  0  0  0  0  0  0
    6.5976    9.3401   22.6478 N   0  0  0  0  0  0  0  0  0  0  0  0
   11.2031    3.0042   20.6246 C   0  0  0  0  0  0  0  0  0  0  0  0
   12.8688    7.7370   22.7287 C   0  0  0  0  0  0  0  0  0  0  0  0
    7.4487    9.1361   23.6506 C   0  0  0  0  0  0  0  0  0  0  0  0
    8.9772    2.5025   22.0273 C   0  0  0  0  0  0  0  0  0  0  0  0
   10.4859    4.0901   20.9730 C   0  0  0  0  0  0  0  0  0  0  0  0
   11.0962    9.3293   23.5072 C   0  0  0  0  0  0  0  0  0  0  0  0
    5.1273    7.8529   23.6208 N   0  0  0  0  0  0  0  0  0  0  0  0
    9.7552    9.2338   23.0171 N   0  0  0  0  0  0  0  0  0  0  0  0
   11.1797    6.7591   21.3326 N   0  0  0  0  0  0  0  0  0  0  0  0
   11.7728    8.0337   23.7267 C   0  0  0  0  0  0  0  0  0  0  0  0
    7.1194    8.3344   24.6775 C   0  0  0  0  0  0  0  0  0  0  0  0
    8.4311    4.7963   22.0500 C   0  0  0  0  0  0  0  0  0  0  0  0
    8.7393   10.8706   24.1871 O   0  0  0  0  0  0  0  0  0  0  0  0
    9.3093    3.8166   21.6712 C   0  0  0  0  0  0  0  0  0  0  0  0
  1  5  1  0
  1 15  4  0
  1 22  4  0
  2 20  1  0
  2 24  1  0
  3  6  4  0
  3 27  4  0
  4 22  4  0
  4 26  4  0
  6  7  4  0
  6 13  1  0
  7 19  4  0
  8 18  1  0
  8 23  1  0
  8 28  2  0
  9 17  1  0
  9 24  1  0
 10 11  1  0
 10 24  1  0
 11 23  1  0
 12 14  4  0
 12 16  4  0
 14 19  4  0
 15 18  4  0
 16 20  4  0
 17 25  1  0
 18 26  4  0
 19 29  4  0
 20 29  4  0
 21 23  1  0
 21 25  1  0
 27 29  4  0
M  END
$$$$

 Created by Python create_sdf_string function

 29 32  0  0  0  0  0  0  0  0999 V2000
    5.4450    8.7154   22.6662 C   0  0  0  0  0  0  0  0  0  0  0  0
   10.9154    5.4574   20.5483 C   0  0  0  0  0  0  0  0  0  0  0  0
    7.2709    4.5089   22.7542 C   0  0  0  0  0  0  0  0  0  0  0  0
    5.9698    7.6329   24.6581 C   0  0  0  0  0  0  0  0  0  0  0  0
    4.5542    8.9057   21.7104 O   0  0  0  0  0  0  0  0  0  0  0  0
    6.9895    3.2085   23.0690 C   0  0  0  0  0  0  0  0  0  0  0  0
    7.8391    2.2253   22.7260 N   0  0  0  0  0  0  0  0  0  0  0  0
    8.6968    9.8373   23.6359 C   0  0  0  0  0  0  0  0  0  0  0  0
   12.5135    6.5957   21.8396 C   0  0  0  0  0  0  0  0  0  0  0  0
   10.9406    8.2330   21.1350 C   0  0  0  0  0  0  0  0  0  0  0  0
    9.6648    8.5956   21.7310 C   0  0  0  0  0  0  0  0  0  0  0  0
   10.8829    1.7153   20.9865 C   0  0  0  0  0  0  0  0  0  0  0  0
    5.7768    2.8533   23.7910 C   0  0  0  0  0  0  0  0  0  0  0  0
    9.7977    1.4791   21.6912 N   0  0  0  0  0  0  0  0  0  0  0  0
    6.5976    9.3401   22.6478 N   0  0  0  0  0  0  0  0  0  0  0  0
   11.2031    3.0042   20.6246 C   0  0  0  0  0  0  0  0  0  0  0  0
   12.8688    7.7370   22.7287 C   0  0  0  0  0  0  0  0  0  0  0  0
    7.4487    9.1361   23.6506 C   0  0  0  0  0  0  0  0  0  0  0  0
    8.9772    2.5025   22.0273 C   0  0  0  0  0  0  0  0  0  0  0  0
   10.4859    4.0901   20.9730 C   0  0  0  0  0  0  0  0  0  0  0  0
   11.0962    9.3293   23.5072 C   0  0  0  0  0  0  0  0  0  0  0  0
    5.1273    7.8529   23.6208 N   0  0  0  0  0  0  0  0  0  0  0  0
    9.7552    9.2338   23.0171 N   0  0  0  0  0  0  0  0  0  0  0  0
   11.1797    6.7591   21.3326 N   0  0  0  0  0  0  0  0  0  0  0  0
   11.7728    8.0337   23.7267 C   0  0  0  0  0  0  0  0  0  0  0  0
    7.1194    8.3344   24.6775 C   0  0  0  0  0  0  0  0  0  0  0  0
    8.4311    4.7963   22.0500 C   0  0  0  0  0  0  0  0  0  0  0  0
    8.7393   10.8706   24.1871 O   0  0  0  0  0  0  0  0  0  0  0  0
    9.3093    3.8166   21.6712 C   0  0  0  0  0  0  0  0  0  0  0  0
  1  5  1  0
  1 15  4  0
  1 22  4  0
  2 20  1  0
  2 24  1  0
  3  6  4  0
  3 27  4  0
  4 22  4  0
  4 26  4  0
  6  7  4  0
  6 13  1  0
  7 19  4  0
  8 18  1  0
  8 23  1  0
  8 28  2  0
  9 17  1  0
  9 24  1  0
 10 11  1  0
 10 24  1  0
 11 23  1  0
 12 14  4  0
 12 16  4  0
 14 19  4  0
 15 18  4  0
 16 20  4  0
 17 25  1  0
 18 26  4  0
 19 29  4  0
 20 29  4  0
 21 23  1  0
 21 25  1  0
 27 29  4  0
M  END
$$$$

 Created by Python create_sdf_string function

 29 32  0  0  0  0  0  0  0  0999 V2000
    5.4450    8.7154   22.6662 C   0  0  0  0  0  0  0  0  0  0  0  0
   10.9154    5.4574   20.5483 C   0  0  0  0  0  0  0  0  0  0  0  0
    7.2709    4.5089   22.7542 C   0  0  0  0  0  0  0  0  0  0  0  0
    5.9698    7.6329   24.6581 C   0  0  0  0  0  0  0  0  0  0  0  0
    4.5542    8.9057   21.7104 O   0  0  0  0  0  0  0  0  0  0  0  0
    6.9895    3.2085   23.0690 C   0  0  0  0  0  0  0  0  0  0  0  0
    7.8391    2.2253   22.7260 N   0  0  0  0  0  0  0  0  0  0  0  0
    8.6968    9.8373   23.6359 C   0  0  0  0  0  0  0  0  0  0  0  0
   12.5135    6.5957   21.8396 C   0  0  0  0  0  0  0  0  0  0  0  0
   10.9406    8.2330   21.1350 C   0  0  0  0  0  0  0  0  0  0  0  0
    9.6648    8.5956   21.7310 C   0  0  0  0  0  0  0  0  0  0  0  0
   10.8829    1.7153   20.9865 C   0  0  0  0  0  0  0  0  0  0  0  0
    5.7768    2.8533   23.7910 C   0  0  0  0  0  0  0  0  0  0  0  0
    9.7977    1.4791   21.6912 N   0  0  0  0  0  0  0  0  0  0  0  0
    6.5976    9.3401   22.6478 N   0  0  0  0  0  0  0  0  0  0  0  0
   11.2031    3.0042   20.6246 C   0  0  0  0  0  0  0  0  0  0  0  0
   12.8688    7.7370   22.7287 C   0  0  0  0  0  0  0  0  0  0  0  0
    7.4487    9.1361   23.6506 C   0  0  0  0  0  0  0  0  0  0  0  0
    8.9772    2.5025   22.0273 C   0  0  0  0  0  0  0  0  0  0  0  0
   10.4859    4.0901   20.9730 C   0  0  0  0  0  0  0  0  0  0  0  0
   11.0962    9.3293   23.5072 C   0  0  0  0  0  0  0  0  0  0  0  0
    5.1273    7.8529   23.6208 N   0  0  0  0  0  0  0  0  0  0  0  0
    9.7552    9.2338   23.0171 N   0  0  0  0  0  0  0  0  0  0  0  0
   11.1797    6.7591   21.3326 N   0  0  0  0  0  0  0  0  0  0  0  0
   11.7728    8.0337   23.7267 C   0  0  0  0  0  0  0  0  0  0  0  0
    7.1194    8.3344   24.6775 C   0  0  0  0  0  0  0  0  0  0  0  0
    8.4311    4.7963   22.0500 C   0  0  0  0  0  0  0  0  0  0  0  0
    8.7393   10.8706   24.1871 O   0  0  0  0  0  0  0  0  0  0  0  0
    9.3093    3.8166   21.6712 C   0  0  0  0  0  0  0  0  0  0  0  0
  1  5  1  0
  1 15  4  0
  1 22  4  0
  2 20  1  0
  2 24  1  0
  3  6  4  0
  3 27  4  0
  4 22  4  0
  4 26  4  0
  6  7  4  0
  6 13  1  0
  7 19  4  0
  8 18  1  0
  8 23  1  0
  8 28  2  0
  9 17  1  0
  9 24  1  0
 10 11  1  0
 10 24  1  0
 11 23  1  0
 12 14  4  0
 12 16  4  0
 14 19  4  0
 15 18  4  0
 16 20  4  0
 17 25  1  0
 18 26  4  0
 19 29  4  0
 20 29  4  0
 21 23  1  0
 21 25  1  0
 27 29  4  0
M  END
$$$$

 Created by Python create_sdf_string function

 29 32  0  0  0  0  0  0  0  0999 V2000
    5.4450    8.7154   22.6662 C   0  0  0  0  0  0  0  0  0  0  0  0
   10.9154    5.4574   20.5483 C   0  0  0  0  0  0  0  0  0  0  0  0
    7.2709    4.5089   22.7542 C   0  0  0  0  0  0  0  0  0  0  0  0
    5.9698    7.6329   24.6581 C   0  0  0  0  0  0  0  0  0  0  0  0
    4.5542    8.9057   21.7104 O   0  0  0  0  0  0  0  0  0  0  0  0
    6.9895    3.2085   23.0690 C   0  0  0  0  0  0  0  0  0  0  0  0
    7.8391    2.2253   22.7260 N   0  0  0  0  0  0  0  0  0  0  0  0
    8.6968    9.8373   23.6359 C   0  0  0  0  0  0  0  0  0  0  0  0
   12.5135    6.5957   21.8396 C   0  0  0  0  0  0  0  0  0  0  0  0
   10.9406    8.2330   21.1350 C   0  0  0  0  0  0  0  0  0  0  0  0
    9.6648    8.5956   21.7310 C   0  0  0  0  0  0  0  0  0  0  0  0
   10.8829    1.7153   20.9865 C   0  0  0  0  0  0  0  0  0  0  0  0
    5.7768    2.8533   23.7910 C   0  0  0  0  0  0  0  0  0  0  0  0
    9.7977    1.4791   21.6912 N   0  0  0  0  0  0  0  0  0  0  0  0
    6.5976    9.3401   22.6478 N   0  0  0  0  0  0  0  0  0  0  0  0
   11.2031    3.0042   20.6246 C   0  0  0  0  0  0  0  0  0  0  0  0
   12.8688    7.7370   22.7287 C   0  0  0  0  0  0  0  0  0  0  0  0
    7.4487    9.1361   23.6506 C   0  0  0  0  0  0  0  0  0  0  0  0
    8.9772    2.5025   22.0273 C   0  0  0  0  0  0  0  0  0  0  0  0
   10.4859    4.0901   20.9730 C   0  0  0  0  0  0  0  0  0  0  0  0
   11.0962    9.3293   23.5072 C   0  0  0  0  0  0  0  0  0  0  0  0
    5.1273    7.8529   23.6208 N   0  0  0  0  0  0  0  0  0  0  0  0
    9.7552    9.2338   23.0171 N   0  0  0  0  0  0  0  0  0  0  0  0
   11.1797    6.7591   21.3326 N   0  0  0  0  0  0  0  0  0  0  0  0
   11.7728    8.0337   23.7267 C   0  0  0  0  0  0  0  0  0  0  0  0
    7.1194    8.3344   24.6775 C   0  0  0  0  0  0  0  0  0  0  0  0
    8.4311    4.7963   22.0500 C   0  0  0  0  0  0  0  0  0  0  0  0
    8.7393   10.8706   24.1871 O   0  0  0  0  0  0  0  0  0  0  0  0
    9.3093    3.8166   21.6712 C   0  0  0  0  0  0  0  0  0  0  0  0
  1  5  1  0
  1 15  4  0
  1 22  4  0
  2 20  1  0
  2 24  1  0
  3  6  4  0
  3 27  4  0
  4 22  4  0
  4 26  4  0
  6  7  4  0
  6 13  1  0
  7 19  4  0
  8 18  1  0
  8 23  1  0
  8 28  2  0
  9 17  1  0
  9 24  1  0
 10 11  1  0
 10 24  1  0
 11 23  1  0
 12 14  4  0
 12 16  4  0
 14 19  4  0
 15 18  4  0
 16 20  4  0
 17 25  1  0
 18 26  4  0
 19 29  4  0
 20 29  4  0
 21 23  1  0
 21 25  1  0
 27 29  4  0
M  END
$$$$

 Created by Python create_sdf_string function

 29 32  0  0  0  0  0  0  0  0999 V2000
    5.4450    8.7154   22.6662 C   0  0  0  0  0  0  0  0  0  0  0  0
   10.9154    5.4574   20.5483 C   0  0  0  0  0  0  0  0  0  0  0  0
    7.2709    4.5089   22.7542 C   0  0  0  0  0  0  0  0  0  0  0  0
    5.9698    7.6329   24.6581 C   0  0  0  0  0  0  0  0  0  0  0  0
    4.5542    8.9057   21.7104 O   0  0  0  0  0  0  0  0  0  0  0  0
    6.9895    3.2085   23.0690 C   0  0  0  0  0  0  0  0  0  0  0  0
    7.8391    2.2253   22.7260 N   0  0  0  0  0  0  0  0  0  0  0  0
    8.6968    9.8373   23.6359 C   0  0  0  0  0  0  0  0  0  0  0  0
   12.5135    6.5957   21.8396 C   0  0  0  0  0  0  0  0  0  0  0  0
   10.9406    8.2330   21.1350 C   0  0  0  0  0  0  0  0  0  0  0  0
    9.6648    8.5956   21.7310 C   0  0  0  0  0  0  0  0  0  0  0  0
   10.8829    1.7153   20.9865 C   0  0  0  0  0  0  0  0  0  0  0  0
    5.7768    2.8533   23.7910 C   0  0  0  0  0  0  0  0  0  0  0  0
    9.7977    1.4791   21.6912 N   0  0  0  0  0  0  0  0  0  0  0  0
    6.5976    9.3401   22.6478 N   0  0  0  0  0  0  0  0  0  0  0  0
   11.2031    3.0042   20.6246 C   0  0  0  0  0  0  0  0  0  0  0  0
   12.8688    7.7370   22.7287 C   0  0  0  0  0  0  0  0  0  0  0  0
    7.4487    9.1361   23.6506 C   0  0  0  0  0  0  0  0  0  0  0  0
    8.9772    2.5025   22.0273 C   0  0  0  0  0  0  0  0  0  0  0  0
   10.4859    4.0901   20.9730 C   0  0  0  0  0  0  0  0  0  0  0  0
   11.0962    9.3293   23.5072 C   0  0  0  0  0  0  0  0  0  0  0  0
    5.1273    7.8529   23.6208 N   0  0  0  0  0  0  0  0  0  0  0  0
    9.7552    9.2338   23.0171 N   0  0  0  0  0  0  0  0  0  0  0  0
   11.1797    6.7591   21.3326 N   0  0  0  0  0  0  0  0  0  0  0  0
   11.7728    8.0337   23.7267 C   0  0  0  0  0  0  0  0  0  0  0  0
    7.1194    8.3344   24.6775 C   0  0  0  0  0  0  0  0  0  0  0  0
    8.4311    4.7963   22.0500 C   0  0  0  0  0  0  0  0  0  0  0  0
    8.7393   10.8706   24.1871 O   0  0  0  0  0  0  0  0  0  0  0  0
    9.3093    3.8166   21.6712 C   0  0  0  0  0  0  0  0  0  0  0  0
  1  5  1  0
  1 15  4  0
  1 22  4  0
  2 20  1  0
  2 24  1  0
  3  6  4  0
  3 27  4  0
  4 22  4  0
  4 26  4  0
  6  7  4  0
  6 13  1  0
  7 19  4  0
  8 18  1  0
  8 23  1  0
  8 28  2  0
  9 17  1  0
  9 24  1  0
 10 11  1  0
 10 24  1  0
 11 23  1  0
 12 14  4  0
 12 16  4  0
 14 19  4  0
 15 18  4  0
 16 20  4  0
 17 25  1  0
 18 26  4  0
 19 29  4  0
 20 29  4  0
 21 23  1  0
 21 25  1  0
 27 29  4  0
M  END
$$$$

 Created by Python create_sdf_string function

 29 32  0  0  0  0  0  0  0  0999 V2000
    5.4450    8.7154   22.6662 C   0  0  0  0  0  0  0  0  0  0  0  0
   10.9154    5.4574   20.5483 C   0  0  0  0  0  0  0  0  0  0  0  0
    7.2709    4.5089   22.7542 C   0  0  0  0  0  0  0  0  0  0  0  0
    5.9698    7.6329   24.6581 C   0  0  0  0  0  0  0  0  0  0  0  0
    4.5542    8.9057   21.7104 O   0  0  0  0  0  0  0  0  0  0  0  0
    6.9895    3.2085   23.0690 C   0  0  0  0  0  0  0  0  0  0  0  0
    7.8391    2.2253   22.7260 N   0  0  0  0  0  0  0  0  0  0  0  0
    8.6968    9.8373   23.6359 C   0  0  0  0  0  0  0  0  0  0  0  0
   12.5135    6.5957   21.8396 C   0  0  0  0  0  0  0  0  0  0  0  0
   10.9406    8.2330   21.1350 C   0  0  0  0  0  0  0  0  0  0  0  0
    9.6648    8.5956   21.7310 C   0  0  0  0  0  0  0  0  0  0  0  0
   10.8829    1.7153   20.9865 C   0  0  0  0  0  0  0  0  0  0  0  0
    5.7768    2.8533   23.7910 C   0  0  0  0  0  0  0  0  0  0  0  0
    9.7977    1.4791   21.6912 N   0  0  0  0  0  0  0  0  0  0  0  0
    6.5976    9.3401   22.6478 N   0  0  0  0  0  0  0  0  0  0  0  0
   11.2031    3.0042   20.6246 C   0  0  0  0  0  0  0  0  0  0  0  0
   12.8688    7.7370   22.7287 C   0  0  0  0  0  0  0  0  0  0  0  0
    7.4487    9.1361   23.6506 C   0  0  0  0  0  0  0  0  0  0  0  0
    8.9772    2.5025   22.0273 C   0  0  0  0  0  0  0  0  0  0  0  0
   10.4859    4.0901   20.9730 C   0  0  0  0  0  0  0  0  0  0  0  0
   11.0962    9.3293   23.5072 C   0  0  0  0  0  0  0  0  0  0  0  0
    5.1273    7.8529   23.6208 N   0  0  0  0  0  0  0  0  0  0  0  0
    9.7552    9.2338   23.0171 N   0  0  0  0  0  0  0  0  0  0  0  0
   11.1797    6.7591   21.3326 N   0  0  0  0  0  0  0  0  0  0  0  0
   11.7728    8.0337   23.7267 C   0  0  0  0  0  0  0  0  0  0  0  0
    7.1194    8.3344   24.6775 C   0  0  0  0  0  0  0  0  0  0  0  0
    8.4311    4.7963   22.0500 C   0  0  0  0  0  0  0  0  0  0  0  0
    8.7393   10.8706   24.1871 O   0  0  0  0  0  0  0  0  0  0  0  0
    9.3093    3.8166   21.6712 C   0  0  0  0  0  0  0  0  0  0  0  0
  1  5  1  0
  1 15  4  0
  1 22  4  0
  2 20  1  0
  2 24  1  0
  3  6  4  0
  3 27  4  0
  4 22  4  0
  4 26  4  0
  6  7  4  0
  6 13  1  0
  7 19  4  0
  8 18  1  0
  8 23  1  0
  8 28  2  0
  9 17  1  0
  9 24  1  0
 10 11  1  0
 10 24  1  0
 11 23  1  0
 12 14  4  0
 12 16  4  0
 14 19  4  0
 15 18  4  0
 16 20  4  0
 17 25  1  0
 18 26  4  0
 19 29  4  0
 20 29  4  0
 21 23  1  0
 21 25  1  0
 27 29  4  0
M  END
$$$$

 Created by Python create_sdf_string function

 29 32  0  0  0  0  0  0  0  0999 V2000
    5.4450    8.7154   22.6662 C   0  0  0  0  0  0  0  0  0  0  0  0
   10.9154    5.4574   20.5483 C   0  0  0  0  0  0  0  0  0  0  0  0
    7.2709    4.5089   22.7542 C   0  0  0  0  0  0  0  0  0  0  0  0
    5.9698    7.6329   24.6581 C   0  0  0  0  0  0  0  0  0  0  0  0
    4.5542    8.9057   21.7104 O   0  0  0  0  0  0  0  0  0  0  0  0
    6.9895    3.2085   23.0690 C   0  0  0  0  0  0  0  0  0  0  0  0
    7.8391    2.2253   22.7260 N   0  0  0  0  0  0  0  0  0  0  0  0
    8.6968    9.8373   23.6359 C   0  0  0  0  0  0  0  0  0  0  0  0
   12.5135    6.5957   21.8396 C   0  0  0  0  0  0  0  0  0  0  0  0
   10.9406    8.2330   21.1350 C   0  0  0  0  0  0  0  0  0  0  0  0
    9.6648    8.5956   21.7310 C   0  0  0  0  0  0  0  0  0  0  0  0
   10.8829    1.7153   20.9865 C   0  0  0  0  0  0  0  0  0  0  0  0
    5.7768    2.8533   23.7910 C   0  0  0  0  0  0  0  0  0  0  0  0
    9.7977    1.4791   21.6912 N   0  0  0  0  0  0  0  0  0  0  0  0
    6.5976    9.3401   22.6478 N   0  0  0  0  0  0  0  0  0  0  0  0
   11.2031    3.0042   20.6246 C   0  0  0  0  0  0  0  0  0  0  0  0
   12.8688    7.7370   22.7287 C   0  0  0  0  0  0  0  0  0  0  0  0
    7.4487    9.1361   23.6506 C   0  0  0  0  0  0  0  0  0  0  0  0
    8.9772    2.5025   22.0273 C   0  0  0  0  0  0  0  0  0  0  0  0
   10.4859    4.0901   20.9730 C   0  0  0  0  0  0  0  0  0  0  0  0
   11.0962    9.3293   23.5072 C   0  0  0  0  0  0  0  0  0  0  0  0
    5.1273    7.8529   23.6208 N   0  0  0  0  0  0  0  0  0  0  0  0
    9.7552    9.2338   23.0171 N   0  0  0  0  0  0  0  0  0  0  0  0
   11.1797    6.7591   21.3326 N   0  0  0  0  0  0  0  0  0  0  0  0
   11.7728    8.0337   23.7267 C   0  0  0  0  0  0  0  0  0  0  0  0
    7.1194    8.3344   24.6775 C   0  0  0  0  0  0  0  0  0  0  0  0
    8.4311    4.7963   22.0500 C   0  0  0  0  0  0  0  0  0  0  0  0
    8.7393   10.8706   24.1871 O   0  0  0  0  0  0  0  0  0  0  0  0
    9.3093    3.8166   21.6712 C   0  0  0  0  0  0  0  0  0  0  0  0
  1  5  1  0
  1 15  4  0
  1 22  4  0
  2 20  1  0
  2 24  1  0
  3  6  4  0
  3 27  4  0
  4 22  4  0
  4 26  4  0
  6  7  4  0
  6 13  1  0
  7 19  4  0
  8 18  1  0
  8 23  1  0
  8 28  2  0
  9 17  1  0
  9 24  1  0
 10 11  1  0
 10 24  1  0
 11 23  1  0
 12 14  4  0
 12 16  4  0
 14 19  4  0
 15 18  4  0
 16 20  4  0
 17 25  1  0
 18 26  4  0
 19 29  4  0
 20 29  4  0
 21 23  1  0
 21 25  1  0
 27 29  4  0
M  END
$$$$

 Created by Python create_sdf_string function

 29 32  0  0  0  0  0  0  0  0999 V2000
    5.4450    8.7154   22.6662 C   0  0  0  0  0  0  0  0  0  0  0  0
   10.9154    5.4574   20.5483 C   0  0  0  0  0  0  0  0  0  0  0  0
    7.2709    4.5089   22.7542 C   0  0  0  0  0  0  0  0  0  0  0  0
    5.9698    7.6329   24.6581 C   0  0  0  0  0  0  0  0  0  0  0  0
    4.5542    8.9057   21.7104 O   0  0  0  0  0  0  0  0  0  0  0  0
    6.9895    3.2085   23.0690 C   0  0  0  0  0  0  0  0  0  0  0  0
    7.8391    2.2253   22.7260 N   0  0  0  0  0  0  0  0  0  0  0  0
    8.6968    9.8373   23.6359 C   0  0  0  0  0  0  0  0  0  0  0  0
   12.5135    6.5957   21.8396 C   0  0  0  0  0  0  0  0  0  0  0  0
   10.9406    8.2330   21.1350 C   0  0  0  0  0  0  0  0  0  0  0  0
    9.6648    8.5956   21.7310 C   0  0  0  0  0  0  0  0  0  0  0  0
   10.8829    1.7153   20.9865 C   0  0  0  0  0  0  0  0  0  0  0  0
    5.7768    2.8533   23.7910 C   0  0  0  0  0  0  0  0  0  0  0  0
    9.7977    1.4791   21.6912 N   0  0  0  0  0  0  0  0  0  0  0  0
    6.5976    9.3401   22.6478 N   0  0  0  0  0  0  0  0  0  0  0  0
   11.2031    3.0042   20.6246 C   0  0  0  0  0  0  0  0  0  0  0  0
   12.8688    7.7370   22.7287 C   0  0  0  0  0  0  0  0  0  0  0  0
    7.4487    9.1361   23.6506 C   0  0  0  0  0  0  0  0  0  0  0  0
    8.9772    2.5025   22.0273 C   0  0  0  0  0  0  0  0  0  0  0  0
   10.4859    4.0901   20.9730 C   0  0  0  0  0  0  0  0  0  0  0  0
   11.0962    9.3293   23.5072 C   0  0  0  0  0  0  0  0  0  0  0  0
    5.1273    7.8529   23.6208 N   0  0  0  0  0  0  0  0  0  0  0  0
    9.7552    9.2338   23.0171 N   0  0  0  0  0  0  0  0  0  0  0  0
   11.1797    6.7591   21.3326 N   0  0  0  0  0  0  0  0  0  0  0  0
   11.7728    8.0337   23.7267 C   0  0  0  0  0  0  0  0  0  0  0  0
    7.1194    8.3344   24.6775 C   0  0  0  0  0  0  0  0  0  0  0  0
    8.4311    4.7963   22.0500 C   0  0  0  0  0  0  0  0  0  0  0  0
    8.7393   10.8706   24.1871 O   0  0  0  0  0  0  0  0  0  0  0  0
    9.3093    3.8166   21.6712 C   0  0  0  0  0  0  0  0  0  0  0  0
  1  5  1  0
  1 15  4  0
  1 22  4  0
  2 20  1  0
  2 24  1  0
  3  6  4  0
  3 27  4  0
  4 22  4  0
  4 26  4  0
  6  7  4  0
  6 13  1  0
  7 19  4  0
  8 18  1  0
  8 23  1  0
  8 28  2  0
  9 17  1  0
  9 24  1  0
 10 11  1  0
 10 24  1  0
 11 23  1  0
 12 14  4  0
 12 16  4  0
 14 19  4  0
 15 18  4  0
 16 20  4  0
 17 25  1  0
 18 26  4  0
 19 29  4  0
 20 29  4  0
 21 23  1  0
 21 25  1  0
 27 29  4  0
M  END
$$$$

 Created by Python create_sdf_string function

 29 32  0  0  0  0  0  0  0  0999 V2000
    5.4450    8.7154   22.6662 C   0  0  0  0  0  0  0  0  0  0  0  0
   10.9154    5.4574   20.5483 C   0  0  0  0  0  0  0  0  0  0  0  0
    7.2709    4.5089   22.7542 C   0  0  0  0  0  0  0  0  0  0  0  0
    5.9698    7.6329   24.6581 C   0  0  0  0  0  0  0  0  0  0  0  0
    4.5542    8.9057   21.7104 O   0  0  0  0  0  0  0  0  0  0  0  0
    6.9895    3.2085   23.0690 C   0  0  0  0  0  0  0  0  0  0  0  0
    7.8391    2.2253   22.7260 N   0  0  0  0  0  0  0  0  0  0  0  0
    8.6968    9.8373   23.6359 C   0  0  0  0  0  0  0  0  0  0  0  0
   12.5135    6.5957   21.8396 C   0  0  0  0  0  0  0  0  0  0  0  0
   10.9406    8.2330   21.1350 C   0  0  0  0  0  0  0  0  0  0  0  0
    9.6648    8.5956   21.7310 C   0  0  0  0  0  0  0  0  0  0  0  0
   10.8829    1.7153   20.9865 C   0  0  0  0  0  0  0  0  0  0  0  0
    5.7768    2.8533   23.7910 C   0  0  0  0  0  0  0  0  0  0  0  0
    9.7977    1.4791   21.6912 N   0  0  0  0  0  0  0  0  0  0  0  0
    6.5976    9.3401   22.6478 N   0  0  0  0  0  0  0  0  0  0  0  0
   11.2031    3.0042   20.6246 C   0  0  0  0  0  0  0  0  0  0  0  0
   12.8688    7.7370   22.7287 C   0  0  0  0  0  0  0  0  0  0  0  0
    7.4487    9.1361   23.6506 C   0  0  0  0  0  0  0  0  0  0  0  0
    8.9772    2.5025   22.0273 C   0  0  0  0  0  0  0  0  0  0  0  0
   10.4859    4.0901   20.9730 C   0  0  0  0  0  0  0  0  0  0  0  0
   11.0962    9.3293   23.5072 C   0  0  0  0  0  0  0  0  0  0  0  0
    5.1273    7.8529   23.6208 N   0  0  0  0  0  0  0  0  0  0  0  0
    9.7552    9.2338   23.0171 N   0  0  0  0  0  0  0  0  0  0  0  0
   11.1797    6.7591   21.3326 N   0  0  0  0  0  0  0  0  0  0  0  0
   11.7728    8.0337   23.7267 C   0  0  0  0  0  0  0  0  0  0  0  0
    7.1194    8.3344   24.6775 C   0  0  0  0  0  0  0  0  0  0  0  0
    8.4311    4.7963   22.0500 C   0  0  0  0  0  0  0  0  0  0  0  0
    8.7393   10.8706   24.1871 O   0  0  0  0  0  0  0  0  0  0  0  0
    9.3093    3.8166   21.6712 C   0  0  0  0  0  0  0  0  0  0  0  0
  1  5  1  0
  1 15  4  0
  1 22  4  0
  2 20  1  0
  2 24  1  0
  3  6  4  0
  3 27  4  0
  4 22  4  0
  4 26  4  0
  6  7  4  0
  6 13  1  0
  7 19  4  0
  8 18  1  0
  8 23  1  0
  8 28  2  0
  9 17  1  0
  9 24  1  0
 10 11  1  0
 10 24  1  0
 11 23  1  0
 12 14  4  0
 12 16  4  0
 14 19  4  0
 15 18  4  0
 16 20  4  0
 17 25  1  0
 18 26  4  0
 19 29  4  0
 20 29  4  0
 21 23  1  0
 21 25  1  0
 27 29  4  0
M  END
$$$$

 Created by Python create_sdf_string function

 29 32  0  0  0  0  0  0  0  0999 V2000
    5.4450    8.7154   22.6662 C   0  0  0  0  0  0  0  0  0  0  0  0
   10.9154    5.4574   20.5483 C   0  0  0  0  0  0  0  0  0  0  0  0
    7.2709    4.5089   22.7542 C   0  0  0  0  0  0  0  0  0  0  0  0
    5.9698    7.6329   24.6581 C   0  0  0  0  0  0  0  0  0  0  0  0
    4.5542    8.9057   21.7104 O   0  0  0  0  0  0  0  0  0  0  0  0
    6.9895    3.2085   23.0690 C   0  0  0  0  0  0  0  0  0  0  0  0
    7.8391    2.2253   22.7260 N   0  0  0  0  0  0  0  0  0  0  0  0
    8.6968    9.8373   23.6359 C   0  0  0  0  0  0  0  0  0  0  0  0
   12.5135    6.5957   21.8396 C   0  0  0  0  0  0  0  0  0  0  0  0
   10.9406    8.2330   21.1350 C   0  0  0  0  0  0  0  0  0  0  0  0
    9.6648    8.5956   21.7310 C   0  0  0  0  0  0  0  0  0  0  0  0
   10.8829    1.7153   20.9865 C   0  0  0  0  0  0  0  0  0  0  0  0
    5.7768    2.8533   23.7910 C   0  0  0  0  0  0  0  0  0  0  0  0
    9.7977    1.4791   21.6912 N   0  0  0  0  0  0  0  0  0  0  0  0
    6.5976    9.3401   22.6478 N   0  0  0  0  0  0  0  0  0  0  0  0
   11.2031    3.0042   20.6246 C   0  0  0  0  0  0  0  0  0  0  0  0
   12.8688    7.7370   22.7287 C   0  0  0  0  0  0  0  0  0  0  0  0
    7.4487    9.1361   23.6506 C   0  0  0  0  0  0  0  0  0  0  0  0
    8.9772    2.5025   22.0273 C   0  0  0  0  0  0  0  0  0  0  0  0
   10.4859    4.0901   20.9730 C   0  0  0  0  0  0  0  0  0  0  0  0
   11.0962    9.3293   23.5072 C   0  0  0  0  0  0  0  0  0  0  0  0
    5.1273    7.8529   23.6208 N   0  0  0  0  0  0  0  0  0  0  0  0
    9.7552    9.2338   23.0171 N   0  0  0  0  0  0  0  0  0  0  0  0
   11.1797    6.7591   21.3326 N   0  0  0  0  0  0  0  0  0  0  0  0
   11.7728    8.0337   23.7267 C   0  0  0  0  0  0  0  0  0  0  0  0
    7.1194    8.3344   24.6775 C   0  0  0  0  0  0  0  0  0  0  0  0
    8.4311    4.7963   22.0500 C   0  0  0  0  0  0  0  0  0  0  0  0
    8.7393   10.8706   24.1871 O   0  0  0  0  0  0  0  0  0  0  0  0
    9.3093    3.8166   21.6712 C   0  0  0  0  0  0  0  0  0  0  0  0
  1  5  1  0
  1 15  4  0
  1 22  4  0
  2 20  1  0
  2 24  1  0
  3  6  4  0
  3 27  4  0
  4 22  4  0
  4 26  4  0
  6  7  4  0
  6 13  1  0
  7 19  4  0
  8 18  1  0
  8 23  1  0
  8 28  2  0
  9 17  1  0
  9 24  1  0
 10 11  1  0
 10 24  1  0
 11 23  1  0
 12 14  4  0
 12 16  4  0
 14 19  4  0
 15 18  4  0
 16 20  4  0
 17 25  1  0
 18 26  4  0
 19 29  4  0
 20 29  4  0
 21 23  1  0
 21 25  1  0
 27 29  4  0
M  END
$$$$

 Created by Python create_sdf_string function

 29 32  0  0  0  0  0  0  0  0999 V2000
    5.4450    8.7154   22.6662 C   0  0  0  0  0  0  0  0  0  0  0  0
   10.9154    5.4574   20.5483 C   0  0  0  0  0  0  0  0  0  0  0  0
    7.2709    4.5089   22.7542 C   0  0  0  0  0  0  0  0  0  0  0  0
    5.9698    7.6329   24.6581 C   0  0  0  0  0  0  0  0  0  0  0  0
    4.5542    8.9057   21.7104 O   0  0  0  0  0  0  0  0  0  0  0  0
    6.9895    3.2085   23.0690 C   0  0  0  0  0  0  0  0  0  0  0  0
    7.8391    2.2253   22.7260 N   0  0  0  0  0  0  0  0  0  0  0  0
    8.6968    9.8373   23.6359 C   0  0  0  0  0  0  0  0  0  0  0  0
   12.5135    6.5957   21.8396 C   0  0  0  0  0  0  0  0  0  0  0  0
   10.9406    8.2330   21.1350 C   0  0  0  0  0  0  0  0  0  0  0  0
    9.6648    8.5956   21.7310 C   0  0  0  0  0  0  0  0  0  0  0  0
   10.8829    1.7153   20.9865 C   0  0  0  0  0  0  0  0  0  0  0  0
    5.7768    2.8533   23.7910 C   0  0  0  0  0  0  0  0  0  0  0  0
    9.7977    1.4791   21.6912 N   0  0  0  0  0  0  0  0  0  0  0  0
    6.5976    9.3401   22.6478 N   0  0  0  0  0  0  0  0  0  0  0  0
   11.2031    3.0042   20.6246 C   0  0  0  0  0  0  0  0  0  0  0  0
   12.8688    7.7370   22.7287 C   0  0  0  0  0  0  0  0  0  0  0  0
    7.4487    9.1361   23.6506 C   0  0  0  0  0  0  0  0  0  0  0  0
    8.9772    2.5025   22.0273 C   0  0  0  0  0  0  0  0  0  0  0  0
   10.4859    4.0901   20.9730 C   0  0  0  0  0  0  0  0  0  0  0  0
   11.0962    9.3293   23.5072 C   0  0  0  0  0  0  0  0  0  0  0  0
    5.1273    7.8529   23.6208 N   0  0  0  0  0  0  0  0  0  0  0  0
    9.7552    9.2338   23.0171 N   0  0  0  0  0  0  0  0  0  0  0  0
   11.1797    6.7591   21.3326 N   0  0  0  0  0  0  0  0  0  0  0  0
   11.7728    8.0337   23.7267 C   0  0  0  0  0  0  0  0  0  0  0  0
    7.1194    8.3344   24.6775 C   0  0  0  0  0  0  0  0  0  0  0  0
    8.4311    4.7963   22.0500 C   0  0  0  0  0  0  0  0  0  0  0  0
    8.7393   10.8706   24.1871 O   0  0  0  0  0  0  0  0  0  0  0  0
    9.3093    3.8166   21.6712 C   0  0  0  0  0  0  0  0  0  0  0  0
  1  5  1  0
  1 15  4  0
  1 22  4  0
  2 20  1  0
  2 24  1  0
  3  6  4  0
  3 27  4  0
  4 22  4  0
  4 26  4  0
  6  7  4  0
  6 13  1  0
  7 19  4  0
  8 18  1  0
  8 23  1  0
  8 28  2  0
  9 17  1  0
  9 24  1  0
 10 11  1  0
 10 24  1  0
 11 23  1  0
 12 14  4  0
 12 16  4  0
 14 19  4  0
 15 18  4  0
 16 20  4  0
 17 25  1  0
 18 26  4  0
 19 29  4  0
 20 29  4  0
 21 23  1  0
 21 25  1  0
 27 29  4  0
M  END
$$$$

 Created by Python create_sdf_string function

 29 32  0  0  0  0  0  0  0  0999 V2000
    5.4450    8.7154   22.6662 C   0  0  0  0  0  0  0  0  0  0  0  0
   10.9154    5.4574   20.5483 C   0  0  0  0  0  0  0  0  0  0  0  0
    7.2709    4.5089   22.7542 C   0  0  0  0  0  0  0  0  0  0  0  0
    5.9698    7.6329   24.6581 C   0  0  0  0  0  0  0  0  0  0  0  0
    4.5542    8.9057   21.7104 O   0  0  0  0  0  0  0  0  0  0  0  0
    6.9895    3.2085   23.0690 C   0  0  0  0  0  0  0  0  0  0  0  0
    7.8391    2.2253   22.7260 N   0  0  0  0  0  0  0  0  0  0  0  0
    8.6968    9.8373   23.6359 C   0  0  0  0  0  0  0  0  0  0  0  0
   12.5135    6.5957   21.8396 C   0  0  0  0  0  0  0  0  0  0  0  0
   10.9406    8.2330   21.1350 C   0  0  0  0  0  0  0  0  0  0  0  0
    9.6648    8.5956   21.7310 C   0  0  0  0  0  0  0  0  0  0  0  0
   10.8829    1.7153   20.9865 C   0  0  0  0  0  0  0  0  0  0  0  0
    5.7768    2.8533   23.7910 C   0  0  0  0  0  0  0  0  0  0  0  0
    9.7977    1.4791   21.6912 N   0  0  0  0  0  0  0  0  0  0  0  0
    6.5976    9.3401   22.6478 N   0  0  0  0  0  0  0  0  0  0  0  0
   11.2031    3.0042   20.6246 C   0  0  0  0  0  0  0  0  0  0  0  0
   12.8688    7.7370   22.7287 C   0  0  0  0  0  0  0  0  0  0  0  0
    7.4487    9.1361   23.6506 C   0  0  0  0  0  0  0  0  0  0  0  0
    8.9772    2.5025   22.0273 C   0  0  0  0  0  0  0  0  0  0  0  0
   10.4859    4.0901   20.9730 C   0  0  0  0  0  0  0  0  0  0  0  0
   11.0962    9.3293   23.5072 C   0  0  0  0  0  0  0  0  0  0  0  0
    5.1273    7.8529   23.6208 N   0  0  0  0  0  0  0  0  0  0  0  0
    9.7552    9.2338   23.0171 N   0  0  0  0  0  0  0  0  0  0  0  0
   11.1797    6.7591   21.3326 N   0  0  0  0  0  0  0  0  0  0  0  0
   11.7728    8.0337   23.7267 C   0  0  0  0  0  0  0  0  0  0  0  0
    7.1194    8.3344   24.6775 C   0  0  0  0  0  0  0  0  0  0  0  0
    8.4311    4.7963   22.0500 C   0  0  0  0  0  0  0  0  0  0  0  0
    8.7393   10.8706   24.1871 O   0  0  0  0  0  0  0  0  0  0  0  0
    9.3093    3.8166   21.6712 C   0  0  0  0  0  0  0  0  0  0  0  0
  1  5  1  0
  1 15  4  0
  1 22  4  0
  2 20  1  0
  2 24  1  0
  3  6  4  0
  3 27  4  0
  4 22  4  0
  4 26  4  0
  6  7  4  0
  6 13  1  0
  7 19  4  0
  8 18  1  0
  8 23  1  0
  8 28  2  0
  9 17  1  0
  9 24  1  0
 10 11  1  0
 10 24  1  0
 11 23  1  0
 12 14  4  0
 12 16  4  0
 14 19  4  0
 15 18  4  0
 16 20  4  0
 17 25  1  0
 18 26  4  0
 19 29  4  0
 20 29  4  0
 21 23  1  0
 21 25  1  0
 27 29  4  0
M  END
$$$$

 Created by Python create_sdf_string function

 29 32  0  0  0  0  0  0  0  0999 V2000
    5.4450    8.7154   22.6662 C   0  0  0  0  0  0  0  0  0  0  0  0
   10.9154    5.4574   20.5483 C   0  0  0  0  0  0  0  0  0  0  0  0
    7.2709    4.5089   22.7542 C   0  0  0  0  0  0  0  0  0  0  0  0
    5.9698    7.6329   24.6581 C   0  0  0  0  0  0  0  0  0  0  0  0
    4.5542    8.9057   21.7104 O   0  0  0  0  0  0  0  0  0  0  0  0
    6.9895    3.2085   23.0690 C   0  0  0  0  0  0  0  0  0  0  0  0
    7.8391    2.2253   22.7260 N   0  0  0  0  0  0  0  0  0  0  0  0
    8.6968    9.8373   23.6359 C   0  0  0  0  0  0  0  0  0  0  0  0
   12.5135    6.5957   21.8396 C   0  0  0  0  0  0  0  0  0  0  0  0
   10.9406    8.2330   21.1350 C   0  0  0  0  0  0  0  0  0  0  0  0
    9.6648    8.5956   21.7310 C   0  0  0  0  0  0  0  0  0  0  0  0
   10.8829    1.7153   20.9865 C   0  0  0  0  0  0  0  0  0  0  0  0
    5.7768    2.8533   23.7910 C   0  0  0  0  0  0  0  0  0  0  0  0
    9.7977    1.4791   21.6912 N   0  0  0  0  0  0  0  0  0  0  0  0
    6.5976    9.3401   22.6478 N   0  0  0  0  0  0  0  0  0  0  0  0
   11.2031    3.0042   20.6246 C   0  0  0  0  0  0  0  0  0  0  0  0
   12.8688    7.7370   22.7287 C   0  0  0  0  0  0  0  0  0  0  0  0
    7.4487    9.1361   23.6506 C   0  0  0  0  0  0  0  0  0  0  0  0
    8.9772    2.5025   22.0273 C   0  0  0  0  0  0  0  0  0  0  0  0
   10.4859    4.0901   20.9730 C   0  0  0  0  0  0  0  0  0  0  0  0
   11.0962    9.3293   23.5072 C   0  0  0  0  0  0  0  0  0  0  0  0
    5.1273    7.8529   23.6208 N   0  0  0  0  0  0  0  0  0  0  0  0
    9.7552    9.2338   23.0171 N   0  0  0  0  0  0  0  0  0  0  0  0
   11.1797    6.7591   21.3326 N   0  0  0  0  0  0  0  0  0  0  0  0
   11.7728    8.0337   23.7267 C   0  0  0  0  0  0  0  0  0  0  0  0
    7.1194    8.3344   24.6775 C   0  0  0  0  0  0  0  0  0  0  0  0
    8.4311    4.7963   22.0500 C   0  0  0  0  0  0  0  0  0  0  0  0
    8.7393   10.8706   24.1871 O   0  0  0  0  0  0  0  0  0  0  0  0
    9.3093    3.8166   21.6712 C   0  0  0  0  0  0  0  0  0  0  0  0
  1  5  1  0
  1 15  4  0
  1 22  4  0
  2 20  1  0
  2 24  1  0
  3  6  4  0
  3 27  4  0
  4 22  4  0
  4 26  4  0
  6  7  4  0
  6 13  1  0
  7 19  4  0
  8 18  1  0
  8 23  1  0
  8 28  2  0
  9 17  1  0
  9 24  1  0
 10 11  1  0
 10 24  1  0
 11 23  1  0
 12 14  4  0
 12 16  4  0
 14 19  4  0
 15 18  4  0
 16 20  4  0
 17 25  1  0
 18 26  4  0
 19 29  4  0
 20 29  4  0
 21 23  1  0
 21 25  1  0
 27 29  4  0
M  END
$$$$

 Created by Python create_sdf_string function

 29 32  0  0  0  0  0  0  0  0999 V2000
    5.4450    8.7154   22.6662 C   0  0  0  0  0  0  0  0  0  0  0  0
   10.9154    5.4574   20.5483 C   0  0  0  0  0  0  0  0  0  0  0  0
    7.2709    4.5089   22.7542 C   0  0  0  0  0  0  0  0  0  0  0  0
    5.9698    7.6329   24.6581 C   0  0  0  0  0  0  0  0  0  0  0  0
    4.5542    8.9057   21.7104 O   0  0  0  0  0  0  0  0  0  0  0  0
    6.9895    3.2085   23.0690 C   0  0  0  0  0  0  0  0  0  0  0  0
    7.8391    2.2253   22.7260 N   0  0  0  0  0  0  0  0  0  0  0  0
    8.6968    9.8373   23.6359 C   0  0  0  0  0  0  0  0  0  0  0  0
   12.5135    6.5957   21.8396 C   0  0  0  0  0  0  0  0  0  0  0  0
   10.9406    8.2330   21.1350 C   0  0  0  0  0  0  0  0  0  0  0  0
    9.6648    8.5956   21.7310 C   0  0  0  0  0  0  0  0  0  0  0  0
   10.8829    1.7153   20.9865 C   0  0  0  0  0  0  0  0  0  0  0  0
    5.7768    2.8533   23.7910 C   0  0  0  0  0  0  0  0  0  0  0  0
    9.7977    1.4791   21.6912 N   0  0  0  0  0  0  0  0  0  0  0  0
    6.5976    9.3401   22.6478 N   0  0  0  0  0  0  0  0  0  0  0  0
   11.2031    3.0042   20.6246 C   0  0  0  0  0  0  0  0  0  0  0  0
   12.8688    7.7370   22.7287 C   0  0  0  0  0  0  0  0  0  0  0  0
    7.4487    9.1361   23.6506 C   0  0  0  0  0  0  0  0  0  0  0  0
    8.9772    2.5025   22.0273 C   0  0  0  0  0  0  0  0  0  0  0  0
   10.4859    4.0901   20.9730 C   0  0  0  0  0  0  0  0  0  0  0  0
   11.0962    9.3293   23.5072 C   0  0  0  0  0  0  0  0  0  0  0  0
    5.1273    7.8529   23.6208 N   0  0  0  0  0  0  0  0  0  0  0  0
    9.7552    9.2338   23.0171 N   0  0  0  0  0  0  0  0  0  0  0  0
   11.1797    6.7591   21.3326 N   0  0  0  0  0  0  0  0  0  0  0  0
   11.7728    8.0337   23.7267 C   0  0  0  0  0  0  0  0  0  0  0  0
    7.1194    8.3344   24.6775 C   0  0  0  0  0  0  0  0  0  0  0  0
    8.4311    4.7963   22.0500 C   0  0  0  0  0  0  0  0  0  0  0  0
    8.7393   10.8706   24.1871 O   0  0  0  0  0  0  0  0  0  0  0  0
    9.3093    3.8166   21.6712 C   0  0  0  0  0  0  0  0  0  0  0  0
  1  5  1  0
  1 15  4  0
  1 22  4  0
  2 20  1  0
  2 24  1  0
  3  6  4  0
  3 27  4  0
  4 22  4  0
  4 26  4  0
  6  7  4  0
  6 13  1  0
  7 19  4  0
  8 18  1  0
  8 23  1  0
  8 28  2  0
  9 17  1  0
  9 24  1  0
 10 11  1  0
 10 24  1  0
 11 23  1  0
 12 14  4  0
 12 16  4  0
 14 19  4  0
 15 18  4  0
 16 20  4  0
 17 25  1  0
 18 26  4  0
 19 29  4  0
 20 29  4  0
 21 23  1  0
 21 25  1  0
 27 29  4  0
M  END
$$$$

 Created by Python create_sdf_string function

 29 32  0  0  0  0  0  0  0  0999 V2000
    5.4450    8.7154   22.6662 C   0  0  0  0  0  0  0  0  0  0  0  0
   10.9154    5.4574   20.5483 C   0  0  0  0  0  0  0  0  0  0  0  0
    7.2709    4.5089   22.7542 C   0  0  0  0  0  0  0  0  0  0  0  0
    5.9698    7.6329   24.6581 C   0  0  0  0  0  0  0  0  0  0  0  0
    4.5542    8.9057   21.7104 O   0  0  0  0  0  0  0  0  0  0  0  0
    6.9895    3.2085   23.0690 C   0  0  0  0  0  0  0  0  0  0  0  0
    7.8391    2.2253   22.7260 N   0  0  0  0  0  0  0  0  0  0  0  0
    8.6968    9.8373   23.6359 C   0  0  0  0  0  0  0  0  0  0  0  0
   12.5135    6.5957   21.8396 C   0  0  0  0  0  0  0  0  0  0  0  0
   10.9406    8.2330   21.1350 C   0  0  0  0  0  0  0  0  0  0  0  0
    9.6648    8.5956   21.7310 C   0  0  0  0  0  0  0  0  0  0  0  0
   10.8829    1.7153   20.9865 C   0  0  0  0  0  0  0  0  0  0  0  0
    5.7768    2.8533   23.7910 C   0  0  0  0  0  0  0  0  0  0  0  0
    9.7977    1.4791   21.6912 N   0  0  0  0  0  0  0  0  0  0  0  0
    6.5976    9.3401   22.6478 N   0  0  0  0  0  0  0  0  0  0  0  0
   11.2031    3.0042   20.6246 C   0  0  0  0  0  0  0  0  0  0  0  0
   12.8688    7.7370   22.7287 C   0  0  0  0  0  0  0  0  0  0  0  0
    7.4487    9.1361   23.6506 C   0  0  0  0  0  0  0  0  0  0  0  0
    8.9772    2.5025   22.0273 C   0  0  0  0  0  0  0  0  0  0  0  0
   10.4859    4.0901   20.9730 C   0  0  0  0  0  0  0  0  0  0  0  0
   11.0962    9.3293   23.5072 C   0  0  0  0  0  0  0  0  0  0  0  0
    5.1273    7.8529   23.6208 N   0  0  0  0  0  0  0  0  0  0  0  0
    9.7552    9.2338   23.0171 N   0  0  0  0  0  0  0  0  0  0  0  0
   11.1797    6.7591   21.3326 N   0  0  0  0  0  0  0  0  0  0  0  0
   11.7728    8.0337   23.7267 C   0  0  0  0  0  0  0  0  0  0  0  0
    7.1194    8.3344   24.6775 C   0  0  0  0  0  0  0  0  0  0  0  0
    8.4311    4.7963   22.0500 C   0  0  0  0  0  0  0  0  0  0  0  0
    8.7393   10.8706   24.1871 O   0  0  0  0  0  0  0  0  0  0  0  0
    9.3093    3.8166   21.6712 C   0  0  0  0  0  0  0  0  0  0  0  0
  1  5  1  0
  1 15  4  0
  1 22  4  0
  2 20  1  0
  2 24  1  0
  3  6  4  0
  3 27  4  0
  4 22  4  0
  4 26  4  0
  6  7  4  0
  6 13  1  0
  7 19  4  0
  8 18  1  0
  8 23  1  0
  8 28  2  0
  9 17  1  0
  9 24  1  0
 10 11  1  0
 10 24  1  0
 11 23  1  0
 12 14  4  0
 12 16  4  0
 14 19  4  0
 15 18  4  0
 16 20  4  0
 17 25  1  0
 18 26  4  0
 19 29  4  0
 20 29  4  0
 21 23  1  0
 21 25  1  0
 27 29  4  0
M  END
$$$$

 Created by Python create_sdf_string function

 29 32  0  0  0  0  0  0  0  0999 V2000
    5.4450    8.7154   22.6662 C   0  0  0  0  0  0  0  0  0  0  0  0
   10.9154    5.4574   20.5483 C   0  0  0  0  0  0  0  0  0  0  0  0
    7.2709    4.5089   22.7542 C   0  0  0  0  0  0  0  0  0  0  0  0
    5.9698    7.6329   24.6581 C   0  0  0  0  0  0  0  0  0  0  0  0
    4.5542    8.9057   21.7104 O   0  0  0  0  0  0  0  0  0  0  0  0
    6.9895    3.2085   23.0690 C   0  0  0  0  0  0  0  0  0  0  0  0
    7.8391    2.2253   22.7260 N   0  0  0  0  0  0  0  0  0  0  0  0
    8.6968    9.8373   23.6359 C   0  0  0  0  0  0  0  0  0  0  0  0
   12.5135    6.5957   21.8396 C   0  0  0  0  0  0  0  0  0  0  0  0
   10.9406    8.2330   21.1350 C   0  0  0  0  0  0  0  0  0  0  0  0
    9.6648    8.5956   21.7310 C   0  0  0  0  0  0  0  0  0  0  0  0
   10.8829    1.7153   20.9865 C   0  0  0  0  0  0  0  0  0  0  0  0
    5.7768    2.8533   23.7910 C   0  0  0  0  0  0  0  0  0  0  0  0
    9.7977    1.4791   21.6912 N   0  0  0  0  0  0  0  0  0  0  0  0
    6.5976    9.3401   22.6478 N   0  0  0  0  0  0  0  0  0  0  0  0
   11.2031    3.0042   20.6246 C   0  0  0  0  0  0  0  0  0  0  0  0
   12.8688    7.7370   22.7287 C   0  0  0  0  0  0  0  0  0  0  0  0
    7.4487    9.1361   23.6506 C   0  0  0  0  0  0  0  0  0  0  0  0
    8.9772    2.5025   22.0273 C   0  0  0  0  0  0  0  0  0  0  0  0
   10.4859    4.0901   20.9730 C   0  0  0  0  0  0  0  0  0  0  0  0
   11.0962    9.3293   23.5072 C   0  0  0  0  0  0  0  0  0  0  0  0
    5.1273    7.8529   23.6208 N   0  0  0  0  0  0  0  0  0  0  0  0
    9.7552    9.2338   23.0171 N   0  0  0  0  0  0  0  0  0  0  0  0
   11.1797    6.7591   21.3326 N   0  0  0  0  0  0  0  0  0  0  0  0
   11.7728    8.0337   23.7267 C   0  0  0  0  0  0  0  0  0  0  0  0
    7.1194    8.3344   24.6775 C   0  0  0  0  0  0  0  0  0  0  0  0
    8.4311    4.7963   22.0500 C   0  0  0  0  0  0  0  0  0  0  0  0
    8.7393   10.8706   24.1871 O   0  0  0  0  0  0  0  0  0  0  0  0
    9.3093    3.8166   21.6712 C   0  0  0  0  0  0  0  0  0  0  0  0
  1  5  1  0
  1 15  4  0
  1 22  4  0
  2 20  1  0
  2 24  1  0
  3  6  4  0
  3 27  4  0
  4 22  4  0
  4 26  4  0
  6  7  4  0
  6 13  1  0
  7 19  4  0
  8 18  1  0
  8 23  1  0
  8 28  2  0
  9 17  1  0
  9 24  1  0
 10 11  1  0
 10 24  1  0
 11 23  1  0
 12 14  4  0
 12 16  4  0
 14 19  4  0
 15 18  4  0
 16 20  4  0
 17 25  1  0
 18 26  4  0
 19 29  4  0
 20 29  4  0
 21 23  1  0
 21 25  1  0
 27 29  4  0
M  END
$$$$

 Created by Python create_sdf_string function

 29 32  0  0  0  0  0  0  0  0999 V2000
    5.4450    8.7154   22.6662 C   0  0  0  0  0  0  0  0  0  0  0  0
   10.9154    5.4574   20.5483 C   0  0  0  0  0  0  0  0  0  0  0  0
    7.2709    4.5089   22.7542 C   0  0  0  0  0  0  0  0  0  0  0  0
    5.9698    7.6329   24.6581 C   0  0  0  0  0  0  0  0  0  0  0  0
    4.5542    8.9057   21.7104 O   0  0  0  0  0  0  0  0  0  0  0  0
    6.9895    3.2085   23.0690 C   0  0  0  0  0  0  0  0  0  0  0  0
    7.8391    2.2253   22.7260 N   0  0  0  0  0  0  0  0  0  0  0  0
    8.6968    9.8373   23.6359 C   0  0  0  0  0  0  0  0  0  0  0  0
   12.5135    6.5957   21.8396 C   0  0  0  0  0  0  0  0  0  0  0  0
   10.9406    8.2330   21.1350 C   0  0  0  0  0  0  0  0  0  0  0  0
    9.6648    8.5956   21.7310 C   0  0  0  0  0  0  0  0  0  0  0  0
   10.8829    1.7153   20.9865 C   0  0  0  0  0  0  0  0  0  0  0  0
    5.7768    2.8533   23.7910 C   0  0  0  0  0  0  0  0  0  0  0  0
    9.7977    1.4791   21.6912 N   0  0  0  0  0  0  0  0  0  0  0  0
    6.5976    9.3401   22.6478 N   0  0  0  0  0  0  0  0  0  0  0  0
   11.2031    3.0042   20.6246 C   0  0  0  0  0  0  0  0  0  0  0  0
   12.8688    7.7370   22.7287 C   0  0  0  0  0  0  0  0  0  0  0  0
    7.4487    9.1361   23.6506 C   0  0  0  0  0  0  0  0  0  0  0  0
    8.9772    2.5025   22.0273 C   0  0  0  0  0  0  0  0  0  0  0  0
   10.4859    4.0901   20.9730 C   0  0  0  0  0  0  0  0  0  0  0  0
   11.0962    9.3293   23.5072 C   0  0  0  0  0  0  0  0  0  0  0  0
    5.1273    7.8529   23.6208 N   0  0  0  0  0  0  0  0  0  0  0  0
    9.7552    9.2338   23.0171 N   0  0  0  0  0  0  0  0  0  0  0  0
   11.1797    6.7591   21.3326 N   0  0  0  0  0  0  0  0  0  0  0  0
   11.7728    8.0337   23.7267 C   0  0  0  0  0  0  0  0  0  0  0  0
    7.1194    8.3344   24.6775 C   0  0  0  0  0  0  0  0  0  0  0  0
    8.4311    4.7963   22.0500 C   0  0  0  0  0  0  0  0  0  0  0  0
    8.7393   10.8706   24.1871 O   0  0  0  0  0  0  0  0  0  0  0  0
    9.3093    3.8166   21.6712 C   0  0  0  0  0  0  0  0  0  0  0  0
  1  5  1  0
  1 15  4  0
  1 22  4  0
  2 20  1  0
  2 24  1  0
  3  6  4  0
  3 27  4  0
  4 22  4  0
  4 26  4  0
  6  7  4  0
  6 13  1  0
  7 19  4  0
  8 18  1  0
  8 23  1  0
  8 28  2  0
  9 17  1  0
  9 24  1  0
 10 11  1  0
 10 24  1  0
 11 23  1  0
 12 14  4  0
 12 16  4  0
 14 19  4  0
 15 18  4  0
 16 20  4  0
 17 25  1  0
 18 26  4  0
 19 29  4  0
 20 29  4  0
 21 23  1  0
 21 25  1  0
 27 29  4  0
M  END
$$$$

 Created by Python create_sdf_string function

 29 32  0  0  0  0  0  0  0  0999 V2000
    5.4450    8.7154   22.6662 C   0  0  0  0  0  0  0  0  0  0  0  0
   10.9154    5.4574   20.5483 C   0  0  0  0  0  0  0  0  0  0  0  0
    7.2709    4.5089   22.7542 C   0  0  0  0  0  0  0  0  0  0  0  0
    5.9698    7.6329   24.6581 C   0  0  0  0  0  0  0  0  0  0  0  0
    4.5542    8.9057   21.7104 O   0  0  0  0  0  0  0  0  0  0  0  0
    6.9895    3.2085   23.0690 C   0  0  0  0  0  0  0  0  0  0  0  0
    7.8391    2.2253   22.7260 N   0  0  0  0  0  0  0  0  0  0  0  0
    8.6968    9.8373   23.6359 C   0  0  0  0  0  0  0  0  0  0  0  0
   12.5135    6.5957   21.8396 C   0  0  0  0  0  0  0  0  0  0  0  0
   10.9406    8.2330   21.1350 C   0  0  0  0  0  0  0  0  0  0  0  0
    9.6648    8.5956   21.7310 C   0  0  0  0  0  0  0  0  0  0  0  0
   10.8829    1.7153   20.9865 C   0  0  0  0  0  0  0  0  0  0  0  0
    5.7768    2.8533   23.7910 C   0  0  0  0  0  0  0  0  0  0  0  0
    9.7977    1.4791   21.6912 N   0  0  0  0  0  0  0  0  0  0  0  0
    6.5976    9.3401   22.6478 N   0  0  0  0  0  0  0  0  0  0  0  0
   11.2031    3.0042   20.6246 C   0  0  0  0  0  0  0  0  0  0  0  0
   12.8688    7.7370   22.7287 C   0  0  0  0  0  0  0  0  0  0  0  0
    7.4487    9.1361   23.6506 C   0  0  0  0  0  0  0  0  0  0  0  0
    8.9772    2.5025   22.0273 C   0  0  0  0  0  0  0  0  0  0  0  0
   10.4859    4.0901   20.9730 C   0  0  0  0  0  0  0  0  0  0  0  0
   11.0962    9.3293   23.5072 C   0  0  0  0  0  0  0  0  0  0  0  0
    5.1273    7.8529   23.6208 N   0  0  0  0  0  0  0  0  0  0  0  0
    9.7552    9.2338   23.0171 N   0  0  0  0  0  0  0  0  0  0  0  0
   11.1797    6.7591   21.3326 N   0  0  0  0  0  0  0  0  0  0  0  0
   11.7728    8.0337   23.7267 C   0  0  0  0  0  0  0  0  0  0  0  0
    7.1194    8.3344   24.6775 C   0  0  0  0  0  0  0  0  0  0  0  0
    8.4311    4.7963   22.0500 C   0  0  0  0  0  0  0  0  0  0  0  0
    8.7393   10.8706   24.1871 O   0  0  0  0  0  0  0  0  0  0  0  0
    9.3093    3.8166   21.6712 C   0  0  0  0  0  0  0  0  0  0  0  0
  1  5  1  0
  1 15  4  0
  1 22  4  0
  2 20  1  0
  2 24  1  0
  3  6  4  0
  3 27  4  0
  4 22  4  0
  4 26  4  0
  6  7  4  0
  6 13  1  0
  7 19  4  0
  8 18  1  0
  8 23  1  0
  8 28  2  0
  9 17  1  0
  9 24  1  0
 10 11  1  0
 10 24  1  0
 11 23  1  0
 12 14  4  0
 12 16  4  0
 14 19  4  0
 15 18  4  0
 16 20  4  0
 17 25  1  0
 18 26  4  0
 19 29  4  0
 20 29  4  0
 21 23  1  0
 21 25  1  0
 27 29  4  0
M  END
$$$$

 Created by Python create_sdf_string function

 29 32  0  0  0  0  0  0  0  0999 V2000
    5.4450    8.7154   22.6662 C   0  0  0  0  0  0  0  0  0  0  0  0
   10.9154    5.4574   20.5483 C   0  0  0  0  0  0  0  0  0  0  0  0
    7.2709    4.5089   22.7542 C   0  0  0  0  0  0  0  0  0  0  0  0
    5.9698    7.6329   24.6581 C   0  0  0  0  0  0  0  0  0  0  0  0
    4.5542    8.9057   21.7104 O   0  0  0  0  0  0  0  0  0  0  0  0
    6.9895    3.2085   23.0690 C   0  0  0  0  0  0  0  0  0  0  0  0
    7.8391    2.2253   22.7260 N   0  0  0  0  0  0  0  0  0  0  0  0
    8.6968    9.8373   23.6359 C   0  0  0  0  0  0  0  0  0  0  0  0
   12.5135    6.5957   21.8396 C   0  0  0  0  0  0  0  0  0  0  0  0
   10.9406    8.2330   21.1350 C   0  0  0  0  0  0  0  0  0  0  0  0
    9.6648    8.5956   21.7310 C   0  0  0  0  0  0  0  0  0  0  0  0
   10.8829    1.7153   20.9865 C   0  0  0  0  0  0  0  0  0  0  0  0
    5.7768    2.8533   23.7910 C   0  0  0  0  0  0  0  0  0  0  0  0
    9.7977    1.4791   21.6912 N   0  0  0  0  0  0  0  0  0  0  0  0
    6.5976    9.3401   22.6478 N   0  0  0  0  0  0  0  0  0  0  0  0
   11.2031    3.0042   20.6246 C   0  0  0  0  0  0  0  0  0  0  0  0
   12.8688    7.7370   22.7287 C   0  0  0  0  0  0  0  0  0  0  0  0
    7.4487    9.1361   23.6506 C   0  0  0  0  0  0  0  0  0  0  0  0
    8.9772    2.5025   22.0273 C   0  0  0  0  0  0  0  0  0  0  0  0
   10.4859    4.0901   20.9730 C   0  0  0  0  0  0  0  0  0  0  0  0
   11.0962    9.3293   23.5072 C   0  0  0  0  0  0  0  0  0  0  0  0
    5.1273    7.8529   23.6208 N   0  0  0  0  0  0  0  0  0  0  0  0
    9.7552    9.2338   23.0171 N   0  0  0  0  0  0  0  0  0  0  0  0
   11.1797    6.7591   21.3326 N   0  0  0  0  0  0  0  0  0  0  0  0
   11.7728    8.0337   23.7267 C   0  0  0  0  0  0  0  0  0  0  0  0
    7.1194    8.3344   24.6775 C   0  0  0  0  0  0  0  0  0  0  0  0
    8.4311    4.7963   22.0500 C   0  0  0  0  0  0  0  0  0  0  0  0
    8.7393   10.8706   24.1871 O   0  0  0  0  0  0  0  0  0  0  0  0
    9.3093    3.8166   21.6712 C   0  0  0  0  0  0  0  0  0  0  0  0
  1  5  1  0
  1 15  4  0
  1 22  4  0
  2 20  1  0
  2 24  1  0
  3  6  4  0
  3 27  4  0
  4 22  4  0
  4 26  4  0
  6  7  4  0
  6 13  1  0
  7 19  4  0
  8 18  1  0
  8 23  1  0
  8 28  2  0
  9 17  1  0
  9 24  1  0
 10 11  1  0
 10 24  1  0
 11 23  1  0
 12 14  4  0
 12 16  4  0
 14 19  4  0
 15 18  4  0
 16 20  4  0
 17 25  1  0
 18 26  4  0
 19 29  4  0
 20 29  4  0
 21 23  1  0
 21 25  1  0
 27 29  4  0
M  END
$$$$

 Created by Python create_sdf_string function

 29 32  0  0  0  0  0  0  0  0999 V2000
    5.4450    8.7154   22.6662 C   0  0  0  0  0  0  0  0  0  0  0  0
   10.9154    5.4574   20.5483 C   0  0  0  0  0  0  0  0  0  0  0  0
    7.2709    4.5089   22.7542 C   0  0  0  0  0  0  0  0  0  0  0  0
    5.9698    7.6329   24.6581 C   0  0  0  0  0  0  0  0  0  0  0  0
    4.5542    8.9057   21.7104 O   0  0  0  0  0  0  0  0  0  0  0  0
    6.9895    3.2085   23.0690 C   0  0  0  0  0  0  0  0  0  0  0  0
    7.8391    2.2253   22.7260 N   0  0  0  0  0  0  0  0  0  0  0  0
    8.6968    9.8373   23.6359 C   0  0  0  0  0  0  0  0  0  0  0  0
   12.5135    6.5957   21.8396 C   0  0  0  0  0  0  0  0  0  0  0  0
   10.9406    8.2330   21.1350 C   0  0  0  0  0  0  0  0  0  0  0  0
    9.6648    8.5956   21.7310 C   0  0  0  0  0  0  0  0  0  0  0  0
   10.8829    1.7153   20.9865 C   0  0  0  0  0  0  0  0  0  0  0  0
    5.7768    2.8533   23.7910 C   0  0  0  0  0  0  0  0  0  0  0  0
    9.7977    1.4791   21.6912 N   0  0  0  0  0  0  0  0  0  0  0  0
    6.5976    9.3401   22.6478 N   0  0  0  0  0  0  0  0  0  0  0  0
   11.2031    3.0042   20.6246 C   0  0  0  0  0  0  0  0  0  0  0  0
   12.8688    7.7370   22.7287 C   0  0  0  0  0  0  0  0  0  0  0  0
    7.4487    9.1361   23.6506 C   0  0  0  0  0  0  0  0  0  0  0  0
    8.9772    2.5025   22.0273 C   0  0  0  0  0  0  0  0  0  0  0  0
   10.4859    4.0901   20.9730 C   0  0  0  0  0  0  0  0  0  0  0  0
   11.0962    9.3293   23.5072 C   0  0  0  0  0  0  0  0  0  0  0  0
    5.1273    7.8529   23.6208 N   0  0  0  0  0  0  0  0  0  0  0  0
    9.7552    9.2338   23.0171 N   0  0  0  0  0  0  0  0  0  0  0  0
   11.1797    6.7591   21.3326 N   0  0  0  0  0  0  0  0  0  0  0  0
   11.7728    8.0337   23.7267 C   0  0  0  0  0  0  0  0  0  0  0  0
    7.1194    8.3344   24.6775 C   0  0  0  0  0  0  0  0  0  0  0  0
    8.4311    4.7963   22.0500 C   0  0  0  0  0  0  0  0  0  0  0  0
    8.7393   10.8706   24.1871 O   0  0  0  0  0  0  0  0  0  0  0  0
    9.3093    3.8166   21.6712 C   0  0  0  0  0  0  0  0  0  0  0  0
  1  5  1  0
  1 15  4  0
  1 22  4  0
  2 20  1  0
  2 24  1  0
  3  6  4  0
  3 27  4  0
  4 22  4  0
  4 26  4  0
  6  7  4  0
  6 13  1  0
  7 19  4  0
  8 18  1  0
  8 23  1  0
  8 28  2  0
  9 17  1  0
  9 24  1  0
 10 11  1  0
 10 24  1  0
 11 23  1  0
 12 14  4  0
 12 16  4  0
 14 19  4  0
 15 18  4  0
 16 20  4  0
 17 25  1  0
 18 26  4  0
 19 29  4  0
 20 29  4  0
 21 23  1  0
 21 25  1  0
 27 29  4  0
M  END
$$$$

 Created by Python create_sdf_string function

 29 32  0  0  0  0  0  0  0  0999 V2000
    5.4450    8.7154   22.6662 C   0  0  0  0  0  0  0  0  0  0  0  0
   10.9154    5.4574   20.5483 C   0  0  0  0  0  0  0  0  0  0  0  0
    7.2709    4.5089   22.7542 C   0  0  0  0  0  0  0  0  0  0  0  0
    5.9698    7.6329   24.6581 C   0  0  0  0  0  0  0  0  0  0  0  0
    4.5542    8.9057   21.7104 O   0  0  0  0  0  0  0  0  0  0  0  0
    6.9895    3.2085   23.0690 C   0  0  0  0  0  0  0  0  0  0  0  0
    7.8391    2.2253   22.7260 N   0  0  0  0  0  0  0  0  0  0  0  0
    8.6968    9.8373   23.6359 C   0  0  0  0  0  0  0  0  0  0  0  0
   12.5135    6.5957   21.8396 C   0  0  0  0  0  0  0  0  0  0  0  0
   10.9406    8.2330   21.1350 C   0  0  0  0  0  0  0  0  0  0  0  0
    9.6648    8.5956   21.7310 C   0  0  0  0  0  0  0  0  0  0  0  0
   10.8829    1.7153   20.9865 C   0  0  0  0  0  0  0  0  0  0  0  0
    5.7768    2.8533   23.7910 C   0  0  0  0  0  0  0  0  0  0  0  0
    9.7977    1.4791   21.6912 N   0  0  0  0  0  0  0  0  0  0  0  0
    6.5976    9.3401   22.6478 N   0  0  0  0  0  0  0  0  0  0  0  0
   11.2031    3.0042   20.6246 C   0  0  0  0  0  0  0  0  0  0  0  0
   12.8688    7.7370   22.7287 C   0  0  0  0  0  0  0  0  0  0  0  0
    7.4487    9.1361   23.6506 C   0  0  0  0  0  0  0  0  0  0  0  0
    8.9772    2.5025   22.0273 C   0  0  0  0  0  0  0  0  0  0  0  0
   10.4859    4.0901   20.9730 C   0  0  0  0  0  0  0  0  0  0  0  0
   11.0962    9.3293   23.5072 C   0  0  0  0  0  0  0  0  0  0  0  0
    5.1273    7.8529   23.6208 N   0  0  0  0  0  0  0  0  0  0  0  0
    9.7552    9.2338   23.0171 N   0  0  0  0  0  0  0  0  0  0  0  0
   11.1797    6.7591   21.3326 N   0  0  0  0  0  0  0  0  0  0  0  0
   11.7728    8.0337   23.7267 C   0  0  0  0  0  0  0  0  0  0  0  0
    7.1194    8.3344   24.6775 C   0  0  0  0  0  0  0  0  0  0  0  0
    8.4311    4.7963   22.0500 C   0  0  0  0  0  0  0  0  0  0  0  0
    8.7393   10.8706   24.1871 O   0  0  0  0  0  0  0  0  0  0  0  0
    9.3093    3.8166   21.6712 C   0  0  0  0  0  0  0  0  0  0  0  0
  1  5  1  0
  1 15  4  0
  1 22  4  0
  2 20  1  0
  2 24  1  0
  3  6  4  0
  3 27  4  0
  4 22  4  0
  4 26  4  0
  6  7  4  0
  6 13  1  0
  7 19  4  0
  8 18  1  0
  8 23  1  0
  8 28  2  0
  9 17  1  0
  9 24  1  0
 10 11  1  0
 10 24  1  0
 11 23  1  0
 12 14  4  0
 12 16  4  0
 14 19  4  0
 15 18  4  0
 16 20  4  0
 17 25  1  0
 18 26  4  0
 19 29  4  0
 20 29  4  0
 21 23  1  0
 21 25  1  0
 27 29  4  0
M  END
$$$$

 Created by Python create_sdf_string function

 29 32  0  0  0  0  0  0  0  0999 V2000
    5.4450    8.7154   22.6662 C   0  0  0  0  0  0  0  0  0  0  0  0
   10.9154    5.4574   20.5483 C   0  0  0  0  0  0  0  0  0  0  0  0
    7.2709    4.5089   22.7542 C   0  0  0  0  0  0  0  0  0  0  0  0
    5.9698    7.6329   24.6581 C   0  0  0  0  0  0  0  0  0  0  0  0
    4.5542    8.9057   21.7104 O   0  0  0  0  0  0  0  0  0  0  0  0
    6.9895    3.2085   23.0690 C   0  0  0  0  0  0  0  0  0  0  0  0
    7.8391    2.2253   22.7260 N   0  0  0  0  0  0  0  0  0  0  0  0
    8.6968    9.8373   23.6359 C   0  0  0  0  0  0  0  0  0  0  0  0
   12.5135    6.5957   21.8396 C   0  0  0  0  0  0  0  0  0  0  0  0
   10.9406    8.2330   21.1350 C   0  0  0  0  0  0  0  0  0  0  0  0
    9.6648    8.5956   21.7310 C   0  0  0  0  0  0  0  0  0  0  0  0
   10.8829    1.7153   20.9865 C   0  0  0  0  0  0  0  0  0  0  0  0
    5.7768    2.8533   23.7910 C   0  0  0  0  0  0  0  0  0  0  0  0
    9.7977    1.4791   21.6912 N   0  0  0  0  0  0  0  0  0  0  0  0
    6.5976    9.3401   22.6478 N   0  0  0  0  0  0  0  0  0  0  0  0
   11.2031    3.0042   20.6246 C   0  0  0  0  0  0  0  0  0  0  0  0
   12.8688    7.7370   22.7287 C   0  0  0  0  0  0  0  0  0  0  0  0
    7.4487    9.1361   23.6506 C   0  0  0  0  0  0  0  0  0  0  0  0
    8.9772    2.5025   22.0273 C   0  0  0  0  0  0  0  0  0  0  0  0
   10.4859    4.0901   20.9730 C   0  0  0  0  0  0  0  0  0  0  0  0
   11.0962    9.3293   23.5072 C   0  0  0  0  0  0  0  0  0  0  0  0
    5.1273    7.8529   23.6208 N   0  0  0  0  0  0  0  0  0  0  0  0
    9.7552    9.2338   23.0171 N   0  0  0  0  0  0  0  0  0  0  0  0
   11.1797    6.7591   21.3326 N   0  0  0  0  0  0  0  0  0  0  0  0
   11.7728    8.0337   23.7267 C   0  0  0  0  0  0  0  0  0  0  0  0
    7.1194    8.3344   24.6775 C   0  0  0  0  0  0  0  0  0  0  0  0
    8.4311    4.7963   22.0500 C   0  0  0  0  0  0  0  0  0  0  0  0
    8.7393   10.8706   24.1871 O   0  0  0  0  0  0  0  0  0  0  0  0
    9.3093    3.8166   21.6712 C   0  0  0  0  0  0  0  0  0  0  0  0
  1  5  1  0
  1 15  4  0
  1 22  4  0
  2 20  1  0
  2 24  1  0
  3  6  4  0
  3 27  4  0
  4 22  4  0
  4 26  4  0
  6  7  4  0
  6 13  1  0
  7 19  4  0
  8 18  1  0
  8 23  1  0
  8 28  2  0
  9 17  1  0
  9 24  1  0
 10 11  1  0
 10 24  1  0
 11 23  1  0
 12 14  4  0
 12 16  4  0
 14 19  4  0
 15 18  4  0
 16 20  4  0
 17 25  1  0
 18 26  4  0
 19 29  4  0
 20 29  4  0
 21 23  1  0
 21 25  1  0
 27 29  4  0
M  END
$$$$

 Created by Python create_sdf_string function

 29 32  0  0  0  0  0  0  0  0999 V2000
    5.4450    8.7154   22.6662 C   0  0  0  0  0  0  0  0  0  0  0  0
   10.9154    5.4574   20.5483 C   0  0  0  0  0  0  0  0  0  0  0  0
    7.2709    4.5089   22.7542 C   0  0  0  0  0  0  0  0  0  0  0  0
    5.9698    7.6329   24.6581 C   0  0  0  0  0  0  0  0  0  0  0  0
    4.5542    8.9057   21.7104 O   0  0  0  0  0  0  0  0  0  0  0  0
    6.9895    3.2085   23.0690 C   0  0  0  0  0  0  0  0  0  0  0  0
    7.8391    2.2253   22.7260 N   0  0  0  0  0  0  0  0  0  0  0  0
    8.6968    9.8373   23.6359 C   0  0  0  0  0  0  0  0  0  0  0  0
   12.5135    6.5957   21.8396 C   0  0  0  0  0  0  0  0  0  0  0  0
   10.9406    8.2330   21.1350 C   0  0  0  0  0  0  0  0  0  0  0  0
    9.6648    8.5956   21.7310 C   0  0  0  0  0  0  0  0  0  0  0  0
   10.8829    1.7153   20.9865 C   0  0  0  0  0  0  0  0  0  0  0  0
    5.7768    2.8533   23.7910 C   0  0  0  0  0  0  0  0  0  0  0  0
    9.7977    1.4791   21.6912 N   0  0  0  0  0  0  0  0  0  0  0  0
    6.5976    9.3401   22.6478 N   0  0  0  0  0  0  0  0  0  0  0  0
   11.2031    3.0042   20.6246 C   0  0  0  0  0  0  0  0  0  0  0  0
   12.8688    7.7370   22.7287 C   0  0  0  0  0  0  0  0  0  0  0  0
    7.4487    9.1361   23.6506 C   0  0  0  0  0  0  0  0  0  0  0  0
    8.9772    2.5025   22.0273 C   0  0  0  0  0  0  0  0  0  0  0  0
   10.4859    4.0901   20.9730 C   0  0  0  0  0  0  0  0  0  0  0  0
   11.0962    9.3293   23.5072 C   0  0  0  0  0  0  0  0  0  0  0  0
    5.1273    7.8529   23.6208 N   0  0  0  0  0  0  0  0  0  0  0  0
    9.7552    9.2338   23.0171 N   0  0  0  0  0  0  0  0  0  0  0  0
   11.1797    6.7591   21.3326 N   0  0  0  0  0  0  0  0  0  0  0  0
   11.7728    8.0337   23.7267 C   0  0  0  0  0  0  0  0  0  0  0  0
    7.1194    8.3344   24.6775 C   0  0  0  0  0  0  0  0  0  0  0  0
    8.4311    4.7963   22.0500 C   0  0  0  0  0  0  0  0  0  0  0  0
    8.7393   10.8706   24.1871 O   0  0  0  0  0  0  0  0  0  0  0  0
    9.3093    3.8166   21.6712 C   0  0  0  0  0  0  0  0  0  0  0  0
  1  5  1  0
  1 15  4  0
  1 22  4  0
  2 20  1  0
  2 24  1  0
  3  6  4  0
  3 27  4  0
  4 22  4  0
  4 26  4  0
  6  7  4  0
  6 13  1  0
  7 19  4  0
  8 18  1  0
  8 23  1  0
  8 28  2  0
  9 17  1  0
  9 24  1  0
 10 11  1  0
 10 24  1  0
 11 23  1  0
 12 14  4  0
 12 16  4  0
 14 19  4  0
 15 18  4  0
 16 20  4  0
 17 25  1  0
 18 26  4  0
 19 29  4  0
 20 29  4  0
 21 23  1  0
 21 25  1  0
 27 29  4  0
M  END
$$$$

 Created by Python create_sdf_string function

 29 32  0  0  0  0  0  0  0  0999 V2000
    5.4450    8.7154   22.6662 C   0  0  0  0  0  0  0  0  0  0  0  0
   10.9154    5.4574   20.5483 C   0  0  0  0  0  0  0  0  0  0  0  0
    7.2709    4.5089   22.7542 C   0  0  0  0  0  0  0  0  0  0  0  0
    5.9698    7.6329   24.6581 C   0  0  0  0  0  0  0  0  0  0  0  0
    4.5542    8.9057   21.7104 O   0  0  0  0  0  0  0  0  0  0  0  0
    6.9895    3.2085   23.0690 C   0  0  0  0  0  0  0  0  0  0  0  0
    7.8391    2.2253   22.7260 N   0  0  0  0  0  0  0  0  0  0  0  0
    8.6968    9.8373   23.6359 C   0  0  0  0  0  0  0  0  0  0  0  0
   12.5135    6.5957   21.8396 C   0  0  0  0  0  0  0  0  0  0  0  0
   10.9406    8.2330   21.1350 C   0  0  0  0  0  0  0  0  0  0  0  0
    9.6648    8.5956   21.7310 C   0  0  0  0  0  0  0  0  0  0  0  0
   10.8829    1.7153   20.9865 C   0  0  0  0  0  0  0  0  0  0  0  0
    5.7768    2.8533   23.7910 C   0  0  0  0  0  0  0  0  0  0  0  0
    9.7977    1.4791   21.6912 N   0  0  0  0  0  0  0  0  0  0  0  0
    6.5976    9.3401   22.6478 N   0  0  0  0  0  0  0  0  0  0  0  0
   11.2031    3.0042   20.6246 C   0  0  0  0  0  0  0  0  0  0  0  0
   12.8688    7.7370   22.7287 C   0  0  0  0  0  0  0  0  0  0  0  0
    7.4487    9.1361   23.6506 C   0  0  0  0  0  0  0  0  0  0  0  0
    8.9772    2.5025   22.0273 C   0  0  0  0  0  0  0  0  0  0  0  0
   10.4859    4.0901   20.9730 C   0  0  0  0  0  0  0  0  0  0  0  0
   11.0962    9.3293   23.5072 C   0  0  0  0  0  0  0  0  0  0  0  0
    5.1273    7.8529   23.6208 N   0  0  0  0  0  0  0  0  0  0  0  0
    9.7552    9.2338   23.0171 N   0  0  0  0  0  0  0  0  0  0  0  0
   11.1797    6.7591   21.3326 N   0  0  0  0  0  0  0  0  0  0  0  0
   11.7728    8.0337   23.7267 C   0  0  0  0  0  0  0  0  0  0  0  0
    7.1194    8.3344   24.6775 C   0  0  0  0  0  0  0  0  0  0  0  0
    8.4311    4.7963   22.0500 C   0  0  0  0  0  0  0  0  0  0  0  0
    8.7393   10.8706   24.1871 O   0  0  0  0  0  0  0  0  0  0  0  0
    9.3093    3.8166   21.6712 C   0  0  0  0  0  0  0  0  0  0  0  0
  1  5  1  0
  1 15  4  0
  1 22  4  0
  2 20  1  0
  2 24  1  0
  3  6  4  0
  3 27  4  0
  4 22  4  0
  4 26  4  0
  6  7  4  0
  6 13  1  0
  7 19  4  0
  8 18  1  0
  8 23  1  0
  8 28  2  0
  9 17  1  0
  9 24  1  0
 10 11  1  0
 10 24  1  0
 11 23  1  0
 12 14  4  0
 12 16  4  0
 14 19  4  0
 15 18  4  0
 16 20  4  0
 17 25  1  0
 18 26  4  0
 19 29  4  0
 20 29  4  0
 21 23  1  0
 21 25  1  0
 27 29  4  0
M  END
$$$$

 Created by Python create_sdf_string function

 29 32  0  0  0  0  0  0  0  0999 V2000
    5.4450    8.7154   22.6662 C   0  0  0  0  0  0  0  0  0  0  0  0
   10.9154    5.4574   20.5483 C   0  0  0  0  0  0  0  0  0  0  0  0
    7.2709    4.5089   22.7542 C   0  0  0  0  0  0  0  0  0  0  0  0
    5.9698    7.6329   24.6581 C   0  0  0  0  0  0  0  0  0  0  0  0
    4.5542    8.9057   21.7104 O   0  0  0  0  0  0  0  0  0  0  0  0
    6.9895    3.2085   23.0690 C   0  0  0  0  0  0  0  0  0  0  0  0
    7.8391    2.2253   22.7260 N   0  0  0  0  0  0  0  0  0  0  0  0
    8.6968    9.8373   23.6359 C   0  0  0  0  0  0  0  0  0  0  0  0
   12.5135    6.5957   21.8396 C   0  0  0  0  0  0  0  0  0  0  0  0
   10.9406    8.2330   21.1350 C   0  0  0  0  0  0  0  0  0  0  0  0
    9.6648    8.5956   21.7310 C   0  0  0  0  0  0  0  0  0  0  0  0
   10.8829    1.7153   20.9865 C   0  0  0  0  0  0  0  0  0  0  0  0
    5.7768    2.8533   23.7910 C   0  0  0  0  0  0  0  0  0  0  0  0
    9.7977    1.4791   21.6912 N   0  0  0  0  0  0  0  0  0  0  0  0
    6.5976    9.3401   22.6478 N   0  0  0  0  0  0  0  0  0  0  0  0
   11.2031    3.0042   20.6246 C   0  0  0  0  0  0  0  0  0  0  0  0
   12.8688    7.7370   22.7287 C   0  0  0  0  0  0  0  0  0  0  0  0
    7.4487    9.1361   23.6506 C   0  0  0  0  0  0  0  0  0  0  0  0
    8.9772    2.5025   22.0273 C   0  0  0  0  0  0  0  0  0  0  0  0
   10.4859    4.0901   20.9730 C   0  0  0  0  0  0  0  0  0  0  0  0
   11.0962    9.3293   23.5072 C   0  0  0  0  0  0  0  0  0  0  0  0
    5.1273    7.8529   23.6208 N   0  0  0  0  0  0  0  0  0  0  0  0
    9.7552    9.2338   23.0171 N   0  0  0  0  0  0  0  0  0  0  0  0
   11.1797    6.7591   21.3326 N   0  0  0  0  0  0  0  0  0  0  0  0
   11.7728    8.0337   23.7267 C   0  0  0  0  0  0  0  0  0  0  0  0
    7.1194    8.3344   24.6775 C   0  0  0  0  0  0  0  0  0  0  0  0
    8.4311    4.7963   22.0500 C   0  0  0  0  0  0  0  0  0  0  0  0
    8.7393   10.8706   24.1871 O   0  0  0  0  0  0  0  0  0  0  0  0
    9.3093    3.8166   21.6712 C   0  0  0  0  0  0  0  0  0  0  0  0
  1  5  1  0
  1 15  4  0
  1 22  4  0
  2 20  1  0
  2 24  1  0
  3  6  4  0
  3 27  4  0
  4 22  4  0
  4 26  4  0
  6  7  4  0
  6 13  1  0
  7 19  4  0
  8 18  1  0
  8 23  1  0
  8 28  2  0
  9 17  1  0
  9 24  1  0
 10 11  1  0
 10 24  1  0
 11 23  1  0
 12 14  4  0
 12 16  4  0
 14 19  4  0
 15 18  4  0
 16 20  4  0
 17 25  1  0
 18 26  4  0
 19 29  4  0
 20 29  4  0
 21 23  1  0
 21 25  1  0
 27 29  4  0
M  END
$$$$

 Created by Python create_sdf_string function

 29 32  0  0  0  0  0  0  0  0999 V2000
    5.4450    8.7154   22.6662 C   0  0  0  0  0  0  0  0  0  0  0  0
   10.9154    5.4574   20.5483 C   0  0  0  0  0  0  0  0  0  0  0  0
    7.2709    4.5089   22.7542 C   0  0  0  0  0  0  0  0  0  0  0  0
    5.9698    7.6329   24.6581 C   0  0  0  0  0  0  0  0  0  0  0  0
    4.5542    8.9057   21.7104 O   0  0  0  0  0  0  0  0  0  0  0  0
    6.9895    3.2085   23.0690 C   0  0  0  0  0  0  0  0  0  0  0  0
    7.8391    2.2253   22.7260 N   0  0  0  0  0  0  0  0  0  0  0  0
    8.6968    9.8373   23.6359 C   0  0  0  0  0  0  0  0  0  0  0  0
   12.5135    6.5957   21.8396 C   0  0  0  0  0  0  0  0  0  0  0  0
   10.9406    8.2330   21.1350 C   0  0  0  0  0  0  0  0  0  0  0  0
    9.6648    8.5956   21.7310 C   0  0  0  0  0  0  0  0  0  0  0  0
   10.8829    1.7153   20.9865 C   0  0  0  0  0  0  0  0  0  0  0  0
    5.7768    2.8533   23.7910 C   0  0  0  0  0  0  0  0  0  0  0  0
    9.7977    1.4791   21.6912 N   0  0  0  0  0  0  0  0  0  0  0  0
    6.5976    9.3401   22.6478 N   0  0  0  0  0  0  0  0  0  0  0  0
   11.2031    3.0042   20.6246 C   0  0  0  0  0  0  0  0  0  0  0  0
   12.8688    7.7370   22.7287 C   0  0  0  0  0  0  0  0  0  0  0  0
    7.4487    9.1361   23.6506 C   0  0  0  0  0  0  0  0  0  0  0  0
    8.9772    2.5025   22.0273 C   0  0  0  0  0  0  0  0  0  0  0  0
   10.4859    4.0901   20.9730 C   0  0  0  0  0  0  0  0  0  0  0  0
   11.0962    9.3293   23.5072 C   0  0  0  0  0  0  0  0  0  0  0  0
    5.1273    7.8529   23.6208 N   0  0  0  0  0  0  0  0  0  0  0  0
    9.7552    9.2338   23.0171 N   0  0  0  0  0  0  0  0  0  0  0  0
   11.1797    6.7591   21.3326 N   0  0  0  0  0  0  0  0  0  0  0  0
   11.7728    8.0337   23.7267 C   0  0  0  0  0  0  0  0  0  0  0  0
    7.1194    8.3344   24.6775 C   0  0  0  0  0  0  0  0  0  0  0  0
    8.4311    4.7963   22.0500 C   0  0  0  0  0  0  0  0  0  0  0  0
    8.7393   10.8706   24.1871 O   0  0  0  0  0  0  0  0  0  0  0  0
    9.3093    3.8166   21.6712 C   0  0  0  0  0  0  0  0  0  0  0  0
  1  5  1  0
  1 15  4  0
  1 22  4  0
  2 20  1  0
  2 24  1  0
  3  6  4  0
  3 27  4  0
  4 22  4  0
  4 26  4  0
  6  7  4  0
  6 13  1  0
  7 19  4  0
  8 18  1  0
  8 23  1  0
  8 28  2  0
  9 17  1  0
  9 24  1  0
 10 11  1  0
 10 24  1  0
 11 23  1  0
 12 14  4  0
 12 16  4  0
 14 19  4  0
 15 18  4  0
 16 20  4  0
 17 25  1  0
 18 26  4  0
 19 29  4  0
 20 29  4  0
 21 23  1  0
 21 25  1  0
 27 29  4  0
M  END
$$$$

 Created by Python create_sdf_string function

 29 32  0  0  0  0  0  0  0  0999 V2000
    5.4450    8.7154   22.6662 C   0  0  0  0  0  0  0  0  0  0  0  0
   10.9154    5.4574   20.5483 C   0  0  0  0  0  0  0  0  0  0  0  0
    7.2709    4.5089   22.7542 C   0  0  0  0  0  0  0  0  0  0  0  0
    5.9698    7.6329   24.6581 C   0  0  0  0  0  0  0  0  0  0  0  0
    4.5542    8.9057   21.7104 O   0  0  0  0  0  0  0  0  0  0  0  0
    6.9895    3.2085   23.0690 C   0  0  0  0  0  0  0  0  0  0  0  0
    7.8391    2.2253   22.7260 N   0  0  0  0  0  0  0  0  0  0  0  0
    8.6968    9.8373   23.6359 C   0  0  0  0  0  0  0  0  0  0  0  0
   12.5135    6.5957   21.8396 C   0  0  0  0  0  0  0  0  0  0  0  0
   10.9406    8.2330   21.1350 C   0  0  0  0  0  0  0  0  0  0  0  0
    9.6648    8.5956   21.7310 C   0  0  0  0  0  0  0  0  0  0  0  0
   10.8829    1.7153   20.9865 C   0  0  0  0  0  0  0  0  0  0  0  0
    5.7768    2.8533   23.7910 C   0  0  0  0  0  0  0  0  0  0  0  0
    9.7977    1.4791   21.6912 N   0  0  0  0  0  0  0  0  0  0  0  0
    6.5976    9.3401   22.6478 N   0  0  0  0  0  0  0  0  0  0  0  0
   11.2031    3.0042   20.6246 C   0  0  0  0  0  0  0  0  0  0  0  0
   12.8688    7.7370   22.7287 C   0  0  0  0  0  0  0  0  0  0  0  0
    7.4487    9.1361   23.6506 C   0  0  0  0  0  0  0  0  0  0  0  0
    8.9772    2.5025   22.0273 C   0  0  0  0  0  0  0  0  0  0  0  0
   10.4859    4.0901   20.9730 C   0  0  0  0  0  0  0  0  0  0  0  0
   11.0962    9.3293   23.5072 C   0  0  0  0  0  0  0  0  0  0  0  0
    5.1273    7.8529   23.6208 N   0  0  0  0  0  0  0  0  0  0  0  0
    9.7552    9.2338   23.0171 N   0  0  0  0  0  0  0  0  0  0  0  0
   11.1797    6.7591   21.3326 N   0  0  0  0  0  0  0  0  0  0  0  0
   11.7728    8.0337   23.7267 C   0  0  0  0  0  0  0  0  0  0  0  0
    7.1194    8.3344   24.6775 C   0  0  0  0  0  0  0  0  0  0  0  0
    8.4311    4.7963   22.0500 C   0  0  0  0  0  0  0  0  0  0  0  0
    8.7393   10.8706   24.1871 O   0  0  0  0  0  0  0  0  0  0  0  0
    9.3093    3.8166   21.6712 C   0  0  0  0  0  0  0  0  0  0  0  0
  1  5  1  0
  1 15  4  0
  1 22  4  0
  2 20  1  0
  2 24  1  0
  3  6  4  0
  3 27  4  0
  4 22  4  0
  4 26  4  0
  6  7  4  0
  6 13  1  0
  7 19  4  0
  8 18  1  0
  8 23  1  0
  8 28  2  0
  9 17  1  0
  9 24  1  0
 10 11  1  0
 10 24  1  0
 11 23  1  0
 12 14  4  0
 12 16  4  0
 14 19  4  0
 15 18  4  0
 16 20  4  0
 17 25  1  0
 18 26  4  0
 19 29  4  0
 20 29  4  0
 21 23  1  0
 21 25  1  0
 27 29  4  0
M  END
$$$$

 Created by Python create_sdf_string function

 29 32  0  0  0  0  0  0  0  0999 V2000
    5.4450    8.7154   22.6662 C   0  0  0  0  0  0  0  0  0  0  0  0
   10.9154    5.4574   20.5483 C   0  0  0  0  0  0  0  0  0  0  0  0
    7.2709    4.5089   22.7542 C   0  0  0  0  0  0  0  0  0  0  0  0
    5.9698    7.6329   24.6581 C   0  0  0  0  0  0  0  0  0  0  0  0
    4.5542    8.9057   21.7104 O   0  0  0  0  0  0  0  0  0  0  0  0
    6.9895    3.2085   23.0690 C   0  0  0  0  0  0  0  0  0  0  0  0
    7.8391    2.2253   22.7260 N   0  0  0  0  0  0  0  0  0  0  0  0
    8.6968    9.8373   23.6359 C   0  0  0  0  0  0  0  0  0  0  0  0
   12.5135    6.5957   21.8396 C   0  0  0  0  0  0  0  0  0  0  0  0
   10.9406    8.2330   21.1350 C   0  0  0  0  0  0  0  0  0  0  0  0
    9.6648    8.5956   21.7310 C   0  0  0  0  0  0  0  0  0  0  0  0
   10.8829    1.7153   20.9865 C   0  0  0  0  0  0  0  0  0  0  0  0
    5.7768    2.8533   23.7910 C   0  0  0  0  0  0  0  0  0  0  0  0
    9.7977    1.4791   21.6912 N   0  0  0  0  0  0  0  0  0  0  0  0
    6.5976    9.3401   22.6478 N   0  0  0  0  0  0  0  0  0  0  0  0
   11.2031    3.0042   20.6246 C   0  0  0  0  0  0  0  0  0  0  0  0
   12.8688    7.7370   22.7287 C   0  0  0  0  0  0  0  0  0  0  0  0
    7.4487    9.1361   23.6506 C   0  0  0  0  0  0  0  0  0  0  0  0
    8.9772    2.5025   22.0273 C   0  0  0  0  0  0  0  0  0  0  0  0
   10.4859    4.0901   20.9730 C   0  0  0  0  0  0  0  0  0  0  0  0
   11.0962    9.3293   23.5072 C   0  0  0  0  0  0  0  0  0  0  0  0
    5.1273    7.8529   23.6208 N   0  0  0  0  0  0  0  0  0  0  0  0
    9.7552    9.2338   23.0171 N   0  0  0  0  0  0  0  0  0  0  0  0
   11.1797    6.7591   21.3326 N   0  0  0  0  0  0  0  0  0  0  0  0
   11.7728    8.0337   23.7267 C   0  0  0  0  0  0  0  0  0  0  0  0
    7.1194    8.3344   24.6775 C   0  0  0  0  0  0  0  0  0  0  0  0
    8.4311    4.7963   22.0500 C   0  0  0  0  0  0  0  0  0  0  0  0
    8.7393   10.8706   24.1871 O   0  0  0  0  0  0  0  0  0  0  0  0
    9.3093    3.8166   21.6712 C   0  0  0  0  0  0  0  0  0  0  0  0
  1  5  1  0
  1 15  4  0
  1 22  4  0
  2 20  1  0
  2 24  1  0
  3  6  4  0
  3 27  4  0
  4 22  4  0
  4 26  4  0
  6  7  4  0
  6 13  1  0
  7 19  4  0
  8 18  1  0
  8 23  1  0
  8 28  2  0
  9 17  1  0
  9 24  1  0
 10 11  1  0
 10 24  1  0
 11 23  1  0
 12 14  4  0
 12 16  4  0
 14 19  4  0
 15 18  4  0
 16 20  4  0
 17 25  1  0
 18 26  4  0
 19 29  4  0
 20 29  4  0
 21 23  1  0
 21 25  1  0
 27 29  4  0
M  END
$$$$

 Created by Python create_sdf_string function

 29 32  0  0  0  0  0  0  0  0999 V2000
    5.4450    8.7154   22.6662 C   0  0  0  0  0  0  0  0  0  0  0  0
   10.9154    5.4574   20.5483 C   0  0  0  0  0  0  0  0  0  0  0  0
    7.2709    4.5089   22.7542 C   0  0  0  0  0  0  0  0  0  0  0  0
    5.9698    7.6329   24.6581 C   0  0  0  0  0  0  0  0  0  0  0  0
    4.5542    8.9057   21.7104 O   0  0  0  0  0  0  0  0  0  0  0  0
    6.9895    3.2085   23.0690 C   0  0  0  0  0  0  0  0  0  0  0  0
    7.8391    2.2253   22.7260 N   0  0  0  0  0  0  0  0  0  0  0  0
    8.6968    9.8373   23.6359 C   0  0  0  0  0  0  0  0  0  0  0  0
   12.5135    6.5957   21.8396 C   0  0  0  0  0  0  0  0  0  0  0  0
   10.9406    8.2330   21.1350 C   0  0  0  0  0  0  0  0  0  0  0  0
    9.6648    8.5956   21.7310 C   0  0  0  0  0  0  0  0  0  0  0  0
   10.8829    1.7153   20.9865 C   0  0  0  0  0  0  0  0  0  0  0  0
    5.7768    2.8533   23.7910 C   0  0  0  0  0  0  0  0  0  0  0  0
    9.7977    1.4791   21.6912 N   0  0  0  0  0  0  0  0  0  0  0  0
    6.5976    9.3401   22.6478 N   0  0  0  0  0  0  0  0  0  0  0  0
   11.2031    3.0042   20.6246 C   0  0  0  0  0  0  0  0  0  0  0  0
   12.8688    7.7370   22.7287 C   0  0  0  0  0  0  0  0  0  0  0  0
    7.4487    9.1361   23.6506 C   0  0  0  0  0  0  0  0  0  0  0  0
    8.9772    2.5025   22.0273 C   0  0  0  0  0  0  0  0  0  0  0  0
   10.4859    4.0901   20.9730 C   0  0  0  0  0  0  0  0  0  0  0  0
   11.0962    9.3293   23.5072 C   0  0  0  0  0  0  0  0  0  0  0  0
    5.1273    7.8529   23.6208 N   0  0  0  0  0  0  0  0  0  0  0  0
    9.7552    9.2338   23.0171 N   0  0  0  0  0  0  0  0  0  0  0  0
   11.1797    6.7591   21.3326 N   0  0  0  0  0  0  0  0  0  0  0  0
   11.7728    8.0337   23.7267 C   0  0  0  0  0  0  0  0  0  0  0  0
    7.1194    8.3344   24.6775 C   0  0  0  0  0  0  0  0  0  0  0  0
    8.4311    4.7963   22.0500 C   0  0  0  0  0  0  0  0  0  0  0  0
    8.7393   10.8706   24.1871 O   0  0  0  0  0  0  0  0  0  0  0  0
    9.3093    3.8166   21.6712 C   0  0  0  0  0  0  0  0  0  0  0  0
  1  5  1  0
  1 15  4  0
  1 22  4  0
  2 20  1  0
  2 24  1  0
  3  6  4  0
  3 27  4  0
  4 22  4  0
  4 26  4  0
  6  7  4  0
  6 13  1  0
  7 19  4  0
  8 18  1  0
  8 23  1  0
  8 28  2  0
  9 17  1  0
  9 24  1  0
 10 11  1  0
 10 24  1  0
 11 23  1  0
 12 14  4  0
 12 16  4  0
 14 19  4  0
 15 18  4  0
 16 20  4  0
 17 25  1  0
 18 26  4  0
 19 29  4  0
 20 29  4  0
 21 23  1  0
 21 25  1  0
 27 29  4  0
M  END
$$$$

 Created by Python create_sdf_string function

 29 32  0  0  0  0  0  0  0  0999 V2000
    5.4450    8.7154   22.6662 C   0  0  0  0  0  0  0  0  0  0  0  0
   10.9154    5.4574   20.5483 C   0  0  0  0  0  0  0  0  0  0  0  0
    7.2709    4.5089   22.7542 C   0  0  0  0  0  0  0  0  0  0  0  0
    5.9698    7.6329   24.6581 C   0  0  0  0  0  0  0  0  0  0  0  0
    4.5542    8.9057   21.7104 O   0  0  0  0  0  0  0  0  0  0  0  0
    6.9895    3.2085   23.0690 C   0  0  0  0  0  0  0  0  0  0  0  0
    7.8391    2.2253   22.7260 N   0  0  0  0  0  0  0  0  0  0  0  0
    8.6968    9.8373   23.6359 C   0  0  0  0  0  0  0  0  0  0  0  0
   12.5135    6.5957   21.8396 C   0  0  0  0  0  0  0  0  0  0  0  0
   10.9406    8.2330   21.1350 C   0  0  0  0  0  0  0  0  0  0  0  0
    9.6648    8.5956   21.7310 C   0  0  0  0  0  0  0  0  0  0  0  0
   10.8829    1.7153   20.9865 C   0  0  0  0  0  0  0  0  0  0  0  0
    5.7768    2.8533   23.7910 C   0  0  0  0  0  0  0  0  0  0  0  0
    9.7977    1.4791   21.6912 N   0  0  0  0  0  0  0  0  0  0  0  0
    6.5976    9.3401   22.6478 N   0  0  0  0  0  0  0  0  0  0  0  0
   11.2031    3.0042   20.6246 C   0  0  0  0  0  0  0  0  0  0  0  0
   12.8688    7.7370   22.7287 C   0  0  0  0  0  0  0  0  0  0  0  0
    7.4487    9.1361   23.6506 C   0  0  0  0  0  0  0  0  0  0  0  0
    8.9772    2.5025   22.0273 C   0  0  0  0  0  0  0  0  0  0  0  0
   10.4859    4.0901   20.9730 C   0  0  0  0  0  0  0  0  0  0  0  0
   11.0962    9.3293   23.5072 C   0  0  0  0  0  0  0  0  0  0  0  0
    5.1273    7.8529   23.6208 N   0  0  0  0  0  0  0  0  0  0  0  0
    9.7552    9.2338   23.0171 N   0  0  0  0  0  0  0  0  0  0  0  0
   11.1797    6.7591   21.3326 N   0  0  0  0  0  0  0  0  0  0  0  0
   11.7728    8.0337   23.7267 C   0  0  0  0  0  0  0  0  0  0  0  0
    7.1194    8.3344   24.6775 C   0  0  0  0  0  0  0  0  0  0  0  0
    8.4311    4.7963   22.0500 C   0  0  0  0  0  0  0  0  0  0  0  0
    8.7393   10.8706   24.1871 O   0  0  0  0  0  0  0  0  0  0  0  0
    9.3093    3.8166   21.6712 C   0  0  0  0  0  0  0  0  0  0  0  0
  1  5  1  0
  1 15  4  0
  1 22  4  0
  2 20  1  0
  2 24  1  0
  3  6  4  0
  3 27  4  0
  4 22  4  0
  4 26  4  0
  6  7  4  0
  6 13  1  0
  7 19  4  0
  8 18  1  0
  8 23  1  0
  8 28  2  0
  9 17  1  0
  9 24  1  0
 10 11  1  0
 10 24  1  0
 11 23  1  0
 12 14  4  0
 12 16  4  0
 14 19  4  0
 15 18  4  0
 16 20  4  0
 17 25  1  0
 18 26  4  0
 19 29  4  0
 20 29  4  0
 21 23  1  0
 21 25  1  0
 27 29  4  0
M  END
$$$$

 Created by Python create_sdf_string function

 29 32  0  0  0  0  0  0  0  0999 V2000
    5.4450    8.7154   22.6662 C   0  0  0  0  0  0  0  0  0  0  0  0
   10.9154    5.4574   20.5483 C   0  0  0  0  0  0  0  0  0  0  0  0
    7.2709    4.5089   22.7542 C   0  0  0  0  0  0  0  0  0  0  0  0
    5.9698    7.6329   24.6581 C   0  0  0  0  0  0  0  0  0  0  0  0
    4.5542    8.9057   21.7104 O   0  0  0  0  0  0  0  0  0  0  0  0
    6.9895    3.2085   23.0690 C   0  0  0  0  0  0  0  0  0  0  0  0
    7.8391    2.2253   22.7260 N   0  0  0  0  0  0  0  0  0  0  0  0
    8.6968    9.8373   23.6359 C   0  0  0  0  0  0  0  0  0  0  0  0
   12.5135    6.5957   21.8396 C   0  0  0  0  0  0  0  0  0  0  0  0
   10.9406    8.2330   21.1350 C   0  0  0  0  0  0  0  0  0  0  0  0
    9.6648    8.5956   21.7310 C   0  0  0  0  0  0  0  0  0  0  0  0
   10.8829    1.7153   20.9865 C   0  0  0  0  0  0  0  0  0  0  0  0
    5.7768    2.8533   23.7910 C   0  0  0  0  0  0  0  0  0  0  0  0
    9.7977    1.4791   21.6912 N   0  0  0  0  0  0  0  0  0  0  0  0
    6.5976    9.3401   22.6478 N   0  0  0  0  0  0  0  0  0  0  0  0
   11.2031    3.0042   20.6246 C   0  0  0  0  0  0  0  0  0  0  0  0
   12.8688    7.7370   22.7287 C   0  0  0  0  0  0  0  0  0  0  0  0
    7.4487    9.1361   23.6506 C   0  0  0  0  0  0  0  0  0  0  0  0
    8.9772    2.5025   22.0273 C   0  0  0  0  0  0  0  0  0  0  0  0
   10.4859    4.0901   20.9730 C   0  0  0  0  0  0  0  0  0  0  0  0
   11.0962    9.3293   23.5072 C   0  0  0  0  0  0  0  0  0  0  0  0
    5.1273    7.8529   23.6208 N   0  0  0  0  0  0  0  0  0  0  0  0
    9.7552    9.2338   23.0171 N   0  0  0  0  0  0  0  0  0  0  0  0
   11.1797    6.7591   21.3326 N   0  0  0  0  0  0  0  0  0  0  0  0
   11.7728    8.0337   23.7267 C   0  0  0  0  0  0  0  0  0  0  0  0
    7.1194    8.3344   24.6775 C   0  0  0  0  0  0  0  0  0  0  0  0
    8.4311    4.7963   22.0500 C   0  0  0  0  0  0  0  0  0  0  0  0
    8.7393   10.8706   24.1871 O   0  0  0  0  0  0  0  0  0  0  0  0
    9.3093    3.8166   21.6712 C   0  0  0  0  0  0  0  0  0  0  0  0
  1  5  1  0
  1 15  4  0
  1 22  4  0
  2 20  1  0
  2 24  1  0
  3  6  4  0
  3 27  4  0
  4 22  4  0
  4 26  4  0
  6  7  4  0
  6 13  1  0
  7 19  4  0
  8 18  1  0
  8 23  1  0
  8 28  2  0
  9 17  1  0
  9 24  1  0
 10 11  1  0
 10 24  1  0
 11 23  1  0
 12 14  4  0
 12 16  4  0
 14 19  4  0
 15 18  4  0
 16 20  4  0
 17 25  1  0
 18 26  4  0
 19 29  4  0
 20 29  4  0
 21 23  1  0
 21 25  1  0
 27 29  4  0
M  END
$$$$

 Created by Python create_sdf_string function

 29 32  0  0  0  0  0  0  0  0999 V2000
    5.4450    8.7154   22.6662 C   0  0  0  0  0  0  0  0  0  0  0  0
   10.9154    5.4574   20.5483 C   0  0  0  0  0  0  0  0  0  0  0  0
    7.2709    4.5089   22.7542 C   0  0  0  0  0  0  0  0  0  0  0  0
    5.9698    7.6329   24.6581 C   0  0  0  0  0  0  0  0  0  0  0  0
    4.5542    8.9057   21.7104 O   0  0  0  0  0  0  0  0  0  0  0  0
    6.9895    3.2085   23.0690 C   0  0  0  0  0  0  0  0  0  0  0  0
    7.8391    2.2253   22.7260 N   0  0  0  0  0  0  0  0  0  0  0  0
    8.6968    9.8373   23.6359 C   0  0  0  0  0  0  0  0  0  0  0  0
   12.5135    6.5957   21.8396 C   0  0  0  0  0  0  0  0  0  0  0  0
   10.9406    8.2330   21.1350 C   0  0  0  0  0  0  0  0  0  0  0  0
    9.6648    8.5956   21.7310 C   0  0  0  0  0  0  0  0  0  0  0  0
   10.8829    1.7153   20.9865 C   0  0  0  0  0  0  0  0  0  0  0  0
    5.7768    2.8533   23.7910 C   0  0  0  0  0  0  0  0  0  0  0  0
    9.7977    1.4791   21.6912 N   0  0  0  0  0  0  0  0  0  0  0  0
    6.5976    9.3401   22.6478 N   0  0  0  0  0  0  0  0  0  0  0  0
   11.2031    3.0042   20.6246 C   0  0  0  0  0  0  0  0  0  0  0  0
   12.8688    7.7370   22.7287 C   0  0  0  0  0  0  0  0  0  0  0  0
    7.4487    9.1361   23.6506 C   0  0  0  0  0  0  0  0  0  0  0  0
    8.9772    2.5025   22.0273 C   0  0  0  0  0  0  0  0  0  0  0  0
   10.4859    4.0901   20.9730 C   0  0  0  0  0  0  0  0  0  0  0  0
   11.0962    9.3293   23.5072 C   0  0  0  0  0  0  0  0  0  0  0  0
    5.1273    7.8529   23.6208 N   0  0  0  0  0  0  0  0  0  0  0  0
    9.7552    9.2338   23.0171 N   0  0  0  0  0  0  0  0  0  0  0  0
   11.1797    6.7591   21.3326 N   0  0  0  0  0  0  0  0  0  0  0  0
   11.7728    8.0337   23.7267 C   0  0  0  0  0  0  0  0  0  0  0  0
    7.1194    8.3344   24.6775 C   0  0  0  0  0  0  0  0  0  0  0  0
    8.4311    4.7963   22.0500 C   0  0  0  0  0  0  0  0  0  0  0  0
    8.7393   10.8706   24.1871 O   0  0  0  0  0  0  0  0  0  0  0  0
    9.3093    3.8166   21.6712 C   0  0  0  0  0  0  0  0  0  0  0  0
  1  5  1  0
  1 15  4  0
  1 22  4  0
  2 20  1  0
  2 24  1  0
  3  6  4  0
  3 27  4  0
  4 22  4  0
  4 26  4  0
  6  7  4  0
  6 13  1  0
  7 19  4  0
  8 18  1  0
  8 23  1  0
  8 28  2  0
  9 17  1  0
  9 24  1  0
 10 11  1  0
 10 24  1  0
 11 23  1  0
 12 14  4  0
 12 16  4  0
 14 19  4  0
 15 18  4  0
 16 20  4  0
 17 25  1  0
 18 26  4  0
 19 29  4  0
 20 29  4  0
 21 23  1  0
 21 25  1  0
 27 29  4  0
M  END
$$$$

 Created by Python create_sdf_string function

 29 32  0  0  0  0  0  0  0  0999 V2000
    5.4450    8.7154   22.6662 C   0  0  0  0  0  0  0  0  0  0  0  0
   10.9154    5.4574   20.5483 C   0  0  0  0  0  0  0  0  0  0  0  0
    7.2709    4.5089   22.7542 C   0  0  0  0  0  0  0  0  0  0  0  0
    5.9698    7.6329   24.6581 C   0  0  0  0  0  0  0  0  0  0  0  0
    4.5542    8.9057   21.7104 O   0  0  0  0  0  0  0  0  0  0  0  0
    6.9895    3.2085   23.0690 C   0  0  0  0  0  0  0  0  0  0  0  0
    7.8391    2.2253   22.7260 N   0  0  0  0  0  0  0  0  0  0  0  0
    8.6968    9.8373   23.6359 C   0  0  0  0  0  0  0  0  0  0  0  0
   12.5135    6.5957   21.8396 C   0  0  0  0  0  0  0  0  0  0  0  0
   10.9406    8.2330   21.1350 C   0  0  0  0  0  0  0  0  0  0  0  0
    9.6648    8.5956   21.7310 C   0  0  0  0  0  0  0  0  0  0  0  0
   10.8829    1.7153   20.9865 C   0  0  0  0  0  0  0  0  0  0  0  0
    5.7768    2.8533   23.7910 C   0  0  0  0  0  0  0  0  0  0  0  0
    9.7977    1.4791   21.6912 N   0  0  0  0  0  0  0  0  0  0  0  0
    6.5976    9.3401   22.6478 N   0  0  0  0  0  0  0  0  0  0  0  0
   11.2031    3.0042   20.6246 C   0  0  0  0  0  0  0  0  0  0  0  0
   12.8688    7.7370   22.7287 C   0  0  0  0  0  0  0  0  0  0  0  0
    7.4487    9.1361   23.6506 C   0  0  0  0  0  0  0  0  0  0  0  0
    8.9772    2.5025   22.0273 C   0  0  0  0  0  0  0  0  0  0  0  0
   10.4859    4.0901   20.9730 C   0  0  0  0  0  0  0  0  0  0  0  0
   11.0962    9.3293   23.5072 C   0  0  0  0  0  0  0  0  0  0  0  0
    5.1273    7.8529   23.6208 N   0  0  0  0  0  0  0  0  0  0  0  0
    9.7552    9.2338   23.0171 N   0  0  0  0  0  0  0  0  0  0  0  0
   11.1797    6.7591   21.3326 N   0  0  0  0  0  0  0  0  0  0  0  0
   11.7728    8.0337   23.7267 C   0  0  0  0  0  0  0  0  0  0  0  0
    7.1194    8.3344   24.6775 C   0  0  0  0  0  0  0  0  0  0  0  0
    8.4311    4.7963   22.0500 C   0  0  0  0  0  0  0  0  0  0  0  0
    8.7393   10.8706   24.1871 O   0  0  0  0  0  0  0  0  0  0  0  0
    9.3093    3.8166   21.6712 C   0  0  0  0  0  0  0  0  0  0  0  0
  1  5  1  0
  1 15  4  0
  1 22  4  0
  2 20  1  0
  2 24  1  0
  3  6  4  0
  3 27  4  0
  4 22  4  0
  4 26  4  0
  6  7  4  0
  6 13  1  0
  7 19  4  0
  8 18  1  0
  8 23  1  0
  8 28  2  0
  9 17  1  0
  9 24  1  0
 10 11  1  0
 10 24  1  0
 11 23  1  0
 12 14  4  0
 12 16  4  0
 14 19  4  0
 15 18  4  0
 16 20  4  0
 17 25  1  0
 18 26  4  0
 19 29  4  0
 20 29  4  0
 21 23  1  0
 21 25  1  0
 27 29  4  0
M  END
$$$$

 Created by Python create_sdf_string function

 29 32  0  0  0  0  0  0  0  0999 V2000
    5.4450    8.7154   22.6662 C   0  0  0  0  0  0  0  0  0  0  0  0
   10.9154    5.4574   20.5483 C   0  0  0  0  0  0  0  0  0  0  0  0
    7.2709    4.5089   22.7542 C   0  0  0  0  0  0  0  0  0  0  0  0
    5.9698    7.6329   24.6581 C   0  0  0  0  0  0  0  0  0  0  0  0
    4.5542    8.9057   21.7104 O   0  0  0  0  0  0  0  0  0  0  0  0
    6.9895    3.2085   23.0690 C   0  0  0  0  0  0  0  0  0  0  0  0
    7.8391    2.2253   22.7260 N   0  0  0  0  0  0  0  0  0  0  0  0
    8.6968    9.8373   23.6359 C   0  0  0  0  0  0  0  0  0  0  0  0
   12.5135    6.5957   21.8396 C   0  0  0  0  0  0  0  0  0  0  0  0
   10.9406    8.2330   21.1350 C   0  0  0  0  0  0  0  0  0  0  0  0
    9.6648    8.5956   21.7310 C   0  0  0  0  0  0  0  0  0  0  0  0
   10.8829    1.7153   20.9865 C   0  0  0  0  0  0  0  0  0  0  0  0
    5.7768    2.8533   23.7910 C   0  0  0  0  0  0  0  0  0  0  0  0
    9.7977    1.4791   21.6912 N   0  0  0  0  0  0  0  0  0  0  0  0
    6.5976    9.3401   22.6478 N   0  0  0  0  0  0  0  0  0  0  0  0
   11.2031    3.0042   20.6246 C   0  0  0  0  0  0  0  0  0  0  0  0
   12.8688    7.7370   22.7287 C   0  0  0  0  0  0  0  0  0  0  0  0
    7.4487    9.1361   23.6506 C   0  0  0  0  0  0  0  0  0  0  0  0
    8.9772    2.5025   22.0273 C   0  0  0  0  0  0  0  0  0  0  0  0
   10.4859    4.0901   20.9730 C   0  0  0  0  0  0  0  0  0  0  0  0
   11.0962    9.3293   23.5072 C   0  0  0  0  0  0  0  0  0  0  0  0
    5.1273    7.8529   23.6208 N   0  0  0  0  0  0  0  0  0  0  0  0
    9.7552    9.2338   23.0171 N   0  0  0  0  0  0  0  0  0  0  0  0
   11.1797    6.7591   21.3326 N   0  0  0  0  0  0  0  0  0  0  0  0
   11.7728    8.0337   23.7267 C   0  0  0  0  0  0  0  0  0  0  0  0
    7.1194    8.3344   24.6775 C   0  0  0  0  0  0  0  0  0  0  0  0
    8.4311    4.7963   22.0500 C   0  0  0  0  0  0  0  0  0  0  0  0
    8.7393   10.8706   24.1871 O   0  0  0  0  0  0  0  0  0  0  0  0
    9.3093    3.8166   21.6712 C   0  0  0  0  0  0  0  0  0  0  0  0
  1  5  1  0
  1 15  4  0
  1 22  4  0
  2 20  1  0
  2 24  1  0
  3  6  4  0
  3 27  4  0
  4 22  4  0
  4 26  4  0
  6  7  4  0
  6 13  1  0
  7 19  4  0
  8 18  1  0
  8 23  1  0
  8 28  2  0
  9 17  1  0
  9 24  1  0
 10 11  1  0
 10 24  1  0
 11 23  1  0
 12 14  4  0
 12 16  4  0
 14 19  4  0
 15 18  4  0
 16 20  4  0
 17 25  1  0
 18 26  4  0
 19 29  4  0
 20 29  4  0
 21 23  1  0
 21 25  1  0
 27 29  4  0
M  END
$$$$

 Created by Python create_sdf_string function

 29 32  0  0  0  0  0  0  0  0999 V2000
    5.4450    8.7154   22.6662 C   0  0  0  0  0  0  0  0  0  0  0  0
   10.9154    5.4574   20.5483 C   0  0  0  0  0  0  0  0  0  0  0  0
    7.2709    4.5089   22.7542 C   0  0  0  0  0  0  0  0  0  0  0  0
    5.9698    7.6329   24.6581 C   0  0  0  0  0  0  0  0  0  0  0  0
    4.5542    8.9057   21.7104 O   0  0  0  0  0  0  0  0  0  0  0  0
    6.9895    3.2085   23.0690 C   0  0  0  0  0  0  0  0  0  0  0  0
    7.8391    2.2253   22.7260 N   0  0  0  0  0  0  0  0  0  0  0  0
    8.6968    9.8373   23.6359 C   0  0  0  0  0  0  0  0  0  0  0  0
   12.5135    6.5957   21.8396 C   0  0  0  0  0  0  0  0  0  0  0  0
   10.9406    8.2330   21.1350 C   0  0  0  0  0  0  0  0  0  0  0  0
    9.6648    8.5956   21.7310 C   0  0  0  0  0  0  0  0  0  0  0  0
   10.8829    1.7153   20.9865 C   0  0  0  0  0  0  0  0  0  0  0  0
    5.7768    2.8533   23.7910 C   0  0  0  0  0  0  0  0  0  0  0  0
    9.7977    1.4791   21.6912 N   0  0  0  0  0  0  0  0  0  0  0  0
    6.5976    9.3401   22.6478 N   0  0  0  0  0  0  0  0  0  0  0  0
   11.2031    3.0042   20.6246 C   0  0  0  0  0  0  0  0  0  0  0  0
   12.8688    7.7370   22.7287 C   0  0  0  0  0  0  0  0  0  0  0  0
    7.4487    9.1361   23.6506 C   0  0  0  0  0  0  0  0  0  0  0  0
    8.9772    2.5025   22.0273 C   0  0  0  0  0  0  0  0  0  0  0  0
   10.4859    4.0901   20.9730 C   0  0  0  0  0  0  0  0  0  0  0  0
   11.0962    9.3293   23.5072 C   0  0  0  0  0  0  0  0  0  0  0  0
    5.1273    7.8529   23.6208 N   0  0  0  0  0  0  0  0  0  0  0  0
    9.7552    9.2338   23.0171 N   0  0  0  0  0  0  0  0  0  0  0  0
   11.1797    6.7591   21.3326 N   0  0  0  0  0  0  0  0  0  0  0  0
   11.7728    8.0337   23.7267 C   0  0  0  0  0  0  0  0  0  0  0  0
    7.1194    8.3344   24.6775 C   0  0  0  0  0  0  0  0  0  0  0  0
    8.4311    4.7963   22.0500 C   0  0  0  0  0  0  0  0  0  0  0  0
    8.7393   10.8706   24.1871 O   0  0  0  0  0  0  0  0  0  0  0  0
    9.3093    3.8166   21.6712 C   0  0  0  0  0  0  0  0  0  0  0  0
  1  5  1  0
  1 15  4  0
  1 22  4  0
  2 20  1  0
  2 24  1  0
  3  6  4  0
  3 27  4  0
  4 22  4  0
  4 26  4  0
  6  7  4  0
  6 13  1  0
  7 19  4  0
  8 18  1  0
  8 23  1  0
  8 28  2  0
  9 17  1  0
  9 24  1  0
 10 11  1  0
 10 24  1  0
 11 23  1  0
 12 14  4  0
 12 16  4  0
 14 19  4  0
 15 18  4  0
 16 20  4  0
 17 25  1  0
 18 26  4  0
 19 29  4  0
 20 29  4  0
 21 23  1  0
 21 25  1  0
 27 29  4  0
M  END
$$$$

 Created by Python create_sdf_string function

 29 32  0  0  0  0  0  0  0  0999 V2000
    5.4450    8.7154   22.6662 C   0  0  0  0  0  0  0  0  0  0  0  0
   10.9154    5.4574   20.5483 C   0  0  0  0  0  0  0  0  0  0  0  0
    7.2709    4.5089   22.7542 C   0  0  0  0  0  0  0  0  0  0  0  0
    5.9698    7.6329   24.6581 C   0  0  0  0  0  0  0  0  0  0  0  0
    4.5542    8.9057   21.7104 O   0  0  0  0  0  0  0  0  0  0  0  0
    6.9895    3.2085   23.0690 C   0  0  0  0  0  0  0  0  0  0  0  0
    7.8391    2.2253   22.7260 N   0  0  0  0  0  0  0  0  0  0  0  0
    8.6968    9.8373   23.6359 C   0  0  0  0  0  0  0  0  0  0  0  0
   12.5135    6.5957   21.8396 C   0  0  0  0  0  0  0  0  0  0  0  0
   10.9406    8.2330   21.1350 C   0  0  0  0  0  0  0  0  0  0  0  0
    9.6648    8.5956   21.7310 C   0  0  0  0  0  0  0  0  0  0  0  0
   10.8829    1.7153   20.9865 C   0  0  0  0  0  0  0  0  0  0  0  0
    5.7768    2.8533   23.7910 C   0  0  0  0  0  0  0  0  0  0  0  0
    9.7977    1.4791   21.6912 N   0  0  0  0  0  0  0  0  0  0  0  0
    6.5976    9.3401   22.6478 N   0  0  0  0  0  0  0  0  0  0  0  0
   11.2031    3.0042   20.6246 C   0  0  0  0  0  0  0  0  0  0  0  0
   12.8688    7.7370   22.7287 C   0  0  0  0  0  0  0  0  0  0  0  0
    7.4487    9.1361   23.6506 C   0  0  0  0  0  0  0  0  0  0  0  0
    8.9772    2.5025   22.0273 C   0  0  0  0  0  0  0  0  0  0  0  0
   10.4859    4.0901   20.9730 C   0  0  0  0  0  0  0  0  0  0  0  0
   11.0962    9.3293   23.5072 C   0  0  0  0  0  0  0  0  0  0  0  0
    5.1273    7.8529   23.6208 N   0  0  0  0  0  0  0  0  0  0  0  0
    9.7552    9.2338   23.0171 N   0  0  0  0  0  0  0  0  0  0  0  0
   11.1797    6.7591   21.3326 N   0  0  0  0  0  0  0  0  0  0  0  0
   11.7728    8.0337   23.7267 C   0  0  0  0  0  0  0  0  0  0  0  0
    7.1194    8.3344   24.6775 C   0  0  0  0  0  0  0  0  0  0  0  0
    8.4311    4.7963   22.0500 C   0  0  0  0  0  0  0  0  0  0  0  0
    8.7393   10.8706   24.1871 O   0  0  0  0  0  0  0  0  0  0  0  0
    9.3093    3.8166   21.6712 C   0  0  0  0  0  0  0  0  0  0  0  0
  1  5  1  0
  1 15  4  0
  1 22  4  0
  2 20  1  0
  2 24  1  0
  3  6  4  0
  3 27  4  0
  4 22  4  0
  4 26  4  0
  6  7  4  0
  6 13  1  0
  7 19  4  0
  8 18  1  0
  8 23  1  0
  8 28  2  0
  9 17  1  0
  9 24  1  0
 10 11  1  0
 10 24  1  0
 11 23  1  0
 12 14  4  0
 12 16  4  0
 14 19  4  0
 15 18  4  0
 16 20  4  0
 17 25  1  0
 18 26  4  0
 19 29  4  0
 20 29  4  0
 21 23  1  0
 21 25  1  0
 27 29  4  0
M  END
$$$$

 Created by Python create_sdf_string function

 29 32  0  0  0  0  0  0  0  0999 V2000
    5.4450    8.7154   22.6662 C   0  0  0  0  0  0  0  0  0  0  0  0
   10.9154    5.4574   20.5483 C   0  0  0  0  0  0  0  0  0  0  0  0
    7.2709    4.5089   22.7542 C   0  0  0  0  0  0  0  0  0  0  0  0
    5.9698    7.6329   24.6581 C   0  0  0  0  0  0  0  0  0  0  0  0
    4.5542    8.9057   21.7104 O   0  0  0  0  0  0  0  0  0  0  0  0
    6.9895    3.2085   23.0690 C   0  0  0  0  0  0  0  0  0  0  0  0
    7.8391    2.2253   22.7260 N   0  0  0  0  0  0  0  0  0  0  0  0
    8.6968    9.8373   23.6359 C   0  0  0  0  0  0  0  0  0  0  0  0
   12.5135    6.5957   21.8396 C   0  0  0  0  0  0  0  0  0  0  0  0
   10.9406    8.2330   21.1350 C   0  0  0  0  0  0  0  0  0  0  0  0
    9.6648    8.5956   21.7310 C   0  0  0  0  0  0  0  0  0  0  0  0
   10.8829    1.7153   20.9865 C   0  0  0  0  0  0  0  0  0  0  0  0
    5.7768    2.8533   23.7910 C   0  0  0  0  0  0  0  0  0  0  0  0
    9.7977    1.4791   21.6912 N   0  0  0  0  0  0  0  0  0  0  0  0
    6.5976    9.3401   22.6478 N   0  0  0  0  0  0  0  0  0  0  0  0
   11.2031    3.0042   20.6246 C   0  0  0  0  0  0  0  0  0  0  0  0
   12.8688    7.7370   22.7287 C   0  0  0  0  0  0  0  0  0  0  0  0
    7.4487    9.1361   23.6506 C   0  0  0  0  0  0  0  0  0  0  0  0
    8.9772    2.5025   22.0273 C   0  0  0  0  0  0  0  0  0  0  0  0
   10.4859    4.0901   20.9730 C   0  0  0  0  0  0  0  0  0  0  0  0
   11.0962    9.3293   23.5072 C   0  0  0  0  0  0  0  0  0  0  0  0
    5.1273    7.8529   23.6208 N   0  0  0  0  0  0  0  0  0  0  0  0
    9.7552    9.2338   23.0171 N   0  0  0  0  0  0  0  0  0  0  0  0
   11.1797    6.7591   21.3326 N   0  0  0  0  0  0  0  0  0  0  0  0
   11.7728    8.0337   23.7267 C   0  0  0  0  0  0  0  0  0  0  0  0
    7.1194    8.3344   24.6775 C   0  0  0  0  0  0  0  0  0  0  0  0
    8.4311    4.7963   22.0500 C   0  0  0  0  0  0  0  0  0  0  0  0
    8.7393   10.8706   24.1871 O   0  0  0  0  0  0  0  0  0  0  0  0
    9.3093    3.8166   21.6712 C   0  0  0  0  0  0  0  0  0  0  0  0
  1  5  1  0
  1 15  4  0
  1 22  4  0
  2 20  1  0
  2 24  1  0
  3  6  4  0
  3 27  4  0
  4 22  4  0
  4 26  4  0
  6  7  4  0
  6 13  1  0
  7 19  4  0
  8 18  1  0
  8 23  1  0
  8 28  2  0
  9 17  1  0
  9 24  1  0
 10 11  1  0
 10 24  1  0
 11 23  1  0
 12 14  4  0
 12 16  4  0
 14 19  4  0
 15 18  4  0
 16 20  4  0
 17 25  1  0
 18 26  4  0
 19 29  4  0
 20 29  4  0
 21 23  1  0
 21 25  1  0
 27 29  4  0
M  END
$$$$

 Created by Python create_sdf_string function

 29 32  0  0  0  0  0  0  0  0999 V2000
    5.4450    8.7154   22.6662 C   0  0  0  0  0  0  0  0  0  0  0  0
   10.9154    5.4574   20.5483 C   0  0  0  0  0  0  0  0  0  0  0  0
    7.2709    4.5089   22.7542 C   0  0  0  0  0  0  0  0  0  0  0  0
    5.9698    7.6329   24.6581 C   0  0  0  0  0  0  0  0  0  0  0  0
    4.5542    8.9057   21.7104 O   0  0  0  0  0  0  0  0  0  0  0  0
    6.9895    3.2085   23.0690 C   0  0  0  0  0  0  0  0  0  0  0  0
    7.8391    2.2253   22.7260 N   0  0  0  0  0  0  0  0  0  0  0  0
    8.6968    9.8373   23.6359 C   0  0  0  0  0  0  0  0  0  0  0  0
   12.5135    6.5957   21.8396 C   0  0  0  0  0  0  0  0  0  0  0  0
   10.9406    8.2330   21.1350 C   0  0  0  0  0  0  0  0  0  0  0  0
    9.6648    8.5956   21.7310 C   0  0  0  0  0  0  0  0  0  0  0  0
   10.8829    1.7153   20.9865 C   0  0  0  0  0  0  0  0  0  0  0  0
    5.7768    2.8533   23.7910 C   0  0  0  0  0  0  0  0  0  0  0  0
    9.7977    1.4791   21.6912 N   0  0  0  0  0  0  0  0  0  0  0  0
    6.5976    9.3401   22.6478 N   0  0  0  0  0  0  0  0  0  0  0  0
   11.2031    3.0042   20.6246 C   0  0  0  0  0  0  0  0  0  0  0  0
   12.8688    7.7370   22.7287 C   0  0  0  0  0  0  0  0  0  0  0  0
    7.4487    9.1361   23.6506 C   0  0  0  0  0  0  0  0  0  0  0  0
    8.9772    2.5025   22.0273 C   0  0  0  0  0  0  0  0  0  0  0  0
   10.4859    4.0901   20.9730 C   0  0  0  0  0  0  0  0  0  0  0  0
   11.0962    9.3293   23.5072 C   0  0  0  0  0  0  0  0  0  0  0  0
    5.1273    7.8529   23.6208 N   0  0  0  0  0  0  0  0  0  0  0  0
    9.7552    9.2338   23.0171 N   0  0  0  0  0  0  0  0  0  0  0  0
   11.1797    6.7591   21.3326 N   0  0  0  0  0  0  0  0  0  0  0  0
   11.7728    8.0337   23.7267 C   0  0  0  0  0  0  0  0  0  0  0  0
    7.1194    8.3344   24.6775 C   0  0  0  0  0  0  0  0  0  0  0  0
    8.4311    4.7963   22.0500 C   0  0  0  0  0  0  0  0  0  0  0  0
    8.7393   10.8706   24.1871 O   0  0  0  0  0  0  0  0  0  0  0  0
    9.3093    3.8166   21.6712 C   0  0  0  0  0  0  0  0  0  0  0  0
  1  5  1  0
  1 15  4  0
  1 22  4  0
  2 20  1  0
  2 24  1  0
  3  6  4  0
  3 27  4  0
  4 22  4  0
  4 26  4  0
  6  7  4  0
  6 13  1  0
  7 19  4  0
  8 18  1  0
  8 23  1  0
  8 28  2  0
  9 17  1  0
  9 24  1  0
 10 11  1  0
 10 24  1  0
 11 23  1  0
 12 14  4  0
 12 16  4  0
 14 19  4  0
 15 18  4  0
 16 20  4  0
 17 25  1  0
 18 26  4  0
 19 29  4  0
 20 29  4  0
 21 23  1  0
 21 25  1  0
 27 29  4  0
M  END
$$$$

 Created by Python create_sdf_string function

 29 32  0  0  0  0  0  0  0  0999 V2000
    5.4450    8.7154   22.6662 C   0  0  0  0  0  0  0  0  0  0  0  0
   10.9154    5.4574   20.5483 C   0  0  0  0  0  0  0  0  0  0  0  0
    7.2709    4.5089   22.7542 C   0  0  0  0  0  0  0  0  0  0  0  0
    5.9698    7.6329   24.6581 C   0  0  0  0  0  0  0  0  0  0  0  0
    4.5542    8.9057   21.7104 O   0  0  0  0  0  0  0  0  0  0  0  0
    6.9895    3.2085   23.0690 C   0  0  0  0  0  0  0  0  0  0  0  0
    7.8391    2.2253   22.7260 N   0  0  0  0  0  0  0  0  0  0  0  0
    8.6968    9.8373   23.6359 C   0  0  0  0  0  0  0  0  0  0  0  0
   12.5135    6.5957   21.8396 C   0  0  0  0  0  0  0  0  0  0  0  0
   10.9406    8.2330   21.1350 C   0  0  0  0  0  0  0  0  0  0  0  0
    9.6648    8.5956   21.7310 C   0  0  0  0  0  0  0  0  0  0  0  0
   10.8829    1.7153   20.9865 C   0  0  0  0  0  0  0  0  0  0  0  0
    5.7768    2.8533   23.7910 C   0  0  0  0  0  0  0  0  0  0  0  0
    9.7977    1.4791   21.6912 N   0  0  0  0  0  0  0  0  0  0  0  0
    6.5976    9.3401   22.6478 N   0  0  0  0  0  0  0  0  0  0  0  0
   11.2031    3.0042   20.6246 C   0  0  0  0  0  0  0  0  0  0  0  0
   12.8688    7.7370   22.7287 C   0  0  0  0  0  0  0  0  0  0  0  0
    7.4487    9.1361   23.6506 C   0  0  0  0  0  0  0  0  0  0  0  0
    8.9772    2.5025   22.0273 C   0  0  0  0  0  0  0  0  0  0  0  0
   10.4859    4.0901   20.9730 C   0  0  0  0  0  0  0  0  0  0  0  0
   11.0962    9.3293   23.5072 C   0  0  0  0  0  0  0  0  0  0  0  0
    5.1273    7.8529   23.6208 N   0  0  0  0  0  0  0  0  0  0  0  0
    9.7552    9.2338   23.0171 N   0  0  0  0  0  0  0  0  0  0  0  0
   11.1797    6.7591   21.3326 N   0  0  0  0  0  0  0  0  0  0  0  0
   11.7728    8.0337   23.7267 C   0  0  0  0  0  0  0  0  0  0  0  0
    7.1194    8.3344   24.6775 C   0  0  0  0  0  0  0  0  0  0  0  0
    8.4311    4.7963   22.0500 C   0  0  0  0  0  0  0  0  0  0  0  0
    8.7393   10.8706   24.1871 O   0  0  0  0  0  0  0  0  0  0  0  0
    9.3093    3.8166   21.6712 C   0  0  0  0  0  0  0  0  0  0  0  0
  1  5  1  0
  1 15  4  0
  1 22  4  0
  2 20  1  0
  2 24  1  0
  3  6  4  0
  3 27  4  0
  4 22  4  0
  4 26  4  0
  6  7  4  0
  6 13  1  0
  7 19  4  0
  8 18  1  0
  8 23  1  0
  8 28  2  0
  9 17  1  0
  9 24  1  0
 10 11  1  0
 10 24  1  0
 11 23  1  0
 12 14  4  0
 12 16  4  0
 14 19  4  0
 15 18  4  0
 16 20  4  0
 17 25  1  0
 18 26  4  0
 19 29  4  0
 20 29  4  0
 21 23  1  0
 21 25  1  0
 27 29  4  0
M  END
$$$$

 Created by Python create_sdf_string function

 29 32  0  0  0  0  0  0  0  0999 V2000
    5.4450    8.7154   22.6662 C   0  0  0  0  0  0  0  0  0  0  0  0
   10.9154    5.4574   20.5483 C   0  0  0  0  0  0  0  0  0  0  0  0
    7.2709    4.5089   22.7542 C   0  0  0  0  0  0  0  0  0  0  0  0
    5.9698    7.6329   24.6581 C   0  0  0  0  0  0  0  0  0  0  0  0
    4.5542    8.9057   21.7104 O   0  0  0  0  0  0  0  0  0  0  0  0
    6.9895    3.2085   23.0690 C   0  0  0  0  0  0  0  0  0  0  0  0
    7.8391    2.2253   22.7260 N   0  0  0  0  0  0  0  0  0  0  0  0
    8.6968    9.8373   23.6359 C   0  0  0  0  0  0  0  0  0  0  0  0
   12.5135    6.5957   21.8396 C   0  0  0  0  0  0  0  0  0  0  0  0
   10.9406    8.2330   21.1350 C   0  0  0  0  0  0  0  0  0  0  0  0
    9.6648    8.5956   21.7310 C   0  0  0  0  0  0  0  0  0  0  0  0
   10.8829    1.7153   20.9865 C   0  0  0  0  0  0  0  0  0  0  0  0
    5.7768    2.8533   23.7910 C   0  0  0  0  0  0  0  0  0  0  0  0
    9.7977    1.4791   21.6912 N   0  0  0  0  0  0  0  0  0  0  0  0
    6.5976    9.3401   22.6478 N   0  0  0  0  0  0  0  0  0  0  0  0
   11.2031    3.0042   20.6246 C   0  0  0  0  0  0  0  0  0  0  0  0
   12.8688    7.7370   22.7287 C   0  0  0  0  0  0  0  0  0  0  0  0
    7.4487    9.1361   23.6506 C   0  0  0  0  0  0  0  0  0  0  0  0
    8.9772    2.5025   22.0273 C   0  0  0  0  0  0  0  0  0  0  0  0
   10.4859    4.0901   20.9730 C   0  0  0  0  0  0  0  0  0  0  0  0
   11.0962    9.3293   23.5072 C   0  0  0  0  0  0  0  0  0  0  0  0
    5.1273    7.8529   23.6208 N   0  0  0  0  0  0  0  0  0  0  0  0
    9.7552    9.2338   23.0171 N   0  0  0  0  0  0  0  0  0  0  0  0
   11.1797    6.7591   21.3326 N   0  0  0  0  0  0  0  0  0  0  0  0
   11.7728    8.0337   23.7267 C   0  0  0  0  0  0  0  0  0  0  0  0
    7.1194    8.3344   24.6775 C   0  0  0  0  0  0  0  0  0  0  0  0
    8.4311    4.7963   22.0500 C   0  0  0  0  0  0  0  0  0  0  0  0
    8.7393   10.8706   24.1871 O   0  0  0  0  0  0  0  0  0  0  0  0
    9.3093    3.8166   21.6712 C   0  0  0  0  0  0  0  0  0  0  0  0
  1  5  1  0
  1 15  4  0
  1 22  4  0
  2 20  1  0
  2 24  1  0
  3  6  4  0
  3 27  4  0
  4 22  4  0
  4 26  4  0
  6  7  4  0
  6 13  1  0
  7 19  4  0
  8 18  1  0
  8 23  1  0
  8 28  2  0
  9 17  1  0
  9 24  1  0
 10 11  1  0
 10 24  1  0
 11 23  1  0
 12 14  4  0
 12 16  4  0
 14 19  4  0
 15 18  4  0
 16 20  4  0
 17 25  1  0
 18 26  4  0
 19 29  4  0
 20 29  4  0
 21 23  1  0
 21 25  1  0
 27 29  4  0
M  END
$$$$

 Created by Python create_sdf_string function

 29 32  0  0  0  0  0  0  0  0999 V2000
    5.4450    8.7154   22.6662 C   0  0  0  0  0  0  0  0  0  0  0  0
   10.9154    5.4574   20.5483 C   0  0  0  0  0  0  0  0  0  0  0  0
    7.2709    4.5089   22.7542 C   0  0  0  0  0  0  0  0  0  0  0  0
    5.9698    7.6329   24.6581 C   0  0  0  0  0  0  0  0  0  0  0  0
    4.5542    8.9057   21.7104 O   0  0  0  0  0  0  0  0  0  0  0  0
    6.9895    3.2085   23.0690 C   0  0  0  0  0  0  0  0  0  0  0  0
    7.8391    2.2253   22.7260 N   0  0  0  0  0  0  0  0  0  0  0  0
    8.6968    9.8373   23.6359 C   0  0  0  0  0  0  0  0  0  0  0  0
   12.5135    6.5957   21.8396 C   0  0  0  0  0  0  0  0  0  0  0  0
   10.9406    8.2330   21.1350 C   0  0  0  0  0  0  0  0  0  0  0  0
    9.6648    8.5956   21.7310 C   0  0  0  0  0  0  0  0  0  0  0  0
   10.8829    1.7153   20.9865 C   0  0  0  0  0  0  0  0  0  0  0  0
    5.7768    2.8533   23.7910 C   0  0  0  0  0  0  0  0  0  0  0  0
    9.7977    1.4791   21.6912 N   0  0  0  0  0  0  0  0  0  0  0  0
    6.5976    9.3401   22.6478 N   0  0  0  0  0  0  0  0  0  0  0  0
   11.2031    3.0042   20.6246 C   0  0  0  0  0  0  0  0  0  0  0  0
   12.8688    7.7370   22.7287 C   0  0  0  0  0  0  0  0  0  0  0  0
    7.4487    9.1361   23.6506 C   0  0  0  0  0  0  0  0  0  0  0  0
    8.9772    2.5025   22.0273 C   0  0  0  0  0  0  0  0  0  0  0  0
   10.4859    4.0901   20.9730 C   0  0  0  0  0  0  0  0  0  0  0  0
   11.0962    9.3293   23.5072 C   0  0  0  0  0  0  0  0  0  0  0  0
    5.1273    7.8529   23.6208 N   0  0  0  0  0  0  0  0  0  0  0  0
    9.7552    9.2338   23.0171 N   0  0  0  0  0  0  0  0  0  0  0  0
   11.1797    6.7591   21.3326 N   0  0  0  0  0  0  0  0  0  0  0  0
   11.7728    8.0337   23.7267 C   0  0  0  0  0  0  0  0  0  0  0  0
    7.1194    8.3344   24.6775 C   0  0  0  0  0  0  0  0  0  0  0  0
    8.4311    4.7963   22.0500 C   0  0  0  0  0  0  0  0  0  0  0  0
    8.7393   10.8706   24.1871 O   0  0  0  0  0  0  0  0  0  0  0  0
    9.3093    3.8166   21.6712 C   0  0  0  0  0  0  0  0  0  0  0  0
  1  5  1  0
  1 15  4  0
  1 22  4  0
  2 20  1  0
  2 24  1  0
  3  6  4  0
  3 27  4  0
  4 22  4  0
  4 26  4  0
  6  7  4  0
  6 13  1  0
  7 19  4  0
  8 18  1  0
  8 23  1  0
  8 28  2  0
  9 17  1  0
  9 24  1  0
 10 11  1  0
 10 24  1  0
 11 23  1  0
 12 14  4  0
 12 16  4  0
 14 19  4  0
 15 18  4  0
 16 20  4  0
 17 25  1  0
 18 26  4  0
 19 29  4  0
 20 29  4  0
 21 23  1  0
 21 25  1  0
 27 29  4  0
M  END
$$$$

 Created by Python create_sdf_string function

 29 32  0  0  0  0  0  0  0  0999 V2000
    5.4450    8.7154   22.6662 C   0  0  0  0  0  0  0  0  0  0  0  0
   10.9154    5.4574   20.5483 C   0  0  0  0  0  0  0  0  0  0  0  0
    7.2709    4.5089   22.7542 C   0  0  0  0  0  0  0  0  0  0  0  0
    5.9698    7.6329   24.6581 C   0  0  0  0  0  0  0  0  0  0  0  0
    4.5542    8.9057   21.7104 O   0  0  0  0  0  0  0  0  0  0  0  0
    6.9895    3.2085   23.0690 C   0  0  0  0  0  0  0  0  0  0  0  0
    7.8391    2.2253   22.7260 N   0  0  0  0  0  0  0  0  0  0  0  0
    8.6968    9.8373   23.6359 C   0  0  0  0  0  0  0  0  0  0  0  0
   12.5135    6.5957   21.8396 C   0  0  0  0  0  0  0  0  0  0  0  0
   10.9406    8.2330   21.1350 C   0  0  0  0  0  0  0  0  0  0  0  0
    9.6648    8.5956   21.7310 C   0  0  0  0  0  0  0  0  0  0  0  0
   10.8829    1.7153   20.9865 C   0  0  0  0  0  0  0  0  0  0  0  0
    5.7768    2.8533   23.7910 C   0  0  0  0  0  0  0  0  0  0  0  0
    9.7977    1.4791   21.6912 N   0  0  0  0  0  0  0  0  0  0  0  0
    6.5976    9.3401   22.6478 N   0  0  0  0  0  0  0  0  0  0  0  0
   11.2031    3.0042   20.6246 C   0  0  0  0  0  0  0  0  0  0  0  0
   12.8688    7.7370   22.7287 C   0  0  0  0  0  0  0  0  0  0  0  0
    7.4487    9.1361   23.6506 C   0  0  0  0  0  0  0  0  0  0  0  0
    8.9772    2.5025   22.0273 C   0  0  0  0  0  0  0  0  0  0  0  0
   10.4859    4.0901   20.9730 C   0  0  0  0  0  0  0  0  0  0  0  0
   11.0962    9.3293   23.5072 C   0  0  0  0  0  0  0  0  0  0  0  0
    5.1273    7.8529   23.6208 N   0  0  0  0  0  0  0  0  0  0  0  0
    9.7552    9.2338   23.0171 N   0  0  0  0  0  0  0  0  0  0  0  0
   11.1797    6.7591   21.3326 N   0  0  0  0  0  0  0  0  0  0  0  0
   11.7728    8.0337   23.7267 C   0  0  0  0  0  0  0  0  0  0  0  0
    7.1194    8.3344   24.6775 C   0  0  0  0  0  0  0  0  0  0  0  0
    8.4311    4.7963   22.0500 C   0  0  0  0  0  0  0  0  0  0  0  0
    8.7393   10.8706   24.1871 O   0  0  0  0  0  0  0  0  0  0  0  0
    9.3093    3.8166   21.6712 C   0  0  0  0  0  0  0  0  0  0  0  0
  1  5  1  0
  1 15  4  0
  1 22  4  0
  2 20  1  0
  2 24  1  0
  3  6  4  0
  3 27  4  0
  4 22  4  0
  4 26  4  0
  6  7  4  0
  6 13  1  0
  7 19  4  0
  8 18  1  0
  8 23  1  0
  8 28  2  0
  9 17  1  0
  9 24  1  0
 10 11  1  0
 10 24  1  0
 11 23  1  0
 12 14  4  0
 12 16  4  0
 14 19  4  0
 15 18  4  0
 16 20  4  0
 17 25  1  0
 18 26  4  0
 19 29  4  0
 20 29  4  0
 21 23  1  0
 21 25  1  0
 27 29  4  0
M  END
$$$$

 Created by Python create_sdf_string function

 29 32  0  0  0  0  0  0  0  0999 V2000
    5.4450    8.7154   22.6662 C   0  0  0  0  0  0  0  0  0  0  0  0
   10.9154    5.4574   20.5483 C   0  0  0  0  0  0  0  0  0  0  0  0
    7.2709    4.5089   22.7542 C   0  0  0  0  0  0  0  0  0  0  0  0
    5.9698    7.6329   24.6581 C   0  0  0  0  0  0  0  0  0  0  0  0
    4.5542    8.9057   21.7104 O   0  0  0  0  0  0  0  0  0  0  0  0
    6.9895    3.2085   23.0690 C   0  0  0  0  0  0  0  0  0  0  0  0
    7.8391    2.2253   22.7260 N   0  0  0  0  0  0  0  0  0  0  0  0
    8.6968    9.8373   23.6359 C   0  0  0  0  0  0  0  0  0  0  0  0
   12.5135    6.5957   21.8396 C   0  0  0  0  0  0  0  0  0  0  0  0
   10.9406    8.2330   21.1350 C   0  0  0  0  0  0  0  0  0  0  0  0
    9.6648    8.5956   21.7310 C   0  0  0  0  0  0  0  0  0  0  0  0
   10.8829    1.7153   20.9865 C   0  0  0  0  0  0  0  0  0  0  0  0
    5.7768    2.8533   23.7910 C   0  0  0  0  0  0  0  0  0  0  0  0
    9.7977    1.4791   21.6912 N   0  0  0  0  0  0  0  0  0  0  0  0
    6.5976    9.3401   22.6478 N   0  0  0  0  0  0  0  0  0  0  0  0
   11.2031    3.0042   20.6246 C   0  0  0  0  0  0  0  0  0  0  0  0
   12.8688    7.7370   22.7287 C   0  0  0  0  0  0  0  0  0  0  0  0
    7.4487    9.1361   23.6506 C   0  0  0  0  0  0  0  0  0  0  0  0
    8.9772    2.5025   22.0273 C   0  0  0  0  0  0  0  0  0  0  0  0
   10.4859    4.0901   20.9730 C   0  0  0  0  0  0  0  0  0  0  0  0
   11.0962    9.3293   23.5072 C   0  0  0  0  0  0  0  0  0  0  0  0
    5.1273    7.8529   23.6208 N   0  0  0  0  0  0  0  0  0  0  0  0
    9.7552    9.2338   23.0171 N   0  0  0  0  0  0  0  0  0  0  0  0
   11.1797    6.7591   21.3326 N   0  0  0  0  0  0  0  0  0  0  0  0
   11.7728    8.0337   23.7267 C   0  0  0  0  0  0  0  0  0  0  0  0
    7.1194    8.3344   24.6775 C   0  0  0  0  0  0  0  0  0  0  0  0
    8.4311    4.7963   22.0500 C   0  0  0  0  0  0  0  0  0  0  0  0
    8.7393   10.8706   24.1871 O   0  0  0  0  0  0  0  0  0  0  0  0
    9.3093    3.8166   21.6712 C   0  0  0  0  0  0  0  0  0  0  0  0
  1  5  1  0
  1 15  4  0
  1 22  4  0
  2 20  1  0
  2 24  1  0
  3  6  4  0
  3 27  4  0
  4 22  4  0
  4 26  4  0
  6  7  4  0
  6 13  1  0
  7 19  4  0
  8 18  1  0
  8 23  1  0
  8 28  2  0
  9 17  1  0
  9 24  1  0
 10 11  1  0
 10 24  1  0
 11 23  1  0
 12 14  4  0
 12 16  4  0
 14 19  4  0
 15 18  4  0
 16 20  4  0
 17 25  1  0
 18 26  4  0
 19 29  4  0
 20 29  4  0
 21 23  1  0
 21 25  1  0
 27 29  4  0
M  END
$$$$

 Created by Python create_sdf_string function

 29 32  0  0  0  0  0  0  0  0999 V2000
    5.4450    8.7154   22.6662 C   0  0  0  0  0  0  0  0  0  0  0  0
   10.9154    5.4574   20.5483 C   0  0  0  0  0  0  0  0  0  0  0  0
    7.2709    4.5089   22.7542 C   0  0  0  0  0  0  0  0  0  0  0  0
    5.9698    7.6329   24.6581 C   0  0  0  0  0  0  0  0  0  0  0  0
    4.5542    8.9057   21.7104 O   0  0  0  0  0  0  0  0  0  0  0  0
    6.9895    3.2085   23.0690 C   0  0  0  0  0  0  0  0  0  0  0  0
    7.8391    2.2253   22.7260 N   0  0  0  0  0  0  0  0  0  0  0  0
    8.6968    9.8373   23.6359 C   0  0  0  0  0  0  0  0  0  0  0  0
   12.5135    6.5957   21.8396 C   0  0  0  0  0  0  0  0  0  0  0  0
   10.9406    8.2330   21.1350 C   0  0  0  0  0  0  0  0  0  0  0  0
    9.6648    8.5956   21.7310 C   0  0  0  0  0  0  0  0  0  0  0  0
   10.8829    1.7153   20.9865 C   0  0  0  0  0  0  0  0  0  0  0  0
    5.7768    2.8533   23.7910 C   0  0  0  0  0  0  0  0  0  0  0  0
    9.7977    1.4791   21.6912 N   0  0  0  0  0  0  0  0  0  0  0  0
    6.5976    9.3401   22.6478 N   0  0  0  0  0  0  0  0  0  0  0  0
   11.2031    3.0042   20.6246 C   0  0  0  0  0  0  0  0  0  0  0  0
   12.8688    7.7370   22.7287 C   0  0  0  0  0  0  0  0  0  0  0  0
    7.4487    9.1361   23.6506 C   0  0  0  0  0  0  0  0  0  0  0  0
    8.9772    2.5025   22.0273 C   0  0  0  0  0  0  0  0  0  0  0  0
   10.4859    4.0901   20.9730 C   0  0  0  0  0  0  0  0  0  0  0  0
   11.0962    9.3293   23.5072 C   0  0  0  0  0  0  0  0  0  0  0  0
    5.1273    7.8529   23.6208 N   0  0  0  0  0  0  0  0  0  0  0  0
    9.7552    9.2338   23.0171 N   0  0  0  0  0  0  0  0  0  0  0  0
   11.1797    6.7591   21.3326 N   0  0  0  0  0  0  0  0  0  0  0  0
   11.7728    8.0337   23.7267 C   0  0  0  0  0  0  0  0  0  0  0  0
    7.1194    8.3344   24.6775 C   0  0  0  0  0  0  0  0  0  0  0  0
    8.4311    4.7963   22.0500 C   0  0  0  0  0  0  0  0  0  0  0  0
    8.7393   10.8706   24.1871 O   0  0  0  0  0  0  0  0  0  0  0  0
    9.3093    3.8166   21.6712 C   0  0  0  0  0  0  0  0  0  0  0  0
  1  5  1  0
  1 15  4  0
  1 22  4  0
  2 20  1  0
  2 24  1  0
  3  6  4  0
  3 27  4  0
  4 22  4  0
  4 26  4  0
  6  7  4  0
  6 13  1  0
  7 19  4  0
  8 18  1  0
  8 23  1  0
  8 28  2  0
  9 17  1  0
  9 24  1  0
 10 11  1  0
 10 24  1  0
 11 23  1  0
 12 14  4  0
 12 16  4  0
 14 19  4  0
 15 18  4  0
 16 20  4  0
 17 25  1  0
 18 26  4  0
 19 29  4  0
 20 29  4  0
 21 23  1  0
 21 25  1  0
 27 29  4  0
M  END
$$$$

 Created by Python create_sdf_string function

 29 32  0  0  0  0  0  0  0  0999 V2000
    5.4450    8.7154   22.6662 C   0  0  0  0  0  0  0  0  0  0  0  0
   10.9154    5.4574   20.5483 C   0  0  0  0  0  0  0  0  0  0  0  0
    7.2709    4.5089   22.7542 C   0  0  0  0  0  0  0  0  0  0  0  0
    5.9698    7.6329   24.6581 C   0  0  0  0  0  0  0  0  0  0  0  0
    4.5542    8.9057   21.7104 O   0  0  0  0  0  0  0  0  0  0  0  0
    6.9895    3.2085   23.0690 C   0  0  0  0  0  0  0  0  0  0  0  0
    7.8391    2.2253   22.7260 N   0  0  0  0  0  0  0  0  0  0  0  0
    8.6968    9.8373   23.6359 C   0  0  0  0  0  0  0  0  0  0  0  0
   12.5135    6.5957   21.8396 C   0  0  0  0  0  0  0  0  0  0  0  0
   10.9406    8.2330   21.1350 C   0  0  0  0  0  0  0  0  0  0  0  0
    9.6648    8.5956   21.7310 C   0  0  0  0  0  0  0  0  0  0  0  0
   10.8829    1.7153   20.9865 C   0  0  0  0  0  0  0  0  0  0  0  0
    5.7768    2.8533   23.7910 C   0  0  0  0  0  0  0  0  0  0  0  0
    9.7977    1.4791   21.6912 N   0  0  0  0  0  0  0  0  0  0  0  0
    6.5976    9.3401   22.6478 N   0  0  0  0  0  0  0  0  0  0  0  0
   11.2031    3.0042   20.6246 C   0  0  0  0  0  0  0  0  0  0  0  0
   12.8688    7.7370   22.7287 C   0  0  0  0  0  0  0  0  0  0  0  0
    7.4487    9.1361   23.6506 C   0  0  0  0  0  0  0  0  0  0  0  0
    8.9772    2.5025   22.0273 C   0  0  0  0  0  0  0  0  0  0  0  0
   10.4859    4.0901   20.9730 C   0  0  0  0  0  0  0  0  0  0  0  0
   11.0962    9.3293   23.5072 C   0  0  0  0  0  0  0  0  0  0  0  0
    5.1273    7.8529   23.6208 N   0  0  0  0  0  0  0  0  0  0  0  0
    9.7552    9.2338   23.0171 N   0  0  0  0  0  0  0  0  0  0  0  0
   11.1797    6.7591   21.3326 N   0  0  0  0  0  0  0  0  0  0  0  0
   11.7728    8.0337   23.7267 C   0  0  0  0  0  0  0  0  0  0  0  0
    7.1194    8.3344   24.6775 C   0  0  0  0  0  0  0  0  0  0  0  0
    8.4311    4.7963   22.0500 C   0  0  0  0  0  0  0  0  0  0  0  0
    8.7393   10.8706   24.1871 O   0  0  0  0  0  0  0  0  0  0  0  0
    9.3093    3.8166   21.6712 C   0  0  0  0  0  0  0  0  0  0  0  0
  1  5  1  0
  1 15  4  0
  1 22  4  0
  2 20  1  0
  2 24  1  0
  3  6  4  0
  3 27  4  0
  4 22  4  0
  4 26  4  0
  6  7  4  0
  6 13  1  0
  7 19  4  0
  8 18  1  0
  8 23  1  0
  8 28  2  0
  9 17  1  0
  9 24  1  0
 10 11  1  0
 10 24  1  0
 11 23  1  0
 12 14  4  0
 12 16  4  0
 14 19  4  0
 15 18  4  0
 16 20  4  0
 17 25  1  0
 18 26  4  0
 19 29  4  0
 20 29  4  0
 21 23  1  0
 21 25  1  0
 27 29  4  0
M  END
$$$$

 Created by Python create_sdf_string function

 29 32  0  0  0  0  0  0  0  0999 V2000
    5.4450    8.7154   22.6662 C   0  0  0  0  0  0  0  0  0  0  0  0
   10.9154    5.4574   20.5483 C   0  0  0  0  0  0  0  0  0  0  0  0
    7.2709    4.5089   22.7542 C   0  0  0  0  0  0  0  0  0  0  0  0
    5.9698    7.6329   24.6581 C   0  0  0  0  0  0  0  0  0  0  0  0
    4.5542    8.9057   21.7104 O   0  0  0  0  0  0  0  0  0  0  0  0
    6.9895    3.2085   23.0690 C   0  0  0  0  0  0  0  0  0  0  0  0
    7.8391    2.2253   22.7260 N   0  0  0  0  0  0  0  0  0  0  0  0
    8.6968    9.8373   23.6359 C   0  0  0  0  0  0  0  0  0  0  0  0
   12.5135    6.5957   21.8396 C   0  0  0  0  0  0  0  0  0  0  0  0
   10.9406    8.2330   21.1350 C   0  0  0  0  0  0  0  0  0  0  0  0
    9.6648    8.5956   21.7310 C   0  0  0  0  0  0  0  0  0  0  0  0
   10.8829    1.7153   20.9865 C   0  0  0  0  0  0  0  0  0  0  0  0
    5.7768    2.8533   23.7910 C   0  0  0  0  0  0  0  0  0  0  0  0
    9.7977    1.4791   21.6912 N   0  0  0  0  0  0  0  0  0  0  0  0
    6.5976    9.3401   22.6478 N   0  0  0  0  0  0  0  0  0  0  0  0
   11.2031    3.0042   20.6246 C   0  0  0  0  0  0  0  0  0  0  0  0
   12.8688    7.7370   22.7287 C   0  0  0  0  0  0  0  0  0  0  0  0
    7.4487    9.1361   23.6506 C   0  0  0  0  0  0  0  0  0  0  0  0
    8.9772    2.5025   22.0273 C   0  0  0  0  0  0  0  0  0  0  0  0
   10.4859    4.0901   20.9730 C   0  0  0  0  0  0  0  0  0  0  0  0
   11.0962    9.3293   23.5072 C   0  0  0  0  0  0  0  0  0  0  0  0
    5.1273    7.8529   23.6208 N   0  0  0  0  0  0  0  0  0  0  0  0
    9.7552    9.2338   23.0171 N   0  0  0  0  0  0  0  0  0  0  0  0
   11.1797    6.7591   21.3326 N   0  0  0  0  0  0  0  0  0  0  0  0
   11.7728    8.0337   23.7267 C   0  0  0  0  0  0  0  0  0  0  0  0
    7.1194    8.3344   24.6775 C   0  0  0  0  0  0  0  0  0  0  0  0
    8.4311    4.7963   22.0500 C   0  0  0  0  0  0  0  0  0  0  0  0
    8.7393   10.8706   24.1871 O   0  0  0  0  0  0  0  0  0  0  0  0
    9.3093    3.8166   21.6712 C   0  0  0  0  0  0  0  0  0  0  0  0
  1  5  1  0
  1 15  4  0
  1 22  4  0
  2 20  1  0
  2 24  1  0
  3  6  4  0
  3 27  4  0
  4 22  4  0
  4 26  4  0
  6  7  4  0
  6 13  1  0
  7 19  4  0
  8 18  1  0
  8 23  1  0
  8 28  2  0
  9 17  1  0
  9 24  1  0
 10 11  1  0
 10 24  1  0
 11 23  1  0
 12 14  4  0
 12 16  4  0
 14 19  4  0
 15 18  4  0
 16 20  4  0
 17 25  1  0
 18 26  4  0
 19 29  4  0
 20 29  4  0
 21 23  1  0
 21 25  1  0
 27 29  4  0
M  END
$$$$

 Created by Python create_sdf_string function

 29 32  0  0  0  0  0  0  0  0999 V2000
    5.4450    8.7154   22.6662 C   0  0  0  0  0  0  0  0  0  0  0  0
   10.9154    5.4574   20.5483 C   0  0  0  0  0  0  0  0  0  0  0  0
    7.2709    4.5089   22.7542 C   0  0  0  0  0  0  0  0  0  0  0  0
    5.9698    7.6329   24.6581 C   0  0  0  0  0  0  0  0  0  0  0  0
    4.5542    8.9057   21.7104 O   0  0  0  0  0  0  0  0  0  0  0  0
    6.9895    3.2085   23.0690 C   0  0  0  0  0  0  0  0  0  0  0  0
    7.8391    2.2253   22.7260 N   0  0  0  0  0  0  0  0  0  0  0  0
    8.6968    9.8373   23.6359 C   0  0  0  0  0  0  0  0  0  0  0  0
   12.5135    6.5957   21.8396 C   0  0  0  0  0  0  0  0  0  0  0  0
   10.9406    8.2330   21.1350 C   0  0  0  0  0  0  0  0  0  0  0  0
    9.6648    8.5956   21.7310 C   0  0  0  0  0  0  0  0  0  0  0  0
   10.8829    1.7153   20.9865 C   0  0  0  0  0  0  0  0  0  0  0  0
    5.7768    2.8533   23.7910 C   0  0  0  0  0  0  0  0  0  0  0  0
    9.7977    1.4791   21.6912 N   0  0  0  0  0  0  0  0  0  0  0  0
    6.5976    9.3401   22.6478 N   0  0  0  0  0  0  0  0  0  0  0  0
   11.2031    3.0042   20.6246 C   0  0  0  0  0  0  0  0  0  0  0  0
   12.8688    7.7370   22.7287 C   0  0  0  0  0  0  0  0  0  0  0  0
    7.4487    9.1361   23.6506 C   0  0  0  0  0  0  0  0  0  0  0  0
    8.9772    2.5025   22.0273 C   0  0  0  0  0  0  0  0  0  0  0  0
   10.4859    4.0901   20.9730 C   0  0  0  0  0  0  0  0  0  0  0  0
   11.0962    9.3293   23.5072 C   0  0  0  0  0  0  0  0  0  0  0  0
    5.1273    7.8529   23.6208 N   0  0  0  0  0  0  0  0  0  0  0  0
    9.7552    9.2338   23.0171 N   0  0  0  0  0  0  0  0  0  0  0  0
   11.1797    6.7591   21.3326 N   0  0  0  0  0  0  0  0  0  0  0  0
   11.7728    8.0337   23.7267 C   0  0  0  0  0  0  0  0  0  0  0  0
    7.1194    8.3344   24.6775 C   0  0  0  0  0  0  0  0  0  0  0  0
    8.4311    4.7963   22.0500 C   0  0  0  0  0  0  0  0  0  0  0  0
    8.7393   10.8706   24.1871 O   0  0  0  0  0  0  0  0  0  0  0  0
    9.3093    3.8166   21.6712 C   0  0  0  0  0  0  0  0  0  0  0  0
  1  5  1  0
  1 15  4  0
  1 22  4  0
  2 20  1  0
  2 24  1  0
  3  6  4  0
  3 27  4  0
  4 22  4  0
  4 26  4  0
  6  7  4  0
  6 13  1  0
  7 19  4  0
  8 18  1  0
  8 23  1  0
  8 28  2  0
  9 17  1  0
  9 24  1  0
 10 11  1  0
 10 24  1  0
 11 23  1  0
 12 14  4  0
 12 16  4  0
 14 19  4  0
 15 18  4  0
 16 20  4  0
 17 25  1  0
 18 26  4  0
 19 29  4  0
 20 29  4  0
 21 23  1  0
 21 25  1  0
 27 29  4  0
M  END
$$$$

 Created by Python create_sdf_string function

 29 32  0  0  0  0  0  0  0  0999 V2000
    5.4450    8.7154   22.6662 C   0  0  0  0  0  0  0  0  0  0  0  0
   10.9154    5.4574   20.5483 C   0  0  0  0  0  0  0  0  0  0  0  0
    7.2709    4.5089   22.7542 C   0  0  0  0  0  0  0  0  0  0  0  0
    5.9698    7.6329   24.6581 C   0  0  0  0  0  0  0  0  0  0  0  0
    4.5542    8.9057   21.7104 O   0  0  0  0  0  0  0  0  0  0  0  0
    6.9895    3.2085   23.0690 C   0  0  0  0  0  0  0  0  0  0  0  0
    7.8391    2.2253   22.7260 N   0  0  0  0  0  0  0  0  0  0  0  0
    8.6968    9.8373   23.6359 C   0  0  0  0  0  0  0  0  0  0  0  0
   12.5135    6.5957   21.8396 C   0  0  0  0  0  0  0  0  0  0  0  0
   10.9406    8.2330   21.1350 C   0  0  0  0  0  0  0  0  0  0  0  0
    9.6648    8.5956   21.7310 C   0  0  0  0  0  0  0  0  0  0  0  0
   10.8829    1.7153   20.9865 C   0  0  0  0  0  0  0  0  0  0  0  0
    5.7768    2.8533   23.7910 C   0  0  0  0  0  0  0  0  0  0  0  0
    9.7977    1.4791   21.6912 N   0  0  0  0  0  0  0  0  0  0  0  0
    6.5976    9.3401   22.6478 N   0  0  0  0  0  0  0  0  0  0  0  0
   11.2031    3.0042   20.6246 C   0  0  0  0  0  0  0  0  0  0  0  0
   12.8688    7.7370   22.7287 C   0  0  0  0  0  0  0  0  0  0  0  0
    7.4487    9.1361   23.6506 C   0  0  0  0  0  0  0  0  0  0  0  0
    8.9772    2.5025   22.0273 C   0  0  0  0  0  0  0  0  0  0  0  0
   10.4859    4.0901   20.9730 C   0  0  0  0  0  0  0  0  0  0  0  0
   11.0962    9.3293   23.5072 C   0  0  0  0  0  0  0  0  0  0  0  0
    5.1273    7.8529   23.6208 N   0  0  0  0  0  0  0  0  0  0  0  0
    9.7552    9.2338   23.0171 N   0  0  0  0  0  0  0  0  0  0  0  0
   11.1797    6.7591   21.3326 N   0  0  0  0  0  0  0  0  0  0  0  0
   11.7728    8.0337   23.7267 C   0  0  0  0  0  0  0  0  0  0  0  0
    7.1194    8.3344   24.6775 C   0  0  0  0  0  0  0  0  0  0  0  0
    8.4311    4.7963   22.0500 C   0  0  0  0  0  0  0  0  0  0  0  0
    8.7393   10.8706   24.1871 O   0  0  0  0  0  0  0  0  0  0  0  0
    9.3093    3.8166   21.6712 C   0  0  0  0  0  0  0  0  0  0  0  0
  1  5  1  0
  1 15  4  0
  1 22  4  0
  2 20  1  0
  2 24  1  0
  3  6  4  0
  3 27  4  0
  4 22  4  0
  4 26  4  0
  6  7  4  0
  6 13  1  0
  7 19  4  0
  8 18  1  0
  8 23  1  0
  8 28  2  0
  9 17  1  0
  9 24  1  0
 10 11  1  0
 10 24  1  0
 11 23  1  0
 12 14  4  0
 12 16  4  0
 14 19  4  0
 15 18  4  0
 16 20  4  0
 17 25  1  0
 18 26  4  0
 19 29  4  0
 20 29  4  0
 21 23  1  0
 21 25  1  0
 27 29  4  0
M  END
$$$$

 Created by Python create_sdf_string function

 29 32  0  0  0  0  0  0  0  0999 V2000
    5.4450    8.7154   22.6662 C   0  0  0  0  0  0  0  0  0  0  0  0
   10.9154    5.4574   20.5483 C   0  0  0  0  0  0  0  0  0  0  0  0
    7.2709    4.5089   22.7542 C   0  0  0  0  0  0  0  0  0  0  0  0
    5.9698    7.6329   24.6581 C   0  0  0  0  0  0  0  0  0  0  0  0
    4.5542    8.9057   21.7104 O   0  0  0  0  0  0  0  0  0  0  0  0
    6.9895    3.2085   23.0690 C   0  0  0  0  0  0  0  0  0  0  0  0
    7.8391    2.2253   22.7260 N   0  0  0  0  0  0  0  0  0  0  0  0
    8.6968    9.8373   23.6359 C   0  0  0  0  0  0  0  0  0  0  0  0
   12.5135    6.5957   21.8396 C   0  0  0  0  0  0  0  0  0  0  0  0
   10.9406    8.2330   21.1350 C   0  0  0  0  0  0  0  0  0  0  0  0
    9.6648    8.5956   21.7310 C   0  0  0  0  0  0  0  0  0  0  0  0
   10.8829    1.7153   20.9865 C   0  0  0  0  0  0  0  0  0  0  0  0
    5.7768    2.8533   23.7910 C   0  0  0  0  0  0  0  0  0  0  0  0
    9.7977    1.4791   21.6912 N   0  0  0  0  0  0  0  0  0  0  0  0
    6.5976    9.3401   22.6478 N   0  0  0  0  0  0  0  0  0  0  0  0
   11.2031    3.0042   20.6246 C   0  0  0  0  0  0  0  0  0  0  0  0
   12.8688    7.7370   22.7287 C   0  0  0  0  0  0  0  0  0  0  0  0
    7.4487    9.1361   23.6506 C   0  0  0  0  0  0  0  0  0  0  0  0
    8.9772    2.5025   22.0273 C   0  0  0  0  0  0  0  0  0  0  0  0
   10.4859    4.0901   20.9730 C   0  0  0  0  0  0  0  0  0  0  0  0
   11.0962    9.3293   23.5072 C   0  0  0  0  0  0  0  0  0  0  0  0
    5.1273    7.8529   23.6208 N   0  0  0  0  0  0  0  0  0  0  0  0
    9.7552    9.2338   23.0171 N   0  0  0  0  0  0  0  0  0  0  0  0
   11.1797    6.7591   21.3326 N   0  0  0  0  0  0  0  0  0  0  0  0
   11.7728    8.0337   23.7267 C   0  0  0  0  0  0  0  0  0  0  0  0
    7.1194    8.3344   24.6775 C   0  0  0  0  0  0  0  0  0  0  0  0
    8.4311    4.7963   22.0500 C   0  0  0  0  0  0  0  0  0  0  0  0
    8.7393   10.8706   24.1871 O   0  0  0  0  0  0  0  0  0  0  0  0
    9.3093    3.8166   21.6712 C   0  0  0  0  0  0  0  0  0  0  0  0
  1  5  1  0
  1 15  4  0
  1 22  4  0
  2 20  1  0
  2 24  1  0
  3  6  4  0
  3 27  4  0
  4 22  4  0
  4 26  4  0
  6  7  4  0
  6 13  1  0
  7 19  4  0
  8 18  1  0
  8 23  1  0
  8 28  2  0
  9 17  1  0
  9 24  1  0
 10 11  1  0
 10 24  1  0
 11 23  1  0
 12 14  4  0
 12 16  4  0
 14 19  4  0
 15 18  4  0
 16 20  4  0
 17 25  1  0
 18 26  4  0
 19 29  4  0
 20 29  4  0
 21 23  1  0
 21 25  1  0
 27 29  4  0
M  END
$$$$

 Created by Python create_sdf_string function

 29 32  0  0  0  0  0  0  0  0999 V2000
    5.4450    8.7154   22.6662 C   0  0  0  0  0  0  0  0  0  0  0  0
   10.9154    5.4574   20.5483 C   0  0  0  0  0  0  0  0  0  0  0  0
    7.2709    4.5089   22.7542 C   0  0  0  0  0  0  0  0  0  0  0  0
    5.9698    7.6329   24.6581 C   0  0  0  0  0  0  0  0  0  0  0  0
    4.5542    8.9057   21.7104 O   0  0  0  0  0  0  0  0  0  0  0  0
    6.9895    3.2085   23.0690 C   0  0  0  0  0  0  0  0  0  0  0  0
    7.8391    2.2253   22.7260 N   0  0  0  0  0  0  0  0  0  0  0  0
    8.6968    9.8373   23.6359 C   0  0  0  0  0  0  0  0  0  0  0  0
   12.5135    6.5957   21.8396 C   0  0  0  0  0  0  0  0  0  0  0  0
   10.9406    8.2330   21.1350 C   0  0  0  0  0  0  0  0  0  0  0  0
    9.6648    8.5956   21.7310 C   0  0  0  0  0  0  0  0  0  0  0  0
   10.8829    1.7153   20.9865 C   0  0  0  0  0  0  0  0  0  0  0  0
    5.7768    2.8533   23.7910 C   0  0  0  0  0  0  0  0  0  0  0  0
    9.7977    1.4791   21.6912 N   0  0  0  0  0  0  0  0  0  0  0  0
    6.5976    9.3401   22.6478 N   0  0  0  0  0  0  0  0  0  0  0  0
   11.2031    3.0042   20.6246 C   0  0  0  0  0  0  0  0  0  0  0  0
   12.8688    7.7370   22.7287 C   0  0  0  0  0  0  0  0  0  0  0  0
    7.4487    9.1361   23.6506 C   0  0  0  0  0  0  0  0  0  0  0  0
    8.9772    2.5025   22.0273 C   0  0  0  0  0  0  0  0  0  0  0  0
   10.4859    4.0901   20.9730 C   0  0  0  0  0  0  0  0  0  0  0  0
   11.0962    9.3293   23.5072 C   0  0  0  0  0  0  0  0  0  0  0  0
    5.1273    7.8529   23.6208 N   0  0  0  0  0  0  0  0  0  0  0  0
    9.7552    9.2338   23.0171 N   0  0  0  0  0  0  0  0  0  0  0  0
   11.1797    6.7591   21.3326 N   0  0  0  0  0  0  0  0  0  0  0  0
   11.7728    8.0337   23.7267 C   0  0  0  0  0  0  0  0  0  0  0  0
    7.1194    8.3344   24.6775 C   0  0  0  0  0  0  0  0  0  0  0  0
    8.4311    4.7963   22.0500 C   0  0  0  0  0  0  0  0  0  0  0  0
    8.7393   10.8706   24.1871 O   0  0  0  0  0  0  0  0  0  0  0  0
    9.3093    3.8166   21.6712 C   0  0  0  0  0  0  0  0  0  0  0  0
  1  5  1  0
  1 15  4  0
  1 22  4  0
  2 20  1  0
  2 24  1  0
  3  6  4  0
  3 27  4  0
  4 22  4  0
  4 26  4  0
  6  7  4  0
  6 13  1  0
  7 19  4  0
  8 18  1  0
  8 23  1  0
  8 28  2  0
  9 17  1  0
  9 24  1  0
 10 11  1  0
 10 24  1  0
 11 23  1  0
 12 14  4  0
 12 16  4  0
 14 19  4  0
 15 18  4  0
 16 20  4  0
 17 25  1  0
 18 26  4  0
 19 29  4  0
 20 29  4  0
 21 23  1  0
 21 25  1  0
 27 29  4  0
M  END
$$$$

 Created by Python create_sdf_string function

 29 32  0  0  0  0  0  0  0  0999 V2000
    5.4450    8.7154   22.6662 C   0  0  0  0  0  0  0  0  0  0  0  0
   10.9154    5.4574   20.5483 C   0  0  0  0  0  0  0  0  0  0  0  0
    7.2709    4.5089   22.7542 C   0  0  0  0  0  0  0  0  0  0  0  0
    5.9698    7.6329   24.6581 C   0  0  0  0  0  0  0  0  0  0  0  0
    4.5542    8.9057   21.7104 O   0  0  0  0  0  0  0  0  0  0  0  0
    6.9895    3.2085   23.0690 C   0  0  0  0  0  0  0  0  0  0  0  0
    7.8391    2.2253   22.7260 N   0  0  0  0  0  0  0  0  0  0  0  0
    8.6968    9.8373   23.6359 C   0  0  0  0  0  0  0  0  0  0  0  0
   12.5135    6.5957   21.8396 C   0  0  0  0  0  0  0  0  0  0  0  0
   10.9406    8.2330   21.1350 C   0  0  0  0  0  0  0  0  0  0  0  0
    9.6648    8.5956   21.7310 C   0  0  0  0  0  0  0  0  0  0  0  0
   10.8829    1.7153   20.9865 C   0  0  0  0  0  0  0  0  0  0  0  0
    5.7768    2.8533   23.7910 C   0  0  0  0  0  0  0  0  0  0  0  0
    9.7977    1.4791   21.6912 N   0  0  0  0  0  0  0  0  0  0  0  0
    6.5976    9.3401   22.6478 N   0  0  0  0  0  0  0  0  0  0  0  0
   11.2031    3.0042   20.6246 C   0  0  0  0  0  0  0  0  0  0  0  0
   12.8688    7.7370   22.7287 C   0  0  0  0  0  0  0  0  0  0  0  0
    7.4487    9.1361   23.6506 C   0  0  0  0  0  0  0  0  0  0  0  0
    8.9772    2.5025   22.0273 C   0  0  0  0  0  0  0  0  0  0  0  0
   10.4859    4.0901   20.9730 C   0  0  0  0  0  0  0  0  0  0  0  0
   11.0962    9.3293   23.5072 C   0  0  0  0  0  0  0  0  0  0  0  0
    5.1273    7.8529   23.6208 N   0  0  0  0  0  0  0  0  0  0  0  0
    9.7552    9.2338   23.0171 N   0  0  0  0  0  0  0  0  0  0  0  0
   11.1797    6.7591   21.3326 N   0  0  0  0  0  0  0  0  0  0  0  0
   11.7728    8.0337   23.7267 C   0  0  0  0  0  0  0  0  0  0  0  0
    7.1194    8.3344   24.6775 C   0  0  0  0  0  0  0  0  0  0  0  0
    8.4311    4.7963   22.0500 C   0  0  0  0  0  0  0  0  0  0  0  0
    8.7393   10.8706   24.1871 O   0  0  0  0  0  0  0  0  0  0  0  0
    9.3093    3.8166   21.6712 C   0  0  0  0  0  0  0  0  0  0  0  0
  1  5  1  0
  1 15  4  0
  1 22  4  0
  2 20  1  0
  2 24  1  0
  3  6  4  0
  3 27  4  0
  4 22  4  0
  4 26  4  0
  6  7  4  0
  6 13  1  0
  7 19  4  0
  8 18  1  0
  8 23  1  0
  8 28  2  0
  9 17  1  0
  9 24  1  0
 10 11  1  0
 10 24  1  0
 11 23  1  0
 12 14  4  0
 12 16  4  0
 14 19  4  0
 15 18  4  0
 16 20  4  0
 17 25  1  0
 18 26  4  0
 19 29  4  0
 20 29  4  0
 21 23  1  0
 21 25  1  0
 27 29  4  0
M  END
$$$$

 Created by Python create_sdf_string function

 29 32  0  0  0  0  0  0  0  0999 V2000
    5.4450    8.7154   22.6662 C   0  0  0  0  0  0  0  0  0  0  0  0
   10.9154    5.4574   20.5483 C   0  0  0  0  0  0  0  0  0  0  0  0
    7.2709    4.5089   22.7542 C   0  0  0  0  0  0  0  0  0  0  0  0
    5.9698    7.6329   24.6581 C   0  0  0  0  0  0  0  0  0  0  0  0
    4.5542    8.9057   21.7104 O   0  0  0  0  0  0  0  0  0  0  0  0
    6.9895    3.2085   23.0690 C   0  0  0  0  0  0  0  0  0  0  0  0
    7.8391    2.2253   22.7260 N   0  0  0  0  0  0  0  0  0  0  0  0
    8.6968    9.8373   23.6359 C   0  0  0  0  0  0  0  0  0  0  0  0
   12.5135    6.5957   21.8396 C   0  0  0  0  0  0  0  0  0  0  0  0
   10.9406    8.2330   21.1350 C   0  0  0  0  0  0  0  0  0  0  0  0
    9.6648    8.5956   21.7310 C   0  0  0  0  0  0  0  0  0  0  0  0
   10.8829    1.7153   20.9865 C   0  0  0  0  0  0  0  0  0  0  0  0
    5.7768    2.8533   23.7910 C   0  0  0  0  0  0  0  0  0  0  0  0
    9.7977    1.4791   21.6912 N   0  0  0  0  0  0  0  0  0  0  0  0
    6.5976    9.3401   22.6478 N   0  0  0  0  0  0  0  0  0  0  0  0
   11.2031    3.0042   20.6246 C   0  0  0  0  0  0  0  0  0  0  0  0
   12.8688    7.7370   22.7287 C   0  0  0  0  0  0  0  0  0  0  0  0
    7.4487    9.1361   23.6506 C   0  0  0  0  0  0  0  0  0  0  0  0
    8.9772    2.5025   22.0273 C   0  0  0  0  0  0  0  0  0  0  0  0
   10.4859    4.0901   20.9730 C   0  0  0  0  0  0  0  0  0  0  0  0
   11.0962    9.3293   23.5072 C   0  0  0  0  0  0  0  0  0  0  0  0
    5.1273    7.8529   23.6208 N   0  0  0  0  0  0  0  0  0  0  0  0
    9.7552    9.2338   23.0171 N   0  0  0  0  0  0  0  0  0  0  0  0
   11.1797    6.7591   21.3326 N   0  0  0  0  0  0  0  0  0  0  0  0
   11.7728    8.0337   23.7267 C   0  0  0  0  0  0  0  0  0  0  0  0
    7.1194    8.3344   24.6775 C   0  0  0  0  0  0  0  0  0  0  0  0
    8.4311    4.7963   22.0500 C   0  0  0  0  0  0  0  0  0  0  0  0
    8.7393   10.8706   24.1871 O   0  0  0  0  0  0  0  0  0  0  0  0
    9.3093    3.8166   21.6712 C   0  0  0  0  0  0  0  0  0  0  0  0
  1  5  1  0
  1 15  4  0
  1 22  4  0
  2 20  1  0
  2 24  1  0
  3  6  4  0
  3 27  4  0
  4 22  4  0
  4 26  4  0
  6  7  4  0
  6 13  1  0
  7 19  4  0
  8 18  1  0
  8 23  1  0
  8 28  2  0
  9 17  1  0
  9 24  1  0
 10 11  1  0
 10 24  1  0
 11 23  1  0
 12 14  4  0
 12 16  4  0
 14 19  4  0
 15 18  4  0
 16 20  4  0
 17 25  1  0
 18 26  4  0
 19 29  4  0
 20 29  4  0
 21 23  1  0
 21 25  1  0
 27 29  4  0
M  END
$$$$

 Created by Python create_sdf_string function

 29 32  0  0  0  0  0  0  0  0999 V2000
    5.4450    8.7154   22.6662 C   0  0  0  0  0  0  0  0  0  0  0  0
   10.9154    5.4574   20.5483 C   0  0  0  0  0  0  0  0  0  0  0  0
    7.2709    4.5089   22.7542 C   0  0  0  0  0  0  0  0  0  0  0  0
    5.9698    7.6329   24.6581 C   0  0  0  0  0  0  0  0  0  0  0  0
    4.5542    8.9057   21.7104 O   0  0  0  0  0  0  0  0  0  0  0  0
    6.9895    3.2085   23.0690 C   0  0  0  0  0  0  0  0  0  0  0  0
    7.8391    2.2253   22.7260 N   0  0  0  0  0  0  0  0  0  0  0  0
    8.6968    9.8373   23.6359 C   0  0  0  0  0  0  0  0  0  0  0  0
   12.5135    6.5957   21.8396 C   0  0  0  0  0  0  0  0  0  0  0  0
   10.9406    8.2330   21.1350 C   0  0  0  0  0  0  0  0  0  0  0  0
    9.6648    8.5956   21.7310 C   0  0  0  0  0  0  0  0  0  0  0  0
   10.8829    1.7153   20.9865 C   0  0  0  0  0  0  0  0  0  0  0  0
    5.7768    2.8533   23.7910 C   0  0  0  0  0  0  0  0  0  0  0  0
    9.7977    1.4791   21.6912 N   0  0  0  0  0  0  0  0  0  0  0  0
    6.5976    9.3401   22.6478 N   0  0  0  0  0  0  0  0  0  0  0  0
   11.2031    3.0042   20.6246 C   0  0  0  0  0  0  0  0  0  0  0  0
   12.8688    7.7370   22.7287 C   0  0  0  0  0  0  0  0  0  0  0  0
    7.4487    9.1361   23.6506 C   0  0  0  0  0  0  0  0  0  0  0  0
    8.9772    2.5025   22.0273 C   0  0  0  0  0  0  0  0  0  0  0  0
   10.4859    4.0901   20.9730 C   0  0  0  0  0  0  0  0  0  0  0  0
   11.0962    9.3293   23.5072 C   0  0  0  0  0  0  0  0  0  0  0  0
    5.1273    7.8529   23.6208 N   0  0  0  0  0  0  0  0  0  0  0  0
    9.7552    9.2338   23.0171 N   0  0  0  0  0  0  0  0  0  0  0  0
   11.1797    6.7591   21.3326 N   0  0  0  0  0  0  0  0  0  0  0  0
   11.7728    8.0337   23.7267 C   0  0  0  0  0  0  0  0  0  0  0  0
    7.1194    8.3344   24.6775 C   0  0  0  0  0  0  0  0  0  0  0  0
    8.4311    4.7963   22.0500 C   0  0  0  0  0  0  0  0  0  0  0  0
    8.7393   10.8706   24.1871 O   0  0  0  0  0  0  0  0  0  0  0  0
    9.3093    3.8166   21.6712 C   0  0  0  0  0  0  0  0  0  0  0  0
  1  5  1  0
  1 15  4  0
  1 22  4  0
  2 20  1  0
  2 24  1  0
  3  6  4  0
  3 27  4  0
  4 22  4  0
  4 26  4  0
  6  7  4  0
  6 13  1  0
  7 19  4  0
  8 18  1  0
  8 23  1  0
  8 28  2  0
  9 17  1  0
  9 24  1  0
 10 11  1  0
 10 24  1  0
 11 23  1  0
 12 14  4  0
 12 16  4  0
 14 19  4  0
 15 18  4  0
 16 20  4  0
 17 25  1  0
 18 26  4  0
 19 29  4  0
 20 29  4  0
 21 23  1  0
 21 25  1  0
 27 29  4  0
M  END
$$$$

 Created by Python create_sdf_string function

 29 32  0  0  0  0  0  0  0  0999 V2000
    5.4450    8.7154   22.6662 C   0  0  0  0  0  0  0  0  0  0  0  0
   10.9154    5.4574   20.5483 C   0  0  0  0  0  0  0  0  0  0  0  0
    7.2709    4.5089   22.7542 C   0  0  0  0  0  0  0  0  0  0  0  0
    5.9698    7.6329   24.6581 C   0  0  0  0  0  0  0  0  0  0  0  0
    4.5542    8.9057   21.7104 O   0  0  0  0  0  0  0  0  0  0  0  0
    6.9895    3.2085   23.0690 C   0  0  0  0  0  0  0  0  0  0  0  0
    7.8391    2.2253   22.7260 N   0  0  0  0  0  0  0  0  0  0  0  0
    8.6968    9.8373   23.6359 C   0  0  0  0  0  0  0  0  0  0  0  0
   12.5135    6.5957   21.8396 C   0  0  0  0  0  0  0  0  0  0  0  0
   10.9406    8.2330   21.1350 C   0  0  0  0  0  0  0  0  0  0  0  0
    9.6648    8.5956   21.7310 C   0  0  0  0  0  0  0  0  0  0  0  0
   10.8829    1.7153   20.9865 C   0  0  0  0  0  0  0  0  0  0  0  0
    5.7768    2.8533   23.7910 C   0  0  0  0  0  0  0  0  0  0  0  0
    9.7977    1.4791   21.6912 N   0  0  0  0  0  0  0  0  0  0  0  0
    6.5976    9.3401   22.6478 N   0  0  0  0  0  0  0  0  0  0  0  0
   11.2031    3.0042   20.6246 C   0  0  0  0  0  0  0  0  0  0  0  0
   12.8688    7.7370   22.7287 C   0  0  0  0  0  0  0  0  0  0  0  0
    7.4487    9.1361   23.6506 C   0  0  0  0  0  0  0  0  0  0  0  0
    8.9772    2.5025   22.0273 C   0  0  0  0  0  0  0  0  0  0  0  0
   10.4859    4.0901   20.9730 C   0  0  0  0  0  0  0  0  0  0  0  0
   11.0962    9.3293   23.5072 C   0  0  0  0  0  0  0  0  0  0  0  0
    5.1273    7.8529   23.6208 N   0  0  0  0  0  0  0  0  0  0  0  0
    9.7552    9.2338   23.0171 N   0  0  0  0  0  0  0  0  0  0  0  0
   11.1797    6.7591   21.3326 N   0  0  0  0  0  0  0  0  0  0  0  0
   11.7728    8.0337   23.7267 C   0  0  0  0  0  0  0  0  0  0  0  0
    7.1194    8.3344   24.6775 C   0  0  0  0  0  0  0  0  0  0  0  0
    8.4311    4.7963   22.0500 C   0  0  0  0  0  0  0  0  0  0  0  0
    8.7393   10.8706   24.1871 O   0  0  0  0  0  0  0  0  0  0  0  0
    9.3093    3.8166   21.6712 C   0  0  0  0  0  0  0  0  0  0  0  0
  1  5  1  0
  1 15  4  0
  1 22  4  0
  2 20  1  0
  2 24  1  0
  3  6  4  0
  3 27  4  0
  4 22  4  0
  4 26  4  0
  6  7  4  0
  6 13  1  0
  7 19  4  0
  8 18  1  0
  8 23  1  0
  8 28  2  0
  9 17  1  0
  9 24  1  0
 10 11  1  0
 10 24  1  0
 11 23  1  0
 12 14  4  0
 12 16  4  0
 14 19  4  0
 15 18  4  0
 16 20  4  0
 17 25  1  0
 18 26  4  0
 19 29  4  0
 20 29  4  0
 21 23  1  0
 21 25  1  0
 27 29  4  0
M  END
$$$$

 Created by Python create_sdf_string function

 29 32  0  0  0  0  0  0  0  0999 V2000
    5.4450    8.7154   22.6662 C   0  0  0  0  0  0  0  0  0  0  0  0
   10.9154    5.4574   20.5483 C   0  0  0  0  0  0  0  0  0  0  0  0
    7.2709    4.5089   22.7542 C   0  0  0  0  0  0  0  0  0  0  0  0
    5.9698    7.6329   24.6581 C   0  0  0  0  0  0  0  0  0  0  0  0
    4.5542    8.9057   21.7104 O   0  0  0  0  0  0  0  0  0  0  0  0
    6.9895    3.2085   23.0690 C   0  0  0  0  0  0  0  0  0  0  0  0
    7.8391    2.2253   22.7260 N   0  0  0  0  0  0  0  0  0  0  0  0
    8.6968    9.8373   23.6359 C   0  0  0  0  0  0  0  0  0  0  0  0
   12.5135    6.5957   21.8396 C   0  0  0  0  0  0  0  0  0  0  0  0
   10.9406    8.2330   21.1350 C   0  0  0  0  0  0  0  0  0  0  0  0
    9.6648    8.5956   21.7310 C   0  0  0  0  0  0  0  0  0  0  0  0
   10.8829    1.7153   20.9865 C   0  0  0  0  0  0  0  0  0  0  0  0
    5.7768    2.8533   23.7910 C   0  0  0  0  0  0  0  0  0  0  0  0
    9.7977    1.4791   21.6912 N   0  0  0  0  0  0  0  0  0  0  0  0
    6.5976    9.3401   22.6478 N   0  0  0  0  0  0  0  0  0  0  0  0
   11.2031    3.0042   20.6246 C   0  0  0  0  0  0  0  0  0  0  0  0
   12.8688    7.7370   22.7287 C   0  0  0  0  0  0  0  0  0  0  0  0
    7.4487    9.1361   23.6506 C   0  0  0  0  0  0  0  0  0  0  0  0
    8.9772    2.5025   22.0273 C   0  0  0  0  0  0  0  0  0  0  0  0
   10.4859    4.0901   20.9730 C   0  0  0  0  0  0  0  0  0  0  0  0
   11.0962    9.3293   23.5072 C   0  0  0  0  0  0  0  0  0  0  0  0
    5.1273    7.8529   23.6208 N   0  0  0  0  0  0  0  0  0  0  0  0
    9.7552    9.2338   23.0171 N   0  0  0  0  0  0  0  0  0  0  0  0
   11.1797    6.7591   21.3326 N   0  0  0  0  0  0  0  0  0  0  0  0
   11.7728    8.0337   23.7267 C   0  0  0  0  0  0  0  0  0  0  0  0
    7.1194    8.3344   24.6775 C   0  0  0  0  0  0  0  0  0  0  0  0
    8.4311    4.7963   22.0500 C   0  0  0  0  0  0  0  0  0  0  0  0
    8.7393   10.8706   24.1871 O   0  0  0  0  0  0  0  0  0  0  0  0
    9.3093    3.8166   21.6712 C   0  0  0  0  0  0  0  0  0  0  0  0
  1  5  1  0
  1 15  4  0
  1 22  4  0
  2 20  1  0
  2 24  1  0
  3  6  4  0
  3 27  4  0
  4 22  4  0
  4 26  4  0
  6  7  4  0
  6 13  1  0
  7 19  4  0
  8 18  1  0
  8 23  1  0
  8 28  2  0
  9 17  1  0
  9 24  1  0
 10 11  1  0
 10 24  1  0
 11 23  1  0
 12 14  4  0
 12 16  4  0
 14 19  4  0
 15 18  4  0
 16 20  4  0
 17 25  1  0
 18 26  4  0
 19 29  4  0
 20 29  4  0
 21 23  1  0
 21 25  1  0
 27 29  4  0
M  END
$$$$

 Created by Python create_sdf_string function

 29 32  0  0  0  0  0  0  0  0999 V2000
    5.4450    8.7154   22.6662 C   0  0  0  0  0  0  0  0  0  0  0  0
   10.9154    5.4574   20.5483 C   0  0  0  0  0  0  0  0  0  0  0  0
    7.2709    4.5089   22.7542 C   0  0  0  0  0  0  0  0  0  0  0  0
    5.9698    7.6329   24.6581 C   0  0  0  0  0  0  0  0  0  0  0  0
    4.5542    8.9057   21.7104 O   0  0  0  0  0  0  0  0  0  0  0  0
    6.9895    3.2085   23.0690 C   0  0  0  0  0  0  0  0  0  0  0  0
    7.8391    2.2253   22.7260 N   0  0  0  0  0  0  0  0  0  0  0  0
    8.6968    9.8373   23.6359 C   0  0  0  0  0  0  0  0  0  0  0  0
   12.5135    6.5957   21.8396 C   0  0  0  0  0  0  0  0  0  0  0  0
   10.9406    8.2330   21.1350 C   0  0  0  0  0  0  0  0  0  0  0  0
    9.6648    8.5956   21.7310 C   0  0  0  0  0  0  0  0  0  0  0  0
   10.8829    1.7153   20.9865 C   0  0  0  0  0  0  0  0  0  0  0  0
    5.7768    2.8533   23.7910 C   0  0  0  0  0  0  0  0  0  0  0  0
    9.7977    1.4791   21.6912 N   0  0  0  0  0  0  0  0  0  0  0  0
    6.5976    9.3401   22.6478 N   0  0  0  0  0  0  0  0  0  0  0  0
   11.2031    3.0042   20.6246 C   0  0  0  0  0  0  0  0  0  0  0  0
   12.8688    7.7370   22.7287 C   0  0  0  0  0  0  0  0  0  0  0  0
    7.4487    9.1361   23.6506 C   0  0  0  0  0  0  0  0  0  0  0  0
    8.9772    2.5025   22.0273 C   0  0  0  0  0  0  0  0  0  0  0  0
   10.4859    4.0901   20.9730 C   0  0  0  0  0  0  0  0  0  0  0  0
   11.0962    9.3293   23.5072 C   0  0  0  0  0  0  0  0  0  0  0  0
    5.1273    7.8529   23.6208 N   0  0  0  0  0  0  0  0  0  0  0  0
    9.7552    9.2338   23.0171 N   0  0  0  0  0  0  0  0  0  0  0  0
   11.1797    6.7591   21.3326 N   0  0  0  0  0  0  0  0  0  0  0  0
   11.7728    8.0337   23.7267 C   0  0  0  0  0  0  0  0  0  0  0  0
    7.1194    8.3344   24.6775 C   0  0  0  0  0  0  0  0  0  0  0  0
    8.4311    4.7963   22.0500 C   0  0  0  0  0  0  0  0  0  0  0  0
    8.7393   10.8706   24.1871 O   0  0  0  0  0  0  0  0  0  0  0  0
    9.3093    3.8166   21.6712 C   0  0  0  0  0  0  0  0  0  0  0  0
  1  5  1  0
  1 15  4  0
  1 22  4  0
  2 20  1  0
  2 24  1  0
  3  6  4  0
  3 27  4  0
  4 22  4  0
  4 26  4  0
  6  7  4  0
  6 13  1  0
  7 19  4  0
  8 18  1  0
  8 23  1  0
  8 28  2  0
  9 17  1  0
  9 24  1  0
 10 11  1  0
 10 24  1  0
 11 23  1  0
 12 14  4  0
 12 16  4  0
 14 19  4  0
 15 18  4  0
 16 20  4  0
 17 25  1  0
 18 26  4  0
 19 29  4  0
 20 29  4  0
 21 23  1  0
 21 25  1  0
 27 29  4  0
M  END
$$$$

 Created by Python create_sdf_string function

 29 32  0  0  0  0  0  0  0  0999 V2000
    5.4450    8.7154   22.6662 C   0  0  0  0  0  0  0  0  0  0  0  0
   10.9154    5.4574   20.5483 C   0  0  0  0  0  0  0  0  0  0  0  0
    7.2709    4.5089   22.7542 C   0  0  0  0  0  0  0  0  0  0  0  0
    5.9698    7.6329   24.6581 C   0  0  0  0  0  0  0  0  0  0  0  0
    4.5542    8.9057   21.7104 O   0  0  0  0  0  0  0  0  0  0  0  0
    6.9895    3.2085   23.0690 C   0  0  0  0  0  0  0  0  0  0  0  0
    7.8391    2.2253   22.7260 N   0  0  0  0  0  0  0  0  0  0  0  0
    8.6968    9.8373   23.6359 C   0  0  0  0  0  0  0  0  0  0  0  0
   12.5135    6.5957   21.8396 C   0  0  0  0  0  0  0  0  0  0  0  0
   10.9406    8.2330   21.1350 C   0  0  0  0  0  0  0  0  0  0  0  0
    9.6648    8.5956   21.7310 C   0  0  0  0  0  0  0  0  0  0  0  0
   10.8829    1.7153   20.9865 C   0  0  0  0  0  0  0  0  0  0  0  0
    5.7768    2.8533   23.7910 C   0  0  0  0  0  0  0  0  0  0  0  0
    9.7977    1.4791   21.6912 N   0  0  0  0  0  0  0  0  0  0  0  0
    6.5976    9.3401   22.6478 N   0  0  0  0  0  0  0  0  0  0  0  0
   11.2031    3.0042   20.6246 C   0  0  0  0  0  0  0  0  0  0  0  0
   12.8688    7.7370   22.7287 C   0  0  0  0  0  0  0  0  0  0  0  0
    7.4487    9.1361   23.6506 C   0  0  0  0  0  0  0  0  0  0  0  0
    8.9772    2.5025   22.0273 C   0  0  0  0  0  0  0  0  0  0  0  0
   10.4859    4.0901   20.9730 C   0  0  0  0  0  0  0  0  0  0  0  0
   11.0962    9.3293   23.5072 C   0  0  0  0  0  0  0  0  0  0  0  0
    5.1273    7.8529   23.6208 N   0  0  0  0  0  0  0  0  0  0  0  0
    9.7552    9.2338   23.0171 N   0  0  0  0  0  0  0  0  0  0  0  0
   11.1797    6.7591   21.3326 N   0  0  0  0  0  0  0  0  0  0  0  0
   11.7728    8.0337   23.7267 C   0  0  0  0  0  0  0  0  0  0  0  0
    7.1194    8.3344   24.6775 C   0  0  0  0  0  0  0  0  0  0  0  0
    8.4311    4.7963   22.0500 C   0  0  0  0  0  0  0  0  0  0  0  0
    8.7393   10.8706   24.1871 O   0  0  0  0  0  0  0  0  0  0  0  0
    9.3093    3.8166   21.6712 C   0  0  0  0  0  0  0  0  0  0  0  0
  1  5  1  0
  1 15  4  0
  1 22  4  0
  2 20  1  0
  2 24  1  0
  3  6  4  0
  3 27  4  0
  4 22  4  0
  4 26  4  0
  6  7  4  0
  6 13  1  0
  7 19  4  0
  8 18  1  0
  8 23  1  0
  8 28  2  0
  9 17  1  0
  9 24  1  0
 10 11  1  0
 10 24  1  0
 11 23  1  0
 12 14  4  0
 12 16  4  0
 14 19  4  0
 15 18  4  0
 16 20  4  0
 17 25  1  0
 18 26  4  0
 19 29  4  0
 20 29  4  0
 21 23  1  0
 21 25  1  0
 27 29  4  0
M  END
$$$$

 Created by Python create_sdf_string function

 29 32  0  0  0  0  0  0  0  0999 V2000
    5.4450    8.7154   22.6662 C   0  0  0  0  0  0  0  0  0  0  0  0
   10.9154    5.4574   20.5483 C   0  0  0  0  0  0  0  0  0  0  0  0
    7.2709    4.5089   22.7542 C   0  0  0  0  0  0  0  0  0  0  0  0
    5.9698    7.6329   24.6581 C   0  0  0  0  0  0  0  0  0  0  0  0
    4.5542    8.9057   21.7104 O   0  0  0  0  0  0  0  0  0  0  0  0
    6.9895    3.2085   23.0690 C   0  0  0  0  0  0  0  0  0  0  0  0
    7.8391    2.2253   22.7260 N   0  0  0  0  0  0  0  0  0  0  0  0
    8.6968    9.8373   23.6359 C   0  0  0  0  0  0  0  0  0  0  0  0
   12.5135    6.5957   21.8396 C   0  0  0  0  0  0  0  0  0  0  0  0
   10.9406    8.2330   21.1350 C   0  0  0  0  0  0  0  0  0  0  0  0
    9.6648    8.5956   21.7310 C   0  0  0  0  0  0  0  0  0  0  0  0
   10.8829    1.7153   20.9865 C   0  0  0  0  0  0  0  0  0  0  0  0
    5.7768    2.8533   23.7910 C   0  0  0  0  0  0  0  0  0  0  0  0
    9.7977    1.4791   21.6912 N   0  0  0  0  0  0  0  0  0  0  0  0
    6.5976    9.3401   22.6478 N   0  0  0  0  0  0  0  0  0  0  0  0
   11.2031    3.0042   20.6246 C   0  0  0  0  0  0  0  0  0  0  0  0
   12.8688    7.7370   22.7287 C   0  0  0  0  0  0  0  0  0  0  0  0
    7.4487    9.1361   23.6506 C   0  0  0  0  0  0  0  0  0  0  0  0
    8.9772    2.5025   22.0273 C   0  0  0  0  0  0  0  0  0  0  0  0
   10.4859    4.0901   20.9730 C   0  0  0  0  0  0  0  0  0  0  0  0
   11.0962    9.3293   23.5072 C   0  0  0  0  0  0  0  0  0  0  0  0
    5.1273    7.8529   23.6208 N   0  0  0  0  0  0  0  0  0  0  0  0
    9.7552    9.2338   23.0171 N   0  0  0  0  0  0  0  0  0  0  0  0
   11.1797    6.7591   21.3326 N   0  0  0  0  0  0  0  0  0  0  0  0
   11.7728    8.0337   23.7267 C   0  0  0  0  0  0  0  0  0  0  0  0
    7.1194    8.3344   24.6775 C   0  0  0  0  0  0  0  0  0  0  0  0
    8.4311    4.7963   22.0500 C   0  0  0  0  0  0  0  0  0  0  0  0
    8.7393   10.8706   24.1871 O   0  0  0  0  0  0  0  0  0  0  0  0
    9.3093    3.8166   21.6712 C   0  0  0  0  0  0  0  0  0  0  0  0
  1  5  1  0
  1 15  4  0
  1 22  4  0
  2 20  1  0
  2 24  1  0
  3  6  4  0
  3 27  4  0
  4 22  4  0
  4 26  4  0
  6  7  4  0
  6 13  1  0
  7 19  4  0
  8 18  1  0
  8 23  1  0
  8 28  2  0
  9 17  1  0
  9 24  1  0
 10 11  1  0
 10 24  1  0
 11 23  1  0
 12 14  4  0
 12 16  4  0
 14 19  4  0
 15 18  4  0
 16 20  4  0
 17 25  1  0
 18 26  4  0
 19 29  4  0
 20 29  4  0
 21 23  1  0
 21 25  1  0
 27 29  4  0
M  END
$$$$

 Created by Python create_sdf_string function

 29 32  0  0  0  0  0  0  0  0999 V2000
    5.4450    8.7154   22.6662 C   0  0  0  0  0  0  0  0  0  0  0  0
   10.9154    5.4574   20.5483 C   0  0  0  0  0  0  0  0  0  0  0  0
    7.2709    4.5089   22.7542 C   0  0  0  0  0  0  0  0  0  0  0  0
    5.9698    7.6329   24.6581 C   0  0  0  0  0  0  0  0  0  0  0  0
    4.5542    8.9057   21.7104 O   0  0  0  0  0  0  0  0  0  0  0  0
    6.9895    3.2085   23.0690 C   0  0  0  0  0  0  0  0  0  0  0  0
    7.8391    2.2253   22.7260 N   0  0  0  0  0  0  0  0  0  0  0  0
    8.6968    9.8373   23.6359 C   0  0  0  0  0  0  0  0  0  0  0  0
   12.5135    6.5957   21.8396 C   0  0  0  0  0  0  0  0  0  0  0  0
   10.9406    8.2330   21.1350 C   0  0  0  0  0  0  0  0  0  0  0  0
    9.6648    8.5956   21.7310 C   0  0  0  0  0  0  0  0  0  0  0  0
   10.8829    1.7153   20.9865 C   0  0  0  0  0  0  0  0  0  0  0  0
    5.7768    2.8533   23.7910 C   0  0  0  0  0  0  0  0  0  0  0  0
    9.7977    1.4791   21.6912 N   0  0  0  0  0  0  0  0  0  0  0  0
    6.5976    9.3401   22.6478 N   0  0  0  0  0  0  0  0  0  0  0  0
   11.2031    3.0042   20.6246 C   0  0  0  0  0  0  0  0  0  0  0  0
   12.8688    7.7370   22.7287 C   0  0  0  0  0  0  0  0  0  0  0  0
    7.4487    9.1361   23.6506 C   0  0  0  0  0  0  0  0  0  0  0  0
    8.9772    2.5025   22.0273 C   0  0  0  0  0  0  0  0  0  0  0  0
   10.4859    4.0901   20.9730 C   0  0  0  0  0  0  0  0  0  0  0  0
   11.0962    9.3293   23.5072 C   0  0  0  0  0  0  0  0  0  0  0  0
    5.1273    7.8529   23.6208 N   0  0  0  0  0  0  0  0  0  0  0  0
    9.7552    9.2338   23.0171 N   0  0  0  0  0  0  0  0  0  0  0  0
   11.1797    6.7591   21.3326 N   0  0  0  0  0  0  0  0  0  0  0  0
   11.7728    8.0337   23.7267 C   0  0  0  0  0  0  0  0  0  0  0  0
    7.1194    8.3344   24.6775 C   0  0  0  0  0  0  0  0  0  0  0  0
    8.4311    4.7963   22.0500 C   0  0  0  0  0  0  0  0  0  0  0  0
    8.7393   10.8706   24.1871 O   0  0  0  0  0  0  0  0  0  0  0  0
    9.3093    3.8166   21.6712 C   0  0  0  0  0  0  0  0  0  0  0  0
  1  5  1  0
  1 15  4  0
  1 22  4  0
  2 20  1  0
  2 24  1  0
  3  6  4  0
  3 27  4  0
  4 22  4  0
  4 26  4  0
  6  7  4  0
  6 13  1  0
  7 19  4  0
  8 18  1  0
  8 23  1  0
  8 28  2  0
  9 17  1  0
  9 24  1  0
 10 11  1  0
 10 24  1  0
 11 23  1  0
 12 14  4  0
 12 16  4  0
 14 19  4  0
 15 18  4  0
 16 20  4  0
 17 25  1  0
 18 26  4  0
 19 29  4  0
 20 29  4  0
 21 23  1  0
 21 25  1  0
 27 29  4  0
M  END
$$$$

 Created by Python create_sdf_string function

 29 32  0  0  0  0  0  0  0  0999 V2000
    5.4450    8.7154   22.6662 C   0  0  0  0  0  0  0  0  0  0  0  0
   10.9154    5.4574   20.5483 C   0  0  0  0  0  0  0  0  0  0  0  0
    7.2709    4.5089   22.7542 C   0  0  0  0  0  0  0  0  0  0  0  0
    5.9698    7.6329   24.6581 C   0  0  0  0  0  0  0  0  0  0  0  0
    4.5542    8.9057   21.7104 O   0  0  0  0  0  0  0  0  0  0  0  0
    6.9895    3.2085   23.0690 C   0  0  0  0  0  0  0  0  0  0  0  0
    7.8391    2.2253   22.7260 N   0  0  0  0  0  0  0  0  0  0  0  0
    8.6968    9.8373   23.6359 C   0  0  0  0  0  0  0  0  0  0  0  0
   12.5135    6.5957   21.8396 C   0  0  0  0  0  0  0  0  0  0  0  0
   10.9406    8.2330   21.1350 C   0  0  0  0  0  0  0  0  0  0  0  0
    9.6648    8.5956   21.7310 C   0  0  0  0  0  0  0  0  0  0  0  0
   10.8829    1.7153   20.9865 C   0  0  0  0  0  0  0  0  0  0  0  0
    5.7768    2.8533   23.7910 C   0  0  0  0  0  0  0  0  0  0  0  0
    9.7977    1.4791   21.6912 N   0  0  0  0  0  0  0  0  0  0  0  0
    6.5976    9.3401   22.6478 N   0  0  0  0  0  0  0  0  0  0  0  0
   11.2031    3.0042   20.6246 C   0  0  0  0  0  0  0  0  0  0  0  0
   12.8688    7.7370   22.7287 C   0  0  0  0  0  0  0  0  0  0  0  0
    7.4487    9.1361   23.6506 C   0  0  0  0  0  0  0  0  0  0  0  0
    8.9772    2.5025   22.0273 C   0  0  0  0  0  0  0  0  0  0  0  0
   10.4859    4.0901   20.9730 C   0  0  0  0  0  0  0  0  0  0  0  0
   11.0962    9.3293   23.5072 C   0  0  0  0  0  0  0  0  0  0  0  0
    5.1273    7.8529   23.6208 N   0  0  0  0  0  0  0  0  0  0  0  0
    9.7552    9.2338   23.0171 N   0  0  0  0  0  0  0  0  0  0  0  0
   11.1797    6.7591   21.3326 N   0  0  0  0  0  0  0  0  0  0  0  0
   11.7728    8.0337   23.7267 C   0  0  0  0  0  0  0  0  0  0  0  0
    7.1194    8.3344   24.6775 C   0  0  0  0  0  0  0  0  0  0  0  0
    8.4311    4.7963   22.0500 C   0  0  0  0  0  0  0  0  0  0  0  0
    8.7393   10.8706   24.1871 O   0  0  0  0  0  0  0  0  0  0  0  0
    9.3093    3.8166   21.6712 C   0  0  0  0  0  0  0  0  0  0  0  0
  1  5  1  0
  1 15  4  0
  1 22  4  0
  2 20  1  0
  2 24  1  0
  3  6  4  0
  3 27  4  0
  4 22  4  0
  4 26  4  0
  6  7  4  0
  6 13  1  0
  7 19  4  0
  8 18  1  0
  8 23  1  0
  8 28  2  0
  9 17  1  0
  9 24  1  0
 10 11  1  0
 10 24  1  0
 11 23  1  0
 12 14  4  0
 12 16  4  0
 14 19  4  0
 15 18  4  0
 16 20  4  0
 17 25  1  0
 18 26  4  0
 19 29  4  0
 20 29  4  0
 21 23  1  0
 21 25  1  0
 27 29  4  0
M  END
$$$$

 Created by Python create_sdf_string function

 29 32  0  0  0  0  0  0  0  0999 V2000
    5.4450    8.7154   22.6662 C   0  0  0  0  0  0  0  0  0  0  0  0
   10.9154    5.4574   20.5483 C   0  0  0  0  0  0  0  0  0  0  0  0
    7.2709    4.5089   22.7542 C   0  0  0  0  0  0  0  0  0  0  0  0
    5.9698    7.6329   24.6581 C   0  0  0  0  0  0  0  0  0  0  0  0
    4.5542    8.9057   21.7104 O   0  0  0  0  0  0  0  0  0  0  0  0
    6.9895    3.2085   23.0690 C   0  0  0  0  0  0  0  0  0  0  0  0
    7.8391    2.2253   22.7260 N   0  0  0  0  0  0  0  0  0  0  0  0
    8.6968    9.8373   23.6359 C   0  0  0  0  0  0  0  0  0  0  0  0
   12.5135    6.5957   21.8396 C   0  0  0  0  0  0  0  0  0  0  0  0
   10.9406    8.2330   21.1350 C   0  0  0  0  0  0  0  0  0  0  0  0
    9.6648    8.5956   21.7310 C   0  0  0  0  0  0  0  0  0  0  0  0
   10.8829    1.7153   20.9865 C   0  0  0  0  0  0  0  0  0  0  0  0
    5.7768    2.8533   23.7910 C   0  0  0  0  0  0  0  0  0  0  0  0
    9.7977    1.4791   21.6912 N   0  0  0  0  0  0  0  0  0  0  0  0
    6.5976    9.3401   22.6478 N   0  0  0  0  0  0  0  0  0  0  0  0
   11.2031    3.0042   20.6246 C   0  0  0  0  0  0  0  0  0  0  0  0
   12.8688    7.7370   22.7287 C   0  0  0  0  0  0  0  0  0  0  0  0
    7.4487    9.1361   23.6506 C   0  0  0  0  0  0  0  0  0  0  0  0
    8.9772    2.5025   22.0273 C   0  0  0  0  0  0  0  0  0  0  0  0
   10.4859    4.0901   20.9730 C   0  0  0  0  0  0  0  0  0  0  0  0
   11.0962    9.3293   23.5072 C   0  0  0  0  0  0  0  0  0  0  0  0
    5.1273    7.8529   23.6208 N   0  0  0  0  0  0  0  0  0  0  0  0
    9.7552    9.2338   23.0171 N   0  0  0  0  0  0  0  0  0  0  0  0
   11.1797    6.7591   21.3326 N   0  0  0  0  0  0  0  0  0  0  0  0
   11.7728    8.0337   23.7267 C   0  0  0  0  0  0  0  0  0  0  0  0
    7.1194    8.3344   24.6775 C   0  0  0  0  0  0  0  0  0  0  0  0
    8.4311    4.7963   22.0500 C   0  0  0  0  0  0  0  0  0  0  0  0
    8.7393   10.8706   24.1871 O   0  0  0  0  0  0  0  0  0  0  0  0
    9.3093    3.8166   21.6712 C   0  0  0  0  0  0  0  0  0  0  0  0
  1  5  1  0
  1 15  4  0
  1 22  4  0
  2 20  1  0
  2 24  1  0
  3  6  4  0
  3 27  4  0
  4 22  4  0
  4 26  4  0
  6  7  4  0
  6 13  1  0
  7 19  4  0
  8 18  1  0
  8 23  1  0
  8 28  2  0
  9 17  1  0
  9 24  1  0
 10 11  1  0
 10 24  1  0
 11 23  1  0
 12 14  4  0
 12 16  4  0
 14 19  4  0
 15 18  4  0
 16 20  4  0
 17 25  1  0
 18 26  4  0
 19 29  4  0
 20 29  4  0
 21 23  1  0
 21 25  1  0
 27 29  4  0
M  END
$$$$

 Created by Python create_sdf_string function

 29 32  0  0  0  0  0  0  0  0999 V2000
    5.4450    8.7154   22.6662 C   0  0  0  0  0  0  0  0  0  0  0  0
   10.9154    5.4574   20.5483 C   0  0  0  0  0  0  0  0  0  0  0  0
    7.2709    4.5089   22.7542 C   0  0  0  0  0  0  0  0  0  0  0  0
    5.9698    7.6329   24.6581 C   0  0  0  0  0  0  0  0  0  0  0  0
    4.5542    8.9057   21.7104 O   0  0  0  0  0  0  0  0  0  0  0  0
    6.9895    3.2085   23.0690 C   0  0  0  0  0  0  0  0  0  0  0  0
    7.8391    2.2253   22.7260 N   0  0  0  0  0  0  0  0  0  0  0  0
    8.6968    9.8373   23.6359 C   0  0  0  0  0  0  0  0  0  0  0  0
   12.5135    6.5957   21.8396 C   0  0  0  0  0  0  0  0  0  0  0  0
   10.9406    8.2330   21.1350 C   0  0  0  0  0  0  0  0  0  0  0  0
    9.6648    8.5956   21.7310 C   0  0  0  0  0  0  0  0  0  0  0  0
   10.8829    1.7153   20.9865 C   0  0  0  0  0  0  0  0  0  0  0  0
    5.7768    2.8533   23.7910 C   0  0  0  0  0  0  0  0  0  0  0  0
    9.7977    1.4791   21.6912 N   0  0  0  0  0  0  0  0  0  0  0  0
    6.5976    9.3401   22.6478 N   0  0  0  0  0  0  0  0  0  0  0  0
   11.2031    3.0042   20.6246 C   0  0  0  0  0  0  0  0  0  0  0  0
   12.8688    7.7370   22.7287 C   0  0  0  0  0  0  0  0  0  0  0  0
    7.4487    9.1361   23.6506 C   0  0  0  0  0  0  0  0  0  0  0  0
    8.9772    2.5025   22.0273 C   0  0  0  0  0  0  0  0  0  0  0  0
   10.4859    4.0901   20.9730 C   0  0  0  0  0  0  0  0  0  0  0  0
   11.0962    9.3293   23.5072 C   0  0  0  0  0  0  0  0  0  0  0  0
    5.1273    7.8529   23.6208 N   0  0  0  0  0  0  0  0  0  0  0  0
    9.7552    9.2338   23.0171 N   0  0  0  0  0  0  0  0  0  0  0  0
   11.1797    6.7591   21.3326 N   0  0  0  0  0  0  0  0  0  0  0  0
   11.7728    8.0337   23.7267 C   0  0  0  0  0  0  0  0  0  0  0  0
    7.1194    8.3344   24.6775 C   0  0  0  0  0  0  0  0  0  0  0  0
    8.4311    4.7963   22.0500 C   0  0  0  0  0  0  0  0  0  0  0  0
    8.7393   10.8706   24.1871 O   0  0  0  0  0  0  0  0  0  0  0  0
    9.3093    3.8166   21.6712 C   0  0  0  0  0  0  0  0  0  0  0  0
  1  5  1  0
  1 15  4  0
  1 22  4  0
  2 20  1  0
  2 24  1  0
  3  6  4  0
  3 27  4  0
  4 22  4  0
  4 26  4  0
  6  7  4  0
  6 13  1  0
  7 19  4  0
  8 18  1  0
  8 23  1  0
  8 28  2  0
  9 17  1  0
  9 24  1  0
 10 11  1  0
 10 24  1  0
 11 23  1  0
 12 14  4  0
 12 16  4  0
 14 19  4  0
 15 18  4  0
 16 20  4  0
 17 25  1  0
 18 26  4  0
 19 29  4  0
 20 29  4  0
 21 23  1  0
 21 25  1  0
 27 29  4  0
M  END
$$$$

 Created by Python create_sdf_string function

 29 32  0  0  0  0  0  0  0  0999 V2000
    5.4450    8.7154   22.6662 C   0  0  0  0  0  0  0  0  0  0  0  0
   10.9154    5.4574   20.5483 C   0  0  0  0  0  0  0  0  0  0  0  0
    7.2709    4.5089   22.7542 C   0  0  0  0  0  0  0  0  0  0  0  0
    5.9698    7.6329   24.6581 C   0  0  0  0  0  0  0  0  0  0  0  0
    4.5542    8.9057   21.7104 O   0  0  0  0  0  0  0  0  0  0  0  0
    6.9895    3.2085   23.0690 C   0  0  0  0  0  0  0  0  0  0  0  0
    7.8391    2.2253   22.7260 N   0  0  0  0  0  0  0  0  0  0  0  0
    8.6968    9.8373   23.6359 C   0  0  0  0  0  0  0  0  0  0  0  0
   12.5135    6.5957   21.8396 C   0  0  0  0  0  0  0  0  0  0  0  0
   10.9406    8.2330   21.1350 C   0  0  0  0  0  0  0  0  0  0  0  0
    9.6648    8.5956   21.7310 C   0  0  0  0  0  0  0  0  0  0  0  0
   10.8829    1.7153   20.9865 C   0  0  0  0  0  0  0  0  0  0  0  0
    5.7768    2.8533   23.7910 C   0  0  0  0  0  0  0  0  0  0  0  0
    9.7977    1.4791   21.6912 N   0  0  0  0  0  0  0  0  0  0  0  0
    6.5976    9.3401   22.6478 N   0  0  0  0  0  0  0  0  0  0  0  0
   11.2031    3.0042   20.6246 C   0  0  0  0  0  0  0  0  0  0  0  0
   12.8688    7.7370   22.7287 C   0  0  0  0  0  0  0  0  0  0  0  0
    7.4487    9.1361   23.6506 C   0  0  0  0  0  0  0  0  0  0  0  0
    8.9772    2.5025   22.0273 C   0  0  0  0  0  0  0  0  0  0  0  0
   10.4859    4.0901   20.9730 C   0  0  0  0  0  0  0  0  0  0  0  0
   11.0962    9.3293   23.5072 C   0  0  0  0  0  0  0  0  0  0  0  0
    5.1273    7.8529   23.6208 N   0  0  0  0  0  0  0  0  0  0  0  0
    9.7552    9.2338   23.0171 N   0  0  0  0  0  0  0  0  0  0  0  0
   11.1797    6.7591   21.3326 N   0  0  0  0  0  0  0  0  0  0  0  0
   11.7728    8.0337   23.7267 C   0  0  0  0  0  0  0  0  0  0  0  0
    7.1194    8.3344   24.6775 C   0  0  0  0  0  0  0  0  0  0  0  0
    8.4311    4.7963   22.0500 C   0  0  0  0  0  0  0  0  0  0  0  0
    8.7393   10.8706   24.1871 O   0  0  0  0  0  0  0  0  0  0  0  0
    9.3093    3.8166   21.6712 C   0  0  0  0  0  0  0  0  0  0  0  0
  1  5  1  0
  1 15  4  0
  1 22  4  0
  2 20  1  0
  2 24  1  0
  3  6  4  0
  3 27  4  0
  4 22  4  0
  4 26  4  0
  6  7  4  0
  6 13  1  0
  7 19  4  0
  8 18  1  0
  8 23  1  0
  8 28  2  0
  9 17  1  0
  9 24  1  0
 10 11  1  0
 10 24  1  0
 11 23  1  0
 12 14  4  0
 12 16  4  0
 14 19  4  0
 15 18  4  0
 16 20  4  0
 17 25  1  0
 18 26  4  0
 19 29  4  0
 20 29  4  0
 21 23  1  0
 21 25  1  0
 27 29  4  0
M  END
$$$$

 Created by Python create_sdf_string function

 29 32  0  0  0  0  0  0  0  0999 V2000
    5.4450    8.7154   22.6662 C   0  0  0  0  0  0  0  0  0  0  0  0
   10.9154    5.4574   20.5483 C   0  0  0  0  0  0  0  0  0  0  0  0
    7.2709    4.5089   22.7542 C   0  0  0  0  0  0  0  0  0  0  0  0
    5.9698    7.6329   24.6581 C   0  0  0  0  0  0  0  0  0  0  0  0
    4.5542    8.9057   21.7104 O   0  0  0  0  0  0  0  0  0  0  0  0
    6.9895    3.2085   23.0690 C   0  0  0  0  0  0  0  0  0  0  0  0
    7.8391    2.2253   22.7260 N   0  0  0  0  0  0  0  0  0  0  0  0
    8.6968    9.8373   23.6359 C   0  0  0  0  0  0  0  0  0  0  0  0
   12.5135    6.5957   21.8396 C   0  0  0  0  0  0  0  0  0  0  0  0
   10.9406    8.2330   21.1350 C   0  0  0  0  0  0  0  0  0  0  0  0
    9.6648    8.5956   21.7310 C   0  0  0  0  0  0  0  0  0  0  0  0
   10.8829    1.7153   20.9865 C   0  0  0  0  0  0  0  0  0  0  0  0
    5.7768    2.8533   23.7910 C   0  0  0  0  0  0  0  0  0  0  0  0
    9.7977    1.4791   21.6912 N   0  0  0  0  0  0  0  0  0  0  0  0
    6.5976    9.3401   22.6478 N   0  0  0  0  0  0  0  0  0  0  0  0
   11.2031    3.0042   20.6246 C   0  0  0  0  0  0  0  0  0  0  0  0
   12.8688    7.7370   22.7287 C   0  0  0  0  0  0  0  0  0  0  0  0
    7.4487    9.1361   23.6506 C   0  0  0  0  0  0  0  0  0  0  0  0
    8.9772    2.5025   22.0273 C   0  0  0  0  0  0  0  0  0  0  0  0
   10.4859    4.0901   20.9730 C   0  0  0  0  0  0  0  0  0  0  0  0
   11.0962    9.3293   23.5072 C   0  0  0  0  0  0  0  0  0  0  0  0
    5.1273    7.8529   23.6208 N   0  0  0  0  0  0  0  0  0  0  0  0
    9.7552    9.2338   23.0171 N   0  0  0  0  0  0  0  0  0  0  0  0
   11.1797    6.7591   21.3326 N   0  0  0  0  0  0  0  0  0  0  0  0
   11.7728    8.0337   23.7267 C   0  0  0  0  0  0  0  0  0  0  0  0
    7.1194    8.3344   24.6775 C   0  0  0  0  0  0  0  0  0  0  0  0
    8.4311    4.7963   22.0500 C   0  0  0  0  0  0  0  0  0  0  0  0
    8.7393   10.8706   24.1871 O   0  0  0  0  0  0  0  0  0  0  0  0
    9.3093    3.8166   21.6712 C   0  0  0  0  0  0  0  0  0  0  0  0
  1  5  1  0
  1 15  4  0
  1 22  4  0
  2 20  1  0
  2 24  1  0
  3  6  4  0
  3 27  4  0
  4 22  4  0
  4 26  4  0
  6  7  4  0
  6 13  1  0
  7 19  4  0
  8 18  1  0
  8 23  1  0
  8 28  2  0
  9 17  1  0
  9 24  1  0
 10 11  1  0
 10 24  1  0
 11 23  1  0
 12 14  4  0
 12 16  4  0
 14 19  4  0
 15 18  4  0
 16 20  4  0
 17 25  1  0
 18 26  4  0
 19 29  4  0
 20 29  4  0
 21 23  1  0
 21 25  1  0
 27 29  4  0
M  END
$$$$

 Created by Python create_sdf_string function

 29 32  0  0  0  0  0  0  0  0999 V2000
    5.4450    8.7154   22.6662 C   0  0  0  0  0  0  0  0  0  0  0  0
   10.9154    5.4574   20.5483 C   0  0  0  0  0  0  0  0  0  0  0  0
    7.2709    4.5089   22.7542 C   0  0  0  0  0  0  0  0  0  0  0  0
    5.9698    7.6329   24.6581 C   0  0  0  0  0  0  0  0  0  0  0  0
    4.5542    8.9057   21.7104 O   0  0  0  0  0  0  0  0  0  0  0  0
    6.9895    3.2085   23.0690 C   0  0  0  0  0  0  0  0  0  0  0  0
    7.8391    2.2253   22.7260 N   0  0  0  0  0  0  0  0  0  0  0  0
    8.6968    9.8373   23.6359 C   0  0  0  0  0  0  0  0  0  0  0  0
   12.5135    6.5957   21.8396 C   0  0  0  0  0  0  0  0  0  0  0  0
   10.9406    8.2330   21.1350 C   0  0  0  0  0  0  0  0  0  0  0  0
    9.6648    8.5956   21.7310 C   0  0  0  0  0  0  0  0  0  0  0  0
   10.8829    1.7153   20.9865 C   0  0  0  0  0  0  0  0  0  0  0  0
    5.7768    2.8533   23.7910 C   0  0  0  0  0  0  0  0  0  0  0  0
    9.7977    1.4791   21.6912 N   0  0  0  0  0  0  0  0  0  0  0  0
    6.5976    9.3401   22.6478 N   0  0  0  0  0  0  0  0  0  0  0  0
   11.2031    3.0042   20.6246 C   0  0  0  0  0  0  0  0  0  0  0  0
   12.8688    7.7370   22.7287 C   0  0  0  0  0  0  0  0  0  0  0  0
    7.4487    9.1361   23.6506 C   0  0  0  0  0  0  0  0  0  0  0  0
    8.9772    2.5025   22.0273 C   0  0  0  0  0  0  0  0  0  0  0  0
   10.4859    4.0901   20.9730 C   0  0  0  0  0  0  0  0  0  0  0  0
   11.0962    9.3293   23.5072 C   0  0  0  0  0  0  0  0  0  0  0  0
    5.1273    7.8529   23.6208 N   0  0  0  0  0  0  0  0  0  0  0  0
    9.7552    9.2338   23.0171 N   0  0  0  0  0  0  0  0  0  0  0  0
   11.1797    6.7591   21.3326 N   0  0  0  0  0  0  0  0  0  0  0  0
   11.7728    8.0337   23.7267 C   0  0  0  0  0  0  0  0  0  0  0  0
    7.1194    8.3344   24.6775 C   0  0  0  0  0  0  0  0  0  0  0  0
    8.4311    4.7963   22.0500 C   0  0  0  0  0  0  0  0  0  0  0  0
    8.7393   10.8706   24.1871 O   0  0  0  0  0  0  0  0  0  0  0  0
    9.3093    3.8166   21.6712 C   0  0  0  0  0  0  0  0  0  0  0  0
  1  5  1  0
  1 15  4  0
  1 22  4  0
  2 20  1  0
  2 24  1  0
  3  6  4  0
  3 27  4  0
  4 22  4  0
  4 26  4  0
  6  7  4  0
  6 13  1  0
  7 19  4  0
  8 18  1  0
  8 23  1  0
  8 28  2  0
  9 17  1  0
  9 24  1  0
 10 11  1  0
 10 24  1  0
 11 23  1  0
 12 14  4  0
 12 16  4  0
 14 19  4  0
 15 18  4  0
 16 20  4  0
 17 25  1  0
 18 26  4  0
 19 29  4  0
 20 29  4  0
 21 23  1  0
 21 25  1  0
 27 29  4  0
M  END
$$$$

 Created by Python create_sdf_string function

 29 32  0  0  0  0  0  0  0  0999 V2000
    5.4450    8.7154   22.6662 C   0  0  0  0  0  0  0  0  0  0  0  0
   10.9154    5.4574   20.5483 C   0  0  0  0  0  0  0  0  0  0  0  0
    7.2709    4.5089   22.7542 C   0  0  0  0  0  0  0  0  0  0  0  0
    5.9698    7.6329   24.6581 C   0  0  0  0  0  0  0  0  0  0  0  0
    4.5542    8.9057   21.7104 O   0  0  0  0  0  0  0  0  0  0  0  0
    6.9895    3.2085   23.0690 C   0  0  0  0  0  0  0  0  0  0  0  0
    7.8391    2.2253   22.7260 N   0  0  0  0  0  0  0  0  0  0  0  0
    8.6968    9.8373   23.6359 C   0  0  0  0  0  0  0  0  0  0  0  0
   12.5135    6.5957   21.8396 C   0  0  0  0  0  0  0  0  0  0  0  0
   10.9406    8.2330   21.1350 C   0  0  0  0  0  0  0  0  0  0  0  0
    9.6648    8.5956   21.7310 C   0  0  0  0  0  0  0  0  0  0  0  0
   10.8829    1.7153   20.9865 C   0  0  0  0  0  0  0  0  0  0  0  0
    5.7768    2.8533   23.7910 C   0  0  0  0  0  0  0  0  0  0  0  0
    9.7977    1.4791   21.6912 N   0  0  0  0  0  0  0  0  0  0  0  0
    6.5976    9.3401   22.6478 N   0  0  0  0  0  0  0  0  0  0  0  0
   11.2031    3.0042   20.6246 C   0  0  0  0  0  0  0  0  0  0  0  0
   12.8688    7.7370   22.7287 C   0  0  0  0  0  0  0  0  0  0  0  0
    7.4487    9.1361   23.6506 C   0  0  0  0  0  0  0  0  0  0  0  0
    8.9772    2.5025   22.0273 C   0  0  0  0  0  0  0  0  0  0  0  0
   10.4859    4.0901   20.9730 C   0  0  0  0  0  0  0  0  0  0  0  0
   11.0962    9.3293   23.5072 C   0  0  0  0  0  0  0  0  0  0  0  0
    5.1273    7.8529   23.6208 N   0  0  0  0  0  0  0  0  0  0  0  0
    9.7552    9.2338   23.0171 N   0  0  0  0  0  0  0  0  0  0  0  0
   11.1797    6.7591   21.3326 N   0  0  0  0  0  0  0  0  0  0  0  0
   11.7728    8.0337   23.7267 C   0  0  0  0  0  0  0  0  0  0  0  0
    7.1194    8.3344   24.6775 C   0  0  0  0  0  0  0  0  0  0  0  0
    8.4311    4.7963   22.0500 C   0  0  0  0  0  0  0  0  0  0  0  0
    8.7393   10.8706   24.1871 O   0  0  0  0  0  0  0  0  0  0  0  0
    9.3093    3.8166   21.6712 C   0  0  0  0  0  0  0  0  0  0  0  0
  1  5  1  0
  1 15  4  0
  1 22  4  0
  2 20  1  0
  2 24  1  0
  3  6  4  0
  3 27  4  0
  4 22  4  0
  4 26  4  0
  6  7  4  0
  6 13  1  0
  7 19  4  0
  8 18  1  0
  8 23  1  0
  8 28  2  0
  9 17  1  0
  9 24  1  0
 10 11  1  0
 10 24  1  0
 11 23  1  0
 12 14  4  0
 12 16  4  0
 14 19  4  0
 15 18  4  0
 16 20  4  0
 17 25  1  0
 18 26  4  0
 19 29  4  0
 20 29  4  0
 21 23  1  0
 21 25  1  0
 27 29  4  0
M  END
$$$$

 Created by Python create_sdf_string function

 29 32  0  0  0  0  0  0  0  0999 V2000
    5.4450    8.7154   22.6662 C   0  0  0  0  0  0  0  0  0  0  0  0
   10.9154    5.4574   20.5483 C   0  0  0  0  0  0  0  0  0  0  0  0
    7.2709    4.5089   22.7542 C   0  0  0  0  0  0  0  0  0  0  0  0
    5.9698    7.6329   24.6581 C   0  0  0  0  0  0  0  0  0  0  0  0
    4.5542    8.9057   21.7104 O   0  0  0  0  0  0  0  0  0  0  0  0
    6.9895    3.2085   23.0690 C   0  0  0  0  0  0  0  0  0  0  0  0
    7.8391    2.2253   22.7260 N   0  0  0  0  0  0  0  0  0  0  0  0
    8.6968    9.8373   23.6359 C   0  0  0  0  0  0  0  0  0  0  0  0
   12.5135    6.5957   21.8396 C   0  0  0  0  0  0  0  0  0  0  0  0
   10.9406    8.2330   21.1350 C   0  0  0  0  0  0  0  0  0  0  0  0
    9.6648    8.5956   21.7310 C   0  0  0  0  0  0  0  0  0  0  0  0
   10.8829    1.7153   20.9865 C   0  0  0  0  0  0  0  0  0  0  0  0
    5.7768    2.8533   23.7910 C   0  0  0  0  0  0  0  0  0  0  0  0
    9.7977    1.4791   21.6912 N   0  0  0  0  0  0  0  0  0  0  0  0
    6.5976    9.3401   22.6478 N   0  0  0  0  0  0  0  0  0  0  0  0
   11.2031    3.0042   20.6246 C   0  0  0  0  0  0  0  0  0  0  0  0
   12.8688    7.7370   22.7287 C   0  0  0  0  0  0  0  0  0  0  0  0
    7.4487    9.1361   23.6506 C   0  0  0  0  0  0  0  0  0  0  0  0
    8.9772    2.5025   22.0273 C   0  0  0  0  0  0  0  0  0  0  0  0
   10.4859    4.0901   20.9730 C   0  0  0  0  0  0  0  0  0  0  0  0
   11.0962    9.3293   23.5072 C   0  0  0  0  0  0  0  0  0  0  0  0
    5.1273    7.8529   23.6208 N   0  0  0  0  0  0  0  0  0  0  0  0
    9.7552    9.2338   23.0171 N   0  0  0  0  0  0  0  0  0  0  0  0
   11.1797    6.7591   21.3326 N   0  0  0  0  0  0  0  0  0  0  0  0
   11.7728    8.0337   23.7267 C   0  0  0  0  0  0  0  0  0  0  0  0
    7.1194    8.3344   24.6775 C   0  0  0  0  0  0  0  0  0  0  0  0
    8.4311    4.7963   22.0500 C   0  0  0  0  0  0  0  0  0  0  0  0
    8.7393   10.8706   24.1871 O   0  0  0  0  0  0  0  0  0  0  0  0
    9.3093    3.8166   21.6712 C   0  0  0  0  0  0  0  0  0  0  0  0
  1  5  1  0
  1 15  4  0
  1 22  4  0
  2 20  1  0
  2 24  1  0
  3  6  4  0
  3 27  4  0
  4 22  4  0
  4 26  4  0
  6  7  4  0
  6 13  1  0
  7 19  4  0
  8 18  1  0
  8 23  1  0
  8 28  2  0
  9 17  1  0
  9 24  1  0
 10 11  1  0
 10 24  1  0
 11 23  1  0
 12 14  4  0
 12 16  4  0
 14 19  4  0
 15 18  4  0
 16 20  4  0
 17 25  1  0
 18 26  4  0
 19 29  4  0
 20 29  4  0
 21 23  1  0
 21 25  1  0
 27 29  4  0
M  END
$$$$

 Created by Python create_sdf_string function

 29 32  0  0  0  0  0  0  0  0999 V2000
    5.4450    8.7154   22.6662 C   0  0  0  0  0  0  0  0  0  0  0  0
   10.9154    5.4574   20.5483 C   0  0  0  0  0  0  0  0  0  0  0  0
    7.2709    4.5089   22.7542 C   0  0  0  0  0  0  0  0  0  0  0  0
    5.9698    7.6329   24.6581 C   0  0  0  0  0  0  0  0  0  0  0  0
    4.5542    8.9057   21.7104 O   0  0  0  0  0  0  0  0  0  0  0  0
    6.9895    3.2085   23.0690 C   0  0  0  0  0  0  0  0  0  0  0  0
    7.8391    2.2253   22.7260 N   0  0  0  0  0  0  0  0  0  0  0  0
    8.6968    9.8373   23.6359 C   0  0  0  0  0  0  0  0  0  0  0  0
   12.5135    6.5957   21.8396 C   0  0  0  0  0  0  0  0  0  0  0  0
   10.9406    8.2330   21.1350 C   0  0  0  0  0  0  0  0  0  0  0  0
    9.6648    8.5956   21.7310 C   0  0  0  0  0  0  0  0  0  0  0  0
   10.8829    1.7153   20.9865 C   0  0  0  0  0  0  0  0  0  0  0  0
    5.7768    2.8533   23.7910 C   0  0  0  0  0  0  0  0  0  0  0  0
    9.7977    1.4791   21.6912 N   0  0  0  0  0  0  0  0  0  0  0  0
    6.5976    9.3401   22.6478 N   0  0  0  0  0  0  0  0  0  0  0  0
   11.2031    3.0042   20.6246 C   0  0  0  0  0  0  0  0  0  0  0  0
   12.8688    7.7370   22.7287 C   0  0  0  0  0  0  0  0  0  0  0  0
    7.4487    9.1361   23.6506 C   0  0  0  0  0  0  0  0  0  0  0  0
    8.9772    2.5025   22.0273 C   0  0  0  0  0  0  0  0  0  0  0  0
   10.4859    4.0901   20.9730 C   0  0  0  0  0  0  0  0  0  0  0  0
   11.0962    9.3293   23.5072 C   0  0  0  0  0  0  0  0  0  0  0  0
    5.1273    7.8529   23.6208 N   0  0  0  0  0  0  0  0  0  0  0  0
    9.7552    9.2338   23.0171 N   0  0  0  0  0  0  0  0  0  0  0  0
   11.1797    6.7591   21.3326 N   0  0  0  0  0  0  0  0  0  0  0  0
   11.7728    8.0337   23.7267 C   0  0  0  0  0  0  0  0  0  0  0  0
    7.1194    8.3344   24.6775 C   0  0  0  0  0  0  0  0  0  0  0  0
    8.4311    4.7963   22.0500 C   0  0  0  0  0  0  0  0  0  0  0  0
    8.7393   10.8706   24.1871 O   0  0  0  0  0  0  0  0  0  0  0  0
    9.3093    3.8166   21.6712 C   0  0  0  0  0  0  0  0  0  0  0  0
  1  5  1  0
  1 15  4  0
  1 22  4  0
  2 20  1  0
  2 24  1  0
  3  6  4  0
  3 27  4  0
  4 22  4  0
  4 26  4  0
  6  7  4  0
  6 13  1  0
  7 19  4  0
  8 18  1  0
  8 23  1  0
  8 28  2  0
  9 17  1  0
  9 24  1  0
 10 11  1  0
 10 24  1  0
 11 23  1  0
 12 14  4  0
 12 16  4  0
 14 19  4  0
 15 18  4  0
 16 20  4  0
 17 25  1  0
 18 26  4  0
 19 29  4  0
 20 29  4  0
 21 23  1  0
 21 25  1  0
 27 29  4  0
M  END
$$$$

 Created by Python create_sdf_string function

 29 32  0  0  0  0  0  0  0  0999 V2000
    5.4450    8.7154   22.6662 C   0  0  0  0  0  0  0  0  0  0  0  0
   10.9154    5.4574   20.5483 C   0  0  0  0  0  0  0  0  0  0  0  0
    7.2709    4.5089   22.7542 C   0  0  0  0  0  0  0  0  0  0  0  0
    5.9698    7.6329   24.6581 C   0  0  0  0  0  0  0  0  0  0  0  0
    4.5542    8.9057   21.7104 O   0  0  0  0  0  0  0  0  0  0  0  0
    6.9895    3.2085   23.0690 C   0  0  0  0  0  0  0  0  0  0  0  0
    7.8391    2.2253   22.7260 N   0  0  0  0  0  0  0  0  0  0  0  0
    8.6968    9.8373   23.6359 C   0  0  0  0  0  0  0  0  0  0  0  0
   12.5135    6.5957   21.8396 C   0  0  0  0  0  0  0  0  0  0  0  0
   10.9406    8.2330   21.1350 C   0  0  0  0  0  0  0  0  0  0  0  0
    9.6648    8.5956   21.7310 C   0  0  0  0  0  0  0  0  0  0  0  0
   10.8829    1.7153   20.9865 C   0  0  0  0  0  0  0  0  0  0  0  0
    5.7768    2.8533   23.7910 C   0  0  0  0  0  0  0  0  0  0  0  0
    9.7977    1.4791   21.6912 N   0  0  0  0  0  0  0  0  0  0  0  0
    6.5976    9.3401   22.6478 N   0  0  0  0  0  0  0  0  0  0  0  0
   11.2031    3.0042   20.6246 C   0  0  0  0  0  0  0  0  0  0  0  0
   12.8688    7.7370   22.7287 C   0  0  0  0  0  0  0  0  0  0  0  0
    7.4487    9.1361   23.6506 C   0  0  0  0  0  0  0  0  0  0  0  0
    8.9772    2.5025   22.0273 C   0  0  0  0  0  0  0  0  0  0  0  0
   10.4859    4.0901   20.9730 C   0  0  0  0  0  0  0  0  0  0  0  0
   11.0962    9.3293   23.5072 C   0  0  0  0  0  0  0  0  0  0  0  0
    5.1273    7.8529   23.6208 N   0  0  0  0  0  0  0  0  0  0  0  0
    9.7552    9.2338   23.0171 N   0  0  0  0  0  0  0  0  0  0  0  0
   11.1797    6.7591   21.3326 N   0  0  0  0  0  0  0  0  0  0  0  0
   11.7728    8.0337   23.7267 C   0  0  0  0  0  0  0  0  0  0  0  0
    7.1194    8.3344   24.6775 C   0  0  0  0  0  0  0  0  0  0  0  0
    8.4311    4.7963   22.0500 C   0  0  0  0  0  0  0  0  0  0  0  0
    8.7393   10.8706   24.1871 O   0  0  0  0  0  0  0  0  0  0  0  0
    9.3093    3.8166   21.6712 C   0  0  0  0  0  0  0  0  0  0  0  0
  1  5  1  0
  1 15  4  0
  1 22  4  0
  2 20  1  0
  2 24  1  0
  3  6  4  0
  3 27  4  0
  4 22  4  0
  4 26  4  0
  6  7  4  0
  6 13  1  0
  7 19  4  0
  8 18  1  0
  8 23  1  0
  8 28  2  0
  9 17  1  0
  9 24  1  0
 10 11  1  0
 10 24  1  0
 11 23  1  0
 12 14  4  0
 12 16  4  0
 14 19  4  0
 15 18  4  0
 16 20  4  0
 17 25  1  0
 18 26  4  0
 19 29  4  0
 20 29  4  0
 21 23  1  0
 21 25  1  0
 27 29  4  0
M  END
$$$$

 Created by Python create_sdf_string function

 29 32  0  0  0  0  0  0  0  0999 V2000
    5.4450    8.7154   22.6662 C   0  0  0  0  0  0  0  0  0  0  0  0
   10.9154    5.4574   20.5483 C   0  0  0  0  0  0  0  0  0  0  0  0
    7.2709    4.5089   22.7542 C   0  0  0  0  0  0  0  0  0  0  0  0
    5.9698    7.6329   24.6581 C   0  0  0  0  0  0  0  0  0  0  0  0
    4.5542    8.9057   21.7104 O   0  0  0  0  0  0  0  0  0  0  0  0
    6.9895    3.2085   23.0690 C   0  0  0  0  0  0  0  0  0  0  0  0
    7.8391    2.2253   22.7260 N   0  0  0  0  0  0  0  0  0  0  0  0
    8.6968    9.8373   23.6359 C   0  0  0  0  0  0  0  0  0  0  0  0
   12.5135    6.5957   21.8396 C   0  0  0  0  0  0  0  0  0  0  0  0
   10.9406    8.2330   21.1350 C   0  0  0  0  0  0  0  0  0  0  0  0
    9.6648    8.5956   21.7310 C   0  0  0  0  0  0  0  0  0  0  0  0
   10.8829    1.7153   20.9865 C   0  0  0  0  0  0  0  0  0  0  0  0
    5.7768    2.8533   23.7910 C   0  0  0  0  0  0  0  0  0  0  0  0
    9.7977    1.4791   21.6912 N   0  0  0  0  0  0  0  0  0  0  0  0
    6.5976    9.3401   22.6478 N   0  0  0  0  0  0  0  0  0  0  0  0
   11.2031    3.0042   20.6246 C   0  0  0  0  0  0  0  0  0  0  0  0
   12.8688    7.7370   22.7287 C   0  0  0  0  0  0  0  0  0  0  0  0
    7.4487    9.1361   23.6506 C   0  0  0  0  0  0  0  0  0  0  0  0
    8.9772    2.5025   22.0273 C   0  0  0  0  0  0  0  0  0  0  0  0
   10.4859    4.0901   20.9730 C   0  0  0  0  0  0  0  0  0  0  0  0
   11.0962    9.3293   23.5072 C   0  0  0  0  0  0  0  0  0  0  0  0
    5.1273    7.8529   23.6208 N   0  0  0  0  0  0  0  0  0  0  0  0
    9.7552    9.2338   23.0171 N   0  0  0  0  0  0  0  0  0  0  0  0
   11.1797    6.7591   21.3326 N   0  0  0  0  0  0  0  0  0  0  0  0
   11.7728    8.0337   23.7267 C   0  0  0  0  0  0  0  0  0  0  0  0
    7.1194    8.3344   24.6775 C   0  0  0  0  0  0  0  0  0  0  0  0
    8.4311    4.7963   22.0500 C   0  0  0  0  0  0  0  0  0  0  0  0
    8.7393   10.8706   24.1871 O   0  0  0  0  0  0  0  0  0  0  0  0
    9.3093    3.8166   21.6712 C   0  0  0  0  0  0  0  0  0  0  0  0
  1  5  1  0
  1 15  4  0
  1 22  4  0
  2 20  1  0
  2 24  1  0
  3  6  4  0
  3 27  4  0
  4 22  4  0
  4 26  4  0
  6  7  4  0
  6 13  1  0
  7 19  4  0
  8 18  1  0
  8 23  1  0
  8 28  2  0
  9 17  1  0
  9 24  1  0
 10 11  1  0
 10 24  1  0
 11 23  1  0
 12 14  4  0
 12 16  4  0
 14 19  4  0
 15 18  4  0
 16 20  4  0
 17 25  1  0
 18 26  4  0
 19 29  4  0
 20 29  4  0
 21 23  1  0
 21 25  1  0
 27 29  4  0
M  END
$$$$

 Created by Python create_sdf_string function

 29 32  0  0  0  0  0  0  0  0999 V2000
    5.4450    8.7154   22.6662 C   0  0  0  0  0  0  0  0  0  0  0  0
   10.9154    5.4574   20.5483 C   0  0  0  0  0  0  0  0  0  0  0  0
    7.2709    4.5089   22.7542 C   0  0  0  0  0  0  0  0  0  0  0  0
    5.9698    7.6329   24.6581 C   0  0  0  0  0  0  0  0  0  0  0  0
    4.5542    8.9057   21.7104 O   0  0  0  0  0  0  0  0  0  0  0  0
    6.9895    3.2085   23.0690 C   0  0  0  0  0  0  0  0  0  0  0  0
    7.8391    2.2253   22.7260 N   0  0  0  0  0  0  0  0  0  0  0  0
    8.6968    9.8373   23.6359 C   0  0  0  0  0  0  0  0  0  0  0  0
   12.5135    6.5957   21.8396 C   0  0  0  0  0  0  0  0  0  0  0  0
   10.9406    8.2330   21.1350 C   0  0  0  0  0  0  0  0  0  0  0  0
    9.6648    8.5956   21.7310 C   0  0  0  0  0  0  0  0  0  0  0  0
   10.8829    1.7153   20.9865 C   0  0  0  0  0  0  0  0  0  0  0  0
    5.7768    2.8533   23.7910 C   0  0  0  0  0  0  0  0  0  0  0  0
    9.7977    1.4791   21.6912 N   0  0  0  0  0  0  0  0  0  0  0  0
    6.5976    9.3401   22.6478 N   0  0  0  0  0  0  0  0  0  0  0  0
   11.2031    3.0042   20.6246 C   0  0  0  0  0  0  0  0  0  0  0  0
   12.8688    7.7370   22.7287 C   0  0  0  0  0  0  0  0  0  0  0  0
    7.4487    9.1361   23.6506 C   0  0  0  0  0  0  0  0  0  0  0  0
    8.9772    2.5025   22.0273 C   0  0  0  0  0  0  0  0  0  0  0  0
   10.4859    4.0901   20.9730 C   0  0  0  0  0  0  0  0  0  0  0  0
   11.0962    9.3293   23.5072 C   0  0  0  0  0  0  0  0  0  0  0  0
    5.1273    7.8529   23.6208 N   0  0  0  0  0  0  0  0  0  0  0  0
    9.7552    9.2338   23.0171 N   0  0  0  0  0  0  0  0  0  0  0  0
   11.1797    6.7591   21.3326 N   0  0  0  0  0  0  0  0  0  0  0  0
   11.7728    8.0337   23.7267 C   0  0  0  0  0  0  0  0  0  0  0  0
    7.1194    8.3344   24.6775 C   0  0  0  0  0  0  0  0  0  0  0  0
    8.4311    4.7963   22.0500 C   0  0  0  0  0  0  0  0  0  0  0  0
    8.7393   10.8706   24.1871 O   0  0  0  0  0  0  0  0  0  0  0  0
    9.3093    3.8166   21.6712 C   0  0  0  0  0  0  0  0  0  0  0  0
  1  5  1  0
  1 15  4  0
  1 22  4  0
  2 20  1  0
  2 24  1  0
  3  6  4  0
  3 27  4  0
  4 22  4  0
  4 26  4  0
  6  7  4  0
  6 13  1  0
  7 19  4  0
  8 18  1  0
  8 23  1  0
  8 28  2  0
  9 17  1  0
  9 24  1  0
 10 11  1  0
 10 24  1  0
 11 23  1  0
 12 14  4  0
 12 16  4  0
 14 19  4  0
 15 18  4  0
 16 20  4  0
 17 25  1  0
 18 26  4  0
 19 29  4  0
 20 29  4  0
 21 23  1  0
 21 25  1  0
 27 29  4  0
M  END
$$$$

 Created by Python create_sdf_string function

 29 32  0  0  0  0  0  0  0  0999 V2000
    5.4450    8.7154   22.6662 C   0  0  0  0  0  0  0  0  0  0  0  0
   10.9154    5.4574   20.5483 C   0  0  0  0  0  0  0  0  0  0  0  0
    7.2709    4.5089   22.7542 C   0  0  0  0  0  0  0  0  0  0  0  0
    5.9698    7.6329   24.6581 C   0  0  0  0  0  0  0  0  0  0  0  0
    4.5542    8.9057   21.7104 O   0  0  0  0  0  0  0  0  0  0  0  0
    6.9895    3.2085   23.0690 C   0  0  0  0  0  0  0  0  0  0  0  0
    7.8391    2.2253   22.7260 N   0  0  0  0  0  0  0  0  0  0  0  0
    8.6968    9.8373   23.6359 C   0  0  0  0  0  0  0  0  0  0  0  0
   12.5135    6.5957   21.8396 C   0  0  0  0  0  0  0  0  0  0  0  0
   10.9406    8.2330   21.1350 C   0  0  0  0  0  0  0  0  0  0  0  0
    9.6648    8.5956   21.7310 C   0  0  0  0  0  0  0  0  0  0  0  0
   10.8829    1.7153   20.9865 C   0  0  0  0  0  0  0  0  0  0  0  0
    5.7768    2.8533   23.7910 C   0  0  0  0  0  0  0  0  0  0  0  0
    9.7977    1.4791   21.6912 N   0  0  0  0  0  0  0  0  0  0  0  0
    6.5976    9.3401   22.6478 N   0  0  0  0  0  0  0  0  0  0  0  0
   11.2031    3.0042   20.6246 C   0  0  0  0  0  0  0  0  0  0  0  0
   12.8688    7.7370   22.7287 C   0  0  0  0  0  0  0  0  0  0  0  0
    7.4487    9.1361   23.6506 C   0  0  0  0  0  0  0  0  0  0  0  0
    8.9772    2.5025   22.0273 C   0  0  0  0  0  0  0  0  0  0  0  0
   10.4859    4.0901   20.9730 C   0  0  0  0  0  0  0  0  0  0  0  0
   11.0962    9.3293   23.5072 C   0  0  0  0  0  0  0  0  0  0  0  0
    5.1273    7.8529   23.6208 N   0  0  0  0  0  0  0  0  0  0  0  0
    9.7552    9.2338   23.0171 N   0  0  0  0  0  0  0  0  0  0  0  0
   11.1797    6.7591   21.3326 N   0  0  0  0  0  0  0  0  0  0  0  0
   11.7728    8.0337   23.7267 C   0  0  0  0  0  0  0  0  0  0  0  0
    7.1194    8.3344   24.6775 C   0  0  0  0  0  0  0  0  0  0  0  0
    8.4311    4.7963   22.0500 C   0  0  0  0  0  0  0  0  0  0  0  0
    8.7393   10.8706   24.1871 O   0  0  0  0  0  0  0  0  0  0  0  0
    9.3093    3.8166   21.6712 C   0  0  0  0  0  0  0  0  0  0  0  0
  1  5  1  0
  1 15  4  0
  1 22  4  0
  2 20  1  0
  2 24  1  0
  3  6  4  0
  3 27  4  0
  4 22  4  0
  4 26  4  0
  6  7  4  0
  6 13  1  0
  7 19  4  0
  8 18  1  0
  8 23  1  0
  8 28  2  0
  9 17  1  0
  9 24  1  0
 10 11  1  0
 10 24  1  0
 11 23  1  0
 12 14  4  0
 12 16  4  0
 14 19  4  0
 15 18  4  0
 16 20  4  0
 17 25  1  0
 18 26  4  0
 19 29  4  0
 20 29  4  0
 21 23  1  0
 21 25  1  0
 27 29  4  0
M  END
$$$$

 Created by Python create_sdf_string function

 29 32  0  0  0  0  0  0  0  0999 V2000
    5.4450    8.7154   22.6662 C   0  0  0  0  0  0  0  0  0  0  0  0
   10.9154    5.4574   20.5483 C   0  0  0  0  0  0  0  0  0  0  0  0
    7.2709    4.5089   22.7542 C   0  0  0  0  0  0  0  0  0  0  0  0
    5.9698    7.6329   24.6581 C   0  0  0  0  0  0  0  0  0  0  0  0
    4.5542    8.9057   21.7104 O   0  0  0  0  0  0  0  0  0  0  0  0
    6.9895    3.2085   23.0690 C   0  0  0  0  0  0  0  0  0  0  0  0
    7.8391    2.2253   22.7260 N   0  0  0  0  0  0  0  0  0  0  0  0
    8.6968    9.8373   23.6359 C   0  0  0  0  0  0  0  0  0  0  0  0
   12.5135    6.5957   21.8396 C   0  0  0  0  0  0  0  0  0  0  0  0
   10.9406    8.2330   21.1350 C   0  0  0  0  0  0  0  0  0  0  0  0
    9.6648    8.5956   21.7310 C   0  0  0  0  0  0  0  0  0  0  0  0
   10.8829    1.7153   20.9865 C   0  0  0  0  0  0  0  0  0  0  0  0
    5.7768    2.8533   23.7910 C   0  0  0  0  0  0  0  0  0  0  0  0
    9.7977    1.4791   21.6912 N   0  0  0  0  0  0  0  0  0  0  0  0
    6.5976    9.3401   22.6478 N   0  0  0  0  0  0  0  0  0  0  0  0
   11.2031    3.0042   20.6246 C   0  0  0  0  0  0  0  0  0  0  0  0
   12.8688    7.7370   22.7287 C   0  0  0  0  0  0  0  0  0  0  0  0
    7.4487    9.1361   23.6506 C   0  0  0  0  0  0  0  0  0  0  0  0
    8.9772    2.5025   22.0273 C   0  0  0  0  0  0  0  0  0  0  0  0
   10.4859    4.0901   20.9730 C   0  0  0  0  0  0  0  0  0  0  0  0
   11.0962    9.3293   23.5072 C   0  0  0  0  0  0  0  0  0  0  0  0
    5.1273    7.8529   23.6208 N   0  0  0  0  0  0  0  0  0  0  0  0
    9.7552    9.2338   23.0171 N   0  0  0  0  0  0  0  0  0  0  0  0
   11.1797    6.7591   21.3326 N   0  0  0  0  0  0  0  0  0  0  0  0
   11.7728    8.0337   23.7267 C   0  0  0  0  0  0  0  0  0  0  0  0
    7.1194    8.3344   24.6775 C   0  0  0  0  0  0  0  0  0  0  0  0
    8.4311    4.7963   22.0500 C   0  0  0  0  0  0  0  0  0  0  0  0
    8.7393   10.8706   24.1871 O   0  0  0  0  0  0  0  0  0  0  0  0
    9.3093    3.8166   21.6712 C   0  0  0  0  0  0  0  0  0  0  0  0
  1  5  1  0
  1 15  4  0
  1 22  4  0
  2 20  1  0
  2 24  1  0
  3  6  4  0
  3 27  4  0
  4 22  4  0
  4 26  4  0
  6  7  4  0
  6 13  1  0
  7 19  4  0
  8 18  1  0
  8 23  1  0
  8 28  2  0
  9 17  1  0
  9 24  1  0
 10 11  1  0
 10 24  1  0
 11 23  1  0
 12 14  4  0
 12 16  4  0
 14 19  4  0
 15 18  4  0
 16 20  4  0
 17 25  1  0
 18 26  4  0
 19 29  4  0
 20 29  4  0
 21 23  1  0
 21 25  1  0
 27 29  4  0
M  END
$$$$

 Created by Python create_sdf_string function

 29 32  0  0  0  0  0  0  0  0999 V2000
    5.4450    8.7154   22.6662 C   0  0  0  0  0  0  0  0  0  0  0  0
   10.9154    5.4574   20.5483 C   0  0  0  0  0  0  0  0  0  0  0  0
    7.2709    4.5089   22.7542 C   0  0  0  0  0  0  0  0  0  0  0  0
    5.9698    7.6329   24.6581 C   0  0  0  0  0  0  0  0  0  0  0  0
    4.5542    8.9057   21.7104 O   0  0  0  0  0  0  0  0  0  0  0  0
    6.9895    3.2085   23.0690 C   0  0  0  0  0  0  0  0  0  0  0  0
    7.8391    2.2253   22.7260 N   0  0  0  0  0  0  0  0  0  0  0  0
    8.6968    9.8373   23.6359 C   0  0  0  0  0  0  0  0  0  0  0  0
   12.5135    6.5957   21.8396 C   0  0  0  0  0  0  0  0  0  0  0  0
   10.9406    8.2330   21.1350 C   0  0  0  0  0  0  0  0  0  0  0  0
    9.6648    8.5956   21.7310 C   0  0  0  0  0  0  0  0  0  0  0  0
   10.8829    1.7153   20.9865 C   0  0  0  0  0  0  0  0  0  0  0  0
    5.7768    2.8533   23.7910 C   0  0  0  0  0  0  0  0  0  0  0  0
    9.7977    1.4791   21.6912 N   0  0  0  0  0  0  0  0  0  0  0  0
    6.5976    9.3401   22.6478 N   0  0  0  0  0  0  0  0  0  0  0  0
   11.2031    3.0042   20.6246 C   0  0  0  0  0  0  0  0  0  0  0  0
   12.8688    7.7370   22.7287 C   0  0  0  0  0  0  0  0  0  0  0  0
    7.4487    9.1361   23.6506 C   0  0  0  0  0  0  0  0  0  0  0  0
    8.9772    2.5025   22.0273 C   0  0  0  0  0  0  0  0  0  0  0  0
   10.4859    4.0901   20.9730 C   0  0  0  0  0  0  0  0  0  0  0  0
   11.0962    9.3293   23.5072 C   0  0  0  0  0  0  0  0  0  0  0  0
    5.1273    7.8529   23.6208 N   0  0  0  0  0  0  0  0  0  0  0  0
    9.7552    9.2338   23.0171 N   0  0  0  0  0  0  0  0  0  0  0  0
   11.1797    6.7591   21.3326 N   0  0  0  0  0  0  0  0  0  0  0  0
   11.7728    8.0337   23.7267 C   0  0  0  0  0  0  0  0  0  0  0  0
    7.1194    8.3344   24.6775 C   0  0  0  0  0  0  0  0  0  0  0  0
    8.4311    4.7963   22.0500 C   0  0  0  0  0  0  0  0  0  0  0  0
    8.7393   10.8706   24.1871 O   0  0  0  0  0  0  0  0  0  0  0  0
    9.3093    3.8166   21.6712 C   0  0  0  0  0  0  0  0  0  0  0  0
  1  5  1  0
  1 15  4  0
  1 22  4  0
  2 20  1  0
  2 24  1  0
  3  6  4  0
  3 27  4  0
  4 22  4  0
  4 26  4  0
  6  7  4  0
  6 13  1  0
  7 19  4  0
  8 18  1  0
  8 23  1  0
  8 28  2  0
  9 17  1  0
  9 24  1  0
 10 11  1  0
 10 24  1  0
 11 23  1  0
 12 14  4  0
 12 16  4  0
 14 19  4  0
 15 18  4  0
 16 20  4  0
 17 25  1  0
 18 26  4  0
 19 29  4  0
 20 29  4  0
 21 23  1  0
 21 25  1  0
 27 29  4  0
M  END
$$$$

 Created by Python create_sdf_string function

 29 32  0  0  0  0  0  0  0  0999 V2000
    5.4450    8.7154   22.6662 C   0  0  0  0  0  0  0  0  0  0  0  0
   10.9154    5.4574   20.5483 C   0  0  0  0  0  0  0  0  0  0  0  0
    7.2709    4.5089   22.7542 C   0  0  0  0  0  0  0  0  0  0  0  0
    5.9698    7.6329   24.6581 C   0  0  0  0  0  0  0  0  0  0  0  0
    4.5542    8.9057   21.7104 O   0  0  0  0  0  0  0  0  0  0  0  0
    6.9895    3.2085   23.0690 C   0  0  0  0  0  0  0  0  0  0  0  0
    7.8391    2.2253   22.7260 N   0  0  0  0  0  0  0  0  0  0  0  0
    8.6968    9.8373   23.6359 C   0  0  0  0  0  0  0  0  0  0  0  0
   12.5135    6.5957   21.8396 C   0  0  0  0  0  0  0  0  0  0  0  0
   10.9406    8.2330   21.1350 C   0  0  0  0  0  0  0  0  0  0  0  0
    9.6648    8.5956   21.7310 C   0  0  0  0  0  0  0  0  0  0  0  0
   10.8829    1.7153   20.9865 C   0  0  0  0  0  0  0  0  0  0  0  0
    5.7768    2.8533   23.7910 C   0  0  0  0  0  0  0  0  0  0  0  0
    9.7977    1.4791   21.6912 N   0  0  0  0  0  0  0  0  0  0  0  0
    6.5976    9.3401   22.6478 N   0  0  0  0  0  0  0  0  0  0  0  0
   11.2031    3.0042   20.6246 C   0  0  0  0  0  0  0  0  0  0  0  0
   12.8688    7.7370   22.7287 C   0  0  0  0  0  0  0  0  0  0  0  0
    7.4487    9.1361   23.6506 C   0  0  0  0  0  0  0  0  0  0  0  0
    8.9772    2.5025   22.0273 C   0  0  0  0  0  0  0  0  0  0  0  0
   10.4859    4.0901   20.9730 C   0  0  0  0  0  0  0  0  0  0  0  0
   11.0962    9.3293   23.5072 C   0  0  0  0  0  0  0  0  0  0  0  0
    5.1273    7.8529   23.6208 N   0  0  0  0  0  0  0  0  0  0  0  0
    9.7552    9.2338   23.0171 N   0  0  0  0  0  0  0  0  0  0  0  0
   11.1797    6.7591   21.3326 N   0  0  0  0  0  0  0  0  0  0  0  0
   11.7728    8.0337   23.7267 C   0  0  0  0  0  0  0  0  0  0  0  0
    7.1194    8.3344   24.6775 C   0  0  0  0  0  0  0  0  0  0  0  0
    8.4311    4.7963   22.0500 C   0  0  0  0  0  0  0  0  0  0  0  0
    8.7393   10.8706   24.1871 O   0  0  0  0  0  0  0  0  0  0  0  0
    9.3093    3.8166   21.6712 C   0  0  0  0  0  0  0  0  0  0  0  0
  1  5  1  0
  1 15  4  0
  1 22  4  0
  2 20  1  0
  2 24  1  0
  3  6  4  0
  3 27  4  0
  4 22  4  0
  4 26  4  0
  6  7  4  0
  6 13  1  0
  7 19  4  0
  8 18  1  0
  8 23  1  0
  8 28  2  0
  9 17  1  0
  9 24  1  0
 10 11  1  0
 10 24  1  0
 11 23  1  0
 12 14  4  0
 12 16  4  0
 14 19  4  0
 15 18  4  0
 16 20  4  0
 17 25  1  0
 18 26  4  0
 19 29  4  0
 20 29  4  0
 21 23  1  0
 21 25  1  0
 27 29  4  0
M  END
$$$$

 Created by Python create_sdf_string function

 29 32  0  0  0  0  0  0  0  0999 V2000
    5.4450    8.7154   22.6662 C   0  0  0  0  0  0  0  0  0  0  0  0
   10.9154    5.4574   20.5483 C   0  0  0  0  0  0  0  0  0  0  0  0
    7.2709    4.5089   22.7542 C   0  0  0  0  0  0  0  0  0  0  0  0
    5.9698    7.6329   24.6581 C   0  0  0  0  0  0  0  0  0  0  0  0
    4.5542    8.9057   21.7104 O   0  0  0  0  0  0  0  0  0  0  0  0
    6.9895    3.2085   23.0690 C   0  0  0  0  0  0  0  0  0  0  0  0
    7.8391    2.2253   22.7260 N   0  0  0  0  0  0  0  0  0  0  0  0
    8.6968    9.8373   23.6359 C   0  0  0  0  0  0  0  0  0  0  0  0
   12.5135    6.5957   21.8396 C   0  0  0  0  0  0  0  0  0  0  0  0
   10.9406    8.2330   21.1350 C   0  0  0  0  0  0  0  0  0  0  0  0
    9.6648    8.5956   21.7310 C   0  0  0  0  0  0  0  0  0  0  0  0
   10.8829    1.7153   20.9865 C   0  0  0  0  0  0  0  0  0  0  0  0
    5.7768    2.8533   23.7910 C   0  0  0  0  0  0  0  0  0  0  0  0
    9.7977    1.4791   21.6912 N   0  0  0  0  0  0  0  0  0  0  0  0
    6.5976    9.3401   22.6478 N   0  0  0  0  0  0  0  0  0  0  0  0
   11.2031    3.0042   20.6246 C   0  0  0  0  0  0  0  0  0  0  0  0
   12.8688    7.7370   22.7287 C   0  0  0  0  0  0  0  0  0  0  0  0
    7.4487    9.1361   23.6506 C   0  0  0  0  0  0  0  0  0  0  0  0
    8.9772    2.5025   22.0273 C   0  0  0  0  0  0  0  0  0  0  0  0
   10.4859    4.0901   20.9730 C   0  0  0  0  0  0  0  0  0  0  0  0
   11.0962    9.3293   23.5072 C   0  0  0  0  0  0  0  0  0  0  0  0
    5.1273    7.8529   23.6208 N   0  0  0  0  0  0  0  0  0  0  0  0
    9.7552    9.2338   23.0171 N   0  0  0  0  0  0  0  0  0  0  0  0
   11.1797    6.7591   21.3326 N   0  0  0  0  0  0  0  0  0  0  0  0
   11.7728    8.0337   23.7267 C   0  0  0  0  0  0  0  0  0  0  0  0
    7.1194    8.3344   24.6775 C   0  0  0  0  0  0  0  0  0  0  0  0
    8.4311    4.7963   22.0500 C   0  0  0  0  0  0  0  0  0  0  0  0
    8.7393   10.8706   24.1871 O   0  0  0  0  0  0  0  0  0  0  0  0
    9.3093    3.8166   21.6712 C   0  0  0  0  0  0  0  0  0  0  0  0
  1  5  1  0
  1 15  4  0
  1 22  4  0
  2 20  1  0
  2 24  1  0
  3  6  4  0
  3 27  4  0
  4 22  4  0
  4 26  4  0
  6  7  4  0
  6 13  1  0
  7 19  4  0
  8 18  1  0
  8 23  1  0
  8 28  2  0
  9 17  1  0
  9 24  1  0
 10 11  1  0
 10 24  1  0
 11 23  1  0
 12 14  4  0
 12 16  4  0
 14 19  4  0
 15 18  4  0
 16 20  4  0
 17 25  1  0
 18 26  4  0
 19 29  4  0
 20 29  4  0
 21 23  1  0
 21 25  1  0
 27 29  4  0
M  END
$$$$

 Created by Python create_sdf_string function

 29 32  0  0  0  0  0  0  0  0999 V2000
    5.4450    8.7154   22.6662 C   0  0  0  0  0  0  0  0  0  0  0  0
   10.9154    5.4574   20.5483 C   0  0  0  0  0  0  0  0  0  0  0  0
    7.2709    4.5089   22.7542 C   0  0  0  0  0  0  0  0  0  0  0  0
    5.9698    7.6329   24.6581 C   0  0  0  0  0  0  0  0  0  0  0  0
    4.5542    8.9057   21.7104 O   0  0  0  0  0  0  0  0  0  0  0  0
    6.9895    3.2085   23.0690 C   0  0  0  0  0  0  0  0  0  0  0  0
    7.8391    2.2253   22.7260 N   0  0  0  0  0  0  0  0  0  0  0  0
    8.6968    9.8373   23.6359 C   0  0  0  0  0  0  0  0  0  0  0  0
   12.5135    6.5957   21.8396 C   0  0  0  0  0  0  0  0  0  0  0  0
   10.9406    8.2330   21.1350 C   0  0  0  0  0  0  0  0  0  0  0  0
    9.6648    8.5956   21.7310 C   0  0  0  0  0  0  0  0  0  0  0  0
   10.8829    1.7153   20.9865 C   0  0  0  0  0  0  0  0  0  0  0  0
    5.7768    2.8533   23.7910 C   0  0  0  0  0  0  0  0  0  0  0  0
    9.7977    1.4791   21.6912 N   0  0  0  0  0  0  0  0  0  0  0  0
    6.5976    9.3401   22.6478 N   0  0  0  0  0  0  0  0  0  0  0  0
   11.2031    3.0042   20.6246 C   0  0  0  0  0  0  0  0  0  0  0  0
   12.8688    7.7370   22.7287 C   0  0  0  0  0  0  0  0  0  0  0  0
    7.4487    9.1361   23.6506 C   0  0  0  0  0  0  0  0  0  0  0  0
    8.9772    2.5025   22.0273 C   0  0  0  0  0  0  0  0  0  0  0  0
   10.4859    4.0901   20.9730 C   0  0  0  0  0  0  0  0  0  0  0  0
   11.0962    9.3293   23.5072 C   0  0  0  0  0  0  0  0  0  0  0  0
    5.1273    7.8529   23.6208 N   0  0  0  0  0  0  0  0  0  0  0  0
    9.7552    9.2338   23.0171 N   0  0  0  0  0  0  0  0  0  0  0  0
   11.1797    6.7591   21.3326 N   0  0  0  0  0  0  0  0  0  0  0  0
   11.7728    8.0337   23.7267 C   0  0  0  0  0  0  0  0  0  0  0  0
    7.1194    8.3344   24.6775 C   0  0  0  0  0  0  0  0  0  0  0  0
    8.4311    4.7963   22.0500 C   0  0  0  0  0  0  0  0  0  0  0  0
    8.7393   10.8706   24.1871 O   0  0  0  0  0  0  0  0  0  0  0  0
    9.3093    3.8166   21.6712 C   0  0  0  0  0  0  0  0  0  0  0  0
  1  5  1  0
  1 15  4  0
  1 22  4  0
  2 20  1  0
  2 24  1  0
  3  6  4  0
  3 27  4  0
  4 22  4  0
  4 26  4  0
  6  7  4  0
  6 13  1  0
  7 19  4  0
  8 18  1  0
  8 23  1  0
  8 28  2  0
  9 17  1  0
  9 24  1  0
 10 11  1  0
 10 24  1  0
 11 23  1  0
 12 14  4  0
 12 16  4  0
 14 19  4  0
 15 18  4  0
 16 20  4  0
 17 25  1  0
 18 26  4  0
 19 29  4  0
 20 29  4  0
 21 23  1  0
 21 25  1  0
 27 29  4  0
M  END
$$$$

 Created by Python create_sdf_string function

 29 32  0  0  0  0  0  0  0  0999 V2000
    5.4450    8.7154   22.6662 C   0  0  0  0  0  0  0  0  0  0  0  0
   10.9154    5.4574   20.5483 C   0  0  0  0  0  0  0  0  0  0  0  0
    7.2709    4.5089   22.7542 C   0  0  0  0  0  0  0  0  0  0  0  0
    5.9698    7.6329   24.6581 C   0  0  0  0  0  0  0  0  0  0  0  0
    4.5542    8.9057   21.7104 O   0  0  0  0  0  0  0  0  0  0  0  0
    6.9895    3.2085   23.0690 C   0  0  0  0  0  0  0  0  0  0  0  0
    7.8391    2.2253   22.7260 N   0  0  0  0  0  0  0  0  0  0  0  0
    8.6968    9.8373   23.6359 C   0  0  0  0  0  0  0  0  0  0  0  0
   12.5135    6.5957   21.8396 C   0  0  0  0  0  0  0  0  0  0  0  0
   10.9406    8.2330   21.1350 C   0  0  0  0  0  0  0  0  0  0  0  0
    9.6648    8.5956   21.7310 C   0  0  0  0  0  0  0  0  0  0  0  0
   10.8829    1.7153   20.9865 C   0  0  0  0  0  0  0  0  0  0  0  0
    5.7768    2.8533   23.7910 C   0  0  0  0  0  0  0  0  0  0  0  0
    9.7977    1.4791   21.6912 N   0  0  0  0  0  0  0  0  0  0  0  0
    6.5976    9.3401   22.6478 N   0  0  0  0  0  0  0  0  0  0  0  0
   11.2031    3.0042   20.6246 C   0  0  0  0  0  0  0  0  0  0  0  0
   12.8688    7.7370   22.7287 C   0  0  0  0  0  0  0  0  0  0  0  0
    7.4487    9.1361   23.6506 C   0  0  0  0  0  0  0  0  0  0  0  0
    8.9772    2.5025   22.0273 C   0  0  0  0  0  0  0  0  0  0  0  0
   10.4859    4.0901   20.9730 C   0  0  0  0  0  0  0  0  0  0  0  0
   11.0962    9.3293   23.5072 C   0  0  0  0  0  0  0  0  0  0  0  0
    5.1273    7.8529   23.6208 N   0  0  0  0  0  0  0  0  0  0  0  0
    9.7552    9.2338   23.0171 N   0  0  0  0  0  0  0  0  0  0  0  0
   11.1797    6.7591   21.3326 N   0  0  0  0  0  0  0  0  0  0  0  0
   11.7728    8.0337   23.7267 C   0  0  0  0  0  0  0  0  0  0  0  0
    7.1194    8.3344   24.6775 C   0  0  0  0  0  0  0  0  0  0  0  0
    8.4311    4.7963   22.0500 C   0  0  0  0  0  0  0  0  0  0  0  0
    8.7393   10.8706   24.1871 O   0  0  0  0  0  0  0  0  0  0  0  0
    9.3093    3.8166   21.6712 C   0  0  0  0  0  0  0  0  0  0  0  0
  1  5  1  0
  1 15  4  0
  1 22  4  0
  2 20  1  0
  2 24  1  0
  3  6  4  0
  3 27  4  0
  4 22  4  0
  4 26  4  0
  6  7  4  0
  6 13  1  0
  7 19  4  0
  8 18  1  0
  8 23  1  0
  8 28  2  0
  9 17  1  0
  9 24  1  0
 10 11  1  0
 10 24  1  0
 11 23  1  0
 12 14  4  0
 12 16  4  0
 14 19  4  0
 15 18  4  0
 16 20  4  0
 17 25  1  0
 18 26  4  0
 19 29  4  0
 20 29  4  0
 21 23  1  0
 21 25  1  0
 27 29  4  0
M  END
$$$$

 Created by Python create_sdf_string function

 29 32  0  0  0  0  0  0  0  0999 V2000
    5.4450    8.7154   22.6662 C   0  0  0  0  0  0  0  0  0  0  0  0
   10.9154    5.4574   20.5483 C   0  0  0  0  0  0  0  0  0  0  0  0
    7.2709    4.5089   22.7542 C   0  0  0  0  0  0  0  0  0  0  0  0
    5.9698    7.6329   24.6581 C   0  0  0  0  0  0  0  0  0  0  0  0
    4.5542    8.9057   21.7104 O   0  0  0  0  0  0  0  0  0  0  0  0
    6.9895    3.2085   23.0690 C   0  0  0  0  0  0  0  0  0  0  0  0
    7.8391    2.2253   22.7260 N   0  0  0  0  0  0  0  0  0  0  0  0
    8.6968    9.8373   23.6359 C   0  0  0  0  0  0  0  0  0  0  0  0
   12.5135    6.5957   21.8396 C   0  0  0  0  0  0  0  0  0  0  0  0
   10.9406    8.2330   21.1350 C   0  0  0  0  0  0  0  0  0  0  0  0
    9.6648    8.5956   21.7310 C   0  0  0  0  0  0  0  0  0  0  0  0
   10.8829    1.7153   20.9865 C   0  0  0  0  0  0  0  0  0  0  0  0
    5.7768    2.8533   23.7910 C   0  0  0  0  0  0  0  0  0  0  0  0
    9.7977    1.4791   21.6912 N   0  0  0  0  0  0  0  0  0  0  0  0
    6.5976    9.3401   22.6478 N   0  0  0  0  0  0  0  0  0  0  0  0
   11.2031    3.0042   20.6246 C   0  0  0  0  0  0  0  0  0  0  0  0
   12.8688    7.7370   22.7287 C   0  0  0  0  0  0  0  0  0  0  0  0
    7.4487    9.1361   23.6506 C   0  0  0  0  0  0  0  0  0  0  0  0
    8.9772    2.5025   22.0273 C   0  0  0  0  0  0  0  0  0  0  0  0
   10.4859    4.0901   20.9730 C   0  0  0  0  0  0  0  0  0  0  0  0
   11.0962    9.3293   23.5072 C   0  0  0  0  0  0  0  0  0  0  0  0
    5.1273    7.8529   23.6208 N   0  0  0  0  0  0  0  0  0  0  0  0
    9.7552    9.2338   23.0171 N   0  0  0  0  0  0  0  0  0  0  0  0
   11.1797    6.7591   21.3326 N   0  0  0  0  0  0  0  0  0  0  0  0
   11.7728    8.0337   23.7267 C   0  0  0  0  0  0  0  0  0  0  0  0
    7.1194    8.3344   24.6775 C   0  0  0  0  0  0  0  0  0  0  0  0
    8.4311    4.7963   22.0500 C   0  0  0  0  0  0  0  0  0  0  0  0
    8.7393   10.8706   24.1871 O   0  0  0  0  0  0  0  0  0  0  0  0
    9.3093    3.8166   21.6712 C   0  0  0  0  0  0  0  0  0  0  0  0
  1  5  1  0
  1 15  4  0
  1 22  4  0
  2 20  1  0
  2 24  1  0
  3  6  4  0
  3 27  4  0
  4 22  4  0
  4 26  4  0
  6  7  4  0
  6 13  1  0
  7 19  4  0
  8 18  1  0
  8 23  1  0
  8 28  2  0
  9 17  1  0
  9 24  1  0
 10 11  1  0
 10 24  1  0
 11 23  1  0
 12 14  4  0
 12 16  4  0
 14 19  4  0
 15 18  4  0
 16 20  4  0
 17 25  1  0
 18 26  4  0
 19 29  4  0
 20 29  4  0
 21 23  1  0
 21 25  1  0
 27 29  4  0
M  END
$$$$

 Created by Python create_sdf_string function

 29 32  0  0  0  0  0  0  0  0999 V2000
    5.4450    8.7154   22.6662 C   0  0  0  0  0  0  0  0  0  0  0  0
   10.9154    5.4574   20.5483 C   0  0  0  0  0  0  0  0  0  0  0  0
    7.2709    4.5089   22.7542 C   0  0  0  0  0  0  0  0  0  0  0  0
    5.9698    7.6329   24.6581 C   0  0  0  0  0  0  0  0  0  0  0  0
    4.5542    8.9057   21.7104 O   0  0  0  0  0  0  0  0  0  0  0  0
    6.9895    3.2085   23.0690 C   0  0  0  0  0  0  0  0  0  0  0  0
    7.8391    2.2253   22.7260 N   0  0  0  0  0  0  0  0  0  0  0  0
    8.6968    9.8373   23.6359 C   0  0  0  0  0  0  0  0  0  0  0  0
   12.5135    6.5957   21.8396 C   0  0  0  0  0  0  0  0  0  0  0  0
   10.9406    8.2330   21.1350 C   0  0  0  0  0  0  0  0  0  0  0  0
    9.6648    8.5956   21.7310 C   0  0  0  0  0  0  0  0  0  0  0  0
   10.8829    1.7153   20.9865 C   0  0  0  0  0  0  0  0  0  0  0  0
    5.7768    2.8533   23.7910 C   0  0  0  0  0  0  0  0  0  0  0  0
    9.7977    1.4791   21.6912 N   0  0  0  0  0  0  0  0  0  0  0  0
    6.5976    9.3401   22.6478 N   0  0  0  0  0  0  0  0  0  0  0  0
   11.2031    3.0042   20.6246 C   0  0  0  0  0  0  0  0  0  0  0  0
   12.8688    7.7370   22.7287 C   0  0  0  0  0  0  0  0  0  0  0  0
    7.4487    9.1361   23.6506 C   0  0  0  0  0  0  0  0  0  0  0  0
    8.9772    2.5025   22.0273 C   0  0  0  0  0  0  0  0  0  0  0  0
   10.4859    4.0901   20.9730 C   0  0  0  0  0  0  0  0  0  0  0  0
   11.0962    9.3293   23.5072 C   0  0  0  0  0  0  0  0  0  0  0  0
    5.1273    7.8529   23.6208 N   0  0  0  0  0  0  0  0  0  0  0  0
    9.7552    9.2338   23.0171 N   0  0  0  0  0  0  0  0  0  0  0  0
   11.1797    6.7591   21.3326 N   0  0  0  0  0  0  0  0  0  0  0  0
   11.7728    8.0337   23.7267 C   0  0  0  0  0  0  0  0  0  0  0  0
    7.1194    8.3344   24.6775 C   0  0  0  0  0  0  0  0  0  0  0  0
    8.4311    4.7963   22.0500 C   0  0  0  0  0  0  0  0  0  0  0  0
    8.7393   10.8706   24.1871 O   0  0  0  0  0  0  0  0  0  0  0  0
    9.3093    3.8166   21.6712 C   0  0  0  0  0  0  0  0  0  0  0  0
  1  5  1  0
  1 15  4  0
  1 22  4  0
  2 20  1  0
  2 24  1  0
  3  6  4  0
  3 27  4  0
  4 22  4  0
  4 26  4  0
  6  7  4  0
  6 13  1  0
  7 19  4  0
  8 18  1  0
  8 23  1  0
  8 28  2  0
  9 17  1  0
  9 24  1  0
 10 11  1  0
 10 24  1  0
 11 23  1  0
 12 14  4  0
 12 16  4  0
 14 19  4  0
 15 18  4  0
 16 20  4  0
 17 25  1  0
 18 26  4  0
 19 29  4  0
 20 29  4  0
 21 23  1  0
 21 25  1  0
 27 29  4  0
M  END
$$$$

 Created by Python create_sdf_string function

 29 32  0  0  0  0  0  0  0  0999 V2000
    5.4450    8.7154   22.6662 C   0  0  0  0  0  0  0  0  0  0  0  0
   10.9154    5.4574   20.5483 C   0  0  0  0  0  0  0  0  0  0  0  0
    7.2709    4.5089   22.7542 C   0  0  0  0  0  0  0  0  0  0  0  0
    5.9698    7.6329   24.6581 C   0  0  0  0  0  0  0  0  0  0  0  0
    4.5542    8.9057   21.7104 O   0  0  0  0  0  0  0  0  0  0  0  0
    6.9895    3.2085   23.0690 C   0  0  0  0  0  0  0  0  0  0  0  0
    7.8391    2.2253   22.7260 N   0  0  0  0  0  0  0  0  0  0  0  0
    8.6968    9.8373   23.6359 C   0  0  0  0  0  0  0  0  0  0  0  0
   12.5135    6.5957   21.8396 C   0  0  0  0  0  0  0  0  0  0  0  0
   10.9406    8.2330   21.1350 C   0  0  0  0  0  0  0  0  0  0  0  0
    9.6648    8.5956   21.7310 C   0  0  0  0  0  0  0  0  0  0  0  0
   10.8829    1.7153   20.9865 C   0  0  0  0  0  0  0  0  0  0  0  0
    5.7768    2.8533   23.7910 C   0  0  0  0  0  0  0  0  0  0  0  0
    9.7977    1.4791   21.6912 N   0  0  0  0  0  0  0  0  0  0  0  0
    6.5976    9.3401   22.6478 N   0  0  0  0  0  0  0  0  0  0  0  0
   11.2031    3.0042   20.6246 C   0  0  0  0  0  0  0  0  0  0  0  0
   12.8688    7.7370   22.7287 C   0  0  0  0  0  0  0  0  0  0  0  0
    7.4487    9.1361   23.6506 C   0  0  0  0  0  0  0  0  0  0  0  0
    8.9772    2.5025   22.0273 C   0  0  0  0  0  0  0  0  0  0  0  0
   10.4859    4.0901   20.9730 C   0  0  0  0  0  0  0  0  0  0  0  0
   11.0962    9.3293   23.5072 C   0  0  0  0  0  0  0  0  0  0  0  0
    5.1273    7.8529   23.6208 N   0  0  0  0  0  0  0  0  0  0  0  0
    9.7552    9.2338   23.0171 N   0  0  0  0  0  0  0  0  0  0  0  0
   11.1797    6.7591   21.3326 N   0  0  0  0  0  0  0  0  0  0  0  0
   11.7728    8.0337   23.7267 C   0  0  0  0  0  0  0  0  0  0  0  0
    7.1194    8.3344   24.6775 C   0  0  0  0  0  0  0  0  0  0  0  0
    8.4311    4.7963   22.0500 C   0  0  0  0  0  0  0  0  0  0  0  0
    8.7393   10.8706   24.1871 O   0  0  0  0  0  0  0  0  0  0  0  0
    9.3093    3.8166   21.6712 C   0  0  0  0  0  0  0  0  0  0  0  0
  1  5  1  0
  1 15  4  0
  1 22  4  0
  2 20  1  0
  2 24  1  0
  3  6  4  0
  3 27  4  0
  4 22  4  0
  4 26  4  0
  6  7  4  0
  6 13  1  0
  7 19  4  0
  8 18  1  0
  8 23  1  0
  8 28  2  0
  9 17  1  0
  9 24  1  0
 10 11  1  0
 10 24  1  0
 11 23  1  0
 12 14  4  0
 12 16  4  0
 14 19  4  0
 15 18  4  0
 16 20  4  0
 17 25  1  0
 18 26  4  0
 19 29  4  0
 20 29  4  0
 21 23  1  0
 21 25  1  0
 27 29  4  0
M  END
$$$$

 Created by Python create_sdf_string function

 29 32  0  0  0  0  0  0  0  0999 V2000
    5.4450    8.7154   22.6662 C   0  0  0  0  0  0  0  0  0  0  0  0
   10.9154    5.4574   20.5483 C   0  0  0  0  0  0  0  0  0  0  0  0
    7.2709    4.5089   22.7542 C   0  0  0  0  0  0  0  0  0  0  0  0
    5.9698    7.6329   24.6581 C   0  0  0  0  0  0  0  0  0  0  0  0
    4.5542    8.9057   21.7104 O   0  0  0  0  0  0  0  0  0  0  0  0
    6.9895    3.2085   23.0690 C   0  0  0  0  0  0  0  0  0  0  0  0
    7.8391    2.2253   22.7260 N   0  0  0  0  0  0  0  0  0  0  0  0
    8.6968    9.8373   23.6359 C   0  0  0  0  0  0  0  0  0  0  0  0
   12.5135    6.5957   21.8396 C   0  0  0  0  0  0  0  0  0  0  0  0
   10.9406    8.2330   21.1350 C   0  0  0  0  0  0  0  0  0  0  0  0
    9.6648    8.5956   21.7310 C   0  0  0  0  0  0  0  0  0  0  0  0
   10.8829    1.7153   20.9865 C   0  0  0  0  0  0  0  0  0  0  0  0
    5.7768    2.8533   23.7910 C   0  0  0  0  0  0  0  0  0  0  0  0
    9.7977    1.4791   21.6912 N   0  0  0  0  0  0  0  0  0  0  0  0
    6.5976    9.3401   22.6478 N   0  0  0  0  0  0  0  0  0  0  0  0
   11.2031    3.0042   20.6246 C   0  0  0  0  0  0  0  0  0  0  0  0
   12.8688    7.7370   22.7287 C   0  0  0  0  0  0  0  0  0  0  0  0
    7.4487    9.1361   23.6506 C   0  0  0  0  0  0  0  0  0  0  0  0
    8.9772    2.5025   22.0273 C   0  0  0  0  0  0  0  0  0  0  0  0
   10.4859    4.0901   20.9730 C   0  0  0  0  0  0  0  0  0  0  0  0
   11.0962    9.3293   23.5072 C   0  0  0  0  0  0  0  0  0  0  0  0
    5.1273    7.8529   23.6208 N   0  0  0  0  0  0  0  0  0  0  0  0
    9.7552    9.2338   23.0171 N   0  0  0  0  0  0  0  0  0  0  0  0
   11.1797    6.7591   21.3326 N   0  0  0  0  0  0  0  0  0  0  0  0
   11.7728    8.0337   23.7267 C   0  0  0  0  0  0  0  0  0  0  0  0
    7.1194    8.3344   24.6775 C   0  0  0  0  0  0  0  0  0  0  0  0
    8.4311    4.7963   22.0500 C   0  0  0  0  0  0  0  0  0  0  0  0
    8.7393   10.8706   24.1871 O   0  0  0  0  0  0  0  0  0  0  0  0
    9.3093    3.8166   21.6712 C   0  0  0  0  0  0  0  0  0  0  0  0
  1  5  1  0
  1 15  4  0
  1 22  4  0
  2 20  1  0
  2 24  1  0
  3  6  4  0
  3 27  4  0
  4 22  4  0
  4 26  4  0
  6  7  4  0
  6 13  1  0
  7 19  4  0
  8 18  1  0
  8 23  1  0
  8 28  2  0
  9 17  1  0
  9 24  1  0
 10 11  1  0
 10 24  1  0
 11 23  1  0
 12 14  4  0
 12 16  4  0
 14 19  4  0
 15 18  4  0
 16 20  4  0
 17 25  1  0
 18 26  4  0
 19 29  4  0
 20 29  4  0
 21 23  1  0
 21 25  1  0
 27 29  4  0
M  END
$$$$

 Created by Python create_sdf_string function

 29 32  0  0  0  0  0  0  0  0999 V2000
    5.4450    8.7154   22.6662 C   0  0  0  0  0  0  0  0  0  0  0  0
   10.9154    5.4574   20.5483 C   0  0  0  0  0  0  0  0  0  0  0  0
    7.2709    4.5089   22.7542 C   0  0  0  0  0  0  0  0  0  0  0  0
    5.9698    7.6329   24.6581 C   0  0  0  0  0  0  0  0  0  0  0  0
    4.5542    8.9057   21.7104 O   0  0  0  0  0  0  0  0  0  0  0  0
    6.9895    3.2085   23.0690 C   0  0  0  0  0  0  0  0  0  0  0  0
    7.8391    2.2253   22.7260 N   0  0  0  0  0  0  0  0  0  0  0  0
    8.6968    9.8373   23.6359 C   0  0  0  0  0  0  0  0  0  0  0  0
   12.5135    6.5957   21.8396 C   0  0  0  0  0  0  0  0  0  0  0  0
   10.9406    8.2330   21.1350 C   0  0  0  0  0  0  0  0  0  0  0  0
    9.6648    8.5956   21.7310 C   0  0  0  0  0  0  0  0  0  0  0  0
   10.8829    1.7153   20.9865 C   0  0  0  0  0  0  0  0  0  0  0  0
    5.7768    2.8533   23.7910 C   0  0  0  0  0  0  0  0  0  0  0  0
    9.7977    1.4791   21.6912 N   0  0  0  0  0  0  0  0  0  0  0  0
    6.5976    9.3401   22.6478 N   0  0  0  0  0  0  0  0  0  0  0  0
   11.2031    3.0042   20.6246 C   0  0  0  0  0  0  0  0  0  0  0  0
   12.8688    7.7370   22.7287 C   0  0  0  0  0  0  0  0  0  0  0  0
    7.4487    9.1361   23.6506 C   0  0  0  0  0  0  0  0  0  0  0  0
    8.9772    2.5025   22.0273 C   0  0  0  0  0  0  0  0  0  0  0  0
   10.4859    4.0901   20.9730 C   0  0  0  0  0  0  0  0  0  0  0  0
   11.0962    9.3293   23.5072 C   0  0  0  0  0  0  0  0  0  0  0  0
    5.1273    7.8529   23.6208 N   0  0  0  0  0  0  0  0  0  0  0  0
    9.7552    9.2338   23.0171 N   0  0  0  0  0  0  0  0  0  0  0  0
   11.1797    6.7591   21.3326 N   0  0  0  0  0  0  0  0  0  0  0  0
   11.7728    8.0337   23.7267 C   0  0  0  0  0  0  0  0  0  0  0  0
    7.1194    8.3344   24.6775 C   0  0  0  0  0  0  0  0  0  0  0  0
    8.4311    4.7963   22.0500 C   0  0  0  0  0  0  0  0  0  0  0  0
    8.7393   10.8706   24.1871 O   0  0  0  0  0  0  0  0  0  0  0  0
    9.3093    3.8166   21.6712 C   0  0  0  0  0  0  0  0  0  0  0  0
  1  5  1  0
  1 15  4  0
  1 22  4  0
  2 20  1  0
  2 24  1  0
  3  6  4  0
  3 27  4  0
  4 22  4  0
  4 26  4  0
  6  7  4  0
  6 13  1  0
  7 19  4  0
  8 18  1  0
  8 23  1  0
  8 28  2  0
  9 17  1  0
  9 24  1  0
 10 11  1  0
 10 24  1  0
 11 23  1  0
 12 14  4  0
 12 16  4  0
 14 19  4  0
 15 18  4  0
 16 20  4  0
 17 25  1  0
 18 26  4  0
 19 29  4  0
 20 29  4  0
 21 23  1  0
 21 25  1  0
 27 29  4  0
M  END
$$$$

 Created by Python create_sdf_string function

 29 32  0  0  0  0  0  0  0  0999 V2000
    5.4450    8.7154   22.6662 C   0  0  0  0  0  0  0  0  0  0  0  0
   10.9154    5.4574   20.5483 C   0  0  0  0  0  0  0  0  0  0  0  0
    7.2709    4.5089   22.7542 C   0  0  0  0  0  0  0  0  0  0  0  0
    5.9698    7.6329   24.6581 C   0  0  0  0  0  0  0  0  0  0  0  0
    4.5542    8.9057   21.7104 O   0  0  0  0  0  0  0  0  0  0  0  0
    6.9895    3.2085   23.0690 C   0  0  0  0  0  0  0  0  0  0  0  0
    7.8391    2.2253   22.7260 N   0  0  0  0  0  0  0  0  0  0  0  0
    8.6968    9.8373   23.6359 C   0  0  0  0  0  0  0  0  0  0  0  0
   12.5135    6.5957   21.8396 C   0  0  0  0  0  0  0  0  0  0  0  0
   10.9406    8.2330   21.1350 C   0  0  0  0  0  0  0  0  0  0  0  0
    9.6648    8.5956   21.7310 C   0  0  0  0  0  0  0  0  0  0  0  0
   10.8829    1.7153   20.9865 C   0  0  0  0  0  0  0  0  0  0  0  0
    5.7768    2.8533   23.7910 C   0  0  0  0  0  0  0  0  0  0  0  0
    9.7977    1.4791   21.6912 N   0  0  0  0  0  0  0  0  0  0  0  0
    6.5976    9.3401   22.6478 N   0  0  0  0  0  0  0  0  0  0  0  0
   11.2031    3.0042   20.6246 C   0  0  0  0  0  0  0  0  0  0  0  0
   12.8688    7.7370   22.7287 C   0  0  0  0  0  0  0  0  0  0  0  0
    7.4487    9.1361   23.6506 C   0  0  0  0  0  0  0  0  0  0  0  0
    8.9772    2.5025   22.0273 C   0  0  0  0  0  0  0  0  0  0  0  0
   10.4859    4.0901   20.9730 C   0  0  0  0  0  0  0  0  0  0  0  0
   11.0962    9.3293   23.5072 C   0  0  0  0  0  0  0  0  0  0  0  0
    5.1273    7.8529   23.6208 N   0  0  0  0  0  0  0  0  0  0  0  0
    9.7552    9.2338   23.0171 N   0  0  0  0  0  0  0  0  0  0  0  0
   11.1797    6.7591   21.3326 N   0  0  0  0  0  0  0  0  0  0  0  0
   11.7728    8.0337   23.7267 C   0  0  0  0  0  0  0  0  0  0  0  0
    7.1194    8.3344   24.6775 C   0  0  0  0  0  0  0  0  0  0  0  0
    8.4311    4.7963   22.0500 C   0  0  0  0  0  0  0  0  0  0  0  0
    8.7393   10.8706   24.1871 O   0  0  0  0  0  0  0  0  0  0  0  0
    9.3093    3.8166   21.6712 C   0  0  0  0  0  0  0  0  0  0  0  0
  1  5  1  0
  1 15  4  0
  1 22  4  0
  2 20  1  0
  2 24  1  0
  3  6  4  0
  3 27  4  0
  4 22  4  0
  4 26  4  0
  6  7  4  0
  6 13  1  0
  7 19  4  0
  8 18  1  0
  8 23  1  0
  8 28  2  0
  9 17  1  0
  9 24  1  0
 10 11  1  0
 10 24  1  0
 11 23  1  0
 12 14  4  0
 12 16  4  0
 14 19  4  0
 15 18  4  0
 16 20  4  0
 17 25  1  0
 18 26  4  0
 19 29  4  0
 20 29  4  0
 21 23  1  0
 21 25  1  0
 27 29  4  0
M  END
$$$$

 Created by Python create_sdf_string function

 29 32  0  0  0  0  0  0  0  0999 V2000
    5.4450    8.7154   22.6662 C   0  0  0  0  0  0  0  0  0  0  0  0
   10.9154    5.4574   20.5483 C   0  0  0  0  0  0  0  0  0  0  0  0
    7.2709    4.5089   22.7542 C   0  0  0  0  0  0  0  0  0  0  0  0
    5.9698    7.6329   24.6581 C   0  0  0  0  0  0  0  0  0  0  0  0
    4.5542    8.9057   21.7104 O   0  0  0  0  0  0  0  0  0  0  0  0
    6.9895    3.2085   23.0690 C   0  0  0  0  0  0  0  0  0  0  0  0
    7.8391    2.2253   22.7260 N   0  0  0  0  0  0  0  0  0  0  0  0
    8.6968    9.8373   23.6359 C   0  0  0  0  0  0  0  0  0  0  0  0
   12.5135    6.5957   21.8396 C   0  0  0  0  0  0  0  0  0  0  0  0
   10.9406    8.2330   21.1350 C   0  0  0  0  0  0  0  0  0  0  0  0
    9.6648    8.5956   21.7310 C   0  0  0  0  0  0  0  0  0  0  0  0
   10.8829    1.7153   20.9865 C   0  0  0  0  0  0  0  0  0  0  0  0
    5.7768    2.8533   23.7910 C   0  0  0  0  0  0  0  0  0  0  0  0
    9.7977    1.4791   21.6912 N   0  0  0  0  0  0  0  0  0  0  0  0
    6.5976    9.3401   22.6478 N   0  0  0  0  0  0  0  0  0  0  0  0
   11.2031    3.0042   20.6246 C   0  0  0  0  0  0  0  0  0  0  0  0
   12.8688    7.7370   22.7287 C   0  0  0  0  0  0  0  0  0  0  0  0
    7.4487    9.1361   23.6506 C   0  0  0  0  0  0  0  0  0  0  0  0
    8.9772    2.5025   22.0273 C   0  0  0  0  0  0  0  0  0  0  0  0
   10.4859    4.0901   20.9730 C   0  0  0  0  0  0  0  0  0  0  0  0
   11.0962    9.3293   23.5072 C   0  0  0  0  0  0  0  0  0  0  0  0
    5.1273    7.8529   23.6208 N   0  0  0  0  0  0  0  0  0  0  0  0
    9.7552    9.2338   23.0171 N   0  0  0  0  0  0  0  0  0  0  0  0
   11.1797    6.7591   21.3326 N   0  0  0  0  0  0  0  0  0  0  0  0
   11.7728    8.0337   23.7267 C   0  0  0  0  0  0  0  0  0  0  0  0
    7.1194    8.3344   24.6775 C   0  0  0  0  0  0  0  0  0  0  0  0
    8.4311    4.7963   22.0500 C   0  0  0  0  0  0  0  0  0  0  0  0
    8.7393   10.8706   24.1871 O   0  0  0  0  0  0  0  0  0  0  0  0
    9.3093    3.8166   21.6712 C   0  0  0  0  0  0  0  0  0  0  0  0
  1  5  1  0
  1 15  4  0
  1 22  4  0
  2 20  1  0
  2 24  1  0
  3  6  4  0
  3 27  4  0
  4 22  4  0
  4 26  4  0
  6  7  4  0
  6 13  1  0
  7 19  4  0
  8 18  1  0
  8 23  1  0
  8 28  2  0
  9 17  1  0
  9 24  1  0
 10 11  1  0
 10 24  1  0
 11 23  1  0
 12 14  4  0
 12 16  4  0
 14 19  4  0
 15 18  4  0
 16 20  4  0
 17 25  1  0
 18 26  4  0
 19 29  4  0
 20 29  4  0
 21 23  1  0
 21 25  1  0
 27 29  4  0
M  END
$$$$

 Created by Python create_sdf_string function

 29 32  0  0  0  0  0  0  0  0999 V2000
    5.4450    8.7154   22.6662 C   0  0  0  0  0  0  0  0  0  0  0  0
   10.9154    5.4574   20.5483 C   0  0  0  0  0  0  0  0  0  0  0  0
    7.2709    4.5089   22.7542 C   0  0  0  0  0  0  0  0  0  0  0  0
    5.9698    7.6329   24.6581 C   0  0  0  0  0  0  0  0  0  0  0  0
    4.5542    8.9057   21.7104 O   0  0  0  0  0  0  0  0  0  0  0  0
    6.9895    3.2085   23.0690 C   0  0  0  0  0  0  0  0  0  0  0  0
    7.8391    2.2253   22.7260 N   0  0  0  0  0  0  0  0  0  0  0  0
    8.6968    9.8373   23.6359 C   0  0  0  0  0  0  0  0  0  0  0  0
   12.5135    6.5957   21.8396 C   0  0  0  0  0  0  0  0  0  0  0  0
   10.9406    8.2330   21.1350 C   0  0  0  0  0  0  0  0  0  0  0  0
    9.6648    8.5956   21.7310 C   0  0  0  0  0  0  0  0  0  0  0  0
   10.8829    1.7153   20.9865 C   0  0  0  0  0  0  0  0  0  0  0  0
    5.7768    2.8533   23.7910 C   0  0  0  0  0  0  0  0  0  0  0  0
    9.7977    1.4791   21.6912 N   0  0  0  0  0  0  0  0  0  0  0  0
    6.5976    9.3401   22.6478 N   0  0  0  0  0  0  0  0  0  0  0  0
   11.2031    3.0042   20.6246 C   0  0  0  0  0  0  0  0  0  0  0  0
   12.8688    7.7370   22.7287 C   0  0  0  0  0  0  0  0  0  0  0  0
    7.4487    9.1361   23.6506 C   0  0  0  0  0  0  0  0  0  0  0  0
    8.9772    2.5025   22.0273 C   0  0  0  0  0  0  0  0  0  0  0  0
   10.4859    4.0901   20.9730 C   0  0  0  0  0  0  0  0  0  0  0  0
   11.0962    9.3293   23.5072 C   0  0  0  0  0  0  0  0  0  0  0  0
    5.1273    7.8529   23.6208 N   0  0  0  0  0  0  0  0  0  0  0  0
    9.7552    9.2338   23.0171 N   0  0  0  0  0  0  0  0  0  0  0  0
   11.1797    6.7591   21.3326 N   0  0  0  0  0  0  0  0  0  0  0  0
   11.7728    8.0337   23.7267 C   0  0  0  0  0  0  0  0  0  0  0  0
    7.1194    8.3344   24.6775 C   0  0  0  0  0  0  0  0  0  0  0  0
    8.4311    4.7963   22.0500 C   0  0  0  0  0  0  0  0  0  0  0  0
    8.7393   10.8706   24.1871 O   0  0  0  0  0  0  0  0  0  0  0  0
    9.3093    3.8166   21.6712 C   0  0  0  0  0  0  0  0  0  0  0  0
  1  5  1  0
  1 15  4  0
  1 22  4  0
  2 20  1  0
  2 24  1  0
  3  6  4  0
  3 27  4  0
  4 22  4  0
  4 26  4  0
  6  7  4  0
  6 13  1  0
  7 19  4  0
  8 18  1  0
  8 23  1  0
  8 28  2  0
  9 17  1  0
  9 24  1  0
 10 11  1  0
 10 24  1  0
 11 23  1  0
 12 14  4  0
 12 16  4  0
 14 19  4  0
 15 18  4  0
 16 20  4  0
 17 25  1  0
 18 26  4  0
 19 29  4  0
 20 29  4  0
 21 23  1  0
 21 25  1  0
 27 29  4  0
M  END
$$$$

 Created by Python create_sdf_string function

 29 32  0  0  0  0  0  0  0  0999 V2000
    5.4450    8.7154   22.6662 C   0  0  0  0  0  0  0  0  0  0  0  0
   10.9154    5.4574   20.5483 C   0  0  0  0  0  0  0  0  0  0  0  0
    7.2709    4.5089   22.7542 C   0  0  0  0  0  0  0  0  0  0  0  0
    5.9698    7.6329   24.6581 C   0  0  0  0  0  0  0  0  0  0  0  0
    4.5542    8.9057   21.7104 O   0  0  0  0  0  0  0  0  0  0  0  0
    6.9895    3.2085   23.0690 C   0  0  0  0  0  0  0  0  0  0  0  0
    7.8391    2.2253   22.7260 N   0  0  0  0  0  0  0  0  0  0  0  0
    8.6968    9.8373   23.6359 C   0  0  0  0  0  0  0  0  0  0  0  0
   12.5135    6.5957   21.8396 C   0  0  0  0  0  0  0  0  0  0  0  0
   10.9406    8.2330   21.1350 C   0  0  0  0  0  0  0  0  0  0  0  0
    9.6648    8.5956   21.7310 C   0  0  0  0  0  0  0  0  0  0  0  0
   10.8829    1.7153   20.9865 C   0  0  0  0  0  0  0  0  0  0  0  0
    5.7768    2.8533   23.7910 C   0  0  0  0  0  0  0  0  0  0  0  0
    9.7977    1.4791   21.6912 N   0  0  0  0  0  0  0  0  0  0  0  0
    6.5976    9.3401   22.6478 N   0  0  0  0  0  0  0  0  0  0  0  0
   11.2031    3.0042   20.6246 C   0  0  0  0  0  0  0  0  0  0  0  0
   12.8688    7.7370   22.7287 C   0  0  0  0  0  0  0  0  0  0  0  0
    7.4487    9.1361   23.6506 C   0  0  0  0  0  0  0  0  0  0  0  0
    8.9772    2.5025   22.0273 C   0  0  0  0  0  0  0  0  0  0  0  0
   10.4859    4.0901   20.9730 C   0  0  0  0  0  0  0  0  0  0  0  0
   11.0962    9.3293   23.5072 C   0  0  0  0  0  0  0  0  0  0  0  0
    5.1273    7.8529   23.6208 N   0  0  0  0  0  0  0  0  0  0  0  0
    9.7552    9.2338   23.0171 N   0  0  0  0  0  0  0  0  0  0  0  0
   11.1797    6.7591   21.3326 N   0  0  0  0  0  0  0  0  0  0  0  0
   11.7728    8.0337   23.7267 C   0  0  0  0  0  0  0  0  0  0  0  0
    7.1194    8.3344   24.6775 C   0  0  0  0  0  0  0  0  0  0  0  0
    8.4311    4.7963   22.0500 C   0  0  0  0  0  0  0  0  0  0  0  0
    8.7393   10.8706   24.1871 O   0  0  0  0  0  0  0  0  0  0  0  0
    9.3093    3.8166   21.6712 C   0  0  0  0  0  0  0  0  0  0  0  0
  1  5  1  0
  1 15  4  0
  1 22  4  0
  2 20  1  0
  2 24  1  0
  3  6  4  0
  3 27  4  0
  4 22  4  0
  4 26  4  0
  6  7  4  0
  6 13  1  0
  7 19  4  0
  8 18  1  0
  8 23  1  0
  8 28  2  0
  9 17  1  0
  9 24  1  0
 10 11  1  0
 10 24  1  0
 11 23  1  0
 12 14  4  0
 12 16  4  0
 14 19  4  0
 15 18  4  0
 16 20  4  0
 17 25  1  0
 18 26  4  0
 19 29  4  0
 20 29  4  0
 21 23  1  0
 21 25  1  0
 27 29  4  0
M  END
$$$$

 Created by Python create_sdf_string function

 29 32  0  0  0  0  0  0  0  0999 V2000
    5.4450    8.7154   22.6662 C   0  0  0  0  0  0  0  0  0  0  0  0
   10.9154    5.4574   20.5483 C   0  0  0  0  0  0  0  0  0  0  0  0
    7.2709    4.5089   22.7542 C   0  0  0  0  0  0  0  0  0  0  0  0
    5.9698    7.6329   24.6581 C   0  0  0  0  0  0  0  0  0  0  0  0
    4.5542    8.9057   21.7104 O   0  0  0  0  0  0  0  0  0  0  0  0
    6.9895    3.2085   23.0690 C   0  0  0  0  0  0  0  0  0  0  0  0
    7.8391    2.2253   22.7260 N   0  0  0  0  0  0  0  0  0  0  0  0
    8.6968    9.8373   23.6359 C   0  0  0  0  0  0  0  0  0  0  0  0
   12.5135    6.5957   21.8396 C   0  0  0  0  0  0  0  0  0  0  0  0
   10.9406    8.2330   21.1350 C   0  0  0  0  0  0  0  0  0  0  0  0
    9.6648    8.5956   21.7310 C   0  0  0  0  0  0  0  0  0  0  0  0
   10.8829    1.7153   20.9865 C   0  0  0  0  0  0  0  0  0  0  0  0
    5.7768    2.8533   23.7910 C   0  0  0  0  0  0  0  0  0  0  0  0
    9.7977    1.4791   21.6912 N   0  0  0  0  0  0  0  0  0  0  0  0
    6.5976    9.3401   22.6478 N   0  0  0  0  0  0  0  0  0  0  0  0
   11.2031    3.0042   20.6246 C   0  0  0  0  0  0  0  0  0  0  0  0
   12.8688    7.7370   22.7287 C   0  0  0  0  0  0  0  0  0  0  0  0
    7.4487    9.1361   23.6506 C   0  0  0  0  0  0  0  0  0  0  0  0
    8.9772    2.5025   22.0273 C   0  0  0  0  0  0  0  0  0  0  0  0
   10.4859    4.0901   20.9730 C   0  0  0  0  0  0  0  0  0  0  0  0
   11.0962    9.3293   23.5072 C   0  0  0  0  0  0  0  0  0  0  0  0
    5.1273    7.8529   23.6208 N   0  0  0  0  0  0  0  0  0  0  0  0
    9.7552    9.2338   23.0171 N   0  0  0  0  0  0  0  0  0  0  0  0
   11.1797    6.7591   21.3326 N   0  0  0  0  0  0  0  0  0  0  0  0
   11.7728    8.0337   23.7267 C   0  0  0  0  0  0  0  0  0  0  0  0
    7.1194    8.3344   24.6775 C   0  0  0  0  0  0  0  0  0  0  0  0
    8.4311    4.7963   22.0500 C   0  0  0  0  0  0  0  0  0  0  0  0
    8.7393   10.8706   24.1871 O   0  0  0  0  0  0  0  0  0  0  0  0
    9.3093    3.8166   21.6712 C   0  0  0  0  0  0  0  0  0  0  0  0
  1  5  1  0
  1 15  4  0
  1 22  4  0
  2 20  1  0
  2 24  1  0
  3  6  4  0
  3 27  4  0
  4 22  4  0
  4 26  4  0
  6  7  4  0
  6 13  1  0
  7 19  4  0
  8 18  1  0
  8 23  1  0
  8 28  2  0
  9 17  1  0
  9 24  1  0
 10 11  1  0
 10 24  1  0
 11 23  1  0
 12 14  4  0
 12 16  4  0
 14 19  4  0
 15 18  4  0
 16 20  4  0
 17 25  1  0
 18 26  4  0
 19 29  4  0
 20 29  4  0
 21 23  1  0
 21 25  1  0
 27 29  4  0
M  END
$$$$

 Created by Python create_sdf_string function

 29 32  0  0  0  0  0  0  0  0999 V2000
    5.4450    8.7154   22.6662 C   0  0  0  0  0  0  0  0  0  0  0  0
   10.9154    5.4574   20.5483 C   0  0  0  0  0  0  0  0  0  0  0  0
    7.2709    4.5089   22.7542 C   0  0  0  0  0  0  0  0  0  0  0  0
    5.9698    7.6329   24.6581 C   0  0  0  0  0  0  0  0  0  0  0  0
    4.5542    8.9057   21.7104 O   0  0  0  0  0  0  0  0  0  0  0  0
    6.9895    3.2085   23.0690 C   0  0  0  0  0  0  0  0  0  0  0  0
    7.8391    2.2253   22.7260 N   0  0  0  0  0  0  0  0  0  0  0  0
    8.6968    9.8373   23.6359 C   0  0  0  0  0  0  0  0  0  0  0  0
   12.5135    6.5957   21.8396 C   0  0  0  0  0  0  0  0  0  0  0  0
   10.9406    8.2330   21.1350 C   0  0  0  0  0  0  0  0  0  0  0  0
    9.6648    8.5956   21.7310 C   0  0  0  0  0  0  0  0  0  0  0  0
   10.8829    1.7153   20.9865 C   0  0  0  0  0  0  0  0  0  0  0  0
    5.7768    2.8533   23.7910 C   0  0  0  0  0  0  0  0  0  0  0  0
    9.7977    1.4791   21.6912 N   0  0  0  0  0  0  0  0  0  0  0  0
    6.5976    9.3401   22.6478 N   0  0  0  0  0  0  0  0  0  0  0  0
   11.2031    3.0042   20.6246 C   0  0  0  0  0  0  0  0  0  0  0  0
   12.8688    7.7370   22.7287 C   0  0  0  0  0  0  0  0  0  0  0  0
    7.4487    9.1361   23.6506 C   0  0  0  0  0  0  0  0  0  0  0  0
    8.9772    2.5025   22.0273 C   0  0  0  0  0  0  0  0  0  0  0  0
   10.4859    4.0901   20.9730 C   0  0  0  0  0  0  0  0  0  0  0  0
   11.0962    9.3293   23.5072 C   0  0  0  0  0  0  0  0  0  0  0  0
    5.1273    7.8529   23.6208 N   0  0  0  0  0  0  0  0  0  0  0  0
    9.7552    9.2338   23.0171 N   0  0  0  0  0  0  0  0  0  0  0  0
   11.1797    6.7591   21.3326 N   0  0  0  0  0  0  0  0  0  0  0  0
   11.7728    8.0337   23.7267 C   0  0  0  0  0  0  0  0  0  0  0  0
    7.1194    8.3344   24.6775 C   0  0  0  0  0  0  0  0  0  0  0  0
    8.4311    4.7963   22.0500 C   0  0  0  0  0  0  0  0  0  0  0  0
    8.7393   10.8706   24.1871 O   0  0  0  0  0  0  0  0  0  0  0  0
    9.3093    3.8166   21.6712 C   0  0  0  0  0  0  0  0  0  0  0  0
  1  5  1  0
  1 15  4  0
  1 22  4  0
  2 20  1  0
  2 24  1  0
  3  6  4  0
  3 27  4  0
  4 22  4  0
  4 26  4  0
  6  7  4  0
  6 13  1  0
  7 19  4  0
  8 18  1  0
  8 23  1  0
  8 28  2  0
  9 17  1  0
  9 24  1  0
 10 11  1  0
 10 24  1  0
 11 23  1  0
 12 14  4  0
 12 16  4  0
 14 19  4  0
 15 18  4  0
 16 20  4  0
 17 25  1  0
 18 26  4  0
 19 29  4  0
 20 29  4  0
 21 23  1  0
 21 25  1  0
 27 29  4  0
M  END
$$$$

 Created by Python create_sdf_string function

 29 32  0  0  0  0  0  0  0  0999 V2000
    5.4450    8.7154   22.6662 C   0  0  0  0  0  0  0  0  0  0  0  0
   10.9154    5.4574   20.5483 C   0  0  0  0  0  0  0  0  0  0  0  0
    7.2709    4.5089   22.7542 C   0  0  0  0  0  0  0  0  0  0  0  0
    5.9698    7.6329   24.6581 C   0  0  0  0  0  0  0  0  0  0  0  0
    4.5542    8.9057   21.7104 O   0  0  0  0  0  0  0  0  0  0  0  0
    6.9895    3.2085   23.0690 C   0  0  0  0  0  0  0  0  0  0  0  0
    7.8391    2.2253   22.7260 N   0  0  0  0  0  0  0  0  0  0  0  0
    8.6968    9.8373   23.6359 C   0  0  0  0  0  0  0  0  0  0  0  0
   12.5135    6.5957   21.8396 C   0  0  0  0  0  0  0  0  0  0  0  0
   10.9406    8.2330   21.1350 C   0  0  0  0  0  0  0  0  0  0  0  0
    9.6648    8.5956   21.7310 C   0  0  0  0  0  0  0  0  0  0  0  0
   10.8829    1.7153   20.9865 C   0  0  0  0  0  0  0  0  0  0  0  0
    5.7768    2.8533   23.7910 C   0  0  0  0  0  0  0  0  0  0  0  0
    9.7977    1.4791   21.6912 N   0  0  0  0  0  0  0  0  0  0  0  0
    6.5976    9.3401   22.6478 N   0  0  0  0  0  0  0  0  0  0  0  0
   11.2031    3.0042   20.6246 C   0  0  0  0  0  0  0  0  0  0  0  0
   12.8688    7.7370   22.7287 C   0  0  0  0  0  0  0  0  0  0  0  0
    7.4487    9.1361   23.6506 C   0  0  0  0  0  0  0  0  0  0  0  0
    8.9772    2.5025   22.0273 C   0  0  0  0  0  0  0  0  0  0  0  0
   10.4859    4.0901   20.9730 C   0  0  0  0  0  0  0  0  0  0  0  0
   11.0962    9.3293   23.5072 C   0  0  0  0  0  0  0  0  0  0  0  0
    5.1273    7.8529   23.6208 N   0  0  0  0  0  0  0  0  0  0  0  0
    9.7552    9.2338   23.0171 N   0  0  0  0  0  0  0  0  0  0  0  0
   11.1797    6.7591   21.3326 N   0  0  0  0  0  0  0  0  0  0  0  0
   11.7728    8.0337   23.7267 C   0  0  0  0  0  0  0  0  0  0  0  0
    7.1194    8.3344   24.6775 C   0  0  0  0  0  0  0  0  0  0  0  0
    8.4311    4.7963   22.0500 C   0  0  0  0  0  0  0  0  0  0  0  0
    8.7393   10.8706   24.1871 O   0  0  0  0  0  0  0  0  0  0  0  0
    9.3093    3.8166   21.6712 C   0  0  0  0  0  0  0  0  0  0  0  0
  1  5  1  0
  1 15  4  0
  1 22  4  0
  2 20  1  0
  2 24  1  0
  3  6  4  0
  3 27  4  0
  4 22  4  0
  4 26  4  0
  6  7  4  0
  6 13  1  0
  7 19  4  0
  8 18  1  0
  8 23  1  0
  8 28  2  0
  9 17  1  0
  9 24  1  0
 10 11  1  0
 10 24  1  0
 11 23  1  0
 12 14  4  0
 12 16  4  0
 14 19  4  0
 15 18  4  0
 16 20  4  0
 17 25  1  0
 18 26  4  0
 19 29  4  0
 20 29  4  0
 21 23  1  0
 21 25  1  0
 27 29  4  0
M  END
$$$$

 Created by Python create_sdf_string function

 29 32  0  0  0  0  0  0  0  0999 V2000
    5.4450    8.7154   22.6662 C   0  0  0  0  0  0  0  0  0  0  0  0
   10.9154    5.4574   20.5483 C   0  0  0  0  0  0  0  0  0  0  0  0
    7.2709    4.5089   22.7542 C   0  0  0  0  0  0  0  0  0  0  0  0
    5.9698    7.6329   24.6581 C   0  0  0  0  0  0  0  0  0  0  0  0
    4.5542    8.9057   21.7104 O   0  0  0  0  0  0  0  0  0  0  0  0
    6.9895    3.2085   23.0690 C   0  0  0  0  0  0  0  0  0  0  0  0
    7.8391    2.2253   22.7260 N   0  0  0  0  0  0  0  0  0  0  0  0
    8.6968    9.8373   23.6359 C   0  0  0  0  0  0  0  0  0  0  0  0
   12.5135    6.5957   21.8396 C   0  0  0  0  0  0  0  0  0  0  0  0
   10.9406    8.2330   21.1350 C   0  0  0  0  0  0  0  0  0  0  0  0
    9.6648    8.5956   21.7310 C   0  0  0  0  0  0  0  0  0  0  0  0
   10.8829    1.7153   20.9865 C   0  0  0  0  0  0  0  0  0  0  0  0
    5.7768    2.8533   23.7910 C   0  0  0  0  0  0  0  0  0  0  0  0
    9.7977    1.4791   21.6912 N   0  0  0  0  0  0  0  0  0  0  0  0
    6.5976    9.3401   22.6478 N   0  0  0  0  0  0  0  0  0  0  0  0
   11.2031    3.0042   20.6246 C   0  0  0  0  0  0  0  0  0  0  0  0
   12.8688    7.7370   22.7287 C   0  0  0  0  0  0  0  0  0  0  0  0
    7.4487    9.1361   23.6506 C   0  0  0  0  0  0  0  0  0  0  0  0
    8.9772    2.5025   22.0273 C   0  0  0  0  0  0  0  0  0  0  0  0
   10.4859    4.0901   20.9730 C   0  0  0  0  0  0  0  0  0  0  0  0
   11.0962    9.3293   23.5072 C   0  0  0  0  0  0  0  0  0  0  0  0
    5.1273    7.8529   23.6208 N   0  0  0  0  0  0  0  0  0  0  0  0
    9.7552    9.2338   23.0171 N   0  0  0  0  0  0  0  0  0  0  0  0
   11.1797    6.7591   21.3326 N   0  0  0  0  0  0  0  0  0  0  0  0
   11.7728    8.0337   23.7267 C   0  0  0  0  0  0  0  0  0  0  0  0
    7.1194    8.3344   24.6775 C   0  0  0  0  0  0  0  0  0  0  0  0
    8.4311    4.7963   22.0500 C   0  0  0  0  0  0  0  0  0  0  0  0
    8.7393   10.8706   24.1871 O   0  0  0  0  0  0  0  0  0  0  0  0
    9.3093    3.8166   21.6712 C   0  0  0  0  0  0  0  0  0  0  0  0
  1  5  1  0
  1 15  4  0
  1 22  4  0
  2 20  1  0
  2 24  1  0
  3  6  4  0
  3 27  4  0
  4 22  4  0
  4 26  4  0
  6  7  4  0
  6 13  1  0
  7 19  4  0
  8 18  1  0
  8 23  1  0
  8 28  2  0
  9 17  1  0
  9 24  1  0
 10 11  1  0
 10 24  1  0
 11 23  1  0
 12 14  4  0
 12 16  4  0
 14 19  4  0
 15 18  4  0
 16 20  4  0
 17 25  1  0
 18 26  4  0
 19 29  4  0
 20 29  4  0
 21 23  1  0
 21 25  1  0
 27 29  4  0
M  END
$$$$

 Created by Python create_sdf_string function

 29 32  0  0  0  0  0  0  0  0999 V2000
    5.4450    8.7154   22.6662 C   0  0  0  0  0  0  0  0  0  0  0  0
   10.9154    5.4574   20.5483 C   0  0  0  0  0  0  0  0  0  0  0  0
    7.2709    4.5089   22.7542 C   0  0  0  0  0  0  0  0  0  0  0  0
    5.9698    7.6329   24.6581 C   0  0  0  0  0  0  0  0  0  0  0  0
    4.5542    8.9057   21.7104 O   0  0  0  0  0  0  0  0  0  0  0  0
    6.9895    3.2085   23.0690 C   0  0  0  0  0  0  0  0  0  0  0  0
    7.8391    2.2253   22.7260 N   0  0  0  0  0  0  0  0  0  0  0  0
    8.6968    9.8373   23.6359 C   0  0  0  0  0  0  0  0  0  0  0  0
   12.5135    6.5957   21.8396 C   0  0  0  0  0  0  0  0  0  0  0  0
   10.9406    8.2330   21.1350 C   0  0  0  0  0  0  0  0  0  0  0  0
    9.6648    8.5956   21.7310 C   0  0  0  0  0  0  0  0  0  0  0  0
   10.8829    1.7153   20.9865 C   0  0  0  0  0  0  0  0  0  0  0  0
    5.7768    2.8533   23.7910 C   0  0  0  0  0  0  0  0  0  0  0  0
    9.7977    1.4791   21.6912 N   0  0  0  0  0  0  0  0  0  0  0  0
    6.5976    9.3401   22.6478 N   0  0  0  0  0  0  0  0  0  0  0  0
   11.2031    3.0042   20.6246 C   0  0  0  0  0  0  0  0  0  0  0  0
   12.8688    7.7370   22.7287 C   0  0  0  0  0  0  0  0  0  0  0  0
    7.4487    9.1361   23.6506 C   0  0  0  0  0  0  0  0  0  0  0  0
    8.9772    2.5025   22.0273 C   0  0  0  0  0  0  0  0  0  0  0  0
   10.4859    4.0901   20.9730 C   0  0  0  0  0  0  0  0  0  0  0  0
   11.0962    9.3293   23.5072 C   0  0  0  0  0  0  0  0  0  0  0  0
    5.1273    7.8529   23.6208 N   0  0  0  0  0  0  0  0  0  0  0  0
    9.7552    9.2338   23.0171 N   0  0  0  0  0  0  0  0  0  0  0  0
   11.1797    6.7591   21.3326 N   0  0  0  0  0  0  0  0  0  0  0  0
   11.7728    8.0337   23.7267 C   0  0  0  0  0  0  0  0  0  0  0  0
    7.1194    8.3344   24.6775 C   0  0  0  0  0  0  0  0  0  0  0  0
    8.4311    4.7963   22.0500 C   0  0  0  0  0  0  0  0  0  0  0  0
    8.7393   10.8706   24.1871 O   0  0  0  0  0  0  0  0  0  0  0  0
    9.3093    3.8166   21.6712 C   0  0  0  0  0  0  0  0  0  0  0  0
  1  5  1  0
  1 15  4  0
  1 22  4  0
  2 20  1  0
  2 24  1  0
  3  6  4  0
  3 27  4  0
  4 22  4  0
  4 26  4  0
  6  7  4  0
  6 13  1  0
  7 19  4  0
  8 18  1  0
  8 23  1  0
  8 28  2  0
  9 17  1  0
  9 24  1  0
 10 11  1  0
 10 24  1  0
 11 23  1  0
 12 14  4  0
 12 16  4  0
 14 19  4  0
 15 18  4  0
 16 20  4  0
 17 25  1  0
 18 26  4  0
 19 29  4  0
 20 29  4  0
 21 23  1  0
 21 25  1  0
 27 29  4  0
M  END
$$$$

 Created by Python create_sdf_string function

 29 32  0  0  0  0  0  0  0  0999 V2000
    5.4450    8.7154   22.6662 C   0  0  0  0  0  0  0  0  0  0  0  0
   10.9154    5.4574   20.5483 C   0  0  0  0  0  0  0  0  0  0  0  0
    7.2709    4.5089   22.7542 C   0  0  0  0  0  0  0  0  0  0  0  0
    5.9698    7.6329   24.6581 C   0  0  0  0  0  0  0  0  0  0  0  0
    4.5542    8.9057   21.7104 O   0  0  0  0  0  0  0  0  0  0  0  0
    6.9895    3.2085   23.0690 C   0  0  0  0  0  0  0  0  0  0  0  0
    7.8391    2.2253   22.7260 N   0  0  0  0  0  0  0  0  0  0  0  0
    8.6968    9.8373   23.6359 C   0  0  0  0  0  0  0  0  0  0  0  0
   12.5135    6.5957   21.8396 C   0  0  0  0  0  0  0  0  0  0  0  0
   10.9406    8.2330   21.1350 C   0  0  0  0  0  0  0  0  0  0  0  0
    9.6648    8.5956   21.7310 C   0  0  0  0  0  0  0  0  0  0  0  0
   10.8829    1.7153   20.9865 C   0  0  0  0  0  0  0  0  0  0  0  0
    5.7768    2.8533   23.7910 C   0  0  0  0  0  0  0  0  0  0  0  0
    9.7977    1.4791   21.6912 N   0  0  0  0  0  0  0  0  0  0  0  0
    6.5976    9.3401   22.6478 N   0  0  0  0  0  0  0  0  0  0  0  0
   11.2031    3.0042   20.6246 C   0  0  0  0  0  0  0  0  0  0  0  0
   12.8688    7.7370   22.7287 C   0  0  0  0  0  0  0  0  0  0  0  0
    7.4487    9.1361   23.6506 C   0  0  0  0  0  0  0  0  0  0  0  0
    8.9772    2.5025   22.0273 C   0  0  0  0  0  0  0  0  0  0  0  0
   10.4859    4.0901   20.9730 C   0  0  0  0  0  0  0  0  0  0  0  0
   11.0962    9.3293   23.5072 C   0  0  0  0  0  0  0  0  0  0  0  0
    5.1273    7.8529   23.6208 N   0  0  0  0  0  0  0  0  0  0  0  0
    9.7552    9.2338   23.0171 N   0  0  0  0  0  0  0  0  0  0  0  0
   11.1797    6.7591   21.3326 N   0  0  0  0  0  0  0  0  0  0  0  0
   11.7728    8.0337   23.7267 C   0  0  0  0  0  0  0  0  0  0  0  0
    7.1194    8.3344   24.6775 C   0  0  0  0  0  0  0  0  0  0  0  0
    8.4311    4.7963   22.0500 C   0  0  0  0  0  0  0  0  0  0  0  0
    8.7393   10.8706   24.1871 O   0  0  0  0  0  0  0  0  0  0  0  0
    9.3093    3.8166   21.6712 C   0  0  0  0  0  0  0  0  0  0  0  0
  1  5  1  0
  1 15  4  0
  1 22  4  0
  2 20  1  0
  2 24  1  0
  3  6  4  0
  3 27  4  0
  4 22  4  0
  4 26  4  0
  6  7  4  0
  6 13  1  0
  7 19  4  0
  8 18  1  0
  8 23  1  0
  8 28  2  0
  9 17  1  0
  9 24  1  0
 10 11  1  0
 10 24  1  0
 11 23  1  0
 12 14  4  0
 12 16  4  0
 14 19  4  0
 15 18  4  0
 16 20  4  0
 17 25  1  0
 18 26  4  0
 19 29  4  0
 20 29  4  0
 21 23  1  0
 21 25  1  0
 27 29  4  0
M  END
$$$$

 Created by Python create_sdf_string function

 29 32  0  0  0  0  0  0  0  0999 V2000
    5.4450    8.7154   22.6662 C   0  0  0  0  0  0  0  0  0  0  0  0
   10.9154    5.4574   20.5483 C   0  0  0  0  0  0  0  0  0  0  0  0
    7.2709    4.5089   22.7542 C   0  0  0  0  0  0  0  0  0  0  0  0
    5.9698    7.6329   24.6581 C   0  0  0  0  0  0  0  0  0  0  0  0
    4.5542    8.9057   21.7104 O   0  0  0  0  0  0  0  0  0  0  0  0
    6.9895    3.2085   23.0690 C   0  0  0  0  0  0  0  0  0  0  0  0
    7.8391    2.2253   22.7260 N   0  0  0  0  0  0  0  0  0  0  0  0
    8.6968    9.8373   23.6359 C   0  0  0  0  0  0  0  0  0  0  0  0
   12.5135    6.5957   21.8396 C   0  0  0  0  0  0  0  0  0  0  0  0
   10.9406    8.2330   21.1350 C   0  0  0  0  0  0  0  0  0  0  0  0
    9.6648    8.5956   21.7310 C   0  0  0  0  0  0  0  0  0  0  0  0
   10.8829    1.7153   20.9865 C   0  0  0  0  0  0  0  0  0  0  0  0
    5.7768    2.8533   23.7910 C   0  0  0  0  0  0  0  0  0  0  0  0
    9.7977    1.4791   21.6912 N   0  0  0  0  0  0  0  0  0  0  0  0
    6.5976    9.3401   22.6478 N   0  0  0  0  0  0  0  0  0  0  0  0
   11.2031    3.0042   20.6246 C   0  0  0  0  0  0  0  0  0  0  0  0
   12.8688    7.7370   22.7287 C   0  0  0  0  0  0  0  0  0  0  0  0
    7.4487    9.1361   23.6506 C   0  0  0  0  0  0  0  0  0  0  0  0
    8.9772    2.5025   22.0273 C   0  0  0  0  0  0  0  0  0  0  0  0
   10.4859    4.0901   20.9730 C   0  0  0  0  0  0  0  0  0  0  0  0
   11.0962    9.3293   23.5072 C   0  0  0  0  0  0  0  0  0  0  0  0
    5.1273    7.8529   23.6208 N   0  0  0  0  0  0  0  0  0  0  0  0
    9.7552    9.2338   23.0171 N   0  0  0  0  0  0  0  0  0  0  0  0
   11.1797    6.7591   21.3326 N   0  0  0  0  0  0  0  0  0  0  0  0
   11.7728    8.0337   23.7267 C   0  0  0  0  0  0  0  0  0  0  0  0
    7.1194    8.3344   24.6775 C   0  0  0  0  0  0  0  0  0  0  0  0
    8.4311    4.7963   22.0500 C   0  0  0  0  0  0  0  0  0  0  0  0
    8.7393   10.8706   24.1871 O   0  0  0  0  0  0  0  0  0  0  0  0
    9.3093    3.8166   21.6712 C   0  0  0  0  0  0  0  0  0  0  0  0
  1  5  1  0
  1 15  4  0
  1 22  4  0
  2 20  1  0
  2 24  1  0
  3  6  4  0
  3 27  4  0
  4 22  4  0
  4 26  4  0
  6  7  4  0
  6 13  1  0
  7 19  4  0
  8 18  1  0
  8 23  1  0
  8 28  2  0
  9 17  1  0
  9 24  1  0
 10 11  1  0
 10 24  1  0
 11 23  1  0
 12 14  4  0
 12 16  4  0
 14 19  4  0
 15 18  4  0
 16 20  4  0
 17 25  1  0
 18 26  4  0
 19 29  4  0
 20 29  4  0
 21 23  1  0
 21 25  1  0
 27 29  4  0
M  END
$$$$

 Created by Python create_sdf_string function

 29 32  0  0  0  0  0  0  0  0999 V2000
    5.4450    8.7154   22.6662 C   0  0  0  0  0  0  0  0  0  0  0  0
   10.9154    5.4574   20.5483 C   0  0  0  0  0  0  0  0  0  0  0  0
    7.2709    4.5089   22.7542 C   0  0  0  0  0  0  0  0  0  0  0  0
    5.9698    7.6329   24.6581 C   0  0  0  0  0  0  0  0  0  0  0  0
    4.5542    8.9057   21.7104 O   0  0  0  0  0  0  0  0  0  0  0  0
    6.9895    3.2085   23.0690 C   0  0  0  0  0  0  0  0  0  0  0  0
    7.8391    2.2253   22.7260 N   0  0  0  0  0  0  0  0  0  0  0  0
    8.6968    9.8373   23.6359 C   0  0  0  0  0  0  0  0  0  0  0  0
   12.5135    6.5957   21.8396 C   0  0  0  0  0  0  0  0  0  0  0  0
   10.9406    8.2330   21.1350 C   0  0  0  0  0  0  0  0  0  0  0  0
    9.6648    8.5956   21.7310 C   0  0  0  0  0  0  0  0  0  0  0  0
   10.8829    1.7153   20.9865 C   0  0  0  0  0  0  0  0  0  0  0  0
    5.7768    2.8533   23.7910 C   0  0  0  0  0  0  0  0  0  0  0  0
    9.7977    1.4791   21.6912 N   0  0  0  0  0  0  0  0  0  0  0  0
    6.5976    9.3401   22.6478 N   0  0  0  0  0  0  0  0  0  0  0  0
   11.2031    3.0042   20.6246 C   0  0  0  0  0  0  0  0  0  0  0  0
   12.8688    7.7370   22.7287 C   0  0  0  0  0  0  0  0  0  0  0  0
    7.4487    9.1361   23.6506 C   0  0  0  0  0  0  0  0  0  0  0  0
    8.9772    2.5025   22.0273 C   0  0  0  0  0  0  0  0  0  0  0  0
   10.4859    4.0901   20.9730 C   0  0  0  0  0  0  0  0  0  0  0  0
   11.0962    9.3293   23.5072 C   0  0  0  0  0  0  0  0  0  0  0  0
    5.1273    7.8529   23.6208 N   0  0  0  0  0  0  0  0  0  0  0  0
    9.7552    9.2338   23.0171 N   0  0  0  0  0  0  0  0  0  0  0  0
   11.1797    6.7591   21.3326 N   0  0  0  0  0  0  0  0  0  0  0  0
   11.7728    8.0337   23.7267 C   0  0  0  0  0  0  0  0  0  0  0  0
    7.1194    8.3344   24.6775 C   0  0  0  0  0  0  0  0  0  0  0  0
    8.4311    4.7963   22.0500 C   0  0  0  0  0  0  0  0  0  0  0  0
    8.7393   10.8706   24.1871 O   0  0  0  0  0  0  0  0  0  0  0  0
    9.3093    3.8166   21.6712 C   0  0  0  0  0  0  0  0  0  0  0  0
  1  5  1  0
  1 15  4  0
  1 22  4  0
  2 20  1  0
  2 24  1  0
  3  6  4  0
  3 27  4  0
  4 22  4  0
  4 26  4  0
  6  7  4  0
  6 13  1  0
  7 19  4  0
  8 18  1  0
  8 23  1  0
  8 28  2  0
  9 17  1  0
  9 24  1  0
 10 11  1  0
 10 24  1  0
 11 23  1  0
 12 14  4  0
 12 16  4  0
 14 19  4  0
 15 18  4  0
 16 20  4  0
 17 25  1  0
 18 26  4  0
 19 29  4  0
 20 29  4  0
 21 23  1  0
 21 25  1  0
 27 29  4  0
M  END
$$$$

 Created by Python create_sdf_string function

 29 32  0  0  0  0  0  0  0  0999 V2000
    5.4450    8.7154   22.6662 C   0  0  0  0  0  0  0  0  0  0  0  0
   10.9154    5.4574   20.5483 C   0  0  0  0  0  0  0  0  0  0  0  0
    7.2709    4.5089   22.7542 C   0  0  0  0  0  0  0  0  0  0  0  0
    5.9698    7.6329   24.6581 C   0  0  0  0  0  0  0  0  0  0  0  0
    4.5542    8.9057   21.7104 O   0  0  0  0  0  0  0  0  0  0  0  0
    6.9895    3.2085   23.0690 C   0  0  0  0  0  0  0  0  0  0  0  0
    7.8391    2.2253   22.7260 N   0  0  0  0  0  0  0  0  0  0  0  0
    8.6968    9.8373   23.6359 C   0  0  0  0  0  0  0  0  0  0  0  0
   12.5135    6.5957   21.8396 C   0  0  0  0  0  0  0  0  0  0  0  0
   10.9406    8.2330   21.1350 C   0  0  0  0  0  0  0  0  0  0  0  0
    9.6648    8.5956   21.7310 C   0  0  0  0  0  0  0  0  0  0  0  0
   10.8829    1.7153   20.9865 C   0  0  0  0  0  0  0  0  0  0  0  0
    5.7768    2.8533   23.7910 C   0  0  0  0  0  0  0  0  0  0  0  0
    9.7977    1.4791   21.6912 N   0  0  0  0  0  0  0  0  0  0  0  0
    6.5976    9.3401   22.6478 N   0  0  0  0  0  0  0  0  0  0  0  0
   11.2031    3.0042   20.6246 C   0  0  0  0  0  0  0  0  0  0  0  0
   12.8688    7.7370   22.7287 C   0  0  0  0  0  0  0  0  0  0  0  0
    7.4487    9.1361   23.6506 C   0  0  0  0  0  0  0  0  0  0  0  0
    8.9772    2.5025   22.0273 C   0  0  0  0  0  0  0  0  0  0  0  0
   10.4859    4.0901   20.9730 C   0  0  0  0  0  0  0  0  0  0  0  0
   11.0962    9.3293   23.5072 C   0  0  0  0  0  0  0  0  0  0  0  0
    5.1273    7.8529   23.6208 N   0  0  0  0  0  0  0  0  0  0  0  0
    9.7552    9.2338   23.0171 N   0  0  0  0  0  0  0  0  0  0  0  0
   11.1797    6.7591   21.3326 N   0  0  0  0  0  0  0  0  0  0  0  0
   11.7728    8.0337   23.7267 C   0  0  0  0  0  0  0  0  0  0  0  0
    7.1194    8.3344   24.6775 C   0  0  0  0  0  0  0  0  0  0  0  0
    8.4311    4.7963   22.0500 C   0  0  0  0  0  0  0  0  0  0  0  0
    8.7393   10.8706   24.1871 O   0  0  0  0  0  0  0  0  0  0  0  0
    9.3093    3.8166   21.6712 C   0  0  0  0  0  0  0  0  0  0  0  0
  1  5  1  0
  1 15  4  0
  1 22  4  0
  2 20  1  0
  2 24  1  0
  3  6  4  0
  3 27  4  0
  4 22  4  0
  4 26  4  0
  6  7  4  0
  6 13  1  0
  7 19  4  0
  8 18  1  0
  8 23  1  0
  8 28  2  0
  9 17  1  0
  9 24  1  0
 10 11  1  0
 10 24  1  0
 11 23  1  0
 12 14  4  0
 12 16  4  0
 14 19  4  0
 15 18  4  0
 16 20  4  0
 17 25  1  0
 18 26  4  0
 19 29  4  0
 20 29  4  0
 21 23  1  0
 21 25  1  0
 27 29  4  0
M  END
$$$$

 Created by Python create_sdf_string function

 29 32  0  0  0  0  0  0  0  0999 V2000
    5.4450    8.7154   22.6662 C   0  0  0  0  0  0  0  0  0  0  0  0
   10.9154    5.4574   20.5483 C   0  0  0  0  0  0  0  0  0  0  0  0
    7.2709    4.5089   22.7542 C   0  0  0  0  0  0  0  0  0  0  0  0
    5.9698    7.6329   24.6581 C   0  0  0  0  0  0  0  0  0  0  0  0
    4.5542    8.9057   21.7104 O   0  0  0  0  0  0  0  0  0  0  0  0
    6.9895    3.2085   23.0690 C   0  0  0  0  0  0  0  0  0  0  0  0
    7.8391    2.2253   22.7260 N   0  0  0  0  0  0  0  0  0  0  0  0
    8.6968    9.8373   23.6359 C   0  0  0  0  0  0  0  0  0  0  0  0
   12.5135    6.5957   21.8396 C   0  0  0  0  0  0  0  0  0  0  0  0
   10.9406    8.2330   21.1350 C   0  0  0  0  0  0  0  0  0  0  0  0
    9.6648    8.5956   21.7310 C   0  0  0  0  0  0  0  0  0  0  0  0
   10.8829    1.7153   20.9865 C   0  0  0  0  0  0  0  0  0  0  0  0
    5.7768    2.8533   23.7910 C   0  0  0  0  0  0  0  0  0  0  0  0
    9.7977    1.4791   21.6912 N   0  0  0  0  0  0  0  0  0  0  0  0
    6.5976    9.3401   22.6478 N   0  0  0  0  0  0  0  0  0  0  0  0
   11.2031    3.0042   20.6246 C   0  0  0  0  0  0  0  0  0  0  0  0
   12.8688    7.7370   22.7287 C   0  0  0  0  0  0  0  0  0  0  0  0
    7.4487    9.1361   23.6506 C   0  0  0  0  0  0  0  0  0  0  0  0
    8.9772    2.5025   22.0273 C   0  0  0  0  0  0  0  0  0  0  0  0
   10.4859    4.0901   20.9730 C   0  0  0  0  0  0  0  0  0  0  0  0
   11.0962    9.3293   23.5072 C   0  0  0  0  0  0  0  0  0  0  0  0
    5.1273    7.8529   23.6208 N   0  0  0  0  0  0  0  0  0  0  0  0
    9.7552    9.2338   23.0171 N   0  0  0  0  0  0  0  0  0  0  0  0
   11.1797    6.7591   21.3326 N   0  0  0  0  0  0  0  0  0  0  0  0
   11.7728    8.0337   23.7267 C   0  0  0  0  0  0  0  0  0  0  0  0
    7.1194    8.3344   24.6775 C   0  0  0  0  0  0  0  0  0  0  0  0
    8.4311    4.7963   22.0500 C   0  0  0  0  0  0  0  0  0  0  0  0
    8.7393   10.8706   24.1871 O   0  0  0  0  0  0  0  0  0  0  0  0
    9.3093    3.8166   21.6712 C   0  0  0  0  0  0  0  0  0  0  0  0
  1  5  1  0
  1 15  4  0
  1 22  4  0
  2 20  1  0
  2 24  1  0
  3  6  4  0
  3 27  4  0
  4 22  4  0
  4 26  4  0
  6  7  4  0
  6 13  1  0
  7 19  4  0
  8 18  1  0
  8 23  1  0
  8 28  2  0
  9 17  1  0
  9 24  1  0
 10 11  1  0
 10 24  1  0
 11 23  1  0
 12 14  4  0
 12 16  4  0
 14 19  4  0
 15 18  4  0
 16 20  4  0
 17 25  1  0
 18 26  4  0
 19 29  4  0
 20 29  4  0
 21 23  1  0
 21 25  1  0
 27 29  4  0
M  END
$$$$

 Created by Python create_sdf_string function

 29 32  0  0  0  0  0  0  0  0999 V2000
    5.4450    8.7154   22.6662 C   0  0  0  0  0  0  0  0  0  0  0  0
   10.9154    5.4574   20.5483 C   0  0  0  0  0  0  0  0  0  0  0  0
    7.2709    4.5089   22.7542 C   0  0  0  0  0  0  0  0  0  0  0  0
    5.9698    7.6329   24.6581 C   0  0  0  0  0  0  0  0  0  0  0  0
    4.5542    8.9057   21.7104 O   0  0  0  0  0  0  0  0  0  0  0  0
    6.9895    3.2085   23.0690 C   0  0  0  0  0  0  0  0  0  0  0  0
    7.8391    2.2253   22.7260 N   0  0  0  0  0  0  0  0  0  0  0  0
    8.6968    9.8373   23.6359 C   0  0  0  0  0  0  0  0  0  0  0  0
   12.5135    6.5957   21.8396 C   0  0  0  0  0  0  0  0  0  0  0  0
   10.9406    8.2330   21.1350 C   0  0  0  0  0  0  0  0  0  0  0  0
    9.6648    8.5956   21.7310 C   0  0  0  0  0  0  0  0  0  0  0  0
   10.8829    1.7153   20.9865 C   0  0  0  0  0  0  0  0  0  0  0  0
    5.7768    2.8533   23.7910 C   0  0  0  0  0  0  0  0  0  0  0  0
    9.7977    1.4791   21.6912 N   0  0  0  0  0  0  0  0  0  0  0  0
    6.5976    9.3401   22.6478 N   0  0  0  0  0  0  0  0  0  0  0  0
   11.2031    3.0042   20.6246 C   0  0  0  0  0  0  0  0  0  0  0  0
   12.8688    7.7370   22.7287 C   0  0  0  0  0  0  0  0  0  0  0  0
    7.4487    9.1361   23.6506 C   0  0  0  0  0  0  0  0  0  0  0  0
    8.9772    2.5025   22.0273 C   0  0  0  0  0  0  0  0  0  0  0  0
   10.4859    4.0901   20.9730 C   0  0  0  0  0  0  0  0  0  0  0  0
   11.0962    9.3293   23.5072 C   0  0  0  0  0  0  0  0  0  0  0  0
    5.1273    7.8529   23.6208 N   0  0  0  0  0  0  0  0  0  0  0  0
    9.7552    9.2338   23.0171 N   0  0  0  0  0  0  0  0  0  0  0  0
   11.1797    6.7591   21.3326 N   0  0  0  0  0  0  0  0  0  0  0  0
   11.7728    8.0337   23.7267 C   0  0  0  0  0  0  0  0  0  0  0  0
    7.1194    8.3344   24.6775 C   0  0  0  0  0  0  0  0  0  0  0  0
    8.4311    4.7963   22.0500 C   0  0  0  0  0  0  0  0  0  0  0  0
    8.7393   10.8706   24.1871 O   0  0  0  0  0  0  0  0  0  0  0  0
    9.3093    3.8166   21.6712 C   0  0  0  0  0  0  0  0  0  0  0  0
  1  5  1  0
  1 15  4  0
  1 22  4  0
  2 20  1  0
  2 24  1  0
  3  6  4  0
  3 27  4  0
  4 22  4  0
  4 26  4  0
  6  7  4  0
  6 13  1  0
  7 19  4  0
  8 18  1  0
  8 23  1  0
  8 28  2  0
  9 17  1  0
  9 24  1  0
 10 11  1  0
 10 24  1  0
 11 23  1  0
 12 14  4  0
 12 16  4  0
 14 19  4  0
 15 18  4  0
 16 20  4  0
 17 25  1  0
 18 26  4  0
 19 29  4  0
 20 29  4  0
 21 23  1  0
 21 25  1  0
 27 29  4  0
M  END
$$$$

 Created by Python create_sdf_string function

 29 32  0  0  0  0  0  0  0  0999 V2000
    5.4450    8.7154   22.6662 C   0  0  0  0  0  0  0  0  0  0  0  0
   10.9154    5.4574   20.5483 C   0  0  0  0  0  0  0  0  0  0  0  0
    7.2709    4.5089   22.7542 C   0  0  0  0  0  0  0  0  0  0  0  0
    5.9698    7.6329   24.6581 C   0  0  0  0  0  0  0  0  0  0  0  0
    4.5542    8.9057   21.7104 O   0  0  0  0  0  0  0  0  0  0  0  0
    6.9895    3.2085   23.0690 C   0  0  0  0  0  0  0  0  0  0  0  0
    7.8391    2.2253   22.7260 N   0  0  0  0  0  0  0  0  0  0  0  0
    8.6968    9.8373   23.6359 C   0  0  0  0  0  0  0  0  0  0  0  0
   12.5135    6.5957   21.8396 C   0  0  0  0  0  0  0  0  0  0  0  0
   10.9406    8.2330   21.1350 C   0  0  0  0  0  0  0  0  0  0  0  0
    9.6648    8.5956   21.7310 C   0  0  0  0  0  0  0  0  0  0  0  0
   10.8829    1.7153   20.9865 C   0  0  0  0  0  0  0  0  0  0  0  0
    5.7768    2.8533   23.7910 C   0  0  0  0  0  0  0  0  0  0  0  0
    9.7977    1.4791   21.6912 N   0  0  0  0  0  0  0  0  0  0  0  0
    6.5976    9.3401   22.6478 N   0  0  0  0  0  0  0  0  0  0  0  0
   11.2031    3.0042   20.6246 C   0  0  0  0  0  0  0  0  0  0  0  0
   12.8688    7.7370   22.7287 C   0  0  0  0  0  0  0  0  0  0  0  0
    7.4487    9.1361   23.6506 C   0  0  0  0  0  0  0  0  0  0  0  0
    8.9772    2.5025   22.0273 C   0  0  0  0  0  0  0  0  0  0  0  0
   10.4859    4.0901   20.9730 C   0  0  0  0  0  0  0  0  0  0  0  0
   11.0962    9.3293   23.5072 C   0  0  0  0  0  0  0  0  0  0  0  0
    5.1273    7.8529   23.6208 N   0  0  0  0  0  0  0  0  0  0  0  0
    9.7552    9.2338   23.0171 N   0  0  0  0  0  0  0  0  0  0  0  0
   11.1797    6.7591   21.3326 N   0  0  0  0  0  0  0  0  0  0  0  0
   11.7728    8.0337   23.7267 C   0  0  0  0  0  0  0  0  0  0  0  0
    7.1194    8.3344   24.6775 C   0  0  0  0  0  0  0  0  0  0  0  0
    8.4311    4.7963   22.0500 C   0  0  0  0  0  0  0  0  0  0  0  0
    8.7393   10.8706   24.1871 O   0  0  0  0  0  0  0  0  0  0  0  0
    9.3093    3.8166   21.6712 C   0  0  0  0  0  0  0  0  0  0  0  0
  1  5  1  0
  1 15  4  0
  1 22  4  0
  2 20  1  0
  2 24  1  0
  3  6  4  0
  3 27  4  0
  4 22  4  0
  4 26  4  0
  6  7  4  0
  6 13  1  0
  7 19  4  0
  8 18  1  0
  8 23  1  0
  8 28  2  0
  9 17  1  0
  9 24  1  0
 10 11  1  0
 10 24  1  0
 11 23  1  0
 12 14  4  0
 12 16  4  0
 14 19  4  0
 15 18  4  0
 16 20  4  0
 17 25  1  0
 18 26  4  0
 19 29  4  0
 20 29  4  0
 21 23  1  0
 21 25  1  0
 27 29  4  0
M  END
$$$$

 Created by Python create_sdf_string function

 29 32  0  0  0  0  0  0  0  0999 V2000
    5.4450    8.7154   22.6662 C   0  0  0  0  0  0  0  0  0  0  0  0
   10.9154    5.4574   20.5483 C   0  0  0  0  0  0  0  0  0  0  0  0
    7.2709    4.5089   22.7542 C   0  0  0  0  0  0  0  0  0  0  0  0
    5.9698    7.6329   24.6581 C   0  0  0  0  0  0  0  0  0  0  0  0
    4.5542    8.9057   21.7104 O   0  0  0  0  0  0  0  0  0  0  0  0
    6.9895    3.2085   23.0690 C   0  0  0  0  0  0  0  0  0  0  0  0
    7.8391    2.2253   22.7260 N   0  0  0  0  0  0  0  0  0  0  0  0
    8.6968    9.8373   23.6359 C   0  0  0  0  0  0  0  0  0  0  0  0
   12.5135    6.5957   21.8396 C   0  0  0  0  0  0  0  0  0  0  0  0
   10.9406    8.2330   21.1350 C   0  0  0  0  0  0  0  0  0  0  0  0
    9.6648    8.5956   21.7310 C   0  0  0  0  0  0  0  0  0  0  0  0
   10.8829    1.7153   20.9865 C   0  0  0  0  0  0  0  0  0  0  0  0
    5.7768    2.8533   23.7910 C   0  0  0  0  0  0  0  0  0  0  0  0
    9.7977    1.4791   21.6912 N   0  0  0  0  0  0  0  0  0  0  0  0
    6.5976    9.3401   22.6478 N   0  0  0  0  0  0  0  0  0  0  0  0
   11.2031    3.0042   20.6246 C   0  0  0  0  0  0  0  0  0  0  0  0
   12.8688    7.7370   22.7287 C   0  0  0  0  0  0  0  0  0  0  0  0
    7.4487    9.1361   23.6506 C   0  0  0  0  0  0  0  0  0  0  0  0
    8.9772    2.5025   22.0273 C   0  0  0  0  0  0  0  0  0  0  0  0
   10.4859    4.0901   20.9730 C   0  0  0  0  0  0  0  0  0  0  0  0
   11.0962    9.3293   23.5072 C   0  0  0  0  0  0  0  0  0  0  0  0
    5.1273    7.8529   23.6208 N   0  0  0  0  0  0  0  0  0  0  0  0
    9.7552    9.2338   23.0171 N   0  0  0  0  0  0  0  0  0  0  0  0
   11.1797    6.7591   21.3326 N   0  0  0  0  0  0  0  0  0  0  0  0
   11.7728    8.0337   23.7267 C   0  0  0  0  0  0  0  0  0  0  0  0
    7.1194    8.3344   24.6775 C   0  0  0  0  0  0  0  0  0  0  0  0
    8.4311    4.7963   22.0500 C   0  0  0  0  0  0  0  0  0  0  0  0
    8.7393   10.8706   24.1871 O   0  0  0  0  0  0  0  0  0  0  0  0
    9.3093    3.8166   21.6712 C   0  0  0  0  0  0  0  0  0  0  0  0
  1  5  1  0
  1 15  4  0
  1 22  4  0
  2 20  1  0
  2 24  1  0
  3  6  4  0
  3 27  4  0
  4 22  4  0
  4 26  4  0
  6  7  4  0
  6 13  1  0
  7 19  4  0
  8 18  1  0
  8 23  1  0
  8 28  2  0
  9 17  1  0
  9 24  1  0
 10 11  1  0
 10 24  1  0
 11 23  1  0
 12 14  4  0
 12 16  4  0
 14 19  4  0
 15 18  4  0
 16 20  4  0
 17 25  1  0
 18 26  4  0
 19 29  4  0
 20 29  4  0
 21 23  1  0
 21 25  1  0
 27 29  4  0
M  END
$$$$

 Created by Python create_sdf_string function

 29 32  0  0  0  0  0  0  0  0999 V2000
    5.4450    8.7154   22.6662 C   0  0  0  0  0  0  0  0  0  0  0  0
   10.9154    5.4574   20.5483 C   0  0  0  0  0  0  0  0  0  0  0  0
    7.2709    4.5089   22.7542 C   0  0  0  0  0  0  0  0  0  0  0  0
    5.9698    7.6329   24.6581 C   0  0  0  0  0  0  0  0  0  0  0  0
    4.5542    8.9057   21.7104 O   0  0  0  0  0  0  0  0  0  0  0  0
    6.9895    3.2085   23.0690 C   0  0  0  0  0  0  0  0  0  0  0  0
    7.8391    2.2253   22.7260 N   0  0  0  0  0  0  0  0  0  0  0  0
    8.6968    9.8373   23.6359 C   0  0  0  0  0  0  0  0  0  0  0  0
   12.5135    6.5957   21.8396 C   0  0  0  0  0  0  0  0  0  0  0  0
   10.9406    8.2330   21.1350 C   0  0  0  0  0  0  0  0  0  0  0  0
    9.6648    8.5956   21.7310 C   0  0  0  0  0  0  0  0  0  0  0  0
   10.8829    1.7153   20.9865 C   0  0  0  0  0  0  0  0  0  0  0  0
    5.7768    2.8533   23.7910 C   0  0  0  0  0  0  0  0  0  0  0  0
    9.7977    1.4791   21.6912 N   0  0  0  0  0  0  0  0  0  0  0  0
    6.5976    9.3401   22.6478 N   0  0  0  0  0  0  0  0  0  0  0  0
   11.2031    3.0042   20.6246 C   0  0  0  0  0  0  0  0  0  0  0  0
   12.8688    7.7370   22.7287 C   0  0  0  0  0  0  0  0  0  0  0  0
    7.4487    9.1361   23.6506 C   0  0  0  0  0  0  0  0  0  0  0  0
    8.9772    2.5025   22.0273 C   0  0  0  0  0  0  0  0  0  0  0  0
   10.4859    4.0901   20.9730 C   0  0  0  0  0  0  0  0  0  0  0  0
   11.0962    9.3293   23.5072 C   0  0  0  0  0  0  0  0  0  0  0  0
    5.1273    7.8529   23.6208 N   0  0  0  0  0  0  0  0  0  0  0  0
    9.7552    9.2338   23.0171 N   0  0  0  0  0  0  0  0  0  0  0  0
   11.1797    6.7591   21.3326 N   0  0  0  0  0  0  0  0  0  0  0  0
   11.7728    8.0337   23.7267 C   0  0  0  0  0  0  0  0  0  0  0  0
    7.1194    8.3344   24.6775 C   0  0  0  0  0  0  0  0  0  0  0  0
    8.4311    4.7963   22.0500 C   0  0  0  0  0  0  0  0  0  0  0  0
    8.7393   10.8706   24.1871 O   0  0  0  0  0  0  0  0  0  0  0  0
    9.3093    3.8166   21.6712 C   0  0  0  0  0  0  0  0  0  0  0  0
  1  5  1  0
  1 15  4  0
  1 22  4  0
  2 20  1  0
  2 24  1  0
  3  6  4  0
  3 27  4  0
  4 22  4  0
  4 26  4  0
  6  7  4  0
  6 13  1  0
  7 19  4  0
  8 18  1  0
  8 23  1  0
  8 28  2  0
  9 17  1  0
  9 24  1  0
 10 11  1  0
 10 24  1  0
 11 23  1  0
 12 14  4  0
 12 16  4  0
 14 19  4  0
 15 18  4  0
 16 20  4  0
 17 25  1  0
 18 26  4  0
 19 29  4  0
 20 29  4  0
 21 23  1  0
 21 25  1  0
 27 29  4  0
M  END
$$$$

 Created by Python create_sdf_string function

 29 32  0  0  0  0  0  0  0  0999 V2000
    5.4450    8.7154   22.6662 C   0  0  0  0  0  0  0  0  0  0  0  0
   10.9154    5.4574   20.5483 C   0  0  0  0  0  0  0  0  0  0  0  0
    7.2709    4.5089   22.7542 C   0  0  0  0  0  0  0  0  0  0  0  0
    5.9698    7.6329   24.6581 C   0  0  0  0  0  0  0  0  0  0  0  0
    4.5542    8.9057   21.7104 O   0  0  0  0  0  0  0  0  0  0  0  0
    6.9895    3.2085   23.0690 C   0  0  0  0  0  0  0  0  0  0  0  0
    7.8391    2.2253   22.7260 N   0  0  0  0  0  0  0  0  0  0  0  0
    8.6968    9.8373   23.6359 C   0  0  0  0  0  0  0  0  0  0  0  0
   12.5135    6.5957   21.8396 C   0  0  0  0  0  0  0  0  0  0  0  0
   10.9406    8.2330   21.1350 C   0  0  0  0  0  0  0  0  0  0  0  0
    9.6648    8.5956   21.7310 C   0  0  0  0  0  0  0  0  0  0  0  0
   10.8829    1.7153   20.9865 C   0  0  0  0  0  0  0  0  0  0  0  0
    5.7768    2.8533   23.7910 C   0  0  0  0  0  0  0  0  0  0  0  0
    9.7977    1.4791   21.6912 N   0  0  0  0  0  0  0  0  0  0  0  0
    6.5976    9.3401   22.6478 N   0  0  0  0  0  0  0  0  0  0  0  0
   11.2031    3.0042   20.6246 C   0  0  0  0  0  0  0  0  0  0  0  0
   12.8688    7.7370   22.7287 C   0  0  0  0  0  0  0  0  0  0  0  0
    7.4487    9.1361   23.6506 C   0  0  0  0  0  0  0  0  0  0  0  0
    8.9772    2.5025   22.0273 C   0  0  0  0  0  0  0  0  0  0  0  0
   10.4859    4.0901   20.9730 C   0  0  0  0  0  0  0  0  0  0  0  0
   11.0962    9.3293   23.5072 C   0  0  0  0  0  0  0  0  0  0  0  0
    5.1273    7.8529   23.6208 N   0  0  0  0  0  0  0  0  0  0  0  0
    9.7552    9.2338   23.0171 N   0  0  0  0  0  0  0  0  0  0  0  0
   11.1797    6.7591   21.3326 N   0  0  0  0  0  0  0  0  0  0  0  0
   11.7728    8.0337   23.7267 C   0  0  0  0  0  0  0  0  0  0  0  0
    7.1194    8.3344   24.6775 C   0  0  0  0  0  0  0  0  0  0  0  0
    8.4311    4.7963   22.0500 C   0  0  0  0  0  0  0  0  0  0  0  0
    8.7393   10.8706   24.1871 O   0  0  0  0  0  0  0  0  0  0  0  0
    9.3093    3.8166   21.6712 C   0  0  0  0  0  0  0  0  0  0  0  0
  1  5  1  0
  1 15  4  0
  1 22  4  0
  2 20  1  0
  2 24  1  0
  3  6  4  0
  3 27  4  0
  4 22  4  0
  4 26  4  0
  6  7  4  0
  6 13  1  0
  7 19  4  0
  8 18  1  0
  8 23  1  0
  8 28  2  0
  9 17  1  0
  9 24  1  0
 10 11  1  0
 10 24  1  0
 11 23  1  0
 12 14  4  0
 12 16  4  0
 14 19  4  0
 15 18  4  0
 16 20  4  0
 17 25  1  0
 18 26  4  0
 19 29  4  0
 20 29  4  0
 21 23  1  0
 21 25  1  0
 27 29  4  0
M  END
$$$$

 Created by Python create_sdf_string function

 29 32  0  0  0  0  0  0  0  0999 V2000
    5.4450    8.7154   22.6662 C   0  0  0  0  0  0  0  0  0  0  0  0
   10.9154    5.4574   20.5483 C   0  0  0  0  0  0  0  0  0  0  0  0
    7.2709    4.5089   22.7542 C   0  0  0  0  0  0  0  0  0  0  0  0
    5.9698    7.6329   24.6581 C   0  0  0  0  0  0  0  0  0  0  0  0
    4.5542    8.9057   21.7104 O   0  0  0  0  0  0  0  0  0  0  0  0
    6.9895    3.2085   23.0690 C   0  0  0  0  0  0  0  0  0  0  0  0
    7.8391    2.2253   22.7260 N   0  0  0  0  0  0  0  0  0  0  0  0
    8.6968    9.8373   23.6359 C   0  0  0  0  0  0  0  0  0  0  0  0
   12.5135    6.5957   21.8396 C   0  0  0  0  0  0  0  0  0  0  0  0
   10.9406    8.2330   21.1350 C   0  0  0  0  0  0  0  0  0  0  0  0
    9.6648    8.5956   21.7310 C   0  0  0  0  0  0  0  0  0  0  0  0
   10.8829    1.7153   20.9865 C   0  0  0  0  0  0  0  0  0  0  0  0
    5.7768    2.8533   23.7910 C   0  0  0  0  0  0  0  0  0  0  0  0
    9.7977    1.4791   21.6912 N   0  0  0  0  0  0  0  0  0  0  0  0
    6.5976    9.3401   22.6478 N   0  0  0  0  0  0  0  0  0  0  0  0
   11.2031    3.0042   20.6246 C   0  0  0  0  0  0  0  0  0  0  0  0
   12.8688    7.7370   22.7287 C   0  0  0  0  0  0  0  0  0  0  0  0
    7.4487    9.1361   23.6506 C   0  0  0  0  0  0  0  0  0  0  0  0
    8.9772    2.5025   22.0273 C   0  0  0  0  0  0  0  0  0  0  0  0
   10.4859    4.0901   20.9730 C   0  0  0  0  0  0  0  0  0  0  0  0
   11.0962    9.3293   23.5072 C   0  0  0  0  0  0  0  0  0  0  0  0
    5.1273    7.8529   23.6208 N   0  0  0  0  0  0  0  0  0  0  0  0
    9.7552    9.2338   23.0171 N   0  0  0  0  0  0  0  0  0  0  0  0
   11.1797    6.7591   21.3326 N   0  0  0  0  0  0  0  0  0  0  0  0
   11.7728    8.0337   23.7267 C   0  0  0  0  0  0  0  0  0  0  0  0
    7.1194    8.3344   24.6775 C   0  0  0  0  0  0  0  0  0  0  0  0
    8.4311    4.7963   22.0500 C   0  0  0  0  0  0  0  0  0  0  0  0
    8.7393   10.8706   24.1871 O   0  0  0  0  0  0  0  0  0  0  0  0
    9.3093    3.8166   21.6712 C   0  0  0  0  0  0  0  0  0  0  0  0
  1  5  1  0
  1 15  4  0
  1 22  4  0
  2 20  1  0
  2 24  1  0
  3  6  4  0
  3 27  4  0
  4 22  4  0
  4 26  4  0
  6  7  4  0
  6 13  1  0
  7 19  4  0
  8 18  1  0
  8 23  1  0
  8 28  2  0
  9 17  1  0
  9 24  1  0
 10 11  1  0
 10 24  1  0
 11 23  1  0
 12 14  4  0
 12 16  4  0
 14 19  4  0
 15 18  4  0
 16 20  4  0
 17 25  1  0
 18 26  4  0
 19 29  4  0
 20 29  4  0
 21 23  1  0
 21 25  1  0
 27 29  4  0
M  END
$$$$

 Created by Python create_sdf_string function

 29 32  0  0  0  0  0  0  0  0999 V2000
    5.4450    8.7154   22.6662 C   0  0  0  0  0  0  0  0  0  0  0  0
   10.9154    5.4574   20.5483 C   0  0  0  0  0  0  0  0  0  0  0  0
    7.2709    4.5089   22.7542 C   0  0  0  0  0  0  0  0  0  0  0  0
    5.9698    7.6329   24.6581 C   0  0  0  0  0  0  0  0  0  0  0  0
    4.5542    8.9057   21.7104 O   0  0  0  0  0  0  0  0  0  0  0  0
    6.9895    3.2085   23.0690 C   0  0  0  0  0  0  0  0  0  0  0  0
    7.8391    2.2253   22.7260 N   0  0  0  0  0  0  0  0  0  0  0  0
    8.6968    9.8373   23.6359 C   0  0  0  0  0  0  0  0  0  0  0  0
   12.5135    6.5957   21.8396 C   0  0  0  0  0  0  0  0  0  0  0  0
   10.9406    8.2330   21.1350 C   0  0  0  0  0  0  0  0  0  0  0  0
    9.6648    8.5956   21.7310 C   0  0  0  0  0  0  0  0  0  0  0  0
   10.8829    1.7153   20.9865 C   0  0  0  0  0  0  0  0  0  0  0  0
    5.7768    2.8533   23.7910 C   0  0  0  0  0  0  0  0  0  0  0  0
    9.7977    1.4791   21.6912 N   0  0  0  0  0  0  0  0  0  0  0  0
    6.5976    9.3401   22.6478 N   0  0  0  0  0  0  0  0  0  0  0  0
   11.2031    3.0042   20.6246 C   0  0  0  0  0  0  0  0  0  0  0  0
   12.8688    7.7370   22.7287 C   0  0  0  0  0  0  0  0  0  0  0  0
    7.4487    9.1361   23.6506 C   0  0  0  0  0  0  0  0  0  0  0  0
    8.9772    2.5025   22.0273 C   0  0  0  0  0  0  0  0  0  0  0  0
   10.4859    4.0901   20.9730 C   0  0  0  0  0  0  0  0  0  0  0  0
   11.0962    9.3293   23.5072 C   0  0  0  0  0  0  0  0  0  0  0  0
    5.1273    7.8529   23.6208 N   0  0  0  0  0  0  0  0  0  0  0  0
    9.7552    9.2338   23.0171 N   0  0  0  0  0  0  0  0  0  0  0  0
   11.1797    6.7591   21.3326 N   0  0  0  0  0  0  0  0  0  0  0  0
   11.7728    8.0337   23.7267 C   0  0  0  0  0  0  0  0  0  0  0  0
    7.1194    8.3344   24.6775 C   0  0  0  0  0  0  0  0  0  0  0  0
    8.4311    4.7963   22.0500 C   0  0  0  0  0  0  0  0  0  0  0  0
    8.7393   10.8706   24.1871 O   0  0  0  0  0  0  0  0  0  0  0  0
    9.3093    3.8166   21.6712 C   0  0  0  0  0  0  0  0  0  0  0  0
  1  5  1  0
  1 15  4  0
  1 22  4  0
  2 20  1  0
  2 24  1  0
  3  6  4  0
  3 27  4  0
  4 22  4  0
  4 26  4  0
  6  7  4  0
  6 13  1  0
  7 19  4  0
  8 18  1  0
  8 23  1  0
  8 28  2  0
  9 17  1  0
  9 24  1  0
 10 11  1  0
 10 24  1  0
 11 23  1  0
 12 14  4  0
 12 16  4  0
 14 19  4  0
 15 18  4  0
 16 20  4  0
 17 25  1  0
 18 26  4  0
 19 29  4  0
 20 29  4  0
 21 23  1  0
 21 25  1  0
 27 29  4  0
M  END
$$$$

 Created by Python create_sdf_string function

 29 32  0  0  0  0  0  0  0  0999 V2000
    5.4450    8.7154   22.6662 C   0  0  0  0  0  0  0  0  0  0  0  0
   10.9154    5.4574   20.5483 C   0  0  0  0  0  0  0  0  0  0  0  0
    7.2709    4.5089   22.7542 C   0  0  0  0  0  0  0  0  0  0  0  0
    5.9698    7.6329   24.6581 C   0  0  0  0  0  0  0  0  0  0  0  0
    4.5542    8.9057   21.7104 O   0  0  0  0  0  0  0  0  0  0  0  0
    6.9895    3.2085   23.0690 C   0  0  0  0  0  0  0  0  0  0  0  0
    7.8391    2.2253   22.7260 N   0  0  0  0  0  0  0  0  0  0  0  0
    8.6968    9.8373   23.6359 C   0  0  0  0  0  0  0  0  0  0  0  0
   12.5135    6.5957   21.8396 C   0  0  0  0  0  0  0  0  0  0  0  0
   10.9406    8.2330   21.1350 C   0  0  0  0  0  0  0  0  0  0  0  0
    9.6648    8.5956   21.7310 C   0  0  0  0  0  0  0  0  0  0  0  0
   10.8829    1.7153   20.9865 C   0  0  0  0  0  0  0  0  0  0  0  0
    5.7768    2.8533   23.7910 C   0  0  0  0  0  0  0  0  0  0  0  0
    9.7977    1.4791   21.6912 N   0  0  0  0  0  0  0  0  0  0  0  0
    6.5976    9.3401   22.6478 N   0  0  0  0  0  0  0  0  0  0  0  0
   11.2031    3.0042   20.6246 C   0  0  0  0  0  0  0  0  0  0  0  0
   12.8688    7.7370   22.7287 C   0  0  0  0  0  0  0  0  0  0  0  0
    7.4487    9.1361   23.6506 C   0  0  0  0  0  0  0  0  0  0  0  0
    8.9772    2.5025   22.0273 C   0  0  0  0  0  0  0  0  0  0  0  0
   10.4859    4.0901   20.9730 C   0  0  0  0  0  0  0  0  0  0  0  0
   11.0962    9.3293   23.5072 C   0  0  0  0  0  0  0  0  0  0  0  0
    5.1273    7.8529   23.6208 N   0  0  0  0  0  0  0  0  0  0  0  0
    9.7552    9.2338   23.0171 N   0  0  0  0  0  0  0  0  0  0  0  0
   11.1797    6.7591   21.3326 N   0  0  0  0  0  0  0  0  0  0  0  0
   11.7728    8.0337   23.7267 C   0  0  0  0  0  0  0  0  0  0  0  0
    7.1194    8.3344   24.6775 C   0  0  0  0  0  0  0  0  0  0  0  0
    8.4311    4.7963   22.0500 C   0  0  0  0  0  0  0  0  0  0  0  0
    8.7393   10.8706   24.1871 O   0  0  0  0  0  0  0  0  0  0  0  0
    9.3093    3.8166   21.6712 C   0  0  0  0  0  0  0  0  0  0  0  0
  1  5  1  0
  1 15  4  0
  1 22  4  0
  2 20  1  0
  2 24  1  0
  3  6  4  0
  3 27  4  0
  4 22  4  0
  4 26  4  0
  6  7  4  0
  6 13  1  0
  7 19  4  0
  8 18  1  0
  8 23  1  0
  8 28  2  0
  9 17  1  0
  9 24  1  0
 10 11  1  0
 10 24  1  0
 11 23  1  0
 12 14  4  0
 12 16  4  0
 14 19  4  0
 15 18  4  0
 16 20  4  0
 17 25  1  0
 18 26  4  0
 19 29  4  0
 20 29  4  0
 21 23  1  0
 21 25  1  0
 27 29  4  0
M  END
$$$$

 Created by Python create_sdf_string function

 29 32  0  0  0  0  0  0  0  0999 V2000
    5.4450    8.7154   22.6662 C   0  0  0  0  0  0  0  0  0  0  0  0
   10.9154    5.4574   20.5483 C   0  0  0  0  0  0  0  0  0  0  0  0
    7.2709    4.5089   22.7542 C   0  0  0  0  0  0  0  0  0  0  0  0
    5.9698    7.6329   24.6581 C   0  0  0  0  0  0  0  0  0  0  0  0
    4.5542    8.9057   21.7104 O   0  0  0  0  0  0  0  0  0  0  0  0
    6.9895    3.2085   23.0690 C   0  0  0  0  0  0  0  0  0  0  0  0
    7.8391    2.2253   22.7260 N   0  0  0  0  0  0  0  0  0  0  0  0
    8.6968    9.8373   23.6359 C   0  0  0  0  0  0  0  0  0  0  0  0
   12.5135    6.5957   21.8396 C   0  0  0  0  0  0  0  0  0  0  0  0
   10.9406    8.2330   21.1350 C   0  0  0  0  0  0  0  0  0  0  0  0
    9.6648    8.5956   21.7310 C   0  0  0  0  0  0  0  0  0  0  0  0
   10.8829    1.7153   20.9865 C   0  0  0  0  0  0  0  0  0  0  0  0
    5.7768    2.8533   23.7910 C   0  0  0  0  0  0  0  0  0  0  0  0
    9.7977    1.4791   21.6912 N   0  0  0  0  0  0  0  0  0  0  0  0
    6.5976    9.3401   22.6478 N   0  0  0  0  0  0  0  0  0  0  0  0
   11.2031    3.0042   20.6246 C   0  0  0  0  0  0  0  0  0  0  0  0
   12.8688    7.7370   22.7287 C   0  0  0  0  0  0  0  0  0  0  0  0
    7.4487    9.1361   23.6506 C   0  0  0  0  0  0  0  0  0  0  0  0
    8.9772    2.5025   22.0273 C   0  0  0  0  0  0  0  0  0  0  0  0
   10.4859    4.0901   20.9730 C   0  0  0  0  0  0  0  0  0  0  0  0
   11.0962    9.3293   23.5072 C   0  0  0  0  0  0  0  0  0  0  0  0
    5.1273    7.8529   23.6208 N   0  0  0  0  0  0  0  0  0  0  0  0
    9.7552    9.2338   23.0171 N   0  0  0  0  0  0  0  0  0  0  0  0
   11.1797    6.7591   21.3326 N   0  0  0  0  0  0  0  0  0  0  0  0
   11.7728    8.0337   23.7267 C   0  0  0  0  0  0  0  0  0  0  0  0
    7.1194    8.3344   24.6775 C   0  0  0  0  0  0  0  0  0  0  0  0
    8.4311    4.7963   22.0500 C   0  0  0  0  0  0  0  0  0  0  0  0
    8.7393   10.8706   24.1871 O   0  0  0  0  0  0  0  0  0  0  0  0
    9.3093    3.8166   21.6712 C   0  0  0  0  0  0  0  0  0  0  0  0
  1  5  1  0
  1 15  4  0
  1 22  4  0
  2 20  1  0
  2 24  1  0
  3  6  4  0
  3 27  4  0
  4 22  4  0
  4 26  4  0
  6  7  4  0
  6 13  1  0
  7 19  4  0
  8 18  1  0
  8 23  1  0
  8 28  2  0
  9 17  1  0
  9 24  1  0
 10 11  1  0
 10 24  1  0
 11 23  1  0
 12 14  4  0
 12 16  4  0
 14 19  4  0
 15 18  4  0
 16 20  4  0
 17 25  1  0
 18 26  4  0
 19 29  4  0
 20 29  4  0
 21 23  1  0
 21 25  1  0
 27 29  4  0
M  END
$$$$

 Created by Python create_sdf_string function

 29 32  0  0  0  0  0  0  0  0999 V2000
    5.4450    8.7154   22.6662 C   0  0  0  0  0  0  0  0  0  0  0  0
   10.9154    5.4574   20.5483 C   0  0  0  0  0  0  0  0  0  0  0  0
    7.2709    4.5089   22.7542 C   0  0  0  0  0  0  0  0  0  0  0  0
    5.9698    7.6329   24.6581 C   0  0  0  0  0  0  0  0  0  0  0  0
    4.5542    8.9057   21.7104 O   0  0  0  0  0  0  0  0  0  0  0  0
    6.9895    3.2085   23.0690 C   0  0  0  0  0  0  0  0  0  0  0  0
    7.8391    2.2253   22.7260 N   0  0  0  0  0  0  0  0  0  0  0  0
    8.6968    9.8373   23.6359 C   0  0  0  0  0  0  0  0  0  0  0  0
   12.5135    6.5957   21.8396 C   0  0  0  0  0  0  0  0  0  0  0  0
   10.9406    8.2330   21.1350 C   0  0  0  0  0  0  0  0  0  0  0  0
    9.6648    8.5956   21.7310 C   0  0  0  0  0  0  0  0  0  0  0  0
   10.8829    1.7153   20.9865 C   0  0  0  0  0  0  0  0  0  0  0  0
    5.7768    2.8533   23.7910 C   0  0  0  0  0  0  0  0  0  0  0  0
    9.7977    1.4791   21.6912 N   0  0  0  0  0  0  0  0  0  0  0  0
    6.5976    9.3401   22.6478 N   0  0  0  0  0  0  0  0  0  0  0  0
   11.2031    3.0042   20.6246 C   0  0  0  0  0  0  0  0  0  0  0  0
   12.8688    7.7370   22.7287 C   0  0  0  0  0  0  0  0  0  0  0  0
    7.4487    9.1361   23.6506 C   0  0  0  0  0  0  0  0  0  0  0  0
    8.9772    2.5025   22.0273 C   0  0  0  0  0  0  0  0  0  0  0  0
   10.4859    4.0901   20.9730 C   0  0  0  0  0  0  0  0  0  0  0  0
   11.0962    9.3293   23.5072 C   0  0  0  0  0  0  0  0  0  0  0  0
    5.1273    7.8529   23.6208 N   0  0  0  0  0  0  0  0  0  0  0  0
    9.7552    9.2338   23.0171 N   0  0  0  0  0  0  0  0  0  0  0  0
   11.1797    6.7591   21.3326 N   0  0  0  0  0  0  0  0  0  0  0  0
   11.7728    8.0337   23.7267 C   0  0  0  0  0  0  0  0  0  0  0  0
    7.1194    8.3344   24.6775 C   0  0  0  0  0  0  0  0  0  0  0  0
    8.4311    4.7963   22.0500 C   0  0  0  0  0  0  0  0  0  0  0  0
    8.7393   10.8706   24.1871 O   0  0  0  0  0  0  0  0  0  0  0  0
    9.3093    3.8166   21.6712 C   0  0  0  0  0  0  0  0  0  0  0  0
  1  5  1  0
  1 15  4  0
  1 22  4  0
  2 20  1  0
  2 24  1  0
  3  6  4  0
  3 27  4  0
  4 22  4  0
  4 26  4  0
  6  7  4  0
  6 13  1  0
  7 19  4  0
  8 18  1  0
  8 23  1  0
  8 28  2  0
  9 17  1  0
  9 24  1  0
 10 11  1  0
 10 24  1  0
 11 23  1  0
 12 14  4  0
 12 16  4  0
 14 19  4  0
 15 18  4  0
 16 20  4  0
 17 25  1  0
 18 26  4  0
 19 29  4  0
 20 29  4  0
 21 23  1  0
 21 25  1  0
 27 29  4  0
M  END
$$$$

 Created by Python create_sdf_string function

 29 32  0  0  0  0  0  0  0  0999 V2000
    5.4450    8.7154   22.6662 C   0  0  0  0  0  0  0  0  0  0  0  0
   10.9154    5.4574   20.5483 C   0  0  0  0  0  0  0  0  0  0  0  0
    7.2709    4.5089   22.7542 C   0  0  0  0  0  0  0  0  0  0  0  0
    5.9698    7.6329   24.6581 C   0  0  0  0  0  0  0  0  0  0  0  0
    4.5542    8.9057   21.7104 O   0  0  0  0  0  0  0  0  0  0  0  0
    6.9895    3.2085   23.0690 C   0  0  0  0  0  0  0  0  0  0  0  0
    7.8391    2.2253   22.7260 N   0  0  0  0  0  0  0  0  0  0  0  0
    8.6968    9.8373   23.6359 C   0  0  0  0  0  0  0  0  0  0  0  0
   12.5135    6.5957   21.8396 C   0  0  0  0  0  0  0  0  0  0  0  0
   10.9406    8.2330   21.1350 C   0  0  0  0  0  0  0  0  0  0  0  0
    9.6648    8.5956   21.7310 C   0  0  0  0  0  0  0  0  0  0  0  0
   10.8829    1.7153   20.9865 C   0  0  0  0  0  0  0  0  0  0  0  0
    5.7768    2.8533   23.7910 C   0  0  0  0  0  0  0  0  0  0  0  0
    9.7977    1.4791   21.6912 N   0  0  0  0  0  0  0  0  0  0  0  0
    6.5976    9.3401   22.6478 N   0  0  0  0  0  0  0  0  0  0  0  0
   11.2031    3.0042   20.6246 C   0  0  0  0  0  0  0  0  0  0  0  0
   12.8688    7.7370   22.7287 C   0  0  0  0  0  0  0  0  0  0  0  0
    7.4487    9.1361   23.6506 C   0  0  0  0  0  0  0  0  0  0  0  0
    8.9772    2.5025   22.0273 C   0  0  0  0  0  0  0  0  0  0  0  0
   10.4859    4.0901   20.9730 C   0  0  0  0  0  0  0  0  0  0  0  0
   11.0962    9.3293   23.5072 C   0  0  0  0  0  0  0  0  0  0  0  0
    5.1273    7.8529   23.6208 N   0  0  0  0  0  0  0  0  0  0  0  0
    9.7552    9.2338   23.0171 N   0  0  0  0  0  0  0  0  0  0  0  0
   11.1797    6.7591   21.3326 N   0  0  0  0  0  0  0  0  0  0  0  0
   11.7728    8.0337   23.7267 C   0  0  0  0  0  0  0  0  0  0  0  0
    7.1194    8.3344   24.6775 C   0  0  0  0  0  0  0  0  0  0  0  0
    8.4311    4.7963   22.0500 C   0  0  0  0  0  0  0  0  0  0  0  0
    8.7393   10.8706   24.1871 O   0  0  0  0  0  0  0  0  0  0  0  0
    9.3093    3.8166   21.6712 C   0  0  0  0  0  0  0  0  0  0  0  0
  1  5  1  0
  1 15  4  0
  1 22  4  0
  2 20  1  0
  2 24  1  0
  3  6  4  0
  3 27  4  0
  4 22  4  0
  4 26  4  0
  6  7  4  0
  6 13  1  0
  7 19  4  0
  8 18  1  0
  8 23  1  0
  8 28  2  0
  9 17  1  0
  9 24  1  0
 10 11  1  0
 10 24  1  0
 11 23  1  0
 12 14  4  0
 12 16  4  0
 14 19  4  0
 15 18  4  0
 16 20  4  0
 17 25  1  0
 18 26  4  0
 19 29  4  0
 20 29  4  0
 21 23  1  0
 21 25  1  0
 27 29  4  0
M  END
$$$$

 Created by Python create_sdf_string function

 29 32  0  0  0  0  0  0  0  0999 V2000
    5.4450    8.7154   22.6662 C   0  0  0  0  0  0  0  0  0  0  0  0
   10.9154    5.4574   20.5483 C   0  0  0  0  0  0  0  0  0  0  0  0
    7.2709    4.5089   22.7542 C   0  0  0  0  0  0  0  0  0  0  0  0
    5.9698    7.6329   24.6581 C   0  0  0  0  0  0  0  0  0  0  0  0
    4.5542    8.9057   21.7104 O   0  0  0  0  0  0  0  0  0  0  0  0
    6.9895    3.2085   23.0690 C   0  0  0  0  0  0  0  0  0  0  0  0
    7.8391    2.2253   22.7260 N   0  0  0  0  0  0  0  0  0  0  0  0
    8.6968    9.8373   23.6359 C   0  0  0  0  0  0  0  0  0  0  0  0
   12.5135    6.5957   21.8396 C   0  0  0  0  0  0  0  0  0  0  0  0
   10.9406    8.2330   21.1350 C   0  0  0  0  0  0  0  0  0  0  0  0
    9.6648    8.5956   21.7310 C   0  0  0  0  0  0  0  0  0  0  0  0
   10.8829    1.7153   20.9865 C   0  0  0  0  0  0  0  0  0  0  0  0
    5.7768    2.8533   23.7910 C   0  0  0  0  0  0  0  0  0  0  0  0
    9.7977    1.4791   21.6912 N   0  0  0  0  0  0  0  0  0  0  0  0
    6.5976    9.3401   22.6478 N   0  0  0  0  0  0  0  0  0  0  0  0
   11.2031    3.0042   20.6246 C   0  0  0  0  0  0  0  0  0  0  0  0
   12.8688    7.7370   22.7287 C   0  0  0  0  0  0  0  0  0  0  0  0
    7.4487    9.1361   23.6506 C   0  0  0  0  0  0  0  0  0  0  0  0
    8.9772    2.5025   22.0273 C   0  0  0  0  0  0  0  0  0  0  0  0
   10.4859    4.0901   20.9730 C   0  0  0  0  0  0  0  0  0  0  0  0
   11.0962    9.3293   23.5072 C   0  0  0  0  0  0  0  0  0  0  0  0
    5.1273    7.8529   23.6208 N   0  0  0  0  0  0  0  0  0  0  0  0
    9.7552    9.2338   23.0171 N   0  0  0  0  0  0  0  0  0  0  0  0
   11.1797    6.7591   21.3326 N   0  0  0  0  0  0  0  0  0  0  0  0
   11.7728    8.0337   23.7267 C   0  0  0  0  0  0  0  0  0  0  0  0
    7.1194    8.3344   24.6775 C   0  0  0  0  0  0  0  0  0  0  0  0
    8.4311    4.7963   22.0500 C   0  0  0  0  0  0  0  0  0  0  0  0
    8.7393   10.8706   24.1871 O   0  0  0  0  0  0  0  0  0  0  0  0
    9.3093    3.8166   21.6712 C   0  0  0  0  0  0  0  0  0  0  0  0
  1  5  1  0
  1 15  4  0
  1 22  4  0
  2 20  1  0
  2 24  1  0
  3  6  4  0
  3 27  4  0
  4 22  4  0
  4 26  4  0
  6  7  4  0
  6 13  1  0
  7 19  4  0
  8 18  1  0
  8 23  1  0
  8 28  2  0
  9 17  1  0
  9 24  1  0
 10 11  1  0
 10 24  1  0
 11 23  1  0
 12 14  4  0
 12 16  4  0
 14 19  4  0
 15 18  4  0
 16 20  4  0
 17 25  1  0
 18 26  4  0
 19 29  4  0
 20 29  4  0
 21 23  1  0
 21 25  1  0
 27 29  4  0
M  END
$$$$

 Created by Python create_sdf_string function

 29 32  0  0  0  0  0  0  0  0999 V2000
    5.4450    8.7154   22.6662 C   0  0  0  0  0  0  0  0  0  0  0  0
   10.9154    5.4574   20.5483 C   0  0  0  0  0  0  0  0  0  0  0  0
    7.2709    4.5089   22.7542 C   0  0  0  0  0  0  0  0  0  0  0  0
    5.9698    7.6329   24.6581 C   0  0  0  0  0  0  0  0  0  0  0  0
    4.5542    8.9057   21.7104 O   0  0  0  0  0  0  0  0  0  0  0  0
    6.9895    3.2085   23.0690 C   0  0  0  0  0  0  0  0  0  0  0  0
    7.8391    2.2253   22.7260 N   0  0  0  0  0  0  0  0  0  0  0  0
    8.6968    9.8373   23.6359 C   0  0  0  0  0  0  0  0  0  0  0  0
   12.5135    6.5957   21.8396 C   0  0  0  0  0  0  0  0  0  0  0  0
   10.9406    8.2330   21.1350 C   0  0  0  0  0  0  0  0  0  0  0  0
    9.6648    8.5956   21.7310 C   0  0  0  0  0  0  0  0  0  0  0  0
   10.8829    1.7153   20.9865 C   0  0  0  0  0  0  0  0  0  0  0  0
    5.7768    2.8533   23.7910 C   0  0  0  0  0  0  0  0  0  0  0  0
    9.7977    1.4791   21.6912 N   0  0  0  0  0  0  0  0  0  0  0  0
    6.5976    9.3401   22.6478 N   0  0  0  0  0  0  0  0  0  0  0  0
   11.2031    3.0042   20.6246 C   0  0  0  0  0  0  0  0  0  0  0  0
   12.8688    7.7370   22.7287 C   0  0  0  0  0  0  0  0  0  0  0  0
    7.4487    9.1361   23.6506 C   0  0  0  0  0  0  0  0  0  0  0  0
    8.9772    2.5025   22.0273 C   0  0  0  0  0  0  0  0  0  0  0  0
   10.4859    4.0901   20.9730 C   0  0  0  0  0  0  0  0  0  0  0  0
   11.0962    9.3293   23.5072 C   0  0  0  0  0  0  0  0  0  0  0  0
    5.1273    7.8529   23.6208 N   0  0  0  0  0  0  0  0  0  0  0  0
    9.7552    9.2338   23.0171 N   0  0  0  0  0  0  0  0  0  0  0  0
   11.1797    6.7591   21.3326 N   0  0  0  0  0  0  0  0  0  0  0  0
   11.7728    8.0337   23.7267 C   0  0  0  0  0  0  0  0  0  0  0  0
    7.1194    8.3344   24.6775 C   0  0  0  0  0  0  0  0  0  0  0  0
    8.4311    4.7963   22.0500 C   0  0  0  0  0  0  0  0  0  0  0  0
    8.7393   10.8706   24.1871 O   0  0  0  0  0  0  0  0  0  0  0  0
    9.3093    3.8166   21.6712 C   0  0  0  0  0  0  0  0  0  0  0  0
  1  5  1  0
  1 15  4  0
  1 22  4  0
  2 20  1  0
  2 24  1  0
  3  6  4  0
  3 27  4  0
  4 22  4  0
  4 26  4  0
  6  7  4  0
  6 13  1  0
  7 19  4  0
  8 18  1  0
  8 23  1  0
  8 28  2  0
  9 17  1  0
  9 24  1  0
 10 11  1  0
 10 24  1  0
 11 23  1  0
 12 14  4  0
 12 16  4  0
 14 19  4  0
 15 18  4  0
 16 20  4  0
 17 25  1  0
 18 26  4  0
 19 29  4  0
 20 29  4  0
 21 23  1  0
 21 25  1  0
 27 29  4  0
M  END
$$$$

 Created by Python create_sdf_string function

 29 32  0  0  0  0  0  0  0  0999 V2000
    5.4450    8.7154   22.6662 C   0  0  0  0  0  0  0  0  0  0  0  0
   10.9154    5.4574   20.5483 C   0  0  0  0  0  0  0  0  0  0  0  0
    7.2709    4.5089   22.7542 C   0  0  0  0  0  0  0  0  0  0  0  0
    5.9698    7.6329   24.6581 C   0  0  0  0  0  0  0  0  0  0  0  0
    4.5542    8.9057   21.7104 O   0  0  0  0  0  0  0  0  0  0  0  0
    6.9895    3.2085   23.0690 C   0  0  0  0  0  0  0  0  0  0  0  0
    7.8391    2.2253   22.7260 N   0  0  0  0  0  0  0  0  0  0  0  0
    8.6968    9.8373   23.6359 C   0  0  0  0  0  0  0  0  0  0  0  0
   12.5135    6.5957   21.8396 C   0  0  0  0  0  0  0  0  0  0  0  0
   10.9406    8.2330   21.1350 C   0  0  0  0  0  0  0  0  0  0  0  0
    9.6648    8.5956   21.7310 C   0  0  0  0  0  0  0  0  0  0  0  0
   10.8829    1.7153   20.9865 C   0  0  0  0  0  0  0  0  0  0  0  0
    5.7768    2.8533   23.7910 C   0  0  0  0  0  0  0  0  0  0  0  0
    9.7977    1.4791   21.6912 N   0  0  0  0  0  0  0  0  0  0  0  0
    6.5976    9.3401   22.6478 N   0  0  0  0  0  0  0  0  0  0  0  0
   11.2031    3.0042   20.6246 C   0  0  0  0  0  0  0  0  0  0  0  0
   12.8688    7.7370   22.7287 C   0  0  0  0  0  0  0  0  0  0  0  0
    7.4487    9.1361   23.6506 C   0  0  0  0  0  0  0  0  0  0  0  0
    8.9772    2.5025   22.0273 C   0  0  0  0  0  0  0  0  0  0  0  0
   10.4859    4.0901   20.9730 C   0  0  0  0  0  0  0  0  0  0  0  0
   11.0962    9.3293   23.5072 C   0  0  0  0  0  0  0  0  0  0  0  0
    5.1273    7.8529   23.6208 N   0  0  0  0  0  0  0  0  0  0  0  0
    9.7552    9.2338   23.0171 N   0  0  0  0  0  0  0  0  0  0  0  0
   11.1797    6.7591   21.3326 N   0  0  0  0  0  0  0  0  0  0  0  0
   11.7728    8.0337   23.7267 C   0  0  0  0  0  0  0  0  0  0  0  0
    7.1194    8.3344   24.6775 C   0  0  0  0  0  0  0  0  0  0  0  0
    8.4311    4.7963   22.0500 C   0  0  0  0  0  0  0  0  0  0  0  0
    8.7393   10.8706   24.1871 O   0  0  0  0  0  0  0  0  0  0  0  0
    9.3093    3.8166   21.6712 C   0  0  0  0  0  0  0  0  0  0  0  0
  1  5  1  0
  1 15  4  0
  1 22  4  0
  2 20  1  0
  2 24  1  0
  3  6  4  0
  3 27  4  0
  4 22  4  0
  4 26  4  0
  6  7  4  0
  6 13  1  0
  7 19  4  0
  8 18  1  0
  8 23  1  0
  8 28  2  0
  9 17  1  0
  9 24  1  0
 10 11  1  0
 10 24  1  0
 11 23  1  0
 12 14  4  0
 12 16  4  0
 14 19  4  0
 15 18  4  0
 16 20  4  0
 17 25  1  0
 18 26  4  0
 19 29  4  0
 20 29  4  0
 21 23  1  0
 21 25  1  0
 27 29  4  0
M  END
$$$$

 Created by Python create_sdf_string function

 29 32  0  0  0  0  0  0  0  0999 V2000
    5.4450    8.7154   22.6662 C   0  0  0  0  0  0  0  0  0  0  0  0
   10.9154    5.4574   20.5483 C   0  0  0  0  0  0  0  0  0  0  0  0
    7.2709    4.5089   22.7542 C   0  0  0  0  0  0  0  0  0  0  0  0
    5.9698    7.6329   24.6581 C   0  0  0  0  0  0  0  0  0  0  0  0
    4.5542    8.9057   21.7104 O   0  0  0  0  0  0  0  0  0  0  0  0
    6.9895    3.2085   23.0690 C   0  0  0  0  0  0  0  0  0  0  0  0
    7.8391    2.2253   22.7260 N   0  0  0  0  0  0  0  0  0  0  0  0
    8.6968    9.8373   23.6359 C   0  0  0  0  0  0  0  0  0  0  0  0
   12.5135    6.5957   21.8396 C   0  0  0  0  0  0  0  0  0  0  0  0
   10.9406    8.2330   21.1350 C   0  0  0  0  0  0  0  0  0  0  0  0
    9.6648    8.5956   21.7310 C   0  0  0  0  0  0  0  0  0  0  0  0
   10.8829    1.7153   20.9865 C   0  0  0  0  0  0  0  0  0  0  0  0
    5.7768    2.8533   23.7910 C   0  0  0  0  0  0  0  0  0  0  0  0
    9.7977    1.4791   21.6912 N   0  0  0  0  0  0  0  0  0  0  0  0
    6.5976    9.3401   22.6478 N   0  0  0  0  0  0  0  0  0  0  0  0
   11.2031    3.0042   20.6246 C   0  0  0  0  0  0  0  0  0  0  0  0
   12.8688    7.7370   22.7287 C   0  0  0  0  0  0  0  0  0  0  0  0
    7.4487    9.1361   23.6506 C   0  0  0  0  0  0  0  0  0  0  0  0
    8.9772    2.5025   22.0273 C   0  0  0  0  0  0  0  0  0  0  0  0
   10.4859    4.0901   20.9730 C   0  0  0  0  0  0  0  0  0  0  0  0
   11.0962    9.3293   23.5072 C   0  0  0  0  0  0  0  0  0  0  0  0
    5.1273    7.8529   23.6208 N   0  0  0  0  0  0  0  0  0  0  0  0
    9.7552    9.2338   23.0171 N   0  0  0  0  0  0  0  0  0  0  0  0
   11.1797    6.7591   21.3326 N   0  0  0  0  0  0  0  0  0  0  0  0
   11.7728    8.0337   23.7267 C   0  0  0  0  0  0  0  0  0  0  0  0
    7.1194    8.3344   24.6775 C   0  0  0  0  0  0  0  0  0  0  0  0
    8.4311    4.7963   22.0500 C   0  0  0  0  0  0  0  0  0  0  0  0
    8.7393   10.8706   24.1871 O   0  0  0  0  0  0  0  0  0  0  0  0
    9.3093    3.8166   21.6712 C   0  0  0  0  0  0  0  0  0  0  0  0
  1  5  1  0
  1 15  4  0
  1 22  4  0
  2 20  1  0
  2 24  1  0
  3  6  4  0
  3 27  4  0
  4 22  4  0
  4 26  4  0
  6  7  4  0
  6 13  1  0
  7 19  4  0
  8 18  1  0
  8 23  1  0
  8 28  2  0
  9 17  1  0
  9 24  1  0
 10 11  1  0
 10 24  1  0
 11 23  1  0
 12 14  4  0
 12 16  4  0
 14 19  4  0
 15 18  4  0
 16 20  4  0
 17 25  1  0
 18 26  4  0
 19 29  4  0
 20 29  4  0
 21 23  1  0
 21 25  1  0
 27 29  4  0
M  END
$$$$

 Created by Python create_sdf_string function

 29 32  0  0  0  0  0  0  0  0999 V2000
    5.4450    8.7154   22.6662 C   0  0  0  0  0  0  0  0  0  0  0  0
   10.9154    5.4574   20.5483 C   0  0  0  0  0  0  0  0  0  0  0  0
    7.2709    4.5089   22.7542 C   0  0  0  0  0  0  0  0  0  0  0  0
    5.9698    7.6329   24.6581 C   0  0  0  0  0  0  0  0  0  0  0  0
    4.5542    8.9057   21.7104 O   0  0  0  0  0  0  0  0  0  0  0  0
    6.9895    3.2085   23.0690 C   0  0  0  0  0  0  0  0  0  0  0  0
    7.8391    2.2253   22.7260 N   0  0  0  0  0  0  0  0  0  0  0  0
    8.6968    9.8373   23.6359 C   0  0  0  0  0  0  0  0  0  0  0  0
   12.5135    6.5957   21.8396 C   0  0  0  0  0  0  0  0  0  0  0  0
   10.9406    8.2330   21.1350 C   0  0  0  0  0  0  0  0  0  0  0  0
    9.6648    8.5956   21.7310 C   0  0  0  0  0  0  0  0  0  0  0  0
   10.8829    1.7153   20.9865 C   0  0  0  0  0  0  0  0  0  0  0  0
    5.7768    2.8533   23.7910 C   0  0  0  0  0  0  0  0  0  0  0  0
    9.7977    1.4791   21.6912 N   0  0  0  0  0  0  0  0  0  0  0  0
    6.5976    9.3401   22.6478 N   0  0  0  0  0  0  0  0  0  0  0  0
   11.2031    3.0042   20.6246 C   0  0  0  0  0  0  0  0  0  0  0  0
   12.8688    7.7370   22.7287 C   0  0  0  0  0  0  0  0  0  0  0  0
    7.4487    9.1361   23.6506 C   0  0  0  0  0  0  0  0  0  0  0  0
    8.9772    2.5025   22.0273 C   0  0  0  0  0  0  0  0  0  0  0  0
   10.4859    4.0901   20.9730 C   0  0  0  0  0  0  0  0  0  0  0  0
   11.0962    9.3293   23.5072 C   0  0  0  0  0  0  0  0  0  0  0  0
    5.1273    7.8529   23.6208 N   0  0  0  0  0  0  0  0  0  0  0  0
    9.7552    9.2338   23.0171 N   0  0  0  0  0  0  0  0  0  0  0  0
   11.1797    6.7591   21.3326 N   0  0  0  0  0  0  0  0  0  0  0  0
   11.7728    8.0337   23.7267 C   0  0  0  0  0  0  0  0  0  0  0  0
    7.1194    8.3344   24.6775 C   0  0  0  0  0  0  0  0  0  0  0  0
    8.4311    4.7963   22.0500 C   0  0  0  0  0  0  0  0  0  0  0  0
    8.7393   10.8706   24.1871 O   0  0  0  0  0  0  0  0  0  0  0  0
    9.3093    3.8166   21.6712 C   0  0  0  0  0  0  0  0  0  0  0  0
  1  5  1  0
  1 15  4  0
  1 22  4  0
  2 20  1  0
  2 24  1  0
  3  6  4  0
  3 27  4  0
  4 22  4  0
  4 26  4  0
  6  7  4  0
  6 13  1  0
  7 19  4  0
  8 18  1  0
  8 23  1  0
  8 28  2  0
  9 17  1  0
  9 24  1  0
 10 11  1  0
 10 24  1  0
 11 23  1  0
 12 14  4  0
 12 16  4  0
 14 19  4  0
 15 18  4  0
 16 20  4  0
 17 25  1  0
 18 26  4  0
 19 29  4  0
 20 29  4  0
 21 23  1  0
 21 25  1  0
 27 29  4  0
M  END
$$$$

 Created by Python create_sdf_string function

 29 32  0  0  0  0  0  0  0  0999 V2000
    5.4450    8.7154   22.6662 C   0  0  0  0  0  0  0  0  0  0  0  0
   10.9154    5.4574   20.5483 C   0  0  0  0  0  0  0  0  0  0  0  0
    7.2709    4.5089   22.7542 C   0  0  0  0  0  0  0  0  0  0  0  0
    5.9698    7.6329   24.6581 C   0  0  0  0  0  0  0  0  0  0  0  0
    4.5542    8.9057   21.7104 O   0  0  0  0  0  0  0  0  0  0  0  0
    6.9895    3.2085   23.0690 C   0  0  0  0  0  0  0  0  0  0  0  0
    7.8391    2.2253   22.7260 N   0  0  0  0  0  0  0  0  0  0  0  0
    8.6968    9.8373   23.6359 C   0  0  0  0  0  0  0  0  0  0  0  0
   12.5135    6.5957   21.8396 C   0  0  0  0  0  0  0  0  0  0  0  0
   10.9406    8.2330   21.1350 C   0  0  0  0  0  0  0  0  0  0  0  0
    9.6648    8.5956   21.7310 C   0  0  0  0  0  0  0  0  0  0  0  0
   10.8829    1.7153   20.9865 C   0  0  0  0  0  0  0  0  0  0  0  0
    5.7768    2.8533   23.7910 C   0  0  0  0  0  0  0  0  0  0  0  0
    9.7977    1.4791   21.6912 N   0  0  0  0  0  0  0  0  0  0  0  0
    6.5976    9.3401   22.6478 N   0  0  0  0  0  0  0  0  0  0  0  0
   11.2031    3.0042   20.6246 C   0  0  0  0  0  0  0  0  0  0  0  0
   12.8688    7.7370   22.7287 C   0  0  0  0  0  0  0  0  0  0  0  0
    7.4487    9.1361   23.6506 C   0  0  0  0  0  0  0  0  0  0  0  0
    8.9772    2.5025   22.0273 C   0  0  0  0  0  0  0  0  0  0  0  0
   10.4859    4.0901   20.9730 C   0  0  0  0  0  0  0  0  0  0  0  0
   11.0962    9.3293   23.5072 C   0  0  0  0  0  0  0  0  0  0  0  0
    5.1273    7.8529   23.6208 N   0  0  0  0  0  0  0  0  0  0  0  0
    9.7552    9.2338   23.0171 N   0  0  0  0  0  0  0  0  0  0  0  0
   11.1797    6.7591   21.3326 N   0  0  0  0  0  0  0  0  0  0  0  0
   11.7728    8.0337   23.7267 C   0  0  0  0  0  0  0  0  0  0  0  0
    7.1194    8.3344   24.6775 C   0  0  0  0  0  0  0  0  0  0  0  0
    8.4311    4.7963   22.0500 C   0  0  0  0  0  0  0  0  0  0  0  0
    8.7393   10.8706   24.1871 O   0  0  0  0  0  0  0  0  0  0  0  0
    9.3093    3.8166   21.6712 C   0  0  0  0  0  0  0  0  0  0  0  0
  1  5  1  0
  1 15  4  0
  1 22  4  0
  2 20  1  0
  2 24  1  0
  3  6  4  0
  3 27  4  0
  4 22  4  0
  4 26  4  0
  6  7  4  0
  6 13  1  0
  7 19  4  0
  8 18  1  0
  8 23  1  0
  8 28  2  0
  9 17  1  0
  9 24  1  0
 10 11  1  0
 10 24  1  0
 11 23  1  0
 12 14  4  0
 12 16  4  0
 14 19  4  0
 15 18  4  0
 16 20  4  0
 17 25  1  0
 18 26  4  0
 19 29  4  0
 20 29  4  0
 21 23  1  0
 21 25  1  0
 27 29  4  0
M  END
$$$$

 Created by Python create_sdf_string function

 29 32  0  0  0  0  0  0  0  0999 V2000
    5.4450    8.7154   22.6662 C   0  0  0  0  0  0  0  0  0  0  0  0
   10.9154    5.4574   20.5483 C   0  0  0  0  0  0  0  0  0  0  0  0
    7.2709    4.5089   22.7542 C   0  0  0  0  0  0  0  0  0  0  0  0
    5.9698    7.6329   24.6581 C   0  0  0  0  0  0  0  0  0  0  0  0
    4.5542    8.9057   21.7104 O   0  0  0  0  0  0  0  0  0  0  0  0
    6.9895    3.2085   23.0690 C   0  0  0  0  0  0  0  0  0  0  0  0
    7.8391    2.2253   22.7260 N   0  0  0  0  0  0  0  0  0  0  0  0
    8.6968    9.8373   23.6359 C   0  0  0  0  0  0  0  0  0  0  0  0
   12.5135    6.5957   21.8396 C   0  0  0  0  0  0  0  0  0  0  0  0
   10.9406    8.2330   21.1350 C   0  0  0  0  0  0  0  0  0  0  0  0
    9.6648    8.5956   21.7310 C   0  0  0  0  0  0  0  0  0  0  0  0
   10.8829    1.7153   20.9865 C   0  0  0  0  0  0  0  0  0  0  0  0
    5.7768    2.8533   23.7910 C   0  0  0  0  0  0  0  0  0  0  0  0
    9.7977    1.4791   21.6912 N   0  0  0  0  0  0  0  0  0  0  0  0
    6.5976    9.3401   22.6478 N   0  0  0  0  0  0  0  0  0  0  0  0
   11.2031    3.0042   20.6246 C   0  0  0  0  0  0  0  0  0  0  0  0
   12.8688    7.7370   22.7287 C   0  0  0  0  0  0  0  0  0  0  0  0
    7.4487    9.1361   23.6506 C   0  0  0  0  0  0  0  0  0  0  0  0
    8.9772    2.5025   22.0273 C   0  0  0  0  0  0  0  0  0  0  0  0
   10.4859    4.0901   20.9730 C   0  0  0  0  0  0  0  0  0  0  0  0
   11.0962    9.3293   23.5072 C   0  0  0  0  0  0  0  0  0  0  0  0
    5.1273    7.8529   23.6208 N   0  0  0  0  0  0  0  0  0  0  0  0
    9.7552    9.2338   23.0171 N   0  0  0  0  0  0  0  0  0  0  0  0
   11.1797    6.7591   21.3326 N   0  0  0  0  0  0  0  0  0  0  0  0
   11.7728    8.0337   23.7267 C   0  0  0  0  0  0  0  0  0  0  0  0
    7.1194    8.3344   24.6775 C   0  0  0  0  0  0  0  0  0  0  0  0
    8.4311    4.7963   22.0500 C   0  0  0  0  0  0  0  0  0  0  0  0
    8.7393   10.8706   24.1871 O   0  0  0  0  0  0  0  0  0  0  0  0
    9.3093    3.8166   21.6712 C   0  0  0  0  0  0  0  0  0  0  0  0
  1  5  1  0
  1 15  4  0
  1 22  4  0
  2 20  1  0
  2 24  1  0
  3  6  4  0
  3 27  4  0
  4 22  4  0
  4 26  4  0
  6  7  4  0
  6 13  1  0
  7 19  4  0
  8 18  1  0
  8 23  1  0
  8 28  2  0
  9 17  1  0
  9 24  1  0
 10 11  1  0
 10 24  1  0
 11 23  1  0
 12 14  4  0
 12 16  4  0
 14 19  4  0
 15 18  4  0
 16 20  4  0
 17 25  1  0
 18 26  4  0
 19 29  4  0
 20 29  4  0
 21 23  1  0
 21 25  1  0
 27 29  4  0
M  END
$$$$

 Created by Python create_sdf_string function

 29 32  0  0  0  0  0  0  0  0999 V2000
    5.4450    8.7154   22.6662 C   0  0  0  0  0  0  0  0  0  0  0  0
   10.9154    5.4574   20.5483 C   0  0  0  0  0  0  0  0  0  0  0  0
    7.2709    4.5089   22.7542 C   0  0  0  0  0  0  0  0  0  0  0  0
    5.9698    7.6329   24.6581 C   0  0  0  0  0  0  0  0  0  0  0  0
    4.5542    8.9057   21.7104 O   0  0  0  0  0  0  0  0  0  0  0  0
    6.9895    3.2085   23.0690 C   0  0  0  0  0  0  0  0  0  0  0  0
    7.8391    2.2253   22.7260 N   0  0  0  0  0  0  0  0  0  0  0  0
    8.6968    9.8373   23.6359 C   0  0  0  0  0  0  0  0  0  0  0  0
   12.5135    6.5957   21.8396 C   0  0  0  0  0  0  0  0  0  0  0  0
   10.9406    8.2330   21.1350 C   0  0  0  0  0  0  0  0  0  0  0  0
    9.6648    8.5956   21.7310 C   0  0  0  0  0  0  0  0  0  0  0  0
   10.8829    1.7153   20.9865 C   0  0  0  0  0  0  0  0  0  0  0  0
    5.7768    2.8533   23.7910 C   0  0  0  0  0  0  0  0  0  0  0  0
    9.7977    1.4791   21.6912 N   0  0  0  0  0  0  0  0  0  0  0  0
    6.5976    9.3401   22.6478 N   0  0  0  0  0  0  0  0  0  0  0  0
   11.2031    3.0042   20.6246 C   0  0  0  0  0  0  0  0  0  0  0  0
   12.8688    7.7370   22.7287 C   0  0  0  0  0  0  0  0  0  0  0  0
    7.4487    9.1361   23.6506 C   0  0  0  0  0  0  0  0  0  0  0  0
    8.9772    2.5025   22.0273 C   0  0  0  0  0  0  0  0  0  0  0  0
   10.4859    4.0901   20.9730 C   0  0  0  0  0  0  0  0  0  0  0  0
   11.0962    9.3293   23.5072 C   0  0  0  0  0  0  0  0  0  0  0  0
    5.1273    7.8529   23.6208 N   0  0  0  0  0  0  0  0  0  0  0  0
    9.7552    9.2338   23.0171 N   0  0  0  0  0  0  0  0  0  0  0  0
   11.1797    6.7591   21.3326 N   0  0  0  0  0  0  0  0  0  0  0  0
   11.7728    8.0337   23.7267 C   0  0  0  0  0  0  0  0  0  0  0  0
    7.1194    8.3344   24.6775 C   0  0  0  0  0  0  0  0  0  0  0  0
    8.4311    4.7963   22.0500 C   0  0  0  0  0  0  0  0  0  0  0  0
    8.7393   10.8706   24.1871 O   0  0  0  0  0  0  0  0  0  0  0  0
    9.3093    3.8166   21.6712 C   0  0  0  0  0  0  0  0  0  0  0  0
  1  5  1  0
  1 15  4  0
  1 22  4  0
  2 20  1  0
  2 24  1  0
  3  6  4  0
  3 27  4  0
  4 22  4  0
  4 26  4  0
  6  7  4  0
  6 13  1  0
  7 19  4  0
  8 18  1  0
  8 23  1  0
  8 28  2  0
  9 17  1  0
  9 24  1  0
 10 11  1  0
 10 24  1  0
 11 23  1  0
 12 14  4  0
 12 16  4  0
 14 19  4  0
 15 18  4  0
 16 20  4  0
 17 25  1  0
 18 26  4  0
 19 29  4  0
 20 29  4  0
 21 23  1  0
 21 25  1  0
 27 29  4  0
M  END
$$$$

 Created by Python create_sdf_string function

 29 32  0  0  0  0  0  0  0  0999 V2000
    5.4450    8.7154   22.6662 C   0  0  0  0  0  0  0  0  0  0  0  0
   10.9154    5.4574   20.5483 C   0  0  0  0  0  0  0  0  0  0  0  0
    7.2709    4.5089   22.7542 C   0  0  0  0  0  0  0  0  0  0  0  0
    5.9698    7.6329   24.6581 C   0  0  0  0  0  0  0  0  0  0  0  0
    4.5542    8.9057   21.7104 O   0  0  0  0  0  0  0  0  0  0  0  0
    6.9895    3.2085   23.0690 C   0  0  0  0  0  0  0  0  0  0  0  0
    7.8391    2.2253   22.7260 N   0  0  0  0  0  0  0  0  0  0  0  0
    8.6968    9.8373   23.6359 C   0  0  0  0  0  0  0  0  0  0  0  0
   12.5135    6.5957   21.8396 C   0  0  0  0  0  0  0  0  0  0  0  0
   10.9406    8.2330   21.1350 C   0  0  0  0  0  0  0  0  0  0  0  0
    9.6648    8.5956   21.7310 C   0  0  0  0  0  0  0  0  0  0  0  0
   10.8829    1.7153   20.9865 C   0  0  0  0  0  0  0  0  0  0  0  0
    5.7768    2.8533   23.7910 C   0  0  0  0  0  0  0  0  0  0  0  0
    9.7977    1.4791   21.6912 N   0  0  0  0  0  0  0  0  0  0  0  0
    6.5976    9.3401   22.6478 N   0  0  0  0  0  0  0  0  0  0  0  0
   11.2031    3.0042   20.6246 C   0  0  0  0  0  0  0  0  0  0  0  0
   12.8688    7.7370   22.7287 C   0  0  0  0  0  0  0  0  0  0  0  0
    7.4487    9.1361   23.6506 C   0  0  0  0  0  0  0  0  0  0  0  0
    8.9772    2.5025   22.0273 C   0  0  0  0  0  0  0  0  0  0  0  0
   10.4859    4.0901   20.9730 C   0  0  0  0  0  0  0  0  0  0  0  0
   11.0962    9.3293   23.5072 C   0  0  0  0  0  0  0  0  0  0  0  0
    5.1273    7.8529   23.6208 N   0  0  0  0  0  0  0  0  0  0  0  0
    9.7552    9.2338   23.0171 N   0  0  0  0  0  0  0  0  0  0  0  0
   11.1797    6.7591   21.3326 N   0  0  0  0  0  0  0  0  0  0  0  0
   11.7728    8.0337   23.7267 C   0  0  0  0  0  0  0  0  0  0  0  0
    7.1194    8.3344   24.6775 C   0  0  0  0  0  0  0  0  0  0  0  0
    8.4311    4.7963   22.0500 C   0  0  0  0  0  0  0  0  0  0  0  0
    8.7393   10.8706   24.1871 O   0  0  0  0  0  0  0  0  0  0  0  0
    9.3093    3.8166   21.6712 C   0  0  0  0  0  0  0  0  0  0  0  0
  1  5  1  0
  1 15  4  0
  1 22  4  0
  2 20  1  0
  2 24  1  0
  3  6  4  0
  3 27  4  0
  4 22  4  0
  4 26  4  0
  6  7  4  0
  6 13  1  0
  7 19  4  0
  8 18  1  0
  8 23  1  0
  8 28  2  0
  9 17  1  0
  9 24  1  0
 10 11  1  0
 10 24  1  0
 11 23  1  0
 12 14  4  0
 12 16  4  0
 14 19  4  0
 15 18  4  0
 16 20  4  0
 17 25  1  0
 18 26  4  0
 19 29  4  0
 20 29  4  0
 21 23  1  0
 21 25  1  0
 27 29  4  0
M  END
$$$$

 Created by Python create_sdf_string function

 29 32  0  0  0  0  0  0  0  0999 V2000
    5.4450    8.7154   22.6662 C   0  0  0  0  0  0  0  0  0  0  0  0
   10.9154    5.4574   20.5483 C   0  0  0  0  0  0  0  0  0  0  0  0
    7.2709    4.5089   22.7542 C   0  0  0  0  0  0  0  0  0  0  0  0
    5.9698    7.6329   24.6581 C   0  0  0  0  0  0  0  0  0  0  0  0
    4.5542    8.9057   21.7104 O   0  0  0  0  0  0  0  0  0  0  0  0
    6.9895    3.2085   23.0690 C   0  0  0  0  0  0  0  0  0  0  0  0
    7.8391    2.2253   22.7260 N   0  0  0  0  0  0  0  0  0  0  0  0
    8.6968    9.8373   23.6359 C   0  0  0  0  0  0  0  0  0  0  0  0
   12.5135    6.5957   21.8396 C   0  0  0  0  0  0  0  0  0  0  0  0
   10.9406    8.2330   21.1350 C   0  0  0  0  0  0  0  0  0  0  0  0
    9.6648    8.5956   21.7310 C   0  0  0  0  0  0  0  0  0  0  0  0
   10.8829    1.7153   20.9865 C   0  0  0  0  0  0  0  0  0  0  0  0
    5.7768    2.8533   23.7910 C   0  0  0  0  0  0  0  0  0  0  0  0
    9.7977    1.4791   21.6912 N   0  0  0  0  0  0  0  0  0  0  0  0
    6.5976    9.3401   22.6478 N   0  0  0  0  0  0  0  0  0  0  0  0
   11.2031    3.0042   20.6246 C   0  0  0  0  0  0  0  0  0  0  0  0
   12.8688    7.7370   22.7287 C   0  0  0  0  0  0  0  0  0  0  0  0
    7.4487    9.1361   23.6506 C   0  0  0  0  0  0  0  0  0  0  0  0
    8.9772    2.5025   22.0273 C   0  0  0  0  0  0  0  0  0  0  0  0
   10.4859    4.0901   20.9730 C   0  0  0  0  0  0  0  0  0  0  0  0
   11.0962    9.3293   23.5072 C   0  0  0  0  0  0  0  0  0  0  0  0
    5.1273    7.8529   23.6208 N   0  0  0  0  0  0  0  0  0  0  0  0
    9.7552    9.2338   23.0171 N   0  0  0  0  0  0  0  0  0  0  0  0
   11.1797    6.7591   21.3326 N   0  0  0  0  0  0  0  0  0  0  0  0
   11.7728    8.0337   23.7267 C   0  0  0  0  0  0  0  0  0  0  0  0
    7.1194    8.3344   24.6775 C   0  0  0  0  0  0  0  0  0  0  0  0
    8.4311    4.7963   22.0500 C   0  0  0  0  0  0  0  0  0  0  0  0
    8.7393   10.8706   24.1871 O   0  0  0  0  0  0  0  0  0  0  0  0
    9.3093    3.8166   21.6712 C   0  0  0  0  0  0  0  0  0  0  0  0
  1  5  1  0
  1 15  4  0
  1 22  4  0
  2 20  1  0
  2 24  1  0
  3  6  4  0
  3 27  4  0
  4 22  4  0
  4 26  4  0
  6  7  4  0
  6 13  1  0
  7 19  4  0
  8 18  1  0
  8 23  1  0
  8 28  2  0
  9 17  1  0
  9 24  1  0
 10 11  1  0
 10 24  1  0
 11 23  1  0
 12 14  4  0
 12 16  4  0
 14 19  4  0
 15 18  4  0
 16 20  4  0
 17 25  1  0
 18 26  4  0
 19 29  4  0
 20 29  4  0
 21 23  1  0
 21 25  1  0
 27 29  4  0
M  END
$$$$

 Created by Python create_sdf_string function

 29 32  0  0  0  0  0  0  0  0999 V2000
    5.4450    8.7154   22.6662 C   0  0  0  0  0  0  0  0  0  0  0  0
   10.9154    5.4574   20.5483 C   0  0  0  0  0  0  0  0  0  0  0  0
    7.2709    4.5089   22.7542 C   0  0  0  0  0  0  0  0  0  0  0  0
    5.9698    7.6329   24.6581 C   0  0  0  0  0  0  0  0  0  0  0  0
    4.5542    8.9057   21.7104 O   0  0  0  0  0  0  0  0  0  0  0  0
    6.9895    3.2085   23.0690 C   0  0  0  0  0  0  0  0  0  0  0  0
    7.8391    2.2253   22.7260 N   0  0  0  0  0  0  0  0  0  0  0  0
    8.6968    9.8373   23.6359 C   0  0  0  0  0  0  0  0  0  0  0  0
   12.5135    6.5957   21.8396 C   0  0  0  0  0  0  0  0  0  0  0  0
   10.9406    8.2330   21.1350 C   0  0  0  0  0  0  0  0  0  0  0  0
    9.6648    8.5956   21.7310 C   0  0  0  0  0  0  0  0  0  0  0  0
   10.8829    1.7153   20.9865 C   0  0  0  0  0  0  0  0  0  0  0  0
    5.7768    2.8533   23.7910 C   0  0  0  0  0  0  0  0  0  0  0  0
    9.7977    1.4791   21.6912 N   0  0  0  0  0  0  0  0  0  0  0  0
    6.5976    9.3401   22.6478 N   0  0  0  0  0  0  0  0  0  0  0  0
   11.2031    3.0042   20.6246 C   0  0  0  0  0  0  0  0  0  0  0  0
   12.8688    7.7370   22.7287 C   0  0  0  0  0  0  0  0  0  0  0  0
    7.4487    9.1361   23.6506 C   0  0  0  0  0  0  0  0  0  0  0  0
    8.9772    2.5025   22.0273 C   0  0  0  0  0  0  0  0  0  0  0  0
   10.4859    4.0901   20.9730 C   0  0  0  0  0  0  0  0  0  0  0  0
   11.0962    9.3293   23.5072 C   0  0  0  0  0  0  0  0  0  0  0  0
    5.1273    7.8529   23.6208 N   0  0  0  0  0  0  0  0  0  0  0  0
    9.7552    9.2338   23.0171 N   0  0  0  0  0  0  0  0  0  0  0  0
   11.1797    6.7591   21.3326 N   0  0  0  0  0  0  0  0  0  0  0  0
   11.7728    8.0337   23.7267 C   0  0  0  0  0  0  0  0  0  0  0  0
    7.1194    8.3344   24.6775 C   0  0  0  0  0  0  0  0  0  0  0  0
    8.4311    4.7963   22.0500 C   0  0  0  0  0  0  0  0  0  0  0  0
    8.7393   10.8706   24.1871 O   0  0  0  0  0  0  0  0  0  0  0  0
    9.3093    3.8166   21.6712 C   0  0  0  0  0  0  0  0  0  0  0  0
  1  5  1  0
  1 15  4  0
  1 22  4  0
  2 20  1  0
  2 24  1  0
  3  6  4  0
  3 27  4  0
  4 22  4  0
  4 26  4  0
  6  7  4  0
  6 13  1  0
  7 19  4  0
  8 18  1  0
  8 23  1  0
  8 28  2  0
  9 17  1  0
  9 24  1  0
 10 11  1  0
 10 24  1  0
 11 23  1  0
 12 14  4  0
 12 16  4  0
 14 19  4  0
 15 18  4  0
 16 20  4  0
 17 25  1  0
 18 26  4  0
 19 29  4  0
 20 29  4  0
 21 23  1  0
 21 25  1  0
 27 29  4  0
M  END
$$$$

 Created by Python create_sdf_string function

 29 32  0  0  0  0  0  0  0  0999 V2000
    5.4450    8.7154   22.6662 C   0  0  0  0  0  0  0  0  0  0  0  0
   10.9154    5.4574   20.5483 C   0  0  0  0  0  0  0  0  0  0  0  0
    7.2709    4.5089   22.7542 C   0  0  0  0  0  0  0  0  0  0  0  0
    5.9698    7.6329   24.6581 C   0  0  0  0  0  0  0  0  0  0  0  0
    4.5542    8.9057   21.7104 O   0  0  0  0  0  0  0  0  0  0  0  0
    6.9895    3.2085   23.0690 C   0  0  0  0  0  0  0  0  0  0  0  0
    7.8391    2.2253   22.7260 N   0  0  0  0  0  0  0  0  0  0  0  0
    8.6968    9.8373   23.6359 C   0  0  0  0  0  0  0  0  0  0  0  0
   12.5135    6.5957   21.8396 C   0  0  0  0  0  0  0  0  0  0  0  0
   10.9406    8.2330   21.1350 C   0  0  0  0  0  0  0  0  0  0  0  0
    9.6648    8.5956   21.7310 C   0  0  0  0  0  0  0  0  0  0  0  0
   10.8829    1.7153   20.9865 C   0  0  0  0  0  0  0  0  0  0  0  0
    5.7768    2.8533   23.7910 C   0  0  0  0  0  0  0  0  0  0  0  0
    9.7977    1.4791   21.6912 N   0  0  0  0  0  0  0  0  0  0  0  0
    6.5976    9.3401   22.6478 N   0  0  0  0  0  0  0  0  0  0  0  0
   11.2031    3.0042   20.6246 C   0  0  0  0  0  0  0  0  0  0  0  0
   12.8688    7.7370   22.7287 C   0  0  0  0  0  0  0  0  0  0  0  0
    7.4487    9.1361   23.6506 C   0  0  0  0  0  0  0  0  0  0  0  0
    8.9772    2.5025   22.0273 C   0  0  0  0  0  0  0  0  0  0  0  0
   10.4859    4.0901   20.9730 C   0  0  0  0  0  0  0  0  0  0  0  0
   11.0962    9.3293   23.5072 C   0  0  0  0  0  0  0  0  0  0  0  0
    5.1273    7.8529   23.6208 N   0  0  0  0  0  0  0  0  0  0  0  0
    9.7552    9.2338   23.0171 N   0  0  0  0  0  0  0  0  0  0  0  0
   11.1797    6.7591   21.3326 N   0  0  0  0  0  0  0  0  0  0  0  0
   11.7728    8.0337   23.7267 C   0  0  0  0  0  0  0  0  0  0  0  0
    7.1194    8.3344   24.6775 C   0  0  0  0  0  0  0  0  0  0  0  0
    8.4311    4.7963   22.0500 C   0  0  0  0  0  0  0  0  0  0  0  0
    8.7393   10.8706   24.1871 O   0  0  0  0  0  0  0  0  0  0  0  0
    9.3093    3.8166   21.6712 C   0  0  0  0  0  0  0  0  0  0  0  0
  1  5  1  0
  1 15  4  0
  1 22  4  0
  2 20  1  0
  2 24  1  0
  3  6  4  0
  3 27  4  0
  4 22  4  0
  4 26  4  0
  6  7  4  0
  6 13  1  0
  7 19  4  0
  8 18  1  0
  8 23  1  0
  8 28  2  0
  9 17  1  0
  9 24  1  0
 10 11  1  0
 10 24  1  0
 11 23  1  0
 12 14  4  0
 12 16  4  0
 14 19  4  0
 15 18  4  0
 16 20  4  0
 17 25  1  0
 18 26  4  0
 19 29  4  0
 20 29  4  0
 21 23  1  0
 21 25  1  0
 27 29  4  0
M  END
$$$$

 Created by Python create_sdf_string function

 29 32  0  0  0  0  0  0  0  0999 V2000
    5.4450    8.7154   22.6662 C   0  0  0  0  0  0  0  0  0  0  0  0
   10.9154    5.4574   20.5483 C   0  0  0  0  0  0  0  0  0  0  0  0
    7.2709    4.5089   22.7542 C   0  0  0  0  0  0  0  0  0  0  0  0
    5.9698    7.6329   24.6581 C   0  0  0  0  0  0  0  0  0  0  0  0
    4.5542    8.9057   21.7104 O   0  0  0  0  0  0  0  0  0  0  0  0
    6.9895    3.2085   23.0690 C   0  0  0  0  0  0  0  0  0  0  0  0
    7.8391    2.2253   22.7260 N   0  0  0  0  0  0  0  0  0  0  0  0
    8.6968    9.8373   23.6359 C   0  0  0  0  0  0  0  0  0  0  0  0
   12.5135    6.5957   21.8396 C   0  0  0  0  0  0  0  0  0  0  0  0
   10.9406    8.2330   21.1350 C   0  0  0  0  0  0  0  0  0  0  0  0
    9.6648    8.5956   21.7310 C   0  0  0  0  0  0  0  0  0  0  0  0
   10.8829    1.7153   20.9865 C   0  0  0  0  0  0  0  0  0  0  0  0
    5.7768    2.8533   23.7910 C   0  0  0  0  0  0  0  0  0  0  0  0
    9.7977    1.4791   21.6912 N   0  0  0  0  0  0  0  0  0  0  0  0
    6.5976    9.3401   22.6478 N   0  0  0  0  0  0  0  0  0  0  0  0
   11.2031    3.0042   20.6246 C   0  0  0  0  0  0  0  0  0  0  0  0
   12.8688    7.7370   22.7287 C   0  0  0  0  0  0  0  0  0  0  0  0
    7.4487    9.1361   23.6506 C   0  0  0  0  0  0  0  0  0  0  0  0
    8.9772    2.5025   22.0273 C   0  0  0  0  0  0  0  0  0  0  0  0
   10.4859    4.0901   20.9730 C   0  0  0  0  0  0  0  0  0  0  0  0
   11.0962    9.3293   23.5072 C   0  0  0  0  0  0  0  0  0  0  0  0
    5.1273    7.8529   23.6208 N   0  0  0  0  0  0  0  0  0  0  0  0
    9.7552    9.2338   23.0171 N   0  0  0  0  0  0  0  0  0  0  0  0
   11.1797    6.7591   21.3326 N   0  0  0  0  0  0  0  0  0  0  0  0
   11.7728    8.0337   23.7267 C   0  0  0  0  0  0  0  0  0  0  0  0
    7.1194    8.3344   24.6775 C   0  0  0  0  0  0  0  0  0  0  0  0
    8.4311    4.7963   22.0500 C   0  0  0  0  0  0  0  0  0  0  0  0
    8.7393   10.8706   24.1871 O   0  0  0  0  0  0  0  0  0  0  0  0
    9.3093    3.8166   21.6712 C   0  0  0  0  0  0  0  0  0  0  0  0
  1  5  1  0
  1 15  4  0
  1 22  4  0
  2 20  1  0
  2 24  1  0
  3  6  4  0
  3 27  4  0
  4 22  4  0
  4 26  4  0
  6  7  4  0
  6 13  1  0
  7 19  4  0
  8 18  1  0
  8 23  1  0
  8 28  2  0
  9 17  1  0
  9 24  1  0
 10 11  1  0
 10 24  1  0
 11 23  1  0
 12 14  4  0
 12 16  4  0
 14 19  4  0
 15 18  4  0
 16 20  4  0
 17 25  1  0
 18 26  4  0
 19 29  4  0
 20 29  4  0
 21 23  1  0
 21 25  1  0
 27 29  4  0
M  END
$$$$

 Created by Python create_sdf_string function

 29 32  0  0  0  0  0  0  0  0999 V2000
    5.4450    8.7154   22.6662 C   0  0  0  0  0  0  0  0  0  0  0  0
   10.9154    5.4574   20.5483 C   0  0  0  0  0  0  0  0  0  0  0  0
    7.2709    4.5089   22.7542 C   0  0  0  0  0  0  0  0  0  0  0  0
    5.9698    7.6329   24.6581 C   0  0  0  0  0  0  0  0  0  0  0  0
    4.5542    8.9057   21.7104 O   0  0  0  0  0  0  0  0  0  0  0  0
    6.9895    3.2085   23.0690 C   0  0  0  0  0  0  0  0  0  0  0  0
    7.8391    2.2253   22.7260 N   0  0  0  0  0  0  0  0  0  0  0  0
    8.6968    9.8373   23.6359 C   0  0  0  0  0  0  0  0  0  0  0  0
   12.5135    6.5957   21.8396 C   0  0  0  0  0  0  0  0  0  0  0  0
   10.9406    8.2330   21.1350 C   0  0  0  0  0  0  0  0  0  0  0  0
    9.6648    8.5956   21.7310 C   0  0  0  0  0  0  0  0  0  0  0  0
   10.8829    1.7153   20.9865 C   0  0  0  0  0  0  0  0  0  0  0  0
    5.7768    2.8533   23.7910 C   0  0  0  0  0  0  0  0  0  0  0  0
    9.7977    1.4791   21.6912 N   0  0  0  0  0  0  0  0  0  0  0  0
    6.5976    9.3401   22.6478 N   0  0  0  0  0  0  0  0  0  0  0  0
   11.2031    3.0042   20.6246 C   0  0  0  0  0  0  0  0  0  0  0  0
   12.8688    7.7370   22.7287 C   0  0  0  0  0  0  0  0  0  0  0  0
    7.4487    9.1361   23.6506 C   0  0  0  0  0  0  0  0  0  0  0  0
    8.9772    2.5025   22.0273 C   0  0  0  0  0  0  0  0  0  0  0  0
   10.4859    4.0901   20.9730 C   0  0  0  0  0  0  0  0  0  0  0  0
   11.0962    9.3293   23.5072 C   0  0  0  0  0  0  0  0  0  0  0  0
    5.1273    7.8529   23.6208 N   0  0  0  0  0  0  0  0  0  0  0  0
    9.7552    9.2338   23.0171 N   0  0  0  0  0  0  0  0  0  0  0  0
   11.1797    6.7591   21.3326 N   0  0  0  0  0  0  0  0  0  0  0  0
   11.7728    8.0337   23.7267 C   0  0  0  0  0  0  0  0  0  0  0  0
    7.1194    8.3344   24.6775 C   0  0  0  0  0  0  0  0  0  0  0  0
    8.4311    4.7963   22.0500 C   0  0  0  0  0  0  0  0  0  0  0  0
    8.7393   10.8706   24.1871 O   0  0  0  0  0  0  0  0  0  0  0  0
    9.3093    3.8166   21.6712 C   0  0  0  0  0  0  0  0  0  0  0  0
  1  5  1  0
  1 15  4  0
  1 22  4  0
  2 20  1  0
  2 24  1  0
  3  6  4  0
  3 27  4  0
  4 22  4  0
  4 26  4  0
  6  7  4  0
  6 13  1  0
  7 19  4  0
  8 18  1  0
  8 23  1  0
  8 28  2  0
  9 17  1  0
  9 24  1  0
 10 11  1  0
 10 24  1  0
 11 23  1  0
 12 14  4  0
 12 16  4  0
 14 19  4  0
 15 18  4  0
 16 20  4  0
 17 25  1  0
 18 26  4  0
 19 29  4  0
 20 29  4  0
 21 23  1  0
 21 25  1  0
 27 29  4  0
M  END
$$$$

 Created by Python create_sdf_string function

 29 32  0  0  0  0  0  0  0  0999 V2000
    5.4450    8.7154   22.6662 C   0  0  0  0  0  0  0  0  0  0  0  0
   10.9154    5.4574   20.5483 C   0  0  0  0  0  0  0  0  0  0  0  0
    7.2709    4.5089   22.7542 C   0  0  0  0  0  0  0  0  0  0  0  0
    5.9698    7.6329   24.6581 C   0  0  0  0  0  0  0  0  0  0  0  0
    4.5542    8.9057   21.7104 O   0  0  0  0  0  0  0  0  0  0  0  0
    6.9895    3.2085   23.0690 C   0  0  0  0  0  0  0  0  0  0  0  0
    7.8391    2.2253   22.7260 N   0  0  0  0  0  0  0  0  0  0  0  0
    8.6968    9.8373   23.6359 C   0  0  0  0  0  0  0  0  0  0  0  0
   12.5135    6.5957   21.8396 C   0  0  0  0  0  0  0  0  0  0  0  0
   10.9406    8.2330   21.1350 C   0  0  0  0  0  0  0  0  0  0  0  0
    9.6648    8.5956   21.7310 C   0  0  0  0  0  0  0  0  0  0  0  0
   10.8829    1.7153   20.9865 C   0  0  0  0  0  0  0  0  0  0  0  0
    5.7768    2.8533   23.7910 C   0  0  0  0  0  0  0  0  0  0  0  0
    9.7977    1.4791   21.6912 N   0  0  0  0  0  0  0  0  0  0  0  0
    6.5976    9.3401   22.6478 N   0  0  0  0  0  0  0  0  0  0  0  0
   11.2031    3.0042   20.6246 C   0  0  0  0  0  0  0  0  0  0  0  0
   12.8688    7.7370   22.7287 C   0  0  0  0  0  0  0  0  0  0  0  0
    7.4487    9.1361   23.6506 C   0  0  0  0  0  0  0  0  0  0  0  0
    8.9772    2.5025   22.0273 C   0  0  0  0  0  0  0  0  0  0  0  0
   10.4859    4.0901   20.9730 C   0  0  0  0  0  0  0  0  0  0  0  0
   11.0962    9.3293   23.5072 C   0  0  0  0  0  0  0  0  0  0  0  0
    5.1273    7.8529   23.6208 N   0  0  0  0  0  0  0  0  0  0  0  0
    9.7552    9.2338   23.0171 N   0  0  0  0  0  0  0  0  0  0  0  0
   11.1797    6.7591   21.3326 N   0  0  0  0  0  0  0  0  0  0  0  0
   11.7728    8.0337   23.7267 C   0  0  0  0  0  0  0  0  0  0  0  0
    7.1194    8.3344   24.6775 C   0  0  0  0  0  0  0  0  0  0  0  0
    8.4311    4.7963   22.0500 C   0  0  0  0  0  0  0  0  0  0  0  0
    8.7393   10.8706   24.1871 O   0  0  0  0  0  0  0  0  0  0  0  0
    9.3093    3.8166   21.6712 C   0  0  0  0  0  0  0  0  0  0  0  0
  1  5  1  0
  1 15  4  0
  1 22  4  0
  2 20  1  0
  2 24  1  0
  3  6  4  0
  3 27  4  0
  4 22  4  0
  4 26  4  0
  6  7  4  0
  6 13  1  0
  7 19  4  0
  8 18  1  0
  8 23  1  0
  8 28  2  0
  9 17  1  0
  9 24  1  0
 10 11  1  0
 10 24  1  0
 11 23  1  0
 12 14  4  0
 12 16  4  0
 14 19  4  0
 15 18  4  0
 16 20  4  0
 17 25  1  0
 18 26  4  0
 19 29  4  0
 20 29  4  0
 21 23  1  0
 21 25  1  0
 27 29  4  0
M  END
$$$$

 Created by Python create_sdf_string function

 29 32  0  0  0  0  0  0  0  0999 V2000
    5.4450    8.7154   22.6662 C   0  0  0  0  0  0  0  0  0  0  0  0
   10.9154    5.4574   20.5483 C   0  0  0  0  0  0  0  0  0  0  0  0
    7.2709    4.5089   22.7542 C   0  0  0  0  0  0  0  0  0  0  0  0
    5.9698    7.6329   24.6581 C   0  0  0  0  0  0  0  0  0  0  0  0
    4.5542    8.9057   21.7104 O   0  0  0  0  0  0  0  0  0  0  0  0
    6.9895    3.2085   23.0690 C   0  0  0  0  0  0  0  0  0  0  0  0
    7.8391    2.2253   22.7260 N   0  0  0  0  0  0  0  0  0  0  0  0
    8.6968    9.8373   23.6359 C   0  0  0  0  0  0  0  0  0  0  0  0
   12.5135    6.5957   21.8396 C   0  0  0  0  0  0  0  0  0  0  0  0
   10.9406    8.2330   21.1350 C   0  0  0  0  0  0  0  0  0  0  0  0
    9.6648    8.5956   21.7310 C   0  0  0  0  0  0  0  0  0  0  0  0
   10.8829    1.7153   20.9865 C   0  0  0  0  0  0  0  0  0  0  0  0
    5.7768    2.8533   23.7910 C   0  0  0  0  0  0  0  0  0  0  0  0
    9.7977    1.4791   21.6912 N   0  0  0  0  0  0  0  0  0  0  0  0
    6.5976    9.3401   22.6478 N   0  0  0  0  0  0  0  0  0  0  0  0
   11.2031    3.0042   20.6246 C   0  0  0  0  0  0  0  0  0  0  0  0
   12.8688    7.7370   22.7287 C   0  0  0  0  0  0  0  0  0  0  0  0
    7.4487    9.1361   23.6506 C   0  0  0  0  0  0  0  0  0  0  0  0
    8.9772    2.5025   22.0273 C   0  0  0  0  0  0  0  0  0  0  0  0
   10.4859    4.0901   20.9730 C   0  0  0  0  0  0  0  0  0  0  0  0
   11.0962    9.3293   23.5072 C   0  0  0  0  0  0  0  0  0  0  0  0
    5.1273    7.8529   23.6208 N   0  0  0  0  0  0  0  0  0  0  0  0
    9.7552    9.2338   23.0171 N   0  0  0  0  0  0  0  0  0  0  0  0
   11.1797    6.7591   21.3326 N   0  0  0  0  0  0  0  0  0  0  0  0
   11.7728    8.0337   23.7267 C   0  0  0  0  0  0  0  0  0  0  0  0
    7.1194    8.3344   24.6775 C   0  0  0  0  0  0  0  0  0  0  0  0
    8.4311    4.7963   22.0500 C   0  0  0  0  0  0  0  0  0  0  0  0
    8.7393   10.8706   24.1871 O   0  0  0  0  0  0  0  0  0  0  0  0
    9.3093    3.8166   21.6712 C   0  0  0  0  0  0  0  0  0  0  0  0
  1  5  1  0
  1 15  4  0
  1 22  4  0
  2 20  1  0
  2 24  1  0
  3  6  4  0
  3 27  4  0
  4 22  4  0
  4 26  4  0
  6  7  4  0
  6 13  1  0
  7 19  4  0
  8 18  1  0
  8 23  1  0
  8 28  2  0
  9 17  1  0
  9 24  1  0
 10 11  1  0
 10 24  1  0
 11 23  1  0
 12 14  4  0
 12 16  4  0
 14 19  4  0
 15 18  4  0
 16 20  4  0
 17 25  1  0
 18 26  4  0
 19 29  4  0
 20 29  4  0
 21 23  1  0
 21 25  1  0
 27 29  4  0
M  END
$$$$

 Created by Python create_sdf_string function

 29 32  0  0  0  0  0  0  0  0999 V2000
    5.4450    8.7154   22.6662 C   0  0  0  0  0  0  0  0  0  0  0  0
   10.9154    5.4574   20.5483 C   0  0  0  0  0  0  0  0  0  0  0  0
    7.2709    4.5089   22.7542 C   0  0  0  0  0  0  0  0  0  0  0  0
    5.9698    7.6329   24.6581 C   0  0  0  0  0  0  0  0  0  0  0  0
    4.5542    8.9057   21.7104 O   0  0  0  0  0  0  0  0  0  0  0  0
    6.9895    3.2085   23.0690 C   0  0  0  0  0  0  0  0  0  0  0  0
    7.8391    2.2253   22.7260 N   0  0  0  0  0  0  0  0  0  0  0  0
    8.6968    9.8373   23.6359 C   0  0  0  0  0  0  0  0  0  0  0  0
   12.5135    6.5957   21.8396 C   0  0  0  0  0  0  0  0  0  0  0  0
   10.9406    8.2330   21.1350 C   0  0  0  0  0  0  0  0  0  0  0  0
    9.6648    8.5956   21.7310 C   0  0  0  0  0  0  0  0  0  0  0  0
   10.8829    1.7153   20.9865 C   0  0  0  0  0  0  0  0  0  0  0  0
    5.7768    2.8533   23.7910 C   0  0  0  0  0  0  0  0  0  0  0  0
    9.7977    1.4791   21.6912 N   0  0  0  0  0  0  0  0  0  0  0  0
    6.5976    9.3401   22.6478 N   0  0  0  0  0  0  0  0  0  0  0  0
   11.2031    3.0042   20.6246 C   0  0  0  0  0  0  0  0  0  0  0  0
   12.8688    7.7370   22.7287 C   0  0  0  0  0  0  0  0  0  0  0  0
    7.4487    9.1361   23.6506 C   0  0  0  0  0  0  0  0  0  0  0  0
    8.9772    2.5025   22.0273 C   0  0  0  0  0  0  0  0  0  0  0  0
   10.4859    4.0901   20.9730 C   0  0  0  0  0  0  0  0  0  0  0  0
   11.0962    9.3293   23.5072 C   0  0  0  0  0  0  0  0  0  0  0  0
    5.1273    7.8529   23.6208 N   0  0  0  0  0  0  0  0  0  0  0  0
    9.7552    9.2338   23.0171 N   0  0  0  0  0  0  0  0  0  0  0  0
   11.1797    6.7591   21.3326 N   0  0  0  0  0  0  0  0  0  0  0  0
   11.7728    8.0337   23.7267 C   0  0  0  0  0  0  0  0  0  0  0  0
    7.1194    8.3344   24.6775 C   0  0  0  0  0  0  0  0  0  0  0  0
    8.4311    4.7963   22.0500 C   0  0  0  0  0  0  0  0  0  0  0  0
    8.7393   10.8706   24.1871 O   0  0  0  0  0  0  0  0  0  0  0  0
    9.3093    3.8166   21.6712 C   0  0  0  0  0  0  0  0  0  0  0  0
  1  5  1  0
  1 15  4  0
  1 22  4  0
  2 20  1  0
  2 24  1  0
  3  6  4  0
  3 27  4  0
  4 22  4  0
  4 26  4  0
  6  7  4  0
  6 13  1  0
  7 19  4  0
  8 18  1  0
  8 23  1  0
  8 28  2  0
  9 17  1  0
  9 24  1  0
 10 11  1  0
 10 24  1  0
 11 23  1  0
 12 14  4  0
 12 16  4  0
 14 19  4  0
 15 18  4  0
 16 20  4  0
 17 25  1  0
 18 26  4  0
 19 29  4  0
 20 29  4  0
 21 23  1  0
 21 25  1  0
 27 29  4  0
M  END
$$$$

 Created by Python create_sdf_string function

 29 32  0  0  0  0  0  0  0  0999 V2000
    5.4450    8.7154   22.6662 C   0  0  0  0  0  0  0  0  0  0  0  0
   10.9154    5.4574   20.5483 C   0  0  0  0  0  0  0  0  0  0  0  0
    7.2709    4.5089   22.7542 C   0  0  0  0  0  0  0  0  0  0  0  0
    5.9698    7.6329   24.6581 C   0  0  0  0  0  0  0  0  0  0  0  0
    4.5542    8.9057   21.7104 O   0  0  0  0  0  0  0  0  0  0  0  0
    6.9895    3.2085   23.0690 C   0  0  0  0  0  0  0  0  0  0  0  0
    7.8391    2.2253   22.7260 N   0  0  0  0  0  0  0  0  0  0  0  0
    8.6968    9.8373   23.6359 C   0  0  0  0  0  0  0  0  0  0  0  0
   12.5135    6.5957   21.8396 C   0  0  0  0  0  0  0  0  0  0  0  0
   10.9406    8.2330   21.1350 C   0  0  0  0  0  0  0  0  0  0  0  0
    9.6648    8.5956   21.7310 C   0  0  0  0  0  0  0  0  0  0  0  0
   10.8829    1.7153   20.9865 C   0  0  0  0  0  0  0  0  0  0  0  0
    5.7768    2.8533   23.7910 C   0  0  0  0  0  0  0  0  0  0  0  0
    9.7977    1.4791   21.6912 N   0  0  0  0  0  0  0  0  0  0  0  0
    6.5976    9.3401   22.6478 N   0  0  0  0  0  0  0  0  0  0  0  0
   11.2031    3.0042   20.6246 C   0  0  0  0  0  0  0  0  0  0  0  0
   12.8688    7.7370   22.7287 C   0  0  0  0  0  0  0  0  0  0  0  0
    7.4487    9.1361   23.6506 C   0  0  0  0  0  0  0  0  0  0  0  0
    8.9772    2.5025   22.0273 C   0  0  0  0  0  0  0  0  0  0  0  0
   10.4859    4.0901   20.9730 C   0  0  0  0  0  0  0  0  0  0  0  0
   11.0962    9.3293   23.5072 C   0  0  0  0  0  0  0  0  0  0  0  0
    5.1273    7.8529   23.6208 N   0  0  0  0  0  0  0  0  0  0  0  0
    9.7552    9.2338   23.0171 N   0  0  0  0  0  0  0  0  0  0  0  0
   11.1797    6.7591   21.3326 N   0  0  0  0  0  0  0  0  0  0  0  0
   11.7728    8.0337   23.7267 C   0  0  0  0  0  0  0  0  0  0  0  0
    7.1194    8.3344   24.6775 C   0  0  0  0  0  0  0  0  0  0  0  0
    8.4311    4.7963   22.0500 C   0  0  0  0  0  0  0  0  0  0  0  0
    8.7393   10.8706   24.1871 O   0  0  0  0  0  0  0  0  0  0  0  0
    9.3093    3.8166   21.6712 C   0  0  0  0  0  0  0  0  0  0  0  0
  1  5  1  0
  1 15  4  0
  1 22  4  0
  2 20  1  0
  2 24  1  0
  3  6  4  0
  3 27  4  0
  4 22  4  0
  4 26  4  0
  6  7  4  0
  6 13  1  0
  7 19  4  0
  8 18  1  0
  8 23  1  0
  8 28  2  0
  9 17  1  0
  9 24  1  0
 10 11  1  0
 10 24  1  0
 11 23  1  0
 12 14  4  0
 12 16  4  0
 14 19  4  0
 15 18  4  0
 16 20  4  0
 17 25  1  0
 18 26  4  0
 19 29  4  0
 20 29  4  0
 21 23  1  0
 21 25  1  0
 27 29  4  0
M  END
$$$$

 Created by Python create_sdf_string function

 29 32  0  0  0  0  0  0  0  0999 V2000
    5.4450    8.7154   22.6662 C   0  0  0  0  0  0  0  0  0  0  0  0
   10.9154    5.4574   20.5483 C   0  0  0  0  0  0  0  0  0  0  0  0
    7.2709    4.5089   22.7542 C   0  0  0  0  0  0  0  0  0  0  0  0
    5.9698    7.6329   24.6581 C   0  0  0  0  0  0  0  0  0  0  0  0
    4.5542    8.9057   21.7104 O   0  0  0  0  0  0  0  0  0  0  0  0
    6.9895    3.2085   23.0690 C   0  0  0  0  0  0  0  0  0  0  0  0
    7.8391    2.2253   22.7260 N   0  0  0  0  0  0  0  0  0  0  0  0
    8.6968    9.8373   23.6359 C   0  0  0  0  0  0  0  0  0  0  0  0
   12.5135    6.5957   21.8396 C   0  0  0  0  0  0  0  0  0  0  0  0
   10.9406    8.2330   21.1350 C   0  0  0  0  0  0  0  0  0  0  0  0
    9.6648    8.5956   21.7310 C   0  0  0  0  0  0  0  0  0  0  0  0
   10.8829    1.7153   20.9865 C   0  0  0  0  0  0  0  0  0  0  0  0
    5.7768    2.8533   23.7910 C   0  0  0  0  0  0  0  0  0  0  0  0
    9.7977    1.4791   21.6912 N   0  0  0  0  0  0  0  0  0  0  0  0
    6.5976    9.3401   22.6478 N   0  0  0  0  0  0  0  0  0  0  0  0
   11.2031    3.0042   20.6246 C   0  0  0  0  0  0  0  0  0  0  0  0
   12.8688    7.7370   22.7287 C   0  0  0  0  0  0  0  0  0  0  0  0
    7.4487    9.1361   23.6506 C   0  0  0  0  0  0  0  0  0  0  0  0
    8.9772    2.5025   22.0273 C   0  0  0  0  0  0  0  0  0  0  0  0
   10.4859    4.0901   20.9730 C   0  0  0  0  0  0  0  0  0  0  0  0
   11.0962    9.3293   23.5072 C   0  0  0  0  0  0  0  0  0  0  0  0
    5.1273    7.8529   23.6208 N   0  0  0  0  0  0  0  0  0  0  0  0
    9.7552    9.2338   23.0171 N   0  0  0  0  0  0  0  0  0  0  0  0
   11.1797    6.7591   21.3326 N   0  0  0  0  0  0  0  0  0  0  0  0
   11.7728    8.0337   23.7267 C   0  0  0  0  0  0  0  0  0  0  0  0
    7.1194    8.3344   24.6775 C   0  0  0  0  0  0  0  0  0  0  0  0
    8.4311    4.7963   22.0500 C   0  0  0  0  0  0  0  0  0  0  0  0
    8.7393   10.8706   24.1871 O   0  0  0  0  0  0  0  0  0  0  0  0
    9.3093    3.8166   21.6712 C   0  0  0  0  0  0  0  0  0  0  0  0
  1  5  1  0
  1 15  4  0
  1 22  4  0
  2 20  1  0
  2 24  1  0
  3  6  4  0
  3 27  4  0
  4 22  4  0
  4 26  4  0
  6  7  4  0
  6 13  1  0
  7 19  4  0
  8 18  1  0
  8 23  1  0
  8 28  2  0
  9 17  1  0
  9 24  1  0
 10 11  1  0
 10 24  1  0
 11 23  1  0
 12 14  4  0
 12 16  4  0
 14 19  4  0
 15 18  4  0
 16 20  4  0
 17 25  1  0
 18 26  4  0
 19 29  4  0
 20 29  4  0
 21 23  1  0
 21 25  1  0
 27 29  4  0
M  END
$$$$

 Created by Python create_sdf_string function

 29 32  0  0  0  0  0  0  0  0999 V2000
    5.4450    8.7154   22.6662 C   0  0  0  0  0  0  0  0  0  0  0  0
   10.9154    5.4574   20.5483 C   0  0  0  0  0  0  0  0  0  0  0  0
    7.2709    4.5089   22.7542 C   0  0  0  0  0  0  0  0  0  0  0  0
    5.9698    7.6329   24.6581 C   0  0  0  0  0  0  0  0  0  0  0  0
    4.5542    8.9057   21.7104 O   0  0  0  0  0  0  0  0  0  0  0  0
    6.9895    3.2085   23.0690 C   0  0  0  0  0  0  0  0  0  0  0  0
    7.8391    2.2253   22.7260 N   0  0  0  0  0  0  0  0  0  0  0  0
    8.6968    9.8373   23.6359 C   0  0  0  0  0  0  0  0  0  0  0  0
   12.5135    6.5957   21.8396 C   0  0  0  0  0  0  0  0  0  0  0  0
   10.9406    8.2330   21.1350 C   0  0  0  0  0  0  0  0  0  0  0  0
    9.6648    8.5956   21.7310 C   0  0  0  0  0  0  0  0  0  0  0  0
   10.8829    1.7153   20.9865 C   0  0  0  0  0  0  0  0  0  0  0  0
    5.7768    2.8533   23.7910 C   0  0  0  0  0  0  0  0  0  0  0  0
    9.7977    1.4791   21.6912 N   0  0  0  0  0  0  0  0  0  0  0  0
    6.5976    9.3401   22.6478 N   0  0  0  0  0  0  0  0  0  0  0  0
   11.2031    3.0042   20.6246 C   0  0  0  0  0  0  0  0  0  0  0  0
   12.8688    7.7370   22.7287 C   0  0  0  0  0  0  0  0  0  0  0  0
    7.4487    9.1361   23.6506 C   0  0  0  0  0  0  0  0  0  0  0  0
    8.9772    2.5025   22.0273 C   0  0  0  0  0  0  0  0  0  0  0  0
   10.4859    4.0901   20.9730 C   0  0  0  0  0  0  0  0  0  0  0  0
   11.0962    9.3293   23.5072 C   0  0  0  0  0  0  0  0  0  0  0  0
    5.1273    7.8529   23.6208 N   0  0  0  0  0  0  0  0  0  0  0  0
    9.7552    9.2338   23.0171 N   0  0  0  0  0  0  0  0  0  0  0  0
   11.1797    6.7591   21.3326 N   0  0  0  0  0  0  0  0  0  0  0  0
   11.7728    8.0337   23.7267 C   0  0  0  0  0  0  0  0  0  0  0  0
    7.1194    8.3344   24.6775 C   0  0  0  0  0  0  0  0  0  0  0  0
    8.4311    4.7963   22.0500 C   0  0  0  0  0  0  0  0  0  0  0  0
    8.7393   10.8706   24.1871 O   0  0  0  0  0  0  0  0  0  0  0  0
    9.3093    3.8166   21.6712 C   0  0  0  0  0  0  0  0  0  0  0  0
  1  5  1  0
  1 15  4  0
  1 22  4  0
  2 20  1  0
  2 24  1  0
  3  6  4  0
  3 27  4  0
  4 22  4  0
  4 26  4  0
  6  7  4  0
  6 13  1  0
  7 19  4  0
  8 18  1  0
  8 23  1  0
  8 28  2  0
  9 17  1  0
  9 24  1  0
 10 11  1  0
 10 24  1  0
 11 23  1  0
 12 14  4  0
 12 16  4  0
 14 19  4  0
 15 18  4  0
 16 20  4  0
 17 25  1  0
 18 26  4  0
 19 29  4  0
 20 29  4  0
 21 23  1  0
 21 25  1  0
 27 29  4  0
M  END
$$$$

 Created by Python create_sdf_string function

 29 32  0  0  0  0  0  0  0  0999 V2000
    5.4450    8.7154   22.6662 C   0  0  0  0  0  0  0  0  0  0  0  0
   10.9154    5.4574   20.5483 C   0  0  0  0  0  0  0  0  0  0  0  0
    7.2709    4.5089   22.7542 C   0  0  0  0  0  0  0  0  0  0  0  0
    5.9698    7.6329   24.6581 C   0  0  0  0  0  0  0  0  0  0  0  0
    4.5542    8.9057   21.7104 O   0  0  0  0  0  0  0  0  0  0  0  0
    6.9895    3.2085   23.0690 C   0  0  0  0  0  0  0  0  0  0  0  0
    7.8391    2.2253   22.7260 N   0  0  0  0  0  0  0  0  0  0  0  0
    8.6968    9.8373   23.6359 C   0  0  0  0  0  0  0  0  0  0  0  0
   12.5135    6.5957   21.8396 C   0  0  0  0  0  0  0  0  0  0  0  0
   10.9406    8.2330   21.1350 C   0  0  0  0  0  0  0  0  0  0  0  0
    9.6648    8.5956   21.7310 C   0  0  0  0  0  0  0  0  0  0  0  0
   10.8829    1.7153   20.9865 C   0  0  0  0  0  0  0  0  0  0  0  0
    5.7768    2.8533   23.7910 C   0  0  0  0  0  0  0  0  0  0  0  0
    9.7977    1.4791   21.6912 N   0  0  0  0  0  0  0  0  0  0  0  0
    6.5976    9.3401   22.6478 N   0  0  0  0  0  0  0  0  0  0  0  0
   11.2031    3.0042   20.6246 C   0  0  0  0  0  0  0  0  0  0  0  0
   12.8688    7.7370   22.7287 C   0  0  0  0  0  0  0  0  0  0  0  0
    7.4487    9.1361   23.6506 C   0  0  0  0  0  0  0  0  0  0  0  0
    8.9772    2.5025   22.0273 C   0  0  0  0  0  0  0  0  0  0  0  0
   10.4859    4.0901   20.9730 C   0  0  0  0  0  0  0  0  0  0  0  0
   11.0962    9.3293   23.5072 C   0  0  0  0  0  0  0  0  0  0  0  0
    5.1273    7.8529   23.6208 N   0  0  0  0  0  0  0  0  0  0  0  0
    9.7552    9.2338   23.0171 N   0  0  0  0  0  0  0  0  0  0  0  0
   11.1797    6.7591   21.3326 N   0  0  0  0  0  0  0  0  0  0  0  0
   11.7728    8.0337   23.7267 C   0  0  0  0  0  0  0  0  0  0  0  0
    7.1194    8.3344   24.6775 C   0  0  0  0  0  0  0  0  0  0  0  0
    8.4311    4.7963   22.0500 C   0  0  0  0  0  0  0  0  0  0  0  0
    8.7393   10.8706   24.1871 O   0  0  0  0  0  0  0  0  0  0  0  0
    9.3093    3.8166   21.6712 C   0  0  0  0  0  0  0  0  0  0  0  0
  1  5  1  0
  1 15  4  0
  1 22  4  0
  2 20  1  0
  2 24  1  0
  3  6  4  0
  3 27  4  0
  4 22  4  0
  4 26  4  0
  6  7  4  0
  6 13  1  0
  7 19  4  0
  8 18  1  0
  8 23  1  0
  8 28  2  0
  9 17  1  0
  9 24  1  0
 10 11  1  0
 10 24  1  0
 11 23  1  0
 12 14  4  0
 12 16  4  0
 14 19  4  0
 15 18  4  0
 16 20  4  0
 17 25  1  0
 18 26  4  0
 19 29  4  0
 20 29  4  0
 21 23  1  0
 21 25  1  0
 27 29  4  0
M  END
$$$$

 Created by Python create_sdf_string function

 29 32  0  0  0  0  0  0  0  0999 V2000
    5.4450    8.7154   22.6662 C   0  0  0  0  0  0  0  0  0  0  0  0
   10.9154    5.4574   20.5483 C   0  0  0  0  0  0  0  0  0  0  0  0
    7.2709    4.5089   22.7542 C   0  0  0  0  0  0  0  0  0  0  0  0
    5.9698    7.6329   24.6581 C   0  0  0  0  0  0  0  0  0  0  0  0
    4.5542    8.9057   21.7104 O   0  0  0  0  0  0  0  0  0  0  0  0
    6.9895    3.2085   23.0690 C   0  0  0  0  0  0  0  0  0  0  0  0
    7.8391    2.2253   22.7260 N   0  0  0  0  0  0  0  0  0  0  0  0
    8.6968    9.8373   23.6359 C   0  0  0  0  0  0  0  0  0  0  0  0
   12.5135    6.5957   21.8396 C   0  0  0  0  0  0  0  0  0  0  0  0
   10.9406    8.2330   21.1350 C   0  0  0  0  0  0  0  0  0  0  0  0
    9.6648    8.5956   21.7310 C   0  0  0  0  0  0  0  0  0  0  0  0
   10.8829    1.7153   20.9865 C   0  0  0  0  0  0  0  0  0  0  0  0
    5.7768    2.8533   23.7910 C   0  0  0  0  0  0  0  0  0  0  0  0
    9.7977    1.4791   21.6912 N   0  0  0  0  0  0  0  0  0  0  0  0
    6.5976    9.3401   22.6478 N   0  0  0  0  0  0  0  0  0  0  0  0
   11.2031    3.0042   20.6246 C   0  0  0  0  0  0  0  0  0  0  0  0
   12.8688    7.7370   22.7287 C   0  0  0  0  0  0  0  0  0  0  0  0
    7.4487    9.1361   23.6506 C   0  0  0  0  0  0  0  0  0  0  0  0
    8.9772    2.5025   22.0273 C   0  0  0  0  0  0  0  0  0  0  0  0
   10.4859    4.0901   20.9730 C   0  0  0  0  0  0  0  0  0  0  0  0
   11.0962    9.3293   23.5072 C   0  0  0  0  0  0  0  0  0  0  0  0
    5.1273    7.8529   23.6208 N   0  0  0  0  0  0  0  0  0  0  0  0
    9.7552    9.2338   23.0171 N   0  0  0  0  0  0  0  0  0  0  0  0
   11.1797    6.7591   21.3326 N   0  0  0  0  0  0  0  0  0  0  0  0
   11.7728    8.0337   23.7267 C   0  0  0  0  0  0  0  0  0  0  0  0
    7.1194    8.3344   24.6775 C   0  0  0  0  0  0  0  0  0  0  0  0
    8.4311    4.7963   22.0500 C   0  0  0  0  0  0  0  0  0  0  0  0
    8.7393   10.8706   24.1871 O   0  0  0  0  0  0  0  0  0  0  0  0
    9.3093    3.8166   21.6712 C   0  0  0  0  0  0  0  0  0  0  0  0
  1  5  1  0
  1 15  4  0
  1 22  4  0
  2 20  1  0
  2 24  1  0
  3  6  4  0
  3 27  4  0
  4 22  4  0
  4 26  4  0
  6  7  4  0
  6 13  1  0
  7 19  4  0
  8 18  1  0
  8 23  1  0
  8 28  2  0
  9 17  1  0
  9 24  1  0
 10 11  1  0
 10 24  1  0
 11 23  1  0
 12 14  4  0
 12 16  4  0
 14 19  4  0
 15 18  4  0
 16 20  4  0
 17 25  1  0
 18 26  4  0
 19 29  4  0
 20 29  4  0
 21 23  1  0
 21 25  1  0
 27 29  4  0
M  END
$$$$

 Created by Python create_sdf_string function

 29 32  0  0  0  0  0  0  0  0999 V2000
    5.4450    8.7154   22.6662 C   0  0  0  0  0  0  0  0  0  0  0  0
   10.9154    5.4574   20.5483 C   0  0  0  0  0  0  0  0  0  0  0  0
    7.2709    4.5089   22.7542 C   0  0  0  0  0  0  0  0  0  0  0  0
    5.9698    7.6329   24.6581 C   0  0  0  0  0  0  0  0  0  0  0  0
    4.5542    8.9057   21.7104 O   0  0  0  0  0  0  0  0  0  0  0  0
    6.9895    3.2085   23.0690 C   0  0  0  0  0  0  0  0  0  0  0  0
    7.8391    2.2253   22.7260 N   0  0  0  0  0  0  0  0  0  0  0  0
    8.6968    9.8373   23.6359 C   0  0  0  0  0  0  0  0  0  0  0  0
   12.5135    6.5957   21.8396 C   0  0  0  0  0  0  0  0  0  0  0  0
   10.9406    8.2330   21.1350 C   0  0  0  0  0  0  0  0  0  0  0  0
    9.6648    8.5956   21.7310 C   0  0  0  0  0  0  0  0  0  0  0  0
   10.8829    1.7153   20.9865 C   0  0  0  0  0  0  0  0  0  0  0  0
    5.7768    2.8533   23.7910 C   0  0  0  0  0  0  0  0  0  0  0  0
    9.7977    1.4791   21.6912 N   0  0  0  0  0  0  0  0  0  0  0  0
    6.5976    9.3401   22.6478 N   0  0  0  0  0  0  0  0  0  0  0  0
   11.2031    3.0042   20.6246 C   0  0  0  0  0  0  0  0  0  0  0  0
   12.8688    7.7370   22.7287 C   0  0  0  0  0  0  0  0  0  0  0  0
    7.4487    9.1361   23.6506 C   0  0  0  0  0  0  0  0  0  0  0  0
    8.9772    2.5025   22.0273 C   0  0  0  0  0  0  0  0  0  0  0  0
   10.4859    4.0901   20.9730 C   0  0  0  0  0  0  0  0  0  0  0  0
   11.0962    9.3293   23.5072 C   0  0  0  0  0  0  0  0  0  0  0  0
    5.1273    7.8529   23.6208 N   0  0  0  0  0  0  0  0  0  0  0  0
    9.7552    9.2338   23.0171 N   0  0  0  0  0  0  0  0  0  0  0  0
   11.1797    6.7591   21.3326 N   0  0  0  0  0  0  0  0  0  0  0  0
   11.7728    8.0337   23.7267 C   0  0  0  0  0  0  0  0  0  0  0  0
    7.1194    8.3344   24.6775 C   0  0  0  0  0  0  0  0  0  0  0  0
    8.4311    4.7963   22.0500 C   0  0  0  0  0  0  0  0  0  0  0  0
    8.7393   10.8706   24.1871 O   0  0  0  0  0  0  0  0  0  0  0  0
    9.3093    3.8166   21.6712 C   0  0  0  0  0  0  0  0  0  0  0  0
  1  5  1  0
  1 15  4  0
  1 22  4  0
  2 20  1  0
  2 24  1  0
  3  6  4  0
  3 27  4  0
  4 22  4  0
  4 26  4  0
  6  7  4  0
  6 13  1  0
  7 19  4  0
  8 18  1  0
  8 23  1  0
  8 28  2  0
  9 17  1  0
  9 24  1  0
 10 11  1  0
 10 24  1  0
 11 23  1  0
 12 14  4  0
 12 16  4  0
 14 19  4  0
 15 18  4  0
 16 20  4  0
 17 25  1  0
 18 26  4  0
 19 29  4  0
 20 29  4  0
 21 23  1  0
 21 25  1  0
 27 29  4  0
M  END
$$$$

 Created by Python create_sdf_string function

 29 32  0  0  0  0  0  0  0  0999 V2000
    5.4450    8.7154   22.6662 C   0  0  0  0  0  0  0  0  0  0  0  0
   10.9154    5.4574   20.5483 C   0  0  0  0  0  0  0  0  0  0  0  0
    7.2709    4.5089   22.7542 C   0  0  0  0  0  0  0  0  0  0  0  0
    5.9698    7.6329   24.6581 C   0  0  0  0  0  0  0  0  0  0  0  0
    4.5542    8.9057   21.7104 O   0  0  0  0  0  0  0  0  0  0  0  0
    6.9895    3.2085   23.0690 C   0  0  0  0  0  0  0  0  0  0  0  0
    7.8391    2.2253   22.7260 N   0  0  0  0  0  0  0  0  0  0  0  0
    8.6968    9.8373   23.6359 C   0  0  0  0  0  0  0  0  0  0  0  0
   12.5135    6.5957   21.8396 C   0  0  0  0  0  0  0  0  0  0  0  0
   10.9406    8.2330   21.1350 C   0  0  0  0  0  0  0  0  0  0  0  0
    9.6648    8.5956   21.7310 C   0  0  0  0  0  0  0  0  0  0  0  0
   10.8829    1.7153   20.9865 C   0  0  0  0  0  0  0  0  0  0  0  0
    5.7768    2.8533   23.7910 C   0  0  0  0  0  0  0  0  0  0  0  0
    9.7977    1.4791   21.6912 N   0  0  0  0  0  0  0  0  0  0  0  0
    6.5976    9.3401   22.6478 N   0  0  0  0  0  0  0  0  0  0  0  0
   11.2031    3.0042   20.6246 C   0  0  0  0  0  0  0  0  0  0  0  0
   12.8688    7.7370   22.7287 C   0  0  0  0  0  0  0  0  0  0  0  0
    7.4487    9.1361   23.6506 C   0  0  0  0  0  0  0  0  0  0  0  0
    8.9772    2.5025   22.0273 C   0  0  0  0  0  0  0  0  0  0  0  0
   10.4859    4.0901   20.9730 C   0  0  0  0  0  0  0  0  0  0  0  0
   11.0962    9.3293   23.5072 C   0  0  0  0  0  0  0  0  0  0  0  0
    5.1273    7.8529   23.6208 N   0  0  0  0  0  0  0  0  0  0  0  0
    9.7552    9.2338   23.0171 N   0  0  0  0  0  0  0  0  0  0  0  0
   11.1797    6.7591   21.3326 N   0  0  0  0  0  0  0  0  0  0  0  0
   11.7728    8.0337   23.7267 C   0  0  0  0  0  0  0  0  0  0  0  0
    7.1194    8.3344   24.6775 C   0  0  0  0  0  0  0  0  0  0  0  0
    8.4311    4.7963   22.0500 C   0  0  0  0  0  0  0  0  0  0  0  0
    8.7393   10.8706   24.1871 O   0  0  0  0  0  0  0  0  0  0  0  0
    9.3093    3.8166   21.6712 C   0  0  0  0  0  0  0  0  0  0  0  0
  1  5  1  0
  1 15  4  0
  1 22  4  0
  2 20  1  0
  2 24  1  0
  3  6  4  0
  3 27  4  0
  4 22  4  0
  4 26  4  0
  6  7  4  0
  6 13  1  0
  7 19  4  0
  8 18  1  0
  8 23  1  0
  8 28  2  0
  9 17  1  0
  9 24  1  0
 10 11  1  0
 10 24  1  0
 11 23  1  0
 12 14  4  0
 12 16  4  0
 14 19  4  0
 15 18  4  0
 16 20  4  0
 17 25  1  0
 18 26  4  0
 19 29  4  0
 20 29  4  0
 21 23  1  0
 21 25  1  0
 27 29  4  0
M  END
$$$$

 Created by Python create_sdf_string function

 29 32  0  0  0  0  0  0  0  0999 V2000
    5.4450    8.7154   22.6662 C   0  0  0  0  0  0  0  0  0  0  0  0
   10.9154    5.4574   20.5483 C   0  0  0  0  0  0  0  0  0  0  0  0
    7.2709    4.5089   22.7542 C   0  0  0  0  0  0  0  0  0  0  0  0
    5.9698    7.6329   24.6581 C   0  0  0  0  0  0  0  0  0  0  0  0
    4.5542    8.9057   21.7104 O   0  0  0  0  0  0  0  0  0  0  0  0
    6.9895    3.2085   23.0690 C   0  0  0  0  0  0  0  0  0  0  0  0
    7.8391    2.2253   22.7260 N   0  0  0  0  0  0  0  0  0  0  0  0
    8.6968    9.8373   23.6359 C   0  0  0  0  0  0  0  0  0  0  0  0
   12.5135    6.5957   21.8396 C   0  0  0  0  0  0  0  0  0  0  0  0
   10.9406    8.2330   21.1350 C   0  0  0  0  0  0  0  0  0  0  0  0
    9.6648    8.5956   21.7310 C   0  0  0  0  0  0  0  0  0  0  0  0
   10.8829    1.7153   20.9865 C   0  0  0  0  0  0  0  0  0  0  0  0
    5.7768    2.8533   23.7910 C   0  0  0  0  0  0  0  0  0  0  0  0
    9.7977    1.4791   21.6912 N   0  0  0  0  0  0  0  0  0  0  0  0
    6.5976    9.3401   22.6478 N   0  0  0  0  0  0  0  0  0  0  0  0
   11.2031    3.0042   20.6246 C   0  0  0  0  0  0  0  0  0  0  0  0
   12.8688    7.7370   22.7287 C   0  0  0  0  0  0  0  0  0  0  0  0
    7.4487    9.1361   23.6506 C   0  0  0  0  0  0  0  0  0  0  0  0
    8.9772    2.5025   22.0273 C   0  0  0  0  0  0  0  0  0  0  0  0
   10.4859    4.0901   20.9730 C   0  0  0  0  0  0  0  0  0  0  0  0
   11.0962    9.3293   23.5072 C   0  0  0  0  0  0  0  0  0  0  0  0
    5.1273    7.8529   23.6208 N   0  0  0  0  0  0  0  0  0  0  0  0
    9.7552    9.2338   23.0171 N   0  0  0  0  0  0  0  0  0  0  0  0
   11.1797    6.7591   21.3326 N   0  0  0  0  0  0  0  0  0  0  0  0
   11.7728    8.0337   23.7267 C   0  0  0  0  0  0  0  0  0  0  0  0
    7.1194    8.3344   24.6775 C   0  0  0  0  0  0  0  0  0  0  0  0
    8.4311    4.7963   22.0500 C   0  0  0  0  0  0  0  0  0  0  0  0
    8.7393   10.8706   24.1871 O   0  0  0  0  0  0  0  0  0  0  0  0
    9.3093    3.8166   21.6712 C   0  0  0  0  0  0  0  0  0  0  0  0
  1  5  1  0
  1 15  4  0
  1 22  4  0
  2 20  1  0
  2 24  1  0
  3  6  4  0
  3 27  4  0
  4 22  4  0
  4 26  4  0
  6  7  4  0
  6 13  1  0
  7 19  4  0
  8 18  1  0
  8 23  1  0
  8 28  2  0
  9 17  1  0
  9 24  1  0
 10 11  1  0
 10 24  1  0
 11 23  1  0
 12 14  4  0
 12 16  4  0
 14 19  4  0
 15 18  4  0
 16 20  4  0
 17 25  1  0
 18 26  4  0
 19 29  4  0
 20 29  4  0
 21 23  1  0
 21 25  1  0
 27 29  4  0
M  END
$$$$

 Created by Python create_sdf_string function

 29 32  0  0  0  0  0  0  0  0999 V2000
    5.4450    8.7154   22.6662 C   0  0  0  0  0  0  0  0  0  0  0  0
   10.9154    5.4574   20.5483 C   0  0  0  0  0  0  0  0  0  0  0  0
    7.2709    4.5089   22.7542 C   0  0  0  0  0  0  0  0  0  0  0  0
    5.9698    7.6329   24.6581 C   0  0  0  0  0  0  0  0  0  0  0  0
    4.5542    8.9057   21.7104 O   0  0  0  0  0  0  0  0  0  0  0  0
    6.9895    3.2085   23.0690 C   0  0  0  0  0  0  0  0  0  0  0  0
    7.8391    2.2253   22.7260 N   0  0  0  0  0  0  0  0  0  0  0  0
    8.6968    9.8373   23.6359 C   0  0  0  0  0  0  0  0  0  0  0  0
   12.5135    6.5957   21.8396 C   0  0  0  0  0  0  0  0  0  0  0  0
   10.9406    8.2330   21.1350 C   0  0  0  0  0  0  0  0  0  0  0  0
    9.6648    8.5956   21.7310 C   0  0  0  0  0  0  0  0  0  0  0  0
   10.8829    1.7153   20.9865 C   0  0  0  0  0  0  0  0  0  0  0  0
    5.7768    2.8533   23.7910 C   0  0  0  0  0  0  0  0  0  0  0  0
    9.7977    1.4791   21.6912 N   0  0  0  0  0  0  0  0  0  0  0  0
    6.5976    9.3401   22.6478 N   0  0  0  0  0  0  0  0  0  0  0  0
   11.2031    3.0042   20.6246 C   0  0  0  0  0  0  0  0  0  0  0  0
   12.8688    7.7370   22.7287 C   0  0  0  0  0  0  0  0  0  0  0  0
    7.4487    9.1361   23.6506 C   0  0  0  0  0  0  0  0  0  0  0  0
    8.9772    2.5025   22.0273 C   0  0  0  0  0  0  0  0  0  0  0  0
   10.4859    4.0901   20.9730 C   0  0  0  0  0  0  0  0  0  0  0  0
   11.0962    9.3293   23.5072 C   0  0  0  0  0  0  0  0  0  0  0  0
    5.1273    7.8529   23.6208 N   0  0  0  0  0  0  0  0  0  0  0  0
    9.7552    9.2338   23.0171 N   0  0  0  0  0  0  0  0  0  0  0  0
   11.1797    6.7591   21.3326 N   0  0  0  0  0  0  0  0  0  0  0  0
   11.7728    8.0337   23.7267 C   0  0  0  0  0  0  0  0  0  0  0  0
    7.1194    8.3344   24.6775 C   0  0  0  0  0  0  0  0  0  0  0  0
    8.4311    4.7963   22.0500 C   0  0  0  0  0  0  0  0  0  0  0  0
    8.7393   10.8706   24.1871 O   0  0  0  0  0  0  0  0  0  0  0  0
    9.3093    3.8166   21.6712 C   0  0  0  0  0  0  0  0  0  0  0  0
  1  5  1  0
  1 15  4  0
  1 22  4  0
  2 20  1  0
  2 24  1  0
  3  6  4  0
  3 27  4  0
  4 22  4  0
  4 26  4  0
  6  7  4  0
  6 13  1  0
  7 19  4  0
  8 18  1  0
  8 23  1  0
  8 28  2  0
  9 17  1  0
  9 24  1  0
 10 11  1  0
 10 24  1  0
 11 23  1  0
 12 14  4  0
 12 16  4  0
 14 19  4  0
 15 18  4  0
 16 20  4  0
 17 25  1  0
 18 26  4  0
 19 29  4  0
 20 29  4  0
 21 23  1  0
 21 25  1  0
 27 29  4  0
M  END
$$$$

 Created by Python create_sdf_string function

 29 32  0  0  0  0  0  0  0  0999 V2000
    5.4450    8.7154   22.6662 C   0  0  0  0  0  0  0  0  0  0  0  0
   10.9154    5.4574   20.5483 C   0  0  0  0  0  0  0  0  0  0  0  0
    7.2709    4.5089   22.7542 C   0  0  0  0  0  0  0  0  0  0  0  0
    5.9698    7.6329   24.6581 C   0  0  0  0  0  0  0  0  0  0  0  0
    4.5542    8.9057   21.7104 O   0  0  0  0  0  0  0  0  0  0  0  0
    6.9895    3.2085   23.0690 C   0  0  0  0  0  0  0  0  0  0  0  0
    7.8391    2.2253   22.7260 N   0  0  0  0  0  0  0  0  0  0  0  0
    8.6968    9.8373   23.6359 C   0  0  0  0  0  0  0  0  0  0  0  0
   12.5135    6.5957   21.8396 C   0  0  0  0  0  0  0  0  0  0  0  0
   10.9406    8.2330   21.1350 C   0  0  0  0  0  0  0  0  0  0  0  0
    9.6648    8.5956   21.7310 C   0  0  0  0  0  0  0  0  0  0  0  0
   10.8829    1.7153   20.9865 C   0  0  0  0  0  0  0  0  0  0  0  0
    5.7768    2.8533   23.7910 C   0  0  0  0  0  0  0  0  0  0  0  0
    9.7977    1.4791   21.6912 N   0  0  0  0  0  0  0  0  0  0  0  0
    6.5976    9.3401   22.6478 N   0  0  0  0  0  0  0  0  0  0  0  0
   11.2031    3.0042   20.6246 C   0  0  0  0  0  0  0  0  0  0  0  0
   12.8688    7.7370   22.7287 C   0  0  0  0  0  0  0  0  0  0  0  0
    7.4487    9.1361   23.6506 C   0  0  0  0  0  0  0  0  0  0  0  0
    8.9772    2.5025   22.0273 C   0  0  0  0  0  0  0  0  0  0  0  0
   10.4859    4.0901   20.9730 C   0  0  0  0  0  0  0  0  0  0  0  0
   11.0962    9.3293   23.5072 C   0  0  0  0  0  0  0  0  0  0  0  0
    5.1273    7.8529   23.6208 N   0  0  0  0  0  0  0  0  0  0  0  0
    9.7552    9.2338   23.0171 N   0  0  0  0  0  0  0  0  0  0  0  0
   11.1797    6.7591   21.3326 N   0  0  0  0  0  0  0  0  0  0  0  0
   11.7728    8.0337   23.7267 C   0  0  0  0  0  0  0  0  0  0  0  0
    7.1194    8.3344   24.6775 C   0  0  0  0  0  0  0  0  0  0  0  0
    8.4311    4.7963   22.0500 C   0  0  0  0  0  0  0  0  0  0  0  0
    8.7393   10.8706   24.1871 O   0  0  0  0  0  0  0  0  0  0  0  0
    9.3093    3.8166   21.6712 C   0  0  0  0  0  0  0  0  0  0  0  0
  1  5  1  0
  1 15  4  0
  1 22  4  0
  2 20  1  0
  2 24  1  0
  3  6  4  0
  3 27  4  0
  4 22  4  0
  4 26  4  0
  6  7  4  0
  6 13  1  0
  7 19  4  0
  8 18  1  0
  8 23  1  0
  8 28  2  0
  9 17  1  0
  9 24  1  0
 10 11  1  0
 10 24  1  0
 11 23  1  0
 12 14  4  0
 12 16  4  0
 14 19  4  0
 15 18  4  0
 16 20  4  0
 17 25  1  0
 18 26  4  0
 19 29  4  0
 20 29  4  0
 21 23  1  0
 21 25  1  0
 27 29  4  0
M  END
$$$$

 Created by Python create_sdf_string function

 29 32  0  0  0  0  0  0  0  0999 V2000
    5.4450    8.7154   22.6662 C   0  0  0  0  0  0  0  0  0  0  0  0
   10.9154    5.4574   20.5483 C   0  0  0  0  0  0  0  0  0  0  0  0
    7.2709    4.5089   22.7542 C   0  0  0  0  0  0  0  0  0  0  0  0
    5.9698    7.6329   24.6581 C   0  0  0  0  0  0  0  0  0  0  0  0
    4.5542    8.9057   21.7104 O   0  0  0  0  0  0  0  0  0  0  0  0
    6.9895    3.2085   23.0690 C   0  0  0  0  0  0  0  0  0  0  0  0
    7.8391    2.2253   22.7260 N   0  0  0  0  0  0  0  0  0  0  0  0
    8.6968    9.8373   23.6359 C   0  0  0  0  0  0  0  0  0  0  0  0
   12.5135    6.5957   21.8396 C   0  0  0  0  0  0  0  0  0  0  0  0
   10.9406    8.2330   21.1350 C   0  0  0  0  0  0  0  0  0  0  0  0
    9.6648    8.5956   21.7310 C   0  0  0  0  0  0  0  0  0  0  0  0
   10.8829    1.7153   20.9865 C   0  0  0  0  0  0  0  0  0  0  0  0
    5.7768    2.8533   23.7910 C   0  0  0  0  0  0  0  0  0  0  0  0
    9.7977    1.4791   21.6912 N   0  0  0  0  0  0  0  0  0  0  0  0
    6.5976    9.3401   22.6478 N   0  0  0  0  0  0  0  0  0  0  0  0
   11.2031    3.0042   20.6246 C   0  0  0  0  0  0  0  0  0  0  0  0
   12.8688    7.7370   22.7287 C   0  0  0  0  0  0  0  0  0  0  0  0
    7.4487    9.1361   23.6506 C   0  0  0  0  0  0  0  0  0  0  0  0
    8.9772    2.5025   22.0273 C   0  0  0  0  0  0  0  0  0  0  0  0
   10.4859    4.0901   20.9730 C   0  0  0  0  0  0  0  0  0  0  0  0
   11.0962    9.3293   23.5072 C   0  0  0  0  0  0  0  0  0  0  0  0
    5.1273    7.8529   23.6208 N   0  0  0  0  0  0  0  0  0  0  0  0
    9.7552    9.2338   23.0171 N   0  0  0  0  0  0  0  0  0  0  0  0
   11.1797    6.7591   21.3326 N   0  0  0  0  0  0  0  0  0  0  0  0
   11.7728    8.0337   23.7267 C   0  0  0  0  0  0  0  0  0  0  0  0
    7.1194    8.3344   24.6775 C   0  0  0  0  0  0  0  0  0  0  0  0
    8.4311    4.7963   22.0500 C   0  0  0  0  0  0  0  0  0  0  0  0
    8.7393   10.8706   24.1871 O   0  0  0  0  0  0  0  0  0  0  0  0
    9.3093    3.8166   21.6712 C   0  0  0  0  0  0  0  0  0  0  0  0
  1  5  1  0
  1 15  4  0
  1 22  4  0
  2 20  1  0
  2 24  1  0
  3  6  4  0
  3 27  4  0
  4 22  4  0
  4 26  4  0
  6  7  4  0
  6 13  1  0
  7 19  4  0
  8 18  1  0
  8 23  1  0
  8 28  2  0
  9 17  1  0
  9 24  1  0
 10 11  1  0
 10 24  1  0
 11 23  1  0
 12 14  4  0
 12 16  4  0
 14 19  4  0
 15 18  4  0
 16 20  4  0
 17 25  1  0
 18 26  4  0
 19 29  4  0
 20 29  4  0
 21 23  1  0
 21 25  1  0
 27 29  4  0
M  END
$$$$

 Created by Python create_sdf_string function

 29 32  0  0  0  0  0  0  0  0999 V2000
    5.4450    8.7154   22.6662 C   0  0  0  0  0  0  0  0  0  0  0  0
   10.9154    5.4574   20.5483 C   0  0  0  0  0  0  0  0  0  0  0  0
    7.2709    4.5089   22.7542 C   0  0  0  0  0  0  0  0  0  0  0  0
    5.9698    7.6329   24.6581 C   0  0  0  0  0  0  0  0  0  0  0  0
    4.5542    8.9057   21.7104 O   0  0  0  0  0  0  0  0  0  0  0  0
    6.9895    3.2085   23.0690 C   0  0  0  0  0  0  0  0  0  0  0  0
    7.8391    2.2253   22.7260 N   0  0  0  0  0  0  0  0  0  0  0  0
    8.6968    9.8373   23.6359 C   0  0  0  0  0  0  0  0  0  0  0  0
   12.5135    6.5957   21.8396 C   0  0  0  0  0  0  0  0  0  0  0  0
   10.9406    8.2330   21.1350 C   0  0  0  0  0  0  0  0  0  0  0  0
    9.6648    8.5956   21.7310 C   0  0  0  0  0  0  0  0  0  0  0  0
   10.8829    1.7153   20.9865 C   0  0  0  0  0  0  0  0  0  0  0  0
    5.7768    2.8533   23.7910 C   0  0  0  0  0  0  0  0  0  0  0  0
    9.7977    1.4791   21.6912 N   0  0  0  0  0  0  0  0  0  0  0  0
    6.5976    9.3401   22.6478 N   0  0  0  0  0  0  0  0  0  0  0  0
   11.2031    3.0042   20.6246 C   0  0  0  0  0  0  0  0  0  0  0  0
   12.8688    7.7370   22.7287 C   0  0  0  0  0  0  0  0  0  0  0  0
    7.4487    9.1361   23.6506 C   0  0  0  0  0  0  0  0  0  0  0  0
    8.9772    2.5025   22.0273 C   0  0  0  0  0  0  0  0  0  0  0  0
   10.4859    4.0901   20.9730 C   0  0  0  0  0  0  0  0  0  0  0  0
   11.0962    9.3293   23.5072 C   0  0  0  0  0  0  0  0  0  0  0  0
    5.1273    7.8529   23.6208 N   0  0  0  0  0  0  0  0  0  0  0  0
    9.7552    9.2338   23.0171 N   0  0  0  0  0  0  0  0  0  0  0  0
   11.1797    6.7591   21.3326 N   0  0  0  0  0  0  0  0  0  0  0  0
   11.7728    8.0337   23.7267 C   0  0  0  0  0  0  0  0  0  0  0  0
    7.1194    8.3344   24.6775 C   0  0  0  0  0  0  0  0  0  0  0  0
    8.4311    4.7963   22.0500 C   0  0  0  0  0  0  0  0  0  0  0  0
    8.7393   10.8706   24.1871 O   0  0  0  0  0  0  0  0  0  0  0  0
    9.3093    3.8166   21.6712 C   0  0  0  0  0  0  0  0  0  0  0  0
  1  5  1  0
  1 15  4  0
  1 22  4  0
  2 20  1  0
  2 24  1  0
  3  6  4  0
  3 27  4  0
  4 22  4  0
  4 26  4  0
  6  7  4  0
  6 13  1  0
  7 19  4  0
  8 18  1  0
  8 23  1  0
  8 28  2  0
  9 17  1  0
  9 24  1  0
 10 11  1  0
 10 24  1  0
 11 23  1  0
 12 14  4  0
 12 16  4  0
 14 19  4  0
 15 18  4  0
 16 20  4  0
 17 25  1  0
 18 26  4  0
 19 29  4  0
 20 29  4  0
 21 23  1  0
 21 25  1  0
 27 29  4  0
M  END
$$$$

 Created by Python create_sdf_string function

 29 32  0  0  0  0  0  0  0  0999 V2000
    5.4450    8.7154   22.6662 C   0  0  0  0  0  0  0  0  0  0  0  0
   10.9154    5.4574   20.5483 C   0  0  0  0  0  0  0  0  0  0  0  0
    7.2709    4.5089   22.7542 C   0  0  0  0  0  0  0  0  0  0  0  0
    5.9698    7.6329   24.6581 C   0  0  0  0  0  0  0  0  0  0  0  0
    4.5542    8.9057   21.7104 O   0  0  0  0  0  0  0  0  0  0  0  0
    6.9895    3.2085   23.0690 C   0  0  0  0  0  0  0  0  0  0  0  0
    7.8391    2.2253   22.7260 N   0  0  0  0  0  0  0  0  0  0  0  0
    8.6968    9.8373   23.6359 C   0  0  0  0  0  0  0  0  0  0  0  0
   12.5135    6.5957   21.8396 C   0  0  0  0  0  0  0  0  0  0  0  0
   10.9406    8.2330   21.1350 C   0  0  0  0  0  0  0  0  0  0  0  0
    9.6648    8.5956   21.7310 C   0  0  0  0  0  0  0  0  0  0  0  0
   10.8829    1.7153   20.9865 C   0  0  0  0  0  0  0  0  0  0  0  0
    5.7768    2.8533   23.7910 C   0  0  0  0  0  0  0  0  0  0  0  0
    9.7977    1.4791   21.6912 N   0  0  0  0  0  0  0  0  0  0  0  0
    6.5976    9.3401   22.6478 N   0  0  0  0  0  0  0  0  0  0  0  0
   11.2031    3.0042   20.6246 C   0  0  0  0  0  0  0  0  0  0  0  0
   12.8688    7.7370   22.7287 C   0  0  0  0  0  0  0  0  0  0  0  0
    7.4487    9.1361   23.6506 C   0  0  0  0  0  0  0  0  0  0  0  0
    8.9772    2.5025   22.0273 C   0  0  0  0  0  0  0  0  0  0  0  0
   10.4859    4.0901   20.9730 C   0  0  0  0  0  0  0  0  0  0  0  0
   11.0962    9.3293   23.5072 C   0  0  0  0  0  0  0  0  0  0  0  0
    5.1273    7.8529   23.6208 N   0  0  0  0  0  0  0  0  0  0  0  0
    9.7552    9.2338   23.0171 N   0  0  0  0  0  0  0  0  0  0  0  0
   11.1797    6.7591   21.3326 N   0  0  0  0  0  0  0  0  0  0  0  0
   11.7728    8.0337   23.7267 C   0  0  0  0  0  0  0  0  0  0  0  0
    7.1194    8.3344   24.6775 C   0  0  0  0  0  0  0  0  0  0  0  0
    8.4311    4.7963   22.0500 C   0  0  0  0  0  0  0  0  0  0  0  0
    8.7393   10.8706   24.1871 O   0  0  0  0  0  0  0  0  0  0  0  0
    9.3093    3.8166   21.6712 C   0  0  0  0  0  0  0  0  0  0  0  0
  1  5  1  0
  1 15  4  0
  1 22  4  0
  2 20  1  0
  2 24  1  0
  3  6  4  0
  3 27  4  0
  4 22  4  0
  4 26  4  0
  6  7  4  0
  6 13  1  0
  7 19  4  0
  8 18  1  0
  8 23  1  0
  8 28  2  0
  9 17  1  0
  9 24  1  0
 10 11  1  0
 10 24  1  0
 11 23  1  0
 12 14  4  0
 12 16  4  0
 14 19  4  0
 15 18  4  0
 16 20  4  0
 17 25  1  0
 18 26  4  0
 19 29  4  0
 20 29  4  0
 21 23  1  0
 21 25  1  0
 27 29  4  0
M  END
$$$$

 Created by Python create_sdf_string function

 29 32  0  0  0  0  0  0  0  0999 V2000
    5.4450    8.7154   22.6662 C   0  0  0  0  0  0  0  0  0  0  0  0
   10.9154    5.4574   20.5483 C   0  0  0  0  0  0  0  0  0  0  0  0
    7.2709    4.5089   22.7542 C   0  0  0  0  0  0  0  0  0  0  0  0
    5.9698    7.6329   24.6581 C   0  0  0  0  0  0  0  0  0  0  0  0
    4.5542    8.9057   21.7104 O   0  0  0  0  0  0  0  0  0  0  0  0
    6.9895    3.2085   23.0690 C   0  0  0  0  0  0  0  0  0  0  0  0
    7.8391    2.2253   22.7260 N   0  0  0  0  0  0  0  0  0  0  0  0
    8.6968    9.8373   23.6359 C   0  0  0  0  0  0  0  0  0  0  0  0
   12.5135    6.5957   21.8396 C   0  0  0  0  0  0  0  0  0  0  0  0
   10.9406    8.2330   21.1350 C   0  0  0  0  0  0  0  0  0  0  0  0
    9.6648    8.5956   21.7310 C   0  0  0  0  0  0  0  0  0  0  0  0
   10.8829    1.7153   20.9865 C   0  0  0  0  0  0  0  0  0  0  0  0
    5.7768    2.8533   23.7910 C   0  0  0  0  0  0  0  0  0  0  0  0
    9.7977    1.4791   21.6912 N   0  0  0  0  0  0  0  0  0  0  0  0
    6.5976    9.3401   22.6478 N   0  0  0  0  0  0  0  0  0  0  0  0
   11.2031    3.0042   20.6246 C   0  0  0  0  0  0  0  0  0  0  0  0
   12.8688    7.7370   22.7287 C   0  0  0  0  0  0  0  0  0  0  0  0
    7.4487    9.1361   23.6506 C   0  0  0  0  0  0  0  0  0  0  0  0
    8.9772    2.5025   22.0273 C   0  0  0  0  0  0  0  0  0  0  0  0
   10.4859    4.0901   20.9730 C   0  0  0  0  0  0  0  0  0  0  0  0
   11.0962    9.3293   23.5072 C   0  0  0  0  0  0  0  0  0  0  0  0
    5.1273    7.8529   23.6208 N   0  0  0  0  0  0  0  0  0  0  0  0
    9.7552    9.2338   23.0171 N   0  0  0  0  0  0  0  0  0  0  0  0
   11.1797    6.7591   21.3326 N   0  0  0  0  0  0  0  0  0  0  0  0
   11.7728    8.0337   23.7267 C   0  0  0  0  0  0  0  0  0  0  0  0
    7.1194    8.3344   24.6775 C   0  0  0  0  0  0  0  0  0  0  0  0
    8.4311    4.7963   22.0500 C   0  0  0  0  0  0  0  0  0  0  0  0
    8.7393   10.8706   24.1871 O   0  0  0  0  0  0  0  0  0  0  0  0
    9.3093    3.8166   21.6712 C   0  0  0  0  0  0  0  0  0  0  0  0
  1  5  1  0
  1 15  4  0
  1 22  4  0
  2 20  1  0
  2 24  1  0
  3  6  4  0
  3 27  4  0
  4 22  4  0
  4 26  4  0
  6  7  4  0
  6 13  1  0
  7 19  4  0
  8 18  1  0
  8 23  1  0
  8 28  2  0
  9 17  1  0
  9 24  1  0
 10 11  1  0
 10 24  1  0
 11 23  1  0
 12 14  4  0
 12 16  4  0
 14 19  4  0
 15 18  4  0
 16 20  4  0
 17 25  1  0
 18 26  4  0
 19 29  4  0
 20 29  4  0
 21 23  1  0
 21 25  1  0
 27 29  4  0
M  END
$$$$

 Created by Python create_sdf_string function

 29 32  0  0  0  0  0  0  0  0999 V2000
    5.4450    8.7154   22.6662 C   0  0  0  0  0  0  0  0  0  0  0  0
   10.9154    5.4574   20.5483 C   0  0  0  0  0  0  0  0  0  0  0  0
    7.2709    4.5089   22.7542 C   0  0  0  0  0  0  0  0  0  0  0  0
    5.9698    7.6329   24.6581 C   0  0  0  0  0  0  0  0  0  0  0  0
    4.5542    8.9057   21.7104 O   0  0  0  0  0  0  0  0  0  0  0  0
    6.9895    3.2085   23.0690 C   0  0  0  0  0  0  0  0  0  0  0  0
    7.8391    2.2253   22.7260 N   0  0  0  0  0  0  0  0  0  0  0  0
    8.6968    9.8373   23.6359 C   0  0  0  0  0  0  0  0  0  0  0  0
   12.5135    6.5957   21.8396 C   0  0  0  0  0  0  0  0  0  0  0  0
   10.9406    8.2330   21.1350 C   0  0  0  0  0  0  0  0  0  0  0  0
    9.6648    8.5956   21.7310 C   0  0  0  0  0  0  0  0  0  0  0  0
   10.8829    1.7153   20.9865 C   0  0  0  0  0  0  0  0  0  0  0  0
    5.7768    2.8533   23.7910 C   0  0  0  0  0  0  0  0  0  0  0  0
    9.7977    1.4791   21.6912 N   0  0  0  0  0  0  0  0  0  0  0  0
    6.5976    9.3401   22.6478 N   0  0  0  0  0  0  0  0  0  0  0  0
   11.2031    3.0042   20.6246 C   0  0  0  0  0  0  0  0  0  0  0  0
   12.8688    7.7370   22.7287 C   0  0  0  0  0  0  0  0  0  0  0  0
    7.4487    9.1361   23.6506 C   0  0  0  0  0  0  0  0  0  0  0  0
    8.9772    2.5025   22.0273 C   0  0  0  0  0  0  0  0  0  0  0  0
   10.4859    4.0901   20.9730 C   0  0  0  0  0  0  0  0  0  0  0  0
   11.0962    9.3293   23.5072 C   0  0  0  0  0  0  0  0  0  0  0  0
    5.1273    7.8529   23.6208 N   0  0  0  0  0  0  0  0  0  0  0  0
    9.7552    9.2338   23.0171 N   0  0  0  0  0  0  0  0  0  0  0  0
   11.1797    6.7591   21.3326 N   0  0  0  0  0  0  0  0  0  0  0  0
   11.7728    8.0337   23.7267 C   0  0  0  0  0  0  0  0  0  0  0  0
    7.1194    8.3344   24.6775 C   0  0  0  0  0  0  0  0  0  0  0  0
    8.4311    4.7963   22.0500 C   0  0  0  0  0  0  0  0  0  0  0  0
    8.7393   10.8706   24.1871 O   0  0  0  0  0  0  0  0  0  0  0  0
    9.3093    3.8166   21.6712 C   0  0  0  0  0  0  0  0  0  0  0  0
  1  5  1  0
  1 15  4  0
  1 22  4  0
  2 20  1  0
  2 24  1  0
  3  6  4  0
  3 27  4  0
  4 22  4  0
  4 26  4  0
  6  7  4  0
  6 13  1  0
  7 19  4  0
  8 18  1  0
  8 23  1  0
  8 28  2  0
  9 17  1  0
  9 24  1  0
 10 11  1  0
 10 24  1  0
 11 23  1  0
 12 14  4  0
 12 16  4  0
 14 19  4  0
 15 18  4  0
 16 20  4  0
 17 25  1  0
 18 26  4  0
 19 29  4  0
 20 29  4  0
 21 23  1  0
 21 25  1  0
 27 29  4  0
M  END
$$$$

 Created by Python create_sdf_string function

 29 32  0  0  0  0  0  0  0  0999 V2000
    5.4450    8.7154   22.6662 C   0  0  0  0  0  0  0  0  0  0  0  0
   10.9154    5.4574   20.5483 C   0  0  0  0  0  0  0  0  0  0  0  0
    7.2709    4.5089   22.7542 C   0  0  0  0  0  0  0  0  0  0  0  0
    5.9698    7.6329   24.6581 C   0  0  0  0  0  0  0  0  0  0  0  0
    4.5542    8.9057   21.7104 O   0  0  0  0  0  0  0  0  0  0  0  0
    6.9895    3.2085   23.0690 C   0  0  0  0  0  0  0  0  0  0  0  0
    7.8391    2.2253   22.7260 N   0  0  0  0  0  0  0  0  0  0  0  0
    8.6968    9.8373   23.6359 C   0  0  0  0  0  0  0  0  0  0  0  0
   12.5135    6.5957   21.8396 C   0  0  0  0  0  0  0  0  0  0  0  0
   10.9406    8.2330   21.1350 C   0  0  0  0  0  0  0  0  0  0  0  0
    9.6648    8.5956   21.7310 C   0  0  0  0  0  0  0  0  0  0  0  0
   10.8829    1.7153   20.9865 C   0  0  0  0  0  0  0  0  0  0  0  0
    5.7768    2.8533   23.7910 C   0  0  0  0  0  0  0  0  0  0  0  0
    9.7977    1.4791   21.6912 N   0  0  0  0  0  0  0  0  0  0  0  0
    6.5976    9.3401   22.6478 N   0  0  0  0  0  0  0  0  0  0  0  0
   11.2031    3.0042   20.6246 C   0  0  0  0  0  0  0  0  0  0  0  0
   12.8688    7.7370   22.7287 C   0  0  0  0  0  0  0  0  0  0  0  0
    7.4487    9.1361   23.6506 C   0  0  0  0  0  0  0  0  0  0  0  0
    8.9772    2.5025   22.0273 C   0  0  0  0  0  0  0  0  0  0  0  0
   10.4859    4.0901   20.9730 C   0  0  0  0  0  0  0  0  0  0  0  0
   11.0962    9.3293   23.5072 C   0  0  0  0  0  0  0  0  0  0  0  0
    5.1273    7.8529   23.6208 N   0  0  0  0  0  0  0  0  0  0  0  0
    9.7552    9.2338   23.0171 N   0  0  0  0  0  0  0  0  0  0  0  0
   11.1797    6.7591   21.3326 N   0  0  0  0  0  0  0  0  0  0  0  0
   11.7728    8.0337   23.7267 C   0  0  0  0  0  0  0  0  0  0  0  0
    7.1194    8.3344   24.6775 C   0  0  0  0  0  0  0  0  0  0  0  0
    8.4311    4.7963   22.0500 C   0  0  0  0  0  0  0  0  0  0  0  0
    8.7393   10.8706   24.1871 O   0  0  0  0  0  0  0  0  0  0  0  0
    9.3093    3.8166   21.6712 C   0  0  0  0  0  0  0  0  0  0  0  0
  1  5  1  0
  1 15  4  0
  1 22  4  0
  2 20  1  0
  2 24  1  0
  3  6  4  0
  3 27  4  0
  4 22  4  0
  4 26  4  0
  6  7  4  0
  6 13  1  0
  7 19  4  0
  8 18  1  0
  8 23  1  0
  8 28  2  0
  9 17  1  0
  9 24  1  0
 10 11  1  0
 10 24  1  0
 11 23  1  0
 12 14  4  0
 12 16  4  0
 14 19  4  0
 15 18  4  0
 16 20  4  0
 17 25  1  0
 18 26  4  0
 19 29  4  0
 20 29  4  0
 21 23  1  0
 21 25  1  0
 27 29  4  0
M  END
$$$$

 Created by Python create_sdf_string function

 29 32  0  0  0  0  0  0  0  0999 V2000
    5.4450    8.7154   22.6662 C   0  0  0  0  0  0  0  0  0  0  0  0
   10.9154    5.4574   20.5483 C   0  0  0  0  0  0  0  0  0  0  0  0
    7.2709    4.5089   22.7542 C   0  0  0  0  0  0  0  0  0  0  0  0
    5.9698    7.6329   24.6581 C   0  0  0  0  0  0  0  0  0  0  0  0
    4.5542    8.9057   21.7104 O   0  0  0  0  0  0  0  0  0  0  0  0
    6.9895    3.2085   23.0690 C   0  0  0  0  0  0  0  0  0  0  0  0
    7.8391    2.2253   22.7260 N   0  0  0  0  0  0  0  0  0  0  0  0
    8.6968    9.8373   23.6359 C   0  0  0  0  0  0  0  0  0  0  0  0
   12.5135    6.5957   21.8396 C   0  0  0  0  0  0  0  0  0  0  0  0
   10.9406    8.2330   21.1350 C   0  0  0  0  0  0  0  0  0  0  0  0
    9.6648    8.5956   21.7310 C   0  0  0  0  0  0  0  0  0  0  0  0
   10.8829    1.7153   20.9865 C   0  0  0  0  0  0  0  0  0  0  0  0
    5.7768    2.8533   23.7910 C   0  0  0  0  0  0  0  0  0  0  0  0
    9.7977    1.4791   21.6912 N   0  0  0  0  0  0  0  0  0  0  0  0
    6.5976    9.3401   22.6478 N   0  0  0  0  0  0  0  0  0  0  0  0
   11.2031    3.0042   20.6246 C   0  0  0  0  0  0  0  0  0  0  0  0
   12.8688    7.7370   22.7287 C   0  0  0  0  0  0  0  0  0  0  0  0
    7.4487    9.1361   23.6506 C   0  0  0  0  0  0  0  0  0  0  0  0
    8.9772    2.5025   22.0273 C   0  0  0  0  0  0  0  0  0  0  0  0
   10.4859    4.0901   20.9730 C   0  0  0  0  0  0  0  0  0  0  0  0
   11.0962    9.3293   23.5072 C   0  0  0  0  0  0  0  0  0  0  0  0
    5.1273    7.8529   23.6208 N   0  0  0  0  0  0  0  0  0  0  0  0
    9.7552    9.2338   23.0171 N   0  0  0  0  0  0  0  0  0  0  0  0
   11.1797    6.7591   21.3326 N   0  0  0  0  0  0  0  0  0  0  0  0
   11.7728    8.0337   23.7267 C   0  0  0  0  0  0  0  0  0  0  0  0
    7.1194    8.3344   24.6775 C   0  0  0  0  0  0  0  0  0  0  0  0
    8.4311    4.7963   22.0500 C   0  0  0  0  0  0  0  0  0  0  0  0
    8.7393   10.8706   24.1871 O   0  0  0  0  0  0  0  0  0  0  0  0
    9.3093    3.8166   21.6712 C   0  0  0  0  0  0  0  0  0  0  0  0
  1  5  1  0
  1 15  4  0
  1 22  4  0
  2 20  1  0
  2 24  1  0
  3  6  4  0
  3 27  4  0
  4 22  4  0
  4 26  4  0
  6  7  4  0
  6 13  1  0
  7 19  4  0
  8 18  1  0
  8 23  1  0
  8 28  2  0
  9 17  1  0
  9 24  1  0
 10 11  1  0
 10 24  1  0
 11 23  1  0
 12 14  4  0
 12 16  4  0
 14 19  4  0
 15 18  4  0
 16 20  4  0
 17 25  1  0
 18 26  4  0
 19 29  4  0
 20 29  4  0
 21 23  1  0
 21 25  1  0
 27 29  4  0
M  END
$$$$

 Created by Python create_sdf_string function

 29 32  0  0  0  0  0  0  0  0999 V2000
    5.4450    8.7154   22.6662 C   0  0  0  0  0  0  0  0  0  0  0  0
   10.9154    5.4574   20.5483 C   0  0  0  0  0  0  0  0  0  0  0  0
    7.2709    4.5089   22.7542 C   0  0  0  0  0  0  0  0  0  0  0  0
    5.9698    7.6329   24.6581 C   0  0  0  0  0  0  0  0  0  0  0  0
    4.5542    8.9057   21.7104 O   0  0  0  0  0  0  0  0  0  0  0  0
    6.9895    3.2085   23.0690 C   0  0  0  0  0  0  0  0  0  0  0  0
    7.8391    2.2253   22.7260 N   0  0  0  0  0  0  0  0  0  0  0  0
    8.6968    9.8373   23.6359 C   0  0  0  0  0  0  0  0  0  0  0  0
   12.5135    6.5957   21.8396 C   0  0  0  0  0  0  0  0  0  0  0  0
   10.9406    8.2330   21.1350 C   0  0  0  0  0  0  0  0  0  0  0  0
    9.6648    8.5956   21.7310 C   0  0  0  0  0  0  0  0  0  0  0  0
   10.8829    1.7153   20.9865 C   0  0  0  0  0  0  0  0  0  0  0  0
    5.7768    2.8533   23.7910 C   0  0  0  0  0  0  0  0  0  0  0  0
    9.7977    1.4791   21.6912 N   0  0  0  0  0  0  0  0  0  0  0  0
    6.5976    9.3401   22.6478 N   0  0  0  0  0  0  0  0  0  0  0  0
   11.2031    3.0042   20.6246 C   0  0  0  0  0  0  0  0  0  0  0  0
   12.8688    7.7370   22.7287 C   0  0  0  0  0  0  0  0  0  0  0  0
    7.4487    9.1361   23.6506 C   0  0  0  0  0  0  0  0  0  0  0  0
    8.9772    2.5025   22.0273 C   0  0  0  0  0  0  0  0  0  0  0  0
   10.4859    4.0901   20.9730 C   0  0  0  0  0  0  0  0  0  0  0  0
   11.0962    9.3293   23.5072 C   0  0  0  0  0  0  0  0  0  0  0  0
    5.1273    7.8529   23.6208 N   0  0  0  0  0  0  0  0  0  0  0  0
    9.7552    9.2338   23.0171 N   0  0  0  0  0  0  0  0  0  0  0  0
   11.1797    6.7591   21.3326 N   0  0  0  0  0  0  0  0  0  0  0  0
   11.7728    8.0337   23.7267 C   0  0  0  0  0  0  0  0  0  0  0  0
    7.1194    8.3344   24.6775 C   0  0  0  0  0  0  0  0  0  0  0  0
    8.4311    4.7963   22.0500 C   0  0  0  0  0  0  0  0  0  0  0  0
    8.7393   10.8706   24.1871 O   0  0  0  0  0  0  0  0  0  0  0  0
    9.3093    3.8166   21.6712 C   0  0  0  0  0  0  0  0  0  0  0  0
  1  5  1  0
  1 15  4  0
  1 22  4  0
  2 20  1  0
  2 24  1  0
  3  6  4  0
  3 27  4  0
  4 22  4  0
  4 26  4  0
  6  7  4  0
  6 13  1  0
  7 19  4  0
  8 18  1  0
  8 23  1  0
  8 28  2  0
  9 17  1  0
  9 24  1  0
 10 11  1  0
 10 24  1  0
 11 23  1  0
 12 14  4  0
 12 16  4  0
 14 19  4  0
 15 18  4  0
 16 20  4  0
 17 25  1  0
 18 26  4  0
 19 29  4  0
 20 29  4  0
 21 23  1  0
 21 25  1  0
 27 29  4  0
M  END
$$$$

 Created by Python create_sdf_string function

 29 32  0  0  0  0  0  0  0  0999 V2000
    5.4450    8.7154   22.6662 C   0  0  0  0  0  0  0  0  0  0  0  0
   10.9154    5.4574   20.5483 C   0  0  0  0  0  0  0  0  0  0  0  0
    7.2709    4.5089   22.7542 C   0  0  0  0  0  0  0  0  0  0  0  0
    5.9698    7.6329   24.6581 C   0  0  0  0  0  0  0  0  0  0  0  0
    4.5542    8.9057   21.7104 O   0  0  0  0  0  0  0  0  0  0  0  0
    6.9895    3.2085   23.0690 C   0  0  0  0  0  0  0  0  0  0  0  0
    7.8391    2.2253   22.7260 N   0  0  0  0  0  0  0  0  0  0  0  0
    8.6968    9.8373   23.6359 C   0  0  0  0  0  0  0  0  0  0  0  0
   12.5135    6.5957   21.8396 C   0  0  0  0  0  0  0  0  0  0  0  0
   10.9406    8.2330   21.1350 C   0  0  0  0  0  0  0  0  0  0  0  0
    9.6648    8.5956   21.7310 C   0  0  0  0  0  0  0  0  0  0  0  0
   10.8829    1.7153   20.9865 C   0  0  0  0  0  0  0  0  0  0  0  0
    5.7768    2.8533   23.7910 C   0  0  0  0  0  0  0  0  0  0  0  0
    9.7977    1.4791   21.6912 N   0  0  0  0  0  0  0  0  0  0  0  0
    6.5976    9.3401   22.6478 N   0  0  0  0  0  0  0  0  0  0  0  0
   11.2031    3.0042   20.6246 C   0  0  0  0  0  0  0  0  0  0  0  0
   12.8688    7.7370   22.7287 C   0  0  0  0  0  0  0  0  0  0  0  0
    7.4487    9.1361   23.6506 C   0  0  0  0  0  0  0  0  0  0  0  0
    8.9772    2.5025   22.0273 C   0  0  0  0  0  0  0  0  0  0  0  0
   10.4859    4.0901   20.9730 C   0  0  0  0  0  0  0  0  0  0  0  0
   11.0962    9.3293   23.5072 C   0  0  0  0  0  0  0  0  0  0  0  0
    5.1273    7.8529   23.6208 N   0  0  0  0  0  0  0  0  0  0  0  0
    9.7552    9.2338   23.0171 N   0  0  0  0  0  0  0  0  0  0  0  0
   11.1797    6.7591   21.3326 N   0  0  0  0  0  0  0  0  0  0  0  0
   11.7728    8.0337   23.7267 C   0  0  0  0  0  0  0  0  0  0  0  0
    7.1194    8.3344   24.6775 C   0  0  0  0  0  0  0  0  0  0  0  0
    8.4311    4.7963   22.0500 C   0  0  0  0  0  0  0  0  0  0  0  0
    8.7393   10.8706   24.1871 O   0  0  0  0  0  0  0  0  0  0  0  0
    9.3093    3.8166   21.6712 C   0  0  0  0  0  0  0  0  0  0  0  0
  1  5  1  0
  1 15  4  0
  1 22  4  0
  2 20  1  0
  2 24  1  0
  3  6  4  0
  3 27  4  0
  4 22  4  0
  4 26  4  0
  6  7  4  0
  6 13  1  0
  7 19  4  0
  8 18  1  0
  8 23  1  0
  8 28  2  0
  9 17  1  0
  9 24  1  0
 10 11  1  0
 10 24  1  0
 11 23  1  0
 12 14  4  0
 12 16  4  0
 14 19  4  0
 15 18  4  0
 16 20  4  0
 17 25  1  0
 18 26  4  0
 19 29  4  0
 20 29  4  0
 21 23  1  0
 21 25  1  0
 27 29  4  0
M  END
$$$$

 Created by Python create_sdf_string function

 29 32  0  0  0  0  0  0  0  0999 V2000
    5.4450    8.7154   22.6662 C   0  0  0  0  0  0  0  0  0  0  0  0
   10.9154    5.4574   20.5483 C   0  0  0  0  0  0  0  0  0  0  0  0
    7.2709    4.5089   22.7542 C   0  0  0  0  0  0  0  0  0  0  0  0
    5.9698    7.6329   24.6581 C   0  0  0  0  0  0  0  0  0  0  0  0
    4.5542    8.9057   21.7104 O   0  0  0  0  0  0  0  0  0  0  0  0
    6.9895    3.2085   23.0690 C   0  0  0  0  0  0  0  0  0  0  0  0
    7.8391    2.2253   22.7260 N   0  0  0  0  0  0  0  0  0  0  0  0
    8.6968    9.8373   23.6359 C   0  0  0  0  0  0  0  0  0  0  0  0
   12.5135    6.5957   21.8396 C   0  0  0  0  0  0  0  0  0  0  0  0
   10.9406    8.2330   21.1350 C   0  0  0  0  0  0  0  0  0  0  0  0
    9.6648    8.5956   21.7310 C   0  0  0  0  0  0  0  0  0  0  0  0
   10.8829    1.7153   20.9865 C   0  0  0  0  0  0  0  0  0  0  0  0
    5.7768    2.8533   23.7910 C   0  0  0  0  0  0  0  0  0  0  0  0
    9.7977    1.4791   21.6912 N   0  0  0  0  0  0  0  0  0  0  0  0
    6.5976    9.3401   22.6478 N   0  0  0  0  0  0  0  0  0  0  0  0
   11.2031    3.0042   20.6246 C   0  0  0  0  0  0  0  0  0  0  0  0
   12.8688    7.7370   22.7287 C   0  0  0  0  0  0  0  0  0  0  0  0
    7.4487    9.1361   23.6506 C   0  0  0  0  0  0  0  0  0  0  0  0
    8.9772    2.5025   22.0273 C   0  0  0  0  0  0  0  0  0  0  0  0
   10.4859    4.0901   20.9730 C   0  0  0  0  0  0  0  0  0  0  0  0
   11.0962    9.3293   23.5072 C   0  0  0  0  0  0  0  0  0  0  0  0
    5.1273    7.8529   23.6208 N   0  0  0  0  0  0  0  0  0  0  0  0
    9.7552    9.2338   23.0171 N   0  0  0  0  0  0  0  0  0  0  0  0
   11.1797    6.7591   21.3326 N   0  0  0  0  0  0  0  0  0  0  0  0
   11.7728    8.0337   23.7267 C   0  0  0  0  0  0  0  0  0  0  0  0
    7.1194    8.3344   24.6775 C   0  0  0  0  0  0  0  0  0  0  0  0
    8.4311    4.7963   22.0500 C   0  0  0  0  0  0  0  0  0  0  0  0
    8.7393   10.8706   24.1871 O   0  0  0  0  0  0  0  0  0  0  0  0
    9.3093    3.8166   21.6712 C   0  0  0  0  0  0  0  0  0  0  0  0
  1  5  1  0
  1 15  4  0
  1 22  4  0
  2 20  1  0
  2 24  1  0
  3  6  4  0
  3 27  4  0
  4 22  4  0
  4 26  4  0
  6  7  4  0
  6 13  1  0
  7 19  4  0
  8 18  1  0
  8 23  1  0
  8 28  2  0
  9 17  1  0
  9 24  1  0
 10 11  1  0
 10 24  1  0
 11 23  1  0
 12 14  4  0
 12 16  4  0
 14 19  4  0
 15 18  4  0
 16 20  4  0
 17 25  1  0
 18 26  4  0
 19 29  4  0
 20 29  4  0
 21 23  1  0
 21 25  1  0
 27 29  4  0
M  END
$$$$

 Created by Python create_sdf_string function

 29 32  0  0  0  0  0  0  0  0999 V2000
    5.4450    8.7154   22.6662 C   0  0  0  0  0  0  0  0  0  0  0  0
   10.9154    5.4574   20.5483 C   0  0  0  0  0  0  0  0  0  0  0  0
    7.2709    4.5089   22.7542 C   0  0  0  0  0  0  0  0  0  0  0  0
    5.9698    7.6329   24.6581 C   0  0  0  0  0  0  0  0  0  0  0  0
    4.5542    8.9057   21.7104 O   0  0  0  0  0  0  0  0  0  0  0  0
    6.9895    3.2085   23.0690 C   0  0  0  0  0  0  0  0  0  0  0  0
    7.8391    2.2253   22.7260 N   0  0  0  0  0  0  0  0  0  0  0  0
    8.6968    9.8373   23.6359 C   0  0  0  0  0  0  0  0  0  0  0  0
   12.5135    6.5957   21.8396 C   0  0  0  0  0  0  0  0  0  0  0  0
   10.9406    8.2330   21.1350 C   0  0  0  0  0  0  0  0  0  0  0  0
    9.6648    8.5956   21.7310 C   0  0  0  0  0  0  0  0  0  0  0  0
   10.8829    1.7153   20.9865 C   0  0  0  0  0  0  0  0  0  0  0  0
    5.7768    2.8533   23.7910 C   0  0  0  0  0  0  0  0  0  0  0  0
    9.7977    1.4791   21.6912 N   0  0  0  0  0  0  0  0  0  0  0  0
    6.5976    9.3401   22.6478 N   0  0  0  0  0  0  0  0  0  0  0  0
   11.2031    3.0042   20.6246 C   0  0  0  0  0  0  0  0  0  0  0  0
   12.8688    7.7370   22.7287 C   0  0  0  0  0  0  0  0  0  0  0  0
    7.4487    9.1361   23.6506 C   0  0  0  0  0  0  0  0  0  0  0  0
    8.9772    2.5025   22.0273 C   0  0  0  0  0  0  0  0  0  0  0  0
   10.4859    4.0901   20.9730 C   0  0  0  0  0  0  0  0  0  0  0  0
   11.0962    9.3293   23.5072 C   0  0  0  0  0  0  0  0  0  0  0  0
    5.1273    7.8529   23.6208 N   0  0  0  0  0  0  0  0  0  0  0  0
    9.7552    9.2338   23.0171 N   0  0  0  0  0  0  0  0  0  0  0  0
   11.1797    6.7591   21.3326 N   0  0  0  0  0  0  0  0  0  0  0  0
   11.7728    8.0337   23.7267 C   0  0  0  0  0  0  0  0  0  0  0  0
    7.1194    8.3344   24.6775 C   0  0  0  0  0  0  0  0  0  0  0  0
    8.4311    4.7963   22.0500 C   0  0  0  0  0  0  0  0  0  0  0  0
    8.7393   10.8706   24.1871 O   0  0  0  0  0  0  0  0  0  0  0  0
    9.3093    3.8166   21.6712 C   0  0  0  0  0  0  0  0  0  0  0  0
  1  5  1  0
  1 15  4  0
  1 22  4  0
  2 20  1  0
  2 24  1  0
  3  6  4  0
  3 27  4  0
  4 22  4  0
  4 26  4  0
  6  7  4  0
  6 13  1  0
  7 19  4  0
  8 18  1  0
  8 23  1  0
  8 28  2  0
  9 17  1  0
  9 24  1  0
 10 11  1  0
 10 24  1  0
 11 23  1  0
 12 14  4  0
 12 16  4  0
 14 19  4  0
 15 18  4  0
 16 20  4  0
 17 25  1  0
 18 26  4  0
 19 29  4  0
 20 29  4  0
 21 23  1  0
 21 25  1  0
 27 29  4  0
M  END
$$$$

 Created by Python create_sdf_string function

 29 32  0  0  0  0  0  0  0  0999 V2000
    5.4450    8.7154   22.6662 C   0  0  0  0  0  0  0  0  0  0  0  0
   10.9154    5.4574   20.5483 C   0  0  0  0  0  0  0  0  0  0  0  0
    7.2709    4.5089   22.7542 C   0  0  0  0  0  0  0  0  0  0  0  0
    5.9698    7.6329   24.6581 C   0  0  0  0  0  0  0  0  0  0  0  0
    4.5542    8.9057   21.7104 O   0  0  0  0  0  0  0  0  0  0  0  0
    6.9895    3.2085   23.0690 C   0  0  0  0  0  0  0  0  0  0  0  0
    7.8391    2.2253   22.7260 N   0  0  0  0  0  0  0  0  0  0  0  0
    8.6968    9.8373   23.6359 C   0  0  0  0  0  0  0  0  0  0  0  0
   12.5135    6.5957   21.8396 C   0  0  0  0  0  0  0  0  0  0  0  0
   10.9406    8.2330   21.1350 C   0  0  0  0  0  0  0  0  0  0  0  0
    9.6648    8.5956   21.7310 C   0  0  0  0  0  0  0  0  0  0  0  0
   10.8829    1.7153   20.9865 C   0  0  0  0  0  0  0  0  0  0  0  0
    5.7768    2.8533   23.7910 C   0  0  0  0  0  0  0  0  0  0  0  0
    9.7977    1.4791   21.6912 N   0  0  0  0  0  0  0  0  0  0  0  0
    6.5976    9.3401   22.6478 N   0  0  0  0  0  0  0  0  0  0  0  0
   11.2031    3.0042   20.6246 C   0  0  0  0  0  0  0  0  0  0  0  0
   12.8688    7.7370   22.7287 C   0  0  0  0  0  0  0  0  0  0  0  0
    7.4487    9.1361   23.6506 C   0  0  0  0  0  0  0  0  0  0  0  0
    8.9772    2.5025   22.0273 C   0  0  0  0  0  0  0  0  0  0  0  0
   10.4859    4.0901   20.9730 C   0  0  0  0  0  0  0  0  0  0  0  0
   11.0962    9.3293   23.5072 C   0  0  0  0  0  0  0  0  0  0  0  0
    5.1273    7.8529   23.6208 N   0  0  0  0  0  0  0  0  0  0  0  0
    9.7552    9.2338   23.0171 N   0  0  0  0  0  0  0  0  0  0  0  0
   11.1797    6.7591   21.3326 N   0  0  0  0  0  0  0  0  0  0  0  0
   11.7728    8.0337   23.7267 C   0  0  0  0  0  0  0  0  0  0  0  0
    7.1194    8.3344   24.6775 C   0  0  0  0  0  0  0  0  0  0  0  0
    8.4311    4.7963   22.0500 C   0  0  0  0  0  0  0  0  0  0  0  0
    8.7393   10.8706   24.1871 O   0  0  0  0  0  0  0  0  0  0  0  0
    9.3093    3.8166   21.6712 C   0  0  0  0  0  0  0  0  0  0  0  0
  1  5  1  0
  1 15  4  0
  1 22  4  0
  2 20  1  0
  2 24  1  0
  3  6  4  0
  3 27  4  0
  4 22  4  0
  4 26  4  0
  6  7  4  0
  6 13  1  0
  7 19  4  0
  8 18  1  0
  8 23  1  0
  8 28  2  0
  9 17  1  0
  9 24  1  0
 10 11  1  0
 10 24  1  0
 11 23  1  0
 12 14  4  0
 12 16  4  0
 14 19  4  0
 15 18  4  0
 16 20  4  0
 17 25  1  0
 18 26  4  0
 19 29  4  0
 20 29  4  0
 21 23  1  0
 21 25  1  0
 27 29  4  0
M  END
$$$$

 Created by Python create_sdf_string function

 29 32  0  0  0  0  0  0  0  0999 V2000
    5.4450    8.7154   22.6662 C   0  0  0  0  0  0  0  0  0  0  0  0
   10.9154    5.4574   20.5483 C   0  0  0  0  0  0  0  0  0  0  0  0
    7.2709    4.5089   22.7542 C   0  0  0  0  0  0  0  0  0  0  0  0
    5.9698    7.6329   24.6581 C   0  0  0  0  0  0  0  0  0  0  0  0
    4.5542    8.9057   21.7104 O   0  0  0  0  0  0  0  0  0  0  0  0
    6.9895    3.2085   23.0690 C   0  0  0  0  0  0  0  0  0  0  0  0
    7.8391    2.2253   22.7260 N   0  0  0  0  0  0  0  0  0  0  0  0
    8.6968    9.8373   23.6359 C   0  0  0  0  0  0  0  0  0  0  0  0
   12.5135    6.5957   21.8396 C   0  0  0  0  0  0  0  0  0  0  0  0
   10.9406    8.2330   21.1350 C   0  0  0  0  0  0  0  0  0  0  0  0
    9.6648    8.5956   21.7310 C   0  0  0  0  0  0  0  0  0  0  0  0
   10.8829    1.7153   20.9865 C   0  0  0  0  0  0  0  0  0  0  0  0
    5.7768    2.8533   23.7910 C   0  0  0  0  0  0  0  0  0  0  0  0
    9.7977    1.4791   21.6912 N   0  0  0  0  0  0  0  0  0  0  0  0
    6.5976    9.3401   22.6478 N   0  0  0  0  0  0  0  0  0  0  0  0
   11.2031    3.0042   20.6246 C   0  0  0  0  0  0  0  0  0  0  0  0
   12.8688    7.7370   22.7287 C   0  0  0  0  0  0  0  0  0  0  0  0
    7.4487    9.1361   23.6506 C   0  0  0  0  0  0  0  0  0  0  0  0
    8.9772    2.5025   22.0273 C   0  0  0  0  0  0  0  0  0  0  0  0
   10.4859    4.0901   20.9730 C   0  0  0  0  0  0  0  0  0  0  0  0
   11.0962    9.3293   23.5072 C   0  0  0  0  0  0  0  0  0  0  0  0
    5.1273    7.8529   23.6208 N   0  0  0  0  0  0  0  0  0  0  0  0
    9.7552    9.2338   23.0171 N   0  0  0  0  0  0  0  0  0  0  0  0
   11.1797    6.7591   21.3326 N   0  0  0  0  0  0  0  0  0  0  0  0
   11.7728    8.0337   23.7267 C   0  0  0  0  0  0  0  0  0  0  0  0
    7.1194    8.3344   24.6775 C   0  0  0  0  0  0  0  0  0  0  0  0
    8.4311    4.7963   22.0500 C   0  0  0  0  0  0  0  0  0  0  0  0
    8.7393   10.8706   24.1871 O   0  0  0  0  0  0  0  0  0  0  0  0
    9.3093    3.8166   21.6712 C   0  0  0  0  0  0  0  0  0  0  0  0
  1  5  1  0
  1 15  4  0
  1 22  4  0
  2 20  1  0
  2 24  1  0
  3  6  4  0
  3 27  4  0
  4 22  4  0
  4 26  4  0
  6  7  4  0
  6 13  1  0
  7 19  4  0
  8 18  1  0
  8 23  1  0
  8 28  2  0
  9 17  1  0
  9 24  1  0
 10 11  1  0
 10 24  1  0
 11 23  1  0
 12 14  4  0
 12 16  4  0
 14 19  4  0
 15 18  4  0
 16 20  4  0
 17 25  1  0
 18 26  4  0
 19 29  4  0
 20 29  4  0
 21 23  1  0
 21 25  1  0
 27 29  4  0
M  END
$$$$

 Created by Python create_sdf_string function

 29 32  0  0  0  0  0  0  0  0999 V2000
    5.4450    8.7154   22.6662 C   0  0  0  0  0  0  0  0  0  0  0  0
   10.9154    5.4574   20.5483 C   0  0  0  0  0  0  0  0  0  0  0  0
    7.2709    4.5089   22.7542 C   0  0  0  0  0  0  0  0  0  0  0  0
    5.9698    7.6329   24.6581 C   0  0  0  0  0  0  0  0  0  0  0  0
    4.5542    8.9057   21.7104 O   0  0  0  0  0  0  0  0  0  0  0  0
    6.9895    3.2085   23.0690 C   0  0  0  0  0  0  0  0  0  0  0  0
    7.8391    2.2253   22.7260 N   0  0  0  0  0  0  0  0  0  0  0  0
    8.6968    9.8373   23.6359 C   0  0  0  0  0  0  0  0  0  0  0  0
   12.5135    6.5957   21.8396 C   0  0  0  0  0  0  0  0  0  0  0  0
   10.9406    8.2330   21.1350 C   0  0  0  0  0  0  0  0  0  0  0  0
    9.6648    8.5956   21.7310 C   0  0  0  0  0  0  0  0  0  0  0  0
   10.8829    1.7153   20.9865 C   0  0  0  0  0  0  0  0  0  0  0  0
    5.7768    2.8533   23.7910 C   0  0  0  0  0  0  0  0  0  0  0  0
    9.7977    1.4791   21.6912 N   0  0  0  0  0  0  0  0  0  0  0  0
    6.5976    9.3401   22.6478 N   0  0  0  0  0  0  0  0  0  0  0  0
   11.2031    3.0042   20.6246 C   0  0  0  0  0  0  0  0  0  0  0  0
   12.8688    7.7370   22.7287 C   0  0  0  0  0  0  0  0  0  0  0  0
    7.4487    9.1361   23.6506 C   0  0  0  0  0  0  0  0  0  0  0  0
    8.9772    2.5025   22.0273 C   0  0  0  0  0  0  0  0  0  0  0  0
   10.4859    4.0901   20.9730 C   0  0  0  0  0  0  0  0  0  0  0  0
   11.0962    9.3293   23.5072 C   0  0  0  0  0  0  0  0  0  0  0  0
    5.1273    7.8529   23.6208 N   0  0  0  0  0  0  0  0  0  0  0  0
    9.7552    9.2338   23.0171 N   0  0  0  0  0  0  0  0  0  0  0  0
   11.1797    6.7591   21.3326 N   0  0  0  0  0  0  0  0  0  0  0  0
   11.7728    8.0337   23.7267 C   0  0  0  0  0  0  0  0  0  0  0  0
    7.1194    8.3344   24.6775 C   0  0  0  0  0  0  0  0  0  0  0  0
    8.4311    4.7963   22.0500 C   0  0  0  0  0  0  0  0  0  0  0  0
    8.7393   10.8706   24.1871 O   0  0  0  0  0  0  0  0  0  0  0  0
    9.3093    3.8166   21.6712 C   0  0  0  0  0  0  0  0  0  0  0  0
  1  5  1  0
  1 15  4  0
  1 22  4  0
  2 20  1  0
  2 24  1  0
  3  6  4  0
  3 27  4  0
  4 22  4  0
  4 26  4  0
  6  7  4  0
  6 13  1  0
  7 19  4  0
  8 18  1  0
  8 23  1  0
  8 28  2  0
  9 17  1  0
  9 24  1  0
 10 11  1  0
 10 24  1  0
 11 23  1  0
 12 14  4  0
 12 16  4  0
 14 19  4  0
 15 18  4  0
 16 20  4  0
 17 25  1  0
 18 26  4  0
 19 29  4  0
 20 29  4  0
 21 23  1  0
 21 25  1  0
 27 29  4  0
M  END
$$$$

 Created by Python create_sdf_string function

 29 32  0  0  0  0  0  0  0  0999 V2000
    5.4450    8.7154   22.6662 C   0  0  0  0  0  0  0  0  0  0  0  0
   10.9154    5.4574   20.5483 C   0  0  0  0  0  0  0  0  0  0  0  0
    7.2709    4.5089   22.7542 C   0  0  0  0  0  0  0  0  0  0  0  0
    5.9698    7.6329   24.6581 C   0  0  0  0  0  0  0  0  0  0  0  0
    4.5542    8.9057   21.7104 O   0  0  0  0  0  0  0  0  0  0  0  0
    6.9895    3.2085   23.0690 C   0  0  0  0  0  0  0  0  0  0  0  0
    7.8391    2.2253   22.7260 N   0  0  0  0  0  0  0  0  0  0  0  0
    8.6968    9.8373   23.6359 C   0  0  0  0  0  0  0  0  0  0  0  0
   12.5135    6.5957   21.8396 C   0  0  0  0  0  0  0  0  0  0  0  0
   10.9406    8.2330   21.1350 C   0  0  0  0  0  0  0  0  0  0  0  0
    9.6648    8.5956   21.7310 C   0  0  0  0  0  0  0  0  0  0  0  0
   10.8829    1.7153   20.9865 C   0  0  0  0  0  0  0  0  0  0  0  0
    5.7768    2.8533   23.7910 C   0  0  0  0  0  0  0  0  0  0  0  0
    9.7977    1.4791   21.6912 N   0  0  0  0  0  0  0  0  0  0  0  0
    6.5976    9.3401   22.6478 N   0  0  0  0  0  0  0  0  0  0  0  0
   11.2031    3.0042   20.6246 C   0  0  0  0  0  0  0  0  0  0  0  0
   12.8688    7.7370   22.7287 C   0  0  0  0  0  0  0  0  0  0  0  0
    7.4487    9.1361   23.6506 C   0  0  0  0  0  0  0  0  0  0  0  0
    8.9772    2.5025   22.0273 C   0  0  0  0  0  0  0  0  0  0  0  0
   10.4859    4.0901   20.9730 C   0  0  0  0  0  0  0  0  0  0  0  0
   11.0962    9.3293   23.5072 C   0  0  0  0  0  0  0  0  0  0  0  0
    5.1273    7.8529   23.6208 N   0  0  0  0  0  0  0  0  0  0  0  0
    9.7552    9.2338   23.0171 N   0  0  0  0  0  0  0  0  0  0  0  0
   11.1797    6.7591   21.3326 N   0  0  0  0  0  0  0  0  0  0  0  0
   11.7728    8.0337   23.7267 C   0  0  0  0  0  0  0  0  0  0  0  0
    7.1194    8.3344   24.6775 C   0  0  0  0  0  0  0  0  0  0  0  0
    8.4311    4.7963   22.0500 C   0  0  0  0  0  0  0  0  0  0  0  0
    8.7393   10.8706   24.1871 O   0  0  0  0  0  0  0  0  0  0  0  0
    9.3093    3.8166   21.6712 C   0  0  0  0  0  0  0  0  0  0  0  0
  1  5  1  0
  1 15  4  0
  1 22  4  0
  2 20  1  0
  2 24  1  0
  3  6  4  0
  3 27  4  0
  4 22  4  0
  4 26  4  0
  6  7  4  0
  6 13  1  0
  7 19  4  0
  8 18  1  0
  8 23  1  0
  8 28  2  0
  9 17  1  0
  9 24  1  0
 10 11  1  0
 10 24  1  0
 11 23  1  0
 12 14  4  0
 12 16  4  0
 14 19  4  0
 15 18  4  0
 16 20  4  0
 17 25  1  0
 18 26  4  0
 19 29  4  0
 20 29  4  0
 21 23  1  0
 21 25  1  0
 27 29  4  0
M  END
$$$$

 Created by Python create_sdf_string function

 29 32  0  0  0  0  0  0  0  0999 V2000
    5.4450    8.7154   22.6662 C   0  0  0  0  0  0  0  0  0  0  0  0
   10.9154    5.4574   20.5483 C   0  0  0  0  0  0  0  0  0  0  0  0
    7.2709    4.5089   22.7542 C   0  0  0  0  0  0  0  0  0  0  0  0
    5.9698    7.6329   24.6581 C   0  0  0  0  0  0  0  0  0  0  0  0
    4.5542    8.9057   21.7104 O   0  0  0  0  0  0  0  0  0  0  0  0
    6.9895    3.2085   23.0690 C   0  0  0  0  0  0  0  0  0  0  0  0
    7.8391    2.2253   22.7260 N   0  0  0  0  0  0  0  0  0  0  0  0
    8.6968    9.8373   23.6359 C   0  0  0  0  0  0  0  0  0  0  0  0
   12.5135    6.5957   21.8396 C   0  0  0  0  0  0  0  0  0  0  0  0
   10.9406    8.2330   21.1350 C   0  0  0  0  0  0  0  0  0  0  0  0
    9.6648    8.5956   21.7310 C   0  0  0  0  0  0  0  0  0  0  0  0
   10.8829    1.7153   20.9865 C   0  0  0  0  0  0  0  0  0  0  0  0
    5.7768    2.8533   23.7910 C   0  0  0  0  0  0  0  0  0  0  0  0
    9.7977    1.4791   21.6912 N   0  0  0  0  0  0  0  0  0  0  0  0
    6.5976    9.3401   22.6478 N   0  0  0  0  0  0  0  0  0  0  0  0
   11.2031    3.0042   20.6246 C   0  0  0  0  0  0  0  0  0  0  0  0
   12.8688    7.7370   22.7287 C   0  0  0  0  0  0  0  0  0  0  0  0
    7.4487    9.1361   23.6506 C   0  0  0  0  0  0  0  0  0  0  0  0
    8.9772    2.5025   22.0273 C   0  0  0  0  0  0  0  0  0  0  0  0
   10.4859    4.0901   20.9730 C   0  0  0  0  0  0  0  0  0  0  0  0
   11.0962    9.3293   23.5072 C   0  0  0  0  0  0  0  0  0  0  0  0
    5.1273    7.8529   23.6208 N   0  0  0  0  0  0  0  0  0  0  0  0
    9.7552    9.2338   23.0171 N   0  0  0  0  0  0  0  0  0  0  0  0
   11.1797    6.7591   21.3326 N   0  0  0  0  0  0  0  0  0  0  0  0
   11.7728    8.0337   23.7267 C   0  0  0  0  0  0  0  0  0  0  0  0
    7.1194    8.3344   24.6775 C   0  0  0  0  0  0  0  0  0  0  0  0
    8.4311    4.7963   22.0500 C   0  0  0  0  0  0  0  0  0  0  0  0
    8.7393   10.8706   24.1871 O   0  0  0  0  0  0  0  0  0  0  0  0
    9.3093    3.8166   21.6712 C   0  0  0  0  0  0  0  0  0  0  0  0
  1  5  1  0
  1 15  4  0
  1 22  4  0
  2 20  1  0
  2 24  1  0
  3  6  4  0
  3 27  4  0
  4 22  4  0
  4 26  4  0
  6  7  4  0
  6 13  1  0
  7 19  4  0
  8 18  1  0
  8 23  1  0
  8 28  2  0
  9 17  1  0
  9 24  1  0
 10 11  1  0
 10 24  1  0
 11 23  1  0
 12 14  4  0
 12 16  4  0
 14 19  4  0
 15 18  4  0
 16 20  4  0
 17 25  1  0
 18 26  4  0
 19 29  4  0
 20 29  4  0
 21 23  1  0
 21 25  1  0
 27 29  4  0
M  END
$$$$

 Created by Python create_sdf_string function

 29 32  0  0  0  0  0  0  0  0999 V2000
    5.4450    8.7154   22.6662 C   0  0  0  0  0  0  0  0  0  0  0  0
   10.9154    5.4574   20.5483 C   0  0  0  0  0  0  0  0  0  0  0  0
    7.2709    4.5089   22.7542 C   0  0  0  0  0  0  0  0  0  0  0  0
    5.9698    7.6329   24.6581 C   0  0  0  0  0  0  0  0  0  0  0  0
    4.5542    8.9057   21.7104 O   0  0  0  0  0  0  0  0  0  0  0  0
    6.9895    3.2085   23.0690 C   0  0  0  0  0  0  0  0  0  0  0  0
    7.8391    2.2253   22.7260 N   0  0  0  0  0  0  0  0  0  0  0  0
    8.6968    9.8373   23.6359 C   0  0  0  0  0  0  0  0  0  0  0  0
   12.5135    6.5957   21.8396 C   0  0  0  0  0  0  0  0  0  0  0  0
   10.9406    8.2330   21.1350 C   0  0  0  0  0  0  0  0  0  0  0  0
    9.6648    8.5956   21.7310 C   0  0  0  0  0  0  0  0  0  0  0  0
   10.8829    1.7153   20.9865 C   0  0  0  0  0  0  0  0  0  0  0  0
    5.7768    2.8533   23.7910 C   0  0  0  0  0  0  0  0  0  0  0  0
    9.7977    1.4791   21.6912 N   0  0  0  0  0  0  0  0  0  0  0  0
    6.5976    9.3401   22.6478 N   0  0  0  0  0  0  0  0  0  0  0  0
   11.2031    3.0042   20.6246 C   0  0  0  0  0  0  0  0  0  0  0  0
   12.8688    7.7370   22.7287 C   0  0  0  0  0  0  0  0  0  0  0  0
    7.4487    9.1361   23.6506 C   0  0  0  0  0  0  0  0  0  0  0  0
    8.9772    2.5025   22.0273 C   0  0  0  0  0  0  0  0  0  0  0  0
   10.4859    4.0901   20.9730 C   0  0  0  0  0  0  0  0  0  0  0  0
   11.0962    9.3293   23.5072 C   0  0  0  0  0  0  0  0  0  0  0  0
    5.1273    7.8529   23.6208 N   0  0  0  0  0  0  0  0  0  0  0  0
    9.7552    9.2338   23.0171 N   0  0  0  0  0  0  0  0  0  0  0  0
   11.1797    6.7591   21.3326 N   0  0  0  0  0  0  0  0  0  0  0  0
   11.7728    8.0337   23.7267 C   0  0  0  0  0  0  0  0  0  0  0  0
    7.1194    8.3344   24.6775 C   0  0  0  0  0  0  0  0  0  0  0  0
    8.4311    4.7963   22.0500 C   0  0  0  0  0  0  0  0  0  0  0  0
    8.7393   10.8706   24.1871 O   0  0  0  0  0  0  0  0  0  0  0  0
    9.3093    3.8166   21.6712 C   0  0  0  0  0  0  0  0  0  0  0  0
  1  5  1  0
  1 15  4  0
  1 22  4  0
  2 20  1  0
  2 24  1  0
  3  6  4  0
  3 27  4  0
  4 22  4  0
  4 26  4  0
  6  7  4  0
  6 13  1  0
  7 19  4  0
  8 18  1  0
  8 23  1  0
  8 28  2  0
  9 17  1  0
  9 24  1  0
 10 11  1  0
 10 24  1  0
 11 23  1  0
 12 14  4  0
 12 16  4  0
 14 19  4  0
 15 18  4  0
 16 20  4  0
 17 25  1  0
 18 26  4  0
 19 29  4  0
 20 29  4  0
 21 23  1  0
 21 25  1  0
 27 29  4  0
M  END
$$$$

 Created by Python create_sdf_string function

 29 32  0  0  0  0  0  0  0  0999 V2000
    5.4450    8.7154   22.6662 C   0  0  0  0  0  0  0  0  0  0  0  0
   10.9154    5.4574   20.5483 C   0  0  0  0  0  0  0  0  0  0  0  0
    7.2709    4.5089   22.7542 C   0  0  0  0  0  0  0  0  0  0  0  0
    5.9698    7.6329   24.6581 C   0  0  0  0  0  0  0  0  0  0  0  0
    4.5542    8.9057   21.7104 O   0  0  0  0  0  0  0  0  0  0  0  0
    6.9895    3.2085   23.0690 C   0  0  0  0  0  0  0  0  0  0  0  0
    7.8391    2.2253   22.7260 N   0  0  0  0  0  0  0  0  0  0  0  0
    8.6968    9.8373   23.6359 C   0  0  0  0  0  0  0  0  0  0  0  0
   12.5135    6.5957   21.8396 C   0  0  0  0  0  0  0  0  0  0  0  0
   10.9406    8.2330   21.1350 C   0  0  0  0  0  0  0  0  0  0  0  0
    9.6648    8.5956   21.7310 C   0  0  0  0  0  0  0  0  0  0  0  0
   10.8829    1.7153   20.9865 C   0  0  0  0  0  0  0  0  0  0  0  0
    5.7768    2.8533   23.7910 C   0  0  0  0  0  0  0  0  0  0  0  0
    9.7977    1.4791   21.6912 N   0  0  0  0  0  0  0  0  0  0  0  0
    6.5976    9.3401   22.6478 N   0  0  0  0  0  0  0  0  0  0  0  0
   11.2031    3.0042   20.6246 C   0  0  0  0  0  0  0  0  0  0  0  0
   12.8688    7.7370   22.7287 C   0  0  0  0  0  0  0  0  0  0  0  0
    7.4487    9.1361   23.6506 C   0  0  0  0  0  0  0  0  0  0  0  0
    8.9772    2.5025   22.0273 C   0  0  0  0  0  0  0  0  0  0  0  0
   10.4859    4.0901   20.9730 C   0  0  0  0  0  0  0  0  0  0  0  0
   11.0962    9.3293   23.5072 C   0  0  0  0  0  0  0  0  0  0  0  0
    5.1273    7.8529   23.6208 N   0  0  0  0  0  0  0  0  0  0  0  0
    9.7552    9.2338   23.0171 N   0  0  0  0  0  0  0  0  0  0  0  0
   11.1797    6.7591   21.3326 N   0  0  0  0  0  0  0  0  0  0  0  0
   11.7728    8.0337   23.7267 C   0  0  0  0  0  0  0  0  0  0  0  0
    7.1194    8.3344   24.6775 C   0  0  0  0  0  0  0  0  0  0  0  0
    8.4311    4.7963   22.0500 C   0  0  0  0  0  0  0  0  0  0  0  0
    8.7393   10.8706   24.1871 O   0  0  0  0  0  0  0  0  0  0  0  0
    9.3093    3.8166   21.6712 C   0  0  0  0  0  0  0  0  0  0  0  0
  1  5  1  0
  1 15  4  0
  1 22  4  0
  2 20  1  0
  2 24  1  0
  3  6  4  0
  3 27  4  0
  4 22  4  0
  4 26  4  0
  6  7  4  0
  6 13  1  0
  7 19  4  0
  8 18  1  0
  8 23  1  0
  8 28  2  0
  9 17  1  0
  9 24  1  0
 10 11  1  0
 10 24  1  0
 11 23  1  0
 12 14  4  0
 12 16  4  0
 14 19  4  0
 15 18  4  0
 16 20  4  0
 17 25  1  0
 18 26  4  0
 19 29  4  0
 20 29  4  0
 21 23  1  0
 21 25  1  0
 27 29  4  0
M  END
$$$$

 Created by Python create_sdf_string function

 29 32  0  0  0  0  0  0  0  0999 V2000
    5.4450    8.7154   22.6662 C   0  0  0  0  0  0  0  0  0  0  0  0
   10.9154    5.4574   20.5483 C   0  0  0  0  0  0  0  0  0  0  0  0
    7.2709    4.5089   22.7542 C   0  0  0  0  0  0  0  0  0  0  0  0
    5.9698    7.6329   24.6581 C   0  0  0  0  0  0  0  0  0  0  0  0
    4.5542    8.9057   21.7104 O   0  0  0  0  0  0  0  0  0  0  0  0
    6.9895    3.2085   23.0690 C   0  0  0  0  0  0  0  0  0  0  0  0
    7.8391    2.2253   22.7260 N   0  0  0  0  0  0  0  0  0  0  0  0
    8.6968    9.8373   23.6359 C   0  0  0  0  0  0  0  0  0  0  0  0
   12.5135    6.5957   21.8396 C   0  0  0  0  0  0  0  0  0  0  0  0
   10.9406    8.2330   21.1350 C   0  0  0  0  0  0  0  0  0  0  0  0
    9.6648    8.5956   21.7310 C   0  0  0  0  0  0  0  0  0  0  0  0
   10.8829    1.7153   20.9865 C   0  0  0  0  0  0  0  0  0  0  0  0
    5.7768    2.8533   23.7910 C   0  0  0  0  0  0  0  0  0  0  0  0
    9.7977    1.4791   21.6912 N   0  0  0  0  0  0  0  0  0  0  0  0
    6.5976    9.3401   22.6478 N   0  0  0  0  0  0  0  0  0  0  0  0
   11.2031    3.0042   20.6246 C   0  0  0  0  0  0  0  0  0  0  0  0
   12.8688    7.7370   22.7287 C   0  0  0  0  0  0  0  0  0  0  0  0
    7.4487    9.1361   23.6506 C   0  0  0  0  0  0  0  0  0  0  0  0
    8.9772    2.5025   22.0273 C   0  0  0  0  0  0  0  0  0  0  0  0
   10.4859    4.0901   20.9730 C   0  0  0  0  0  0  0  0  0  0  0  0
   11.0962    9.3293   23.5072 C   0  0  0  0  0  0  0  0  0  0  0  0
    5.1273    7.8529   23.6208 N   0  0  0  0  0  0  0  0  0  0  0  0
    9.7552    9.2338   23.0171 N   0  0  0  0  0  0  0  0  0  0  0  0
   11.1797    6.7591   21.3326 N   0  0  0  0  0  0  0  0  0  0  0  0
   11.7728    8.0337   23.7267 C   0  0  0  0  0  0  0  0  0  0  0  0
    7.1194    8.3344   24.6775 C   0  0  0  0  0  0  0  0  0  0  0  0
    8.4311    4.7963   22.0500 C   0  0  0  0  0  0  0  0  0  0  0  0
    8.7393   10.8706   24.1871 O   0  0  0  0  0  0  0  0  0  0  0  0
    9.3093    3.8166   21.6712 C   0  0  0  0  0  0  0  0  0  0  0  0
  1  5  1  0
  1 15  4  0
  1 22  4  0
  2 20  1  0
  2 24  1  0
  3  6  4  0
  3 27  4  0
  4 22  4  0
  4 26  4  0
  6  7  4  0
  6 13  1  0
  7 19  4  0
  8 18  1  0
  8 23  1  0
  8 28  2  0
  9 17  1  0
  9 24  1  0
 10 11  1  0
 10 24  1  0
 11 23  1  0
 12 14  4  0
 12 16  4  0
 14 19  4  0
 15 18  4  0
 16 20  4  0
 17 25  1  0
 18 26  4  0
 19 29  4  0
 20 29  4  0
 21 23  1  0
 21 25  1  0
 27 29  4  0
M  END
$$$$

 Created by Python create_sdf_string function

 29 32  0  0  0  0  0  0  0  0999 V2000
    5.4450    8.7154   22.6662 C   0  0  0  0  0  0  0  0  0  0  0  0
   10.9154    5.4574   20.5483 C   0  0  0  0  0  0  0  0  0  0  0  0
    7.2709    4.5089   22.7542 C   0  0  0  0  0  0  0  0  0  0  0  0
    5.9698    7.6329   24.6581 C   0  0  0  0  0  0  0  0  0  0  0  0
    4.5542    8.9057   21.7104 O   0  0  0  0  0  0  0  0  0  0  0  0
    6.9895    3.2085   23.0690 C   0  0  0  0  0  0  0  0  0  0  0  0
    7.8391    2.2253   22.7260 N   0  0  0  0  0  0  0  0  0  0  0  0
    8.6968    9.8373   23.6359 C   0  0  0  0  0  0  0  0  0  0  0  0
   12.5135    6.5957   21.8396 C   0  0  0  0  0  0  0  0  0  0  0  0
   10.9406    8.2330   21.1350 C   0  0  0  0  0  0  0  0  0  0  0  0
    9.6648    8.5956   21.7310 C   0  0  0  0  0  0  0  0  0  0  0  0
   10.8829    1.7153   20.9865 C   0  0  0  0  0  0  0  0  0  0  0  0
    5.7768    2.8533   23.7910 C   0  0  0  0  0  0  0  0  0  0  0  0
    9.7977    1.4791   21.6912 N   0  0  0  0  0  0  0  0  0  0  0  0
    6.5976    9.3401   22.6478 N   0  0  0  0  0  0  0  0  0  0  0  0
   11.2031    3.0042   20.6246 C   0  0  0  0  0  0  0  0  0  0  0  0
   12.8688    7.7370   22.7287 C   0  0  0  0  0  0  0  0  0  0  0  0
    7.4487    9.1361   23.6506 C   0  0  0  0  0  0  0  0  0  0  0  0
    8.9772    2.5025   22.0273 C   0  0  0  0  0  0  0  0  0  0  0  0
   10.4859    4.0901   20.9730 C   0  0  0  0  0  0  0  0  0  0  0  0
   11.0962    9.3293   23.5072 C   0  0  0  0  0  0  0  0  0  0  0  0
    5.1273    7.8529   23.6208 N   0  0  0  0  0  0  0  0  0  0  0  0
    9.7552    9.2338   23.0171 N   0  0  0  0  0  0  0  0  0  0  0  0
   11.1797    6.7591   21.3326 N   0  0  0  0  0  0  0  0  0  0  0  0
   11.7728    8.0337   23.7267 C   0  0  0  0  0  0  0  0  0  0  0  0
    7.1194    8.3344   24.6775 C   0  0  0  0  0  0  0  0  0  0  0  0
    8.4311    4.7963   22.0500 C   0  0  0  0  0  0  0  0  0  0  0  0
    8.7393   10.8706   24.1871 O   0  0  0  0  0  0  0  0  0  0  0  0
    9.3093    3.8166   21.6712 C   0  0  0  0  0  0  0  0  0  0  0  0
  1  5  1  0
  1 15  4  0
  1 22  4  0
  2 20  1  0
  2 24  1  0
  3  6  4  0
  3 27  4  0
  4 22  4  0
  4 26  4  0
  6  7  4  0
  6 13  1  0
  7 19  4  0
  8 18  1  0
  8 23  1  0
  8 28  2  0
  9 17  1  0
  9 24  1  0
 10 11  1  0
 10 24  1  0
 11 23  1  0
 12 14  4  0
 12 16  4  0
 14 19  4  0
 15 18  4  0
 16 20  4  0
 17 25  1  0
 18 26  4  0
 19 29  4  0
 20 29  4  0
 21 23  1  0
 21 25  1  0
 27 29  4  0
M  END
$$$$

 Created by Python create_sdf_string function

 29 32  0  0  0  0  0  0  0  0999 V2000
    5.4450    8.7154   22.6662 C   0  0  0  0  0  0  0  0  0  0  0  0
   10.9154    5.4574   20.5483 C   0  0  0  0  0  0  0  0  0  0  0  0
    7.2709    4.5089   22.7542 C   0  0  0  0  0  0  0  0  0  0  0  0
    5.9698    7.6329   24.6581 C   0  0  0  0  0  0  0  0  0  0  0  0
    4.5542    8.9057   21.7104 O   0  0  0  0  0  0  0  0  0  0  0  0
    6.9895    3.2085   23.0690 C   0  0  0  0  0  0  0  0  0  0  0  0
    7.8391    2.2253   22.7260 N   0  0  0  0  0  0  0  0  0  0  0  0
    8.6968    9.8373   23.6359 C   0  0  0  0  0  0  0  0  0  0  0  0
   12.5135    6.5957   21.8396 C   0  0  0  0  0  0  0  0  0  0  0  0
   10.9406    8.2330   21.1350 C   0  0  0  0  0  0  0  0  0  0  0  0
    9.6648    8.5956   21.7310 C   0  0  0  0  0  0  0  0  0  0  0  0
   10.8829    1.7153   20.9865 C   0  0  0  0  0  0  0  0  0  0  0  0
    5.7768    2.8533   23.7910 C   0  0  0  0  0  0  0  0  0  0  0  0
    9.7977    1.4791   21.6912 N   0  0  0  0  0  0  0  0  0  0  0  0
    6.5976    9.3401   22.6478 N   0  0  0  0  0  0  0  0  0  0  0  0
   11.2031    3.0042   20.6246 C   0  0  0  0  0  0  0  0  0  0  0  0
   12.8688    7.7370   22.7287 C   0  0  0  0  0  0  0  0  0  0  0  0
    7.4487    9.1361   23.6506 C   0  0  0  0  0  0  0  0  0  0  0  0
    8.9772    2.5025   22.0273 C   0  0  0  0  0  0  0  0  0  0  0  0
   10.4859    4.0901   20.9730 C   0  0  0  0  0  0  0  0  0  0  0  0
   11.0962    9.3293   23.5072 C   0  0  0  0  0  0  0  0  0  0  0  0
    5.1273    7.8529   23.6208 N   0  0  0  0  0  0  0  0  0  0  0  0
    9.7552    9.2338   23.0171 N   0  0  0  0  0  0  0  0  0  0  0  0
   11.1797    6.7591   21.3326 N   0  0  0  0  0  0  0  0  0  0  0  0
   11.7728    8.0337   23.7267 C   0  0  0  0  0  0  0  0  0  0  0  0
    7.1194    8.3344   24.6775 C   0  0  0  0  0  0  0  0  0  0  0  0
    8.4311    4.7963   22.0500 C   0  0  0  0  0  0  0  0  0  0  0  0
    8.7393   10.8706   24.1871 O   0  0  0  0  0  0  0  0  0  0  0  0
    9.3093    3.8166   21.6712 C   0  0  0  0  0  0  0  0  0  0  0  0
  1  5  1  0
  1 15  4  0
  1 22  4  0
  2 20  1  0
  2 24  1  0
  3  6  4  0
  3 27  4  0
  4 22  4  0
  4 26  4  0
  6  7  4  0
  6 13  1  0
  7 19  4  0
  8 18  1  0
  8 23  1  0
  8 28  2  0
  9 17  1  0
  9 24  1  0
 10 11  1  0
 10 24  1  0
 11 23  1  0
 12 14  4  0
 12 16  4  0
 14 19  4  0
 15 18  4  0
 16 20  4  0
 17 25  1  0
 18 26  4  0
 19 29  4  0
 20 29  4  0
 21 23  1  0
 21 25  1  0
 27 29  4  0
M  END
$$$$

 Created by Python create_sdf_string function

 29 32  0  0  0  0  0  0  0  0999 V2000
    5.4450    8.7154   22.6662 C   0  0  0  0  0  0  0  0  0  0  0  0
   10.9154    5.4574   20.5483 C   0  0  0  0  0  0  0  0  0  0  0  0
    7.2709    4.5089   22.7542 C   0  0  0  0  0  0  0  0  0  0  0  0
    5.9698    7.6329   24.6581 C   0  0  0  0  0  0  0  0  0  0  0  0
    4.5542    8.9057   21.7104 O   0  0  0  0  0  0  0  0  0  0  0  0
    6.9895    3.2085   23.0690 C   0  0  0  0  0  0  0  0  0  0  0  0
    7.8391    2.2253   22.7260 N   0  0  0  0  0  0  0  0  0  0  0  0
    8.6968    9.8373   23.6359 C   0  0  0  0  0  0  0  0  0  0  0  0
   12.5135    6.5957   21.8396 C   0  0  0  0  0  0  0  0  0  0  0  0
   10.9406    8.2330   21.1350 C   0  0  0  0  0  0  0  0  0  0  0  0
    9.6648    8.5956   21.7310 C   0  0  0  0  0  0  0  0  0  0  0  0
   10.8829    1.7153   20.9865 C   0  0  0  0  0  0  0  0  0  0  0  0
    5.7768    2.8533   23.7910 C   0  0  0  0  0  0  0  0  0  0  0  0
    9.7977    1.4791   21.6912 N   0  0  0  0  0  0  0  0  0  0  0  0
    6.5976    9.3401   22.6478 N   0  0  0  0  0  0  0  0  0  0  0  0
   11.2031    3.0042   20.6246 C   0  0  0  0  0  0  0  0  0  0  0  0
   12.8688    7.7370   22.7287 C   0  0  0  0  0  0  0  0  0  0  0  0
    7.4487    9.1361   23.6506 C   0  0  0  0  0  0  0  0  0  0  0  0
    8.9772    2.5025   22.0273 C   0  0  0  0  0  0  0  0  0  0  0  0
   10.4859    4.0901   20.9730 C   0  0  0  0  0  0  0  0  0  0  0  0
   11.0962    9.3293   23.5072 C   0  0  0  0  0  0  0  0  0  0  0  0
    5.1273    7.8529   23.6208 N   0  0  0  0  0  0  0  0  0  0  0  0
    9.7552    9.2338   23.0171 N   0  0  0  0  0  0  0  0  0  0  0  0
   11.1797    6.7591   21.3326 N   0  0  0  0  0  0  0  0  0  0  0  0
   11.7728    8.0337   23.7267 C   0  0  0  0  0  0  0  0  0  0  0  0
    7.1194    8.3344   24.6775 C   0  0  0  0  0  0  0  0  0  0  0  0
    8.4311    4.7963   22.0500 C   0  0  0  0  0  0  0  0  0  0  0  0
    8.7393   10.8706   24.1871 O   0  0  0  0  0  0  0  0  0  0  0  0
    9.3093    3.8166   21.6712 C   0  0  0  0  0  0  0  0  0  0  0  0
  1  5  1  0
  1 15  4  0
  1 22  4  0
  2 20  1  0
  2 24  1  0
  3  6  4  0
  3 27  4  0
  4 22  4  0
  4 26  4  0
  6  7  4  0
  6 13  1  0
  7 19  4  0
  8 18  1  0
  8 23  1  0
  8 28  2  0
  9 17  1  0
  9 24  1  0
 10 11  1  0
 10 24  1  0
 11 23  1  0
 12 14  4  0
 12 16  4  0
 14 19  4  0
 15 18  4  0
 16 20  4  0
 17 25  1  0
 18 26  4  0
 19 29  4  0
 20 29  4  0
 21 23  1  0
 21 25  1  0
 27 29  4  0
M  END
$$$$

 Created by Python create_sdf_string function

 29 32  0  0  0  0  0  0  0  0999 V2000
    5.4450    8.7154   22.6662 C   0  0  0  0  0  0  0  0  0  0  0  0
   10.9154    5.4574   20.5483 C   0  0  0  0  0  0  0  0  0  0  0  0
    7.2709    4.5089   22.7542 C   0  0  0  0  0  0  0  0  0  0  0  0
    5.9698    7.6329   24.6581 C   0  0  0  0  0  0  0  0  0  0  0  0
    4.5542    8.9057   21.7104 O   0  0  0  0  0  0  0  0  0  0  0  0
    6.9895    3.2085   23.0690 C   0  0  0  0  0  0  0  0  0  0  0  0
    7.8391    2.2253   22.7260 N   0  0  0  0  0  0  0  0  0  0  0  0
    8.6968    9.8373   23.6359 C   0  0  0  0  0  0  0  0  0  0  0  0
   12.5135    6.5957   21.8396 C   0  0  0  0  0  0  0  0  0  0  0  0
   10.9406    8.2330   21.1350 C   0  0  0  0  0  0  0  0  0  0  0  0
    9.6648    8.5956   21.7310 C   0  0  0  0  0  0  0  0  0  0  0  0
   10.8829    1.7153   20.9865 C   0  0  0  0  0  0  0  0  0  0  0  0
    5.7768    2.8533   23.7910 C   0  0  0  0  0  0  0  0  0  0  0  0
    9.7977    1.4791   21.6912 N   0  0  0  0  0  0  0  0  0  0  0  0
    6.5976    9.3401   22.6478 N   0  0  0  0  0  0  0  0  0  0  0  0
   11.2031    3.0042   20.6246 C   0  0  0  0  0  0  0  0  0  0  0  0
   12.8688    7.7370   22.7287 C   0  0  0  0  0  0  0  0  0  0  0  0
    7.4487    9.1361   23.6506 C   0  0  0  0  0  0  0  0  0  0  0  0
    8.9772    2.5025   22.0273 C   0  0  0  0  0  0  0  0  0  0  0  0
   10.4859    4.0901   20.9730 C   0  0  0  0  0  0  0  0  0  0  0  0
   11.0962    9.3293   23.5072 C   0  0  0  0  0  0  0  0  0  0  0  0
    5.1273    7.8529   23.6208 N   0  0  0  0  0  0  0  0  0  0  0  0
    9.7552    9.2338   23.0171 N   0  0  0  0  0  0  0  0  0  0  0  0
   11.1797    6.7591   21.3326 N   0  0  0  0  0  0  0  0  0  0  0  0
   11.7728    8.0337   23.7267 C   0  0  0  0  0  0  0  0  0  0  0  0
    7.1194    8.3344   24.6775 C   0  0  0  0  0  0  0  0  0  0  0  0
    8.4311    4.7963   22.0500 C   0  0  0  0  0  0  0  0  0  0  0  0
    8.7393   10.8706   24.1871 O   0  0  0  0  0  0  0  0  0  0  0  0
    9.3093    3.8166   21.6712 C   0  0  0  0  0  0  0  0  0  0  0  0
  1  5  1  0
  1 15  4  0
  1 22  4  0
  2 20  1  0
  2 24  1  0
  3  6  4  0
  3 27  4  0
  4 22  4  0
  4 26  4  0
  6  7  4  0
  6 13  1  0
  7 19  4  0
  8 18  1  0
  8 23  1  0
  8 28  2  0
  9 17  1  0
  9 24  1  0
 10 11  1  0
 10 24  1  0
 11 23  1  0
 12 14  4  0
 12 16  4  0
 14 19  4  0
 15 18  4  0
 16 20  4  0
 17 25  1  0
 18 26  4  0
 19 29  4  0
 20 29  4  0
 21 23  1  0
 21 25  1  0
 27 29  4  0
M  END
$$$$

 Created by Python create_sdf_string function

 29 32  0  0  0  0  0  0  0  0999 V2000
    5.4450    8.7154   22.6662 C   0  0  0  0  0  0  0  0  0  0  0  0
   10.9154    5.4574   20.5483 C   0  0  0  0  0  0  0  0  0  0  0  0
    7.2709    4.5089   22.7542 C   0  0  0  0  0  0  0  0  0  0  0  0
    5.9698    7.6329   24.6581 C   0  0  0  0  0  0  0  0  0  0  0  0
    4.5542    8.9057   21.7104 O   0  0  0  0  0  0  0  0  0  0  0  0
    6.9895    3.2085   23.0690 C   0  0  0  0  0  0  0  0  0  0  0  0
    7.8391    2.2253   22.7260 N   0  0  0  0  0  0  0  0  0  0  0  0
    8.6968    9.8373   23.6359 C   0  0  0  0  0  0  0  0  0  0  0  0
   12.5135    6.5957   21.8396 C   0  0  0  0  0  0  0  0  0  0  0  0
   10.9406    8.2330   21.1350 C   0  0  0  0  0  0  0  0  0  0  0  0
    9.6648    8.5956   21.7310 C   0  0  0  0  0  0  0  0  0  0  0  0
   10.8829    1.7153   20.9865 C   0  0  0  0  0  0  0  0  0  0  0  0
    5.7768    2.8533   23.7910 C   0  0  0  0  0  0  0  0  0  0  0  0
    9.7977    1.4791   21.6912 N   0  0  0  0  0  0  0  0  0  0  0  0
    6.5976    9.3401   22.6478 N   0  0  0  0  0  0  0  0  0  0  0  0
   11.2031    3.0042   20.6246 C   0  0  0  0  0  0  0  0  0  0  0  0
   12.8688    7.7370   22.7287 C   0  0  0  0  0  0  0  0  0  0  0  0
    7.4487    9.1361   23.6506 C   0  0  0  0  0  0  0  0  0  0  0  0
    8.9772    2.5025   22.0273 C   0  0  0  0  0  0  0  0  0  0  0  0
   10.4859    4.0901   20.9730 C   0  0  0  0  0  0  0  0  0  0  0  0
   11.0962    9.3293   23.5072 C   0  0  0  0  0  0  0  0  0  0  0  0
    5.1273    7.8529   23.6208 N   0  0  0  0  0  0  0  0  0  0  0  0
    9.7552    9.2338   23.0171 N   0  0  0  0  0  0  0  0  0  0  0  0
   11.1797    6.7591   21.3326 N   0  0  0  0  0  0  0  0  0  0  0  0
   11.7728    8.0337   23.7267 C   0  0  0  0  0  0  0  0  0  0  0  0
    7.1194    8.3344   24.6775 C   0  0  0  0  0  0  0  0  0  0  0  0
    8.4311    4.7963   22.0500 C   0  0  0  0  0  0  0  0  0  0  0  0
    8.7393   10.8706   24.1871 O   0  0  0  0  0  0  0  0  0  0  0  0
    9.3093    3.8166   21.6712 C   0  0  0  0  0  0  0  0  0  0  0  0
  1  5  1  0
  1 15  4  0
  1 22  4  0
  2 20  1  0
  2 24  1  0
  3  6  4  0
  3 27  4  0
  4 22  4  0
  4 26  4  0
  6  7  4  0
  6 13  1  0
  7 19  4  0
  8 18  1  0
  8 23  1  0
  8 28  2  0
  9 17  1  0
  9 24  1  0
 10 11  1  0
 10 24  1  0
 11 23  1  0
 12 14  4  0
 12 16  4  0
 14 19  4  0
 15 18  4  0
 16 20  4  0
 17 25  1  0
 18 26  4  0
 19 29  4  0
 20 29  4  0
 21 23  1  0
 21 25  1  0
 27 29  4  0
M  END
$$$$

 Created by Python create_sdf_string function

 29 32  0  0  0  0  0  0  0  0999 V2000
    5.4450    8.7154   22.6662 C   0  0  0  0  0  0  0  0  0  0  0  0
   10.9154    5.4574   20.5483 C   0  0  0  0  0  0  0  0  0  0  0  0
    7.2709    4.5089   22.7542 C   0  0  0  0  0  0  0  0  0  0  0  0
    5.9698    7.6329   24.6581 C   0  0  0  0  0  0  0  0  0  0  0  0
    4.5542    8.9057   21.7104 O   0  0  0  0  0  0  0  0  0  0  0  0
    6.9895    3.2085   23.0690 C   0  0  0  0  0  0  0  0  0  0  0  0
    7.8391    2.2253   22.7260 N   0  0  0  0  0  0  0  0  0  0  0  0
    8.6968    9.8373   23.6359 C   0  0  0  0  0  0  0  0  0  0  0  0
   12.5135    6.5957   21.8396 C   0  0  0  0  0  0  0  0  0  0  0  0
   10.9406    8.2330   21.1350 C   0  0  0  0  0  0  0  0  0  0  0  0
    9.6648    8.5956   21.7310 C   0  0  0  0  0  0  0  0  0  0  0  0
   10.8829    1.7153   20.9865 C   0  0  0  0  0  0  0  0  0  0  0  0
    5.7768    2.8533   23.7910 C   0  0  0  0  0  0  0  0  0  0  0  0
    9.7977    1.4791   21.6912 N   0  0  0  0  0  0  0  0  0  0  0  0
    6.5976    9.3401   22.6478 N   0  0  0  0  0  0  0  0  0  0  0  0
   11.2031    3.0042   20.6246 C   0  0  0  0  0  0  0  0  0  0  0  0
   12.8688    7.7370   22.7287 C   0  0  0  0  0  0  0  0  0  0  0  0
    7.4487    9.1361   23.6506 C   0  0  0  0  0  0  0  0  0  0  0  0
    8.9772    2.5025   22.0273 C   0  0  0  0  0  0  0  0  0  0  0  0
   10.4859    4.0901   20.9730 C   0  0  0  0  0  0  0  0  0  0  0  0
   11.0962    9.3293   23.5072 C   0  0  0  0  0  0  0  0  0  0  0  0
    5.1273    7.8529   23.6208 N   0  0  0  0  0  0  0  0  0  0  0  0
    9.7552    9.2338   23.0171 N   0  0  0  0  0  0  0  0  0  0  0  0
   11.1797    6.7591   21.3326 N   0  0  0  0  0  0  0  0  0  0  0  0
   11.7728    8.0337   23.7267 C   0  0  0  0  0  0  0  0  0  0  0  0
    7.1194    8.3344   24.6775 C   0  0  0  0  0  0  0  0  0  0  0  0
    8.4311    4.7963   22.0500 C   0  0  0  0  0  0  0  0  0  0  0  0
    8.7393   10.8706   24.1871 O   0  0  0  0  0  0  0  0  0  0  0  0
    9.3093    3.8166   21.6712 C   0  0  0  0  0  0  0  0  0  0  0  0
  1  5  1  0
  1 15  4  0
  1 22  4  0
  2 20  1  0
  2 24  1  0
  3  6  4  0
  3 27  4  0
  4 22  4  0
  4 26  4  0
  6  7  4  0
  6 13  1  0
  7 19  4  0
  8 18  1  0
  8 23  1  0
  8 28  2  0
  9 17  1  0
  9 24  1  0
 10 11  1  0
 10 24  1  0
 11 23  1  0
 12 14  4  0
 12 16  4  0
 14 19  4  0
 15 18  4  0
 16 20  4  0
 17 25  1  0
 18 26  4  0
 19 29  4  0
 20 29  4  0
 21 23  1  0
 21 25  1  0
 27 29  4  0
M  END
$$$$

 Created by Python create_sdf_string function

 29 32  0  0  0  0  0  0  0  0999 V2000
    5.4450    8.7154   22.6662 C   0  0  0  0  0  0  0  0  0  0  0  0
   10.9154    5.4574   20.5483 C   0  0  0  0  0  0  0  0  0  0  0  0
    7.2709    4.5089   22.7542 C   0  0  0  0  0  0  0  0  0  0  0  0
    5.9698    7.6329   24.6581 C   0  0  0  0  0  0  0  0  0  0  0  0
    4.5542    8.9057   21.7104 O   0  0  0  0  0  0  0  0  0  0  0  0
    6.9895    3.2085   23.0690 C   0  0  0  0  0  0  0  0  0  0  0  0
    7.8391    2.2253   22.7260 N   0  0  0  0  0  0  0  0  0  0  0  0
    8.6968    9.8373   23.6359 C   0  0  0  0  0  0  0  0  0  0  0  0
   12.5135    6.5957   21.8396 C   0  0  0  0  0  0  0  0  0  0  0  0
   10.9406    8.2330   21.1350 C   0  0  0  0  0  0  0  0  0  0  0  0
    9.6648    8.5956   21.7310 C   0  0  0  0  0  0  0  0  0  0  0  0
   10.8829    1.7153   20.9865 C   0  0  0  0  0  0  0  0  0  0  0  0
    5.7768    2.8533   23.7910 C   0  0  0  0  0  0  0  0  0  0  0  0
    9.7977    1.4791   21.6912 N   0  0  0  0  0  0  0  0  0  0  0  0
    6.5976    9.3401   22.6478 N   0  0  0  0  0  0  0  0  0  0  0  0
   11.2031    3.0042   20.6246 C   0  0  0  0  0  0  0  0  0  0  0  0
   12.8688    7.7370   22.7287 C   0  0  0  0  0  0  0  0  0  0  0  0
    7.4487    9.1361   23.6506 C   0  0  0  0  0  0  0  0  0  0  0  0
    8.9772    2.5025   22.0273 C   0  0  0  0  0  0  0  0  0  0  0  0
   10.4859    4.0901   20.9730 C   0  0  0  0  0  0  0  0  0  0  0  0
   11.0962    9.3293   23.5072 C   0  0  0  0  0  0  0  0  0  0  0  0
    5.1273    7.8529   23.6208 N   0  0  0  0  0  0  0  0  0  0  0  0
    9.7552    9.2338   23.0171 N   0  0  0  0  0  0  0  0  0  0  0  0
   11.1797    6.7591   21.3326 N   0  0  0  0  0  0  0  0  0  0  0  0
   11.7728    8.0337   23.7267 C   0  0  0  0  0  0  0  0  0  0  0  0
    7.1194    8.3344   24.6775 C   0  0  0  0  0  0  0  0  0  0  0  0
    8.4311    4.7963   22.0500 C   0  0  0  0  0  0  0  0  0  0  0  0
    8.7393   10.8706   24.1871 O   0  0  0  0  0  0  0  0  0  0  0  0
    9.3093    3.8166   21.6712 C   0  0  0  0  0  0  0  0  0  0  0  0
  1  5  1  0
  1 15  4  0
  1 22  4  0
  2 20  1  0
  2 24  1  0
  3  6  4  0
  3 27  4  0
  4 22  4  0
  4 26  4  0
  6  7  4  0
  6 13  1  0
  7 19  4  0
  8 18  1  0
  8 23  1  0
  8 28  2  0
  9 17  1  0
  9 24  1  0
 10 11  1  0
 10 24  1  0
 11 23  1  0
 12 14  4  0
 12 16  4  0
 14 19  4  0
 15 18  4  0
 16 20  4  0
 17 25  1  0
 18 26  4  0
 19 29  4  0
 20 29  4  0
 21 23  1  0
 21 25  1  0
 27 29  4  0
M  END
$$$$

 Created by Python create_sdf_string function

 29 32  0  0  0  0  0  0  0  0999 V2000
    5.4450    8.7154   22.6662 C   0  0  0  0  0  0  0  0  0  0  0  0
   10.9154    5.4574   20.5483 C   0  0  0  0  0  0  0  0  0  0  0  0
    7.2709    4.5089   22.7542 C   0  0  0  0  0  0  0  0  0  0  0  0
    5.9698    7.6329   24.6581 C   0  0  0  0  0  0  0  0  0  0  0  0
    4.5542    8.9057   21.7104 O   0  0  0  0  0  0  0  0  0  0  0  0
    6.9895    3.2085   23.0690 C   0  0  0  0  0  0  0  0  0  0  0  0
    7.8391    2.2253   22.7260 N   0  0  0  0  0  0  0  0  0  0  0  0
    8.6968    9.8373   23.6359 C   0  0  0  0  0  0  0  0  0  0  0  0
   12.5135    6.5957   21.8396 C   0  0  0  0  0  0  0  0  0  0  0  0
   10.9406    8.2330   21.1350 C   0  0  0  0  0  0  0  0  0  0  0  0
    9.6648    8.5956   21.7310 C   0  0  0  0  0  0  0  0  0  0  0  0
   10.8829    1.7153   20.9865 C   0  0  0  0  0  0  0  0  0  0  0  0
    5.7768    2.8533   23.7910 C   0  0  0  0  0  0  0  0  0  0  0  0
    9.7977    1.4791   21.6912 N   0  0  0  0  0  0  0  0  0  0  0  0
    6.5976    9.3401   22.6478 N   0  0  0  0  0  0  0  0  0  0  0  0
   11.2031    3.0042   20.6246 C   0  0  0  0  0  0  0  0  0  0  0  0
   12.8688    7.7370   22.7287 C   0  0  0  0  0  0  0  0  0  0  0  0
    7.4487    9.1361   23.6506 C   0  0  0  0  0  0  0  0  0  0  0  0
    8.9772    2.5025   22.0273 C   0  0  0  0  0  0  0  0  0  0  0  0
   10.4859    4.0901   20.9730 C   0  0  0  0  0  0  0  0  0  0  0  0
   11.0962    9.3293   23.5072 C   0  0  0  0  0  0  0  0  0  0  0  0
    5.1273    7.8529   23.6208 N   0  0  0  0  0  0  0  0  0  0  0  0
    9.7552    9.2338   23.0171 N   0  0  0  0  0  0  0  0  0  0  0  0
   11.1797    6.7591   21.3326 N   0  0  0  0  0  0  0  0  0  0  0  0
   11.7728    8.0337   23.7267 C   0  0  0  0  0  0  0  0  0  0  0  0
    7.1194    8.3344   24.6775 C   0  0  0  0  0  0  0  0  0  0  0  0
    8.4311    4.7963   22.0500 C   0  0  0  0  0  0  0  0  0  0  0  0
    8.7393   10.8706   24.1871 O   0  0  0  0  0  0  0  0  0  0  0  0
    9.3093    3.8166   21.6712 C   0  0  0  0  0  0  0  0  0  0  0  0
  1  5  1  0
  1 15  4  0
  1 22  4  0
  2 20  1  0
  2 24  1  0
  3  6  4  0
  3 27  4  0
  4 22  4  0
  4 26  4  0
  6  7  4  0
  6 13  1  0
  7 19  4  0
  8 18  1  0
  8 23  1  0
  8 28  2  0
  9 17  1  0
  9 24  1  0
 10 11  1  0
 10 24  1  0
 11 23  1  0
 12 14  4  0
 12 16  4  0
 14 19  4  0
 15 18  4  0
 16 20  4  0
 17 25  1  0
 18 26  4  0
 19 29  4  0
 20 29  4  0
 21 23  1  0
 21 25  1  0
 27 29  4  0
M  END
$$$$

 Created by Python create_sdf_string function

 29 32  0  0  0  0  0  0  0  0999 V2000
    5.4450    8.7154   22.6662 C   0  0  0  0  0  0  0  0  0  0  0  0
   10.9154    5.4574   20.5483 C   0  0  0  0  0  0  0  0  0  0  0  0
    7.2709    4.5089   22.7542 C   0  0  0  0  0  0  0  0  0  0  0  0
    5.9698    7.6329   24.6581 C   0  0  0  0  0  0  0  0  0  0  0  0
    4.5542    8.9057   21.7104 O   0  0  0  0  0  0  0  0  0  0  0  0
    6.9895    3.2085   23.0690 C   0  0  0  0  0  0  0  0  0  0  0  0
    7.8391    2.2253   22.7260 N   0  0  0  0  0  0  0  0  0  0  0  0
    8.6968    9.8373   23.6359 C   0  0  0  0  0  0  0  0  0  0  0  0
   12.5135    6.5957   21.8396 C   0  0  0  0  0  0  0  0  0  0  0  0
   10.9406    8.2330   21.1350 C   0  0  0  0  0  0  0  0  0  0  0  0
    9.6648    8.5956   21.7310 C   0  0  0  0  0  0  0  0  0  0  0  0
   10.8829    1.7153   20.9865 C   0  0  0  0  0  0  0  0  0  0  0  0
    5.7768    2.8533   23.7910 C   0  0  0  0  0  0  0  0  0  0  0  0
    9.7977    1.4791   21.6912 N   0  0  0  0  0  0  0  0  0  0  0  0
    6.5976    9.3401   22.6478 N   0  0  0  0  0  0  0  0  0  0  0  0
   11.2031    3.0042   20.6246 C   0  0  0  0  0  0  0  0  0  0  0  0
   12.8688    7.7370   22.7287 C   0  0  0  0  0  0  0  0  0  0  0  0
    7.4487    9.1361   23.6506 C   0  0  0  0  0  0  0  0  0  0  0  0
    8.9772    2.5025   22.0273 C   0  0  0  0  0  0  0  0  0  0  0  0
   10.4859    4.0901   20.9730 C   0  0  0  0  0  0  0  0  0  0  0  0
   11.0962    9.3293   23.5072 C   0  0  0  0  0  0  0  0  0  0  0  0
    5.1273    7.8529   23.6208 N   0  0  0  0  0  0  0  0  0  0  0  0
    9.7552    9.2338   23.0171 N   0  0  0  0  0  0  0  0  0  0  0  0
   11.1797    6.7591   21.3326 N   0  0  0  0  0  0  0  0  0  0  0  0
   11.7728    8.0337   23.7267 C   0  0  0  0  0  0  0  0  0  0  0  0
    7.1194    8.3344   24.6775 C   0  0  0  0  0  0  0  0  0  0  0  0
    8.4311    4.7963   22.0500 C   0  0  0  0  0  0  0  0  0  0  0  0
    8.7393   10.8706   24.1871 O   0  0  0  0  0  0  0  0  0  0  0  0
    9.3093    3.8166   21.6712 C   0  0  0  0  0  0  0  0  0  0  0  0
  1  5  1  0
  1 15  4  0
  1 22  4  0
  2 20  1  0
  2 24  1  0
  3  6  4  0
  3 27  4  0
  4 22  4  0
  4 26  4  0
  6  7  4  0
  6 13  1  0
  7 19  4  0
  8 18  1  0
  8 23  1  0
  8 28  2  0
  9 17  1  0
  9 24  1  0
 10 11  1  0
 10 24  1  0
 11 23  1  0
 12 14  4  0
 12 16  4  0
 14 19  4  0
 15 18  4  0
 16 20  4  0
 17 25  1  0
 18 26  4  0
 19 29  4  0
 20 29  4  0
 21 23  1  0
 21 25  1  0
 27 29  4  0
M  END
$$$$

 Created by Python create_sdf_string function

 29 32  0  0  0  0  0  0  0  0999 V2000
    5.4450    8.7154   22.6662 C   0  0  0  0  0  0  0  0  0  0  0  0
   10.9154    5.4574   20.5483 C   0  0  0  0  0  0  0  0  0  0  0  0
    7.2709    4.5089   22.7542 C   0  0  0  0  0  0  0  0  0  0  0  0
    5.9698    7.6329   24.6581 C   0  0  0  0  0  0  0  0  0  0  0  0
    4.5542    8.9057   21.7104 O   0  0  0  0  0  0  0  0  0  0  0  0
    6.9895    3.2085   23.0690 C   0  0  0  0  0  0  0  0  0  0  0  0
    7.8391    2.2253   22.7260 N   0  0  0  0  0  0  0  0  0  0  0  0
    8.6968    9.8373   23.6359 C   0  0  0  0  0  0  0  0  0  0  0  0
   12.5135    6.5957   21.8396 C   0  0  0  0  0  0  0  0  0  0  0  0
   10.9406    8.2330   21.1350 C   0  0  0  0  0  0  0  0  0  0  0  0
    9.6648    8.5956   21.7310 C   0  0  0  0  0  0  0  0  0  0  0  0
   10.8829    1.7153   20.9865 C   0  0  0  0  0  0  0  0  0  0  0  0
    5.7768    2.8533   23.7910 C   0  0  0  0  0  0  0  0  0  0  0  0
    9.7977    1.4791   21.6912 N   0  0  0  0  0  0  0  0  0  0  0  0
    6.5976    9.3401   22.6478 N   0  0  0  0  0  0  0  0  0  0  0  0
   11.2031    3.0042   20.6246 C   0  0  0  0  0  0  0  0  0  0  0  0
   12.8688    7.7370   22.7287 C   0  0  0  0  0  0  0  0  0  0  0  0
    7.4487    9.1361   23.6506 C   0  0  0  0  0  0  0  0  0  0  0  0
    8.9772    2.5025   22.0273 C   0  0  0  0  0  0  0  0  0  0  0  0
   10.4859    4.0901   20.9730 C   0  0  0  0  0  0  0  0  0  0  0  0
   11.0962    9.3293   23.5072 C   0  0  0  0  0  0  0  0  0  0  0  0
    5.1273    7.8529   23.6208 N   0  0  0  0  0  0  0  0  0  0  0  0
    9.7552    9.2338   23.0171 N   0  0  0  0  0  0  0  0  0  0  0  0
   11.1797    6.7591   21.3326 N   0  0  0  0  0  0  0  0  0  0  0  0
   11.7728    8.0337   23.7267 C   0  0  0  0  0  0  0  0  0  0  0  0
    7.1194    8.3344   24.6775 C   0  0  0  0  0  0  0  0  0  0  0  0
    8.4311    4.7963   22.0500 C   0  0  0  0  0  0  0  0  0  0  0  0
    8.7393   10.8706   24.1871 O   0  0  0  0  0  0  0  0  0  0  0  0
    9.3093    3.8166   21.6712 C   0  0  0  0  0  0  0  0  0  0  0  0
  1  5  1  0
  1 15  4  0
  1 22  4  0
  2 20  1  0
  2 24  1  0
  3  6  4  0
  3 27  4  0
  4 22  4  0
  4 26  4  0
  6  7  4  0
  6 13  1  0
  7 19  4  0
  8 18  1  0
  8 23  1  0
  8 28  2  0
  9 17  1  0
  9 24  1  0
 10 11  1  0
 10 24  1  0
 11 23  1  0
 12 14  4  0
 12 16  4  0
 14 19  4  0
 15 18  4  0
 16 20  4  0
 17 25  1  0
 18 26  4  0
 19 29  4  0
 20 29  4  0
 21 23  1  0
 21 25  1  0
 27 29  4  0
M  END
$$$$

 Created by Python create_sdf_string function

 29 32  0  0  0  0  0  0  0  0999 V2000
    5.4450    8.7154   22.6662 C   0  0  0  0  0  0  0  0  0  0  0  0
   10.9154    5.4574   20.5483 C   0  0  0  0  0  0  0  0  0  0  0  0
    7.2709    4.5089   22.7542 C   0  0  0  0  0  0  0  0  0  0  0  0
    5.9698    7.6329   24.6581 C   0  0  0  0  0  0  0  0  0  0  0  0
    4.5542    8.9057   21.7104 O   0  0  0  0  0  0  0  0  0  0  0  0
    6.9895    3.2085   23.0690 C   0  0  0  0  0  0  0  0  0  0  0  0
    7.8391    2.2253   22.7260 N   0  0  0  0  0  0  0  0  0  0  0  0
    8.6968    9.8373   23.6359 C   0  0  0  0  0  0  0  0  0  0  0  0
   12.5135    6.5957   21.8396 C   0  0  0  0  0  0  0  0  0  0  0  0
   10.9406    8.2330   21.1350 C   0  0  0  0  0  0  0  0  0  0  0  0
    9.6648    8.5956   21.7310 C   0  0  0  0  0  0  0  0  0  0  0  0
   10.8829    1.7153   20.9865 C   0  0  0  0  0  0  0  0  0  0  0  0
    5.7768    2.8533   23.7910 C   0  0  0  0  0  0  0  0  0  0  0  0
    9.7977    1.4791   21.6912 N   0  0  0  0  0  0  0  0  0  0  0  0
    6.5976    9.3401   22.6478 N   0  0  0  0  0  0  0  0  0  0  0  0
   11.2031    3.0042   20.6246 C   0  0  0  0  0  0  0  0  0  0  0  0
   12.8688    7.7370   22.7287 C   0  0  0  0  0  0  0  0  0  0  0  0
    7.4487    9.1361   23.6506 C   0  0  0  0  0  0  0  0  0  0  0  0
    8.9772    2.5025   22.0273 C   0  0  0  0  0  0  0  0  0  0  0  0
   10.4859    4.0901   20.9730 C   0  0  0  0  0  0  0  0  0  0  0  0
   11.0962    9.3293   23.5072 C   0  0  0  0  0  0  0  0  0  0  0  0
    5.1273    7.8529   23.6208 N   0  0  0  0  0  0  0  0  0  0  0  0
    9.7552    9.2338   23.0171 N   0  0  0  0  0  0  0  0  0  0  0  0
   11.1797    6.7591   21.3326 N   0  0  0  0  0  0  0  0  0  0  0  0
   11.7728    8.0337   23.7267 C   0  0  0  0  0  0  0  0  0  0  0  0
    7.1194    8.3344   24.6775 C   0  0  0  0  0  0  0  0  0  0  0  0
    8.4311    4.7963   22.0500 C   0  0  0  0  0  0  0  0  0  0  0  0
    8.7393   10.8706   24.1871 O   0  0  0  0  0  0  0  0  0  0  0  0
    9.3093    3.8166   21.6712 C   0  0  0  0  0  0  0  0  0  0  0  0
  1  5  1  0
  1 15  4  0
  1 22  4  0
  2 20  1  0
  2 24  1  0
  3  6  4  0
  3 27  4  0
  4 22  4  0
  4 26  4  0
  6  7  4  0
  6 13  1  0
  7 19  4  0
  8 18  1  0
  8 23  1  0
  8 28  2  0
  9 17  1  0
  9 24  1  0
 10 11  1  0
 10 24  1  0
 11 23  1  0
 12 14  4  0
 12 16  4  0
 14 19  4  0
 15 18  4  0
 16 20  4  0
 17 25  1  0
 18 26  4  0
 19 29  4  0
 20 29  4  0
 21 23  1  0
 21 25  1  0
 27 29  4  0
M  END
$$$$

 Created by Python create_sdf_string function

 29 32  0  0  0  0  0  0  0  0999 V2000
    5.4450    8.7154   22.6662 C   0  0  0  0  0  0  0  0  0  0  0  0
   10.9154    5.4574   20.5483 C   0  0  0  0  0  0  0  0  0  0  0  0
    7.2709    4.5089   22.7542 C   0  0  0  0  0  0  0  0  0  0  0  0
    5.9698    7.6329   24.6581 C   0  0  0  0  0  0  0  0  0  0  0  0
    4.5542    8.9057   21.7104 O   0  0  0  0  0  0  0  0  0  0  0  0
    6.9895    3.2085   23.0690 C   0  0  0  0  0  0  0  0  0  0  0  0
    7.8391    2.2253   22.7260 N   0  0  0  0  0  0  0  0  0  0  0  0
    8.6968    9.8373   23.6359 C   0  0  0  0  0  0  0  0  0  0  0  0
   12.5135    6.5957   21.8396 C   0  0  0  0  0  0  0  0  0  0  0  0
   10.9406    8.2330   21.1350 C   0  0  0  0  0  0  0  0  0  0  0  0
    9.6648    8.5956   21.7310 C   0  0  0  0  0  0  0  0  0  0  0  0
   10.8829    1.7153   20.9865 C   0  0  0  0  0  0  0  0  0  0  0  0
    5.7768    2.8533   23.7910 C   0  0  0  0  0  0  0  0  0  0  0  0
    9.7977    1.4791   21.6912 N   0  0  0  0  0  0  0  0  0  0  0  0
    6.5976    9.3401   22.6478 N   0  0  0  0  0  0  0  0  0  0  0  0
   11.2031    3.0042   20.6246 C   0  0  0  0  0  0  0  0  0  0  0  0
   12.8688    7.7370   22.7287 C   0  0  0  0  0  0  0  0  0  0  0  0
    7.4487    9.1361   23.6506 C   0  0  0  0  0  0  0  0  0  0  0  0
    8.9772    2.5025   22.0273 C   0  0  0  0  0  0  0  0  0  0  0  0
   10.4859    4.0901   20.9730 C   0  0  0  0  0  0  0  0  0  0  0  0
   11.0962    9.3293   23.5072 C   0  0  0  0  0  0  0  0  0  0  0  0
    5.1273    7.8529   23.6208 N   0  0  0  0  0  0  0  0  0  0  0  0
    9.7552    9.2338   23.0171 N   0  0  0  0  0  0  0  0  0  0  0  0
   11.1797    6.7591   21.3326 N   0  0  0  0  0  0  0  0  0  0  0  0
   11.7728    8.0337   23.7267 C   0  0  0  0  0  0  0  0  0  0  0  0
    7.1194    8.3344   24.6775 C   0  0  0  0  0  0  0  0  0  0  0  0
    8.4311    4.7963   22.0500 C   0  0  0  0  0  0  0  0  0  0  0  0
    8.7393   10.8706   24.1871 O   0  0  0  0  0  0  0  0  0  0  0  0
    9.3093    3.8166   21.6712 C   0  0  0  0  0  0  0  0  0  0  0  0
  1  5  1  0
  1 15  4  0
  1 22  4  0
  2 20  1  0
  2 24  1  0
  3  6  4  0
  3 27  4  0
  4 22  4  0
  4 26  4  0
  6  7  4  0
  6 13  1  0
  7 19  4  0
  8 18  1  0
  8 23  1  0
  8 28  2  0
  9 17  1  0
  9 24  1  0
 10 11  1  0
 10 24  1  0
 11 23  1  0
 12 14  4  0
 12 16  4  0
 14 19  4  0
 15 18  4  0
 16 20  4  0
 17 25  1  0
 18 26  4  0
 19 29  4  0
 20 29  4  0
 21 23  1  0
 21 25  1  0
 27 29  4  0
M  END
$$$$

 Created by Python create_sdf_string function

 29 32  0  0  0  0  0  0  0  0999 V2000
    5.4450    8.7154   22.6662 C   0  0  0  0  0  0  0  0  0  0  0  0
   10.9154    5.4574   20.5483 C   0  0  0  0  0  0  0  0  0  0  0  0
    7.2709    4.5089   22.7542 C   0  0  0  0  0  0  0  0  0  0  0  0
    5.9698    7.6329   24.6581 C   0  0  0  0  0  0  0  0  0  0  0  0
    4.5542    8.9057   21.7104 O   0  0  0  0  0  0  0  0  0  0  0  0
    6.9895    3.2085   23.0690 C   0  0  0  0  0  0  0  0  0  0  0  0
    7.8391    2.2253   22.7260 N   0  0  0  0  0  0  0  0  0  0  0  0
    8.6968    9.8373   23.6359 C   0  0  0  0  0  0  0  0  0  0  0  0
   12.5135    6.5957   21.8396 C   0  0  0  0  0  0  0  0  0  0  0  0
   10.9406    8.2330   21.1350 C   0  0  0  0  0  0  0  0  0  0  0  0
    9.6648    8.5956   21.7310 C   0  0  0  0  0  0  0  0  0  0  0  0
   10.8829    1.7153   20.9865 C   0  0  0  0  0  0  0  0  0  0  0  0
    5.7768    2.8533   23.7910 C   0  0  0  0  0  0  0  0  0  0  0  0
    9.7977    1.4791   21.6912 N   0  0  0  0  0  0  0  0  0  0  0  0
    6.5976    9.3401   22.6478 N   0  0  0  0  0  0  0  0  0  0  0  0
   11.2031    3.0042   20.6246 C   0  0  0  0  0  0  0  0  0  0  0  0
   12.8688    7.7370   22.7287 C   0  0  0  0  0  0  0  0  0  0  0  0
    7.4487    9.1361   23.6506 C   0  0  0  0  0  0  0  0  0  0  0  0
    8.9772    2.5025   22.0273 C   0  0  0  0  0  0  0  0  0  0  0  0
   10.4859    4.0901   20.9730 C   0  0  0  0  0  0  0  0  0  0  0  0
   11.0962    9.3293   23.5072 C   0  0  0  0  0  0  0  0  0  0  0  0
    5.1273    7.8529   23.6208 N   0  0  0  0  0  0  0  0  0  0  0  0
    9.7552    9.2338   23.0171 N   0  0  0  0  0  0  0  0  0  0  0  0
   11.1797    6.7591   21.3326 N   0  0  0  0  0  0  0  0  0  0  0  0
   11.7728    8.0337   23.7267 C   0  0  0  0  0  0  0  0  0  0  0  0
    7.1194    8.3344   24.6775 C   0  0  0  0  0  0  0  0  0  0  0  0
    8.4311    4.7963   22.0500 C   0  0  0  0  0  0  0  0  0  0  0  0
    8.7393   10.8706   24.1871 O   0  0  0  0  0  0  0  0  0  0  0  0
    9.3093    3.8166   21.6712 C   0  0  0  0  0  0  0  0  0  0  0  0
  1  5  1  0
  1 15  4  0
  1 22  4  0
  2 20  1  0
  2 24  1  0
  3  6  4  0
  3 27  4  0
  4 22  4  0
  4 26  4  0
  6  7  4  0
  6 13  1  0
  7 19  4  0
  8 18  1  0
  8 23  1  0
  8 28  2  0
  9 17  1  0
  9 24  1  0
 10 11  1  0
 10 24  1  0
 11 23  1  0
 12 14  4  0
 12 16  4  0
 14 19  4  0
 15 18  4  0
 16 20  4  0
 17 25  1  0
 18 26  4  0
 19 29  4  0
 20 29  4  0
 21 23  1  0
 21 25  1  0
 27 29  4  0
M  END
$$$$

 Created by Python create_sdf_string function

 29 32  0  0  0  0  0  0  0  0999 V2000
    5.4450    8.7154   22.6662 C   0  0  0  0  0  0  0  0  0  0  0  0
   10.9154    5.4574   20.5483 C   0  0  0  0  0  0  0  0  0  0  0  0
    7.2709    4.5089   22.7542 C   0  0  0  0  0  0  0  0  0  0  0  0
    5.9698    7.6329   24.6581 C   0  0  0  0  0  0  0  0  0  0  0  0
    4.5542    8.9057   21.7104 O   0  0  0  0  0  0  0  0  0  0  0  0
    6.9895    3.2085   23.0690 C   0  0  0  0  0  0  0  0  0  0  0  0
    7.8391    2.2253   22.7260 N   0  0  0  0  0  0  0  0  0  0  0  0
    8.6968    9.8373   23.6359 C   0  0  0  0  0  0  0  0  0  0  0  0
   12.5135    6.5957   21.8396 C   0  0  0  0  0  0  0  0  0  0  0  0
   10.9406    8.2330   21.1350 C   0  0  0  0  0  0  0  0  0  0  0  0
    9.6648    8.5956   21.7310 C   0  0  0  0  0  0  0  0  0  0  0  0
   10.8829    1.7153   20.9865 C   0  0  0  0  0  0  0  0  0  0  0  0
    5.7768    2.8533   23.7910 C   0  0  0  0  0  0  0  0  0  0  0  0
    9.7977    1.4791   21.6912 N   0  0  0  0  0  0  0  0  0  0  0  0
    6.5976    9.3401   22.6478 N   0  0  0  0  0  0  0  0  0  0  0  0
   11.2031    3.0042   20.6246 C   0  0  0  0  0  0  0  0  0  0  0  0
   12.8688    7.7370   22.7287 C   0  0  0  0  0  0  0  0  0  0  0  0
    7.4487    9.1361   23.6506 C   0  0  0  0  0  0  0  0  0  0  0  0
    8.9772    2.5025   22.0273 C   0  0  0  0  0  0  0  0  0  0  0  0
   10.4859    4.0901   20.9730 C   0  0  0  0  0  0  0  0  0  0  0  0
   11.0962    9.3293   23.5072 C   0  0  0  0  0  0  0  0  0  0  0  0
    5.1273    7.8529   23.6208 N   0  0  0  0  0  0  0  0  0  0  0  0
    9.7552    9.2338   23.0171 N   0  0  0  0  0  0  0  0  0  0  0  0
   11.1797    6.7591   21.3326 N   0  0  0  0  0  0  0  0  0  0  0  0
   11.7728    8.0337   23.7267 C   0  0  0  0  0  0  0  0  0  0  0  0
    7.1194    8.3344   24.6775 C   0  0  0  0  0  0  0  0  0  0  0  0
    8.4311    4.7963   22.0500 C   0  0  0  0  0  0  0  0  0  0  0  0
    8.7393   10.8706   24.1871 O   0  0  0  0  0  0  0  0  0  0  0  0
    9.3093    3.8166   21.6712 C   0  0  0  0  0  0  0  0  0  0  0  0
  1  5  1  0
  1 15  4  0
  1 22  4  0
  2 20  1  0
  2 24  1  0
  3  6  4  0
  3 27  4  0
  4 22  4  0
  4 26  4  0
  6  7  4  0
  6 13  1  0
  7 19  4  0
  8 18  1  0
  8 23  1  0
  8 28  2  0
  9 17  1  0
  9 24  1  0
 10 11  1  0
 10 24  1  0
 11 23  1  0
 12 14  4  0
 12 16  4  0
 14 19  4  0
 15 18  4  0
 16 20  4  0
 17 25  1  0
 18 26  4  0
 19 29  4  0
 20 29  4  0
 21 23  1  0
 21 25  1  0
 27 29  4  0
M  END
$$$$

 Created by Python create_sdf_string function

 29 32  0  0  0  0  0  0  0  0999 V2000
    5.4450    8.7154   22.6662 C   0  0  0  0  0  0  0  0  0  0  0  0
   10.9154    5.4574   20.5483 C   0  0  0  0  0  0  0  0  0  0  0  0
    7.2709    4.5089   22.7542 C   0  0  0  0  0  0  0  0  0  0  0  0
    5.9698    7.6329   24.6581 C   0  0  0  0  0  0  0  0  0  0  0  0
    4.5542    8.9057   21.7104 O   0  0  0  0  0  0  0  0  0  0  0  0
    6.9895    3.2085   23.0690 C   0  0  0  0  0  0  0  0  0  0  0  0
    7.8391    2.2253   22.7260 N   0  0  0  0  0  0  0  0  0  0  0  0
    8.6968    9.8373   23.6359 C   0  0  0  0  0  0  0  0  0  0  0  0
   12.5135    6.5957   21.8396 C   0  0  0  0  0  0  0  0  0  0  0  0
   10.9406    8.2330   21.1350 C   0  0  0  0  0  0  0  0  0  0  0  0
    9.6648    8.5956   21.7310 C   0  0  0  0  0  0  0  0  0  0  0  0
   10.8829    1.7153   20.9865 C   0  0  0  0  0  0  0  0  0  0  0  0
    5.7768    2.8533   23.7910 C   0  0  0  0  0  0  0  0  0  0  0  0
    9.7977    1.4791   21.6912 N   0  0  0  0  0  0  0  0  0  0  0  0
    6.5976    9.3401   22.6478 N   0  0  0  0  0  0  0  0  0  0  0  0
   11.2031    3.0042   20.6246 C   0  0  0  0  0  0  0  0  0  0  0  0
   12.8688    7.7370   22.7287 C   0  0  0  0  0  0  0  0  0  0  0  0
    7.4487    9.1361   23.6506 C   0  0  0  0  0  0  0  0  0  0  0  0
    8.9772    2.5025   22.0273 C   0  0  0  0  0  0  0  0  0  0  0  0
   10.4859    4.0901   20.9730 C   0  0  0  0  0  0  0  0  0  0  0  0
   11.0962    9.3293   23.5072 C   0  0  0  0  0  0  0  0  0  0  0  0
    5.1273    7.8529   23.6208 N   0  0  0  0  0  0  0  0  0  0  0  0
    9.7552    9.2338   23.0171 N   0  0  0  0  0  0  0  0  0  0  0  0
   11.1797    6.7591   21.3326 N   0  0  0  0  0  0  0  0  0  0  0  0
   11.7728    8.0337   23.7267 C   0  0  0  0  0  0  0  0  0  0  0  0
    7.1194    8.3344   24.6775 C   0  0  0  0  0  0  0  0  0  0  0  0
    8.4311    4.7963   22.0500 C   0  0  0  0  0  0  0  0  0  0  0  0
    8.7393   10.8706   24.1871 O   0  0  0  0  0  0  0  0  0  0  0  0
    9.3093    3.8166   21.6712 C   0  0  0  0  0  0  0  0  0  0  0  0
  1  5  1  0
  1 15  4  0
  1 22  4  0
  2 20  1  0
  2 24  1  0
  3  6  4  0
  3 27  4  0
  4 22  4  0
  4 26  4  0
  6  7  4  0
  6 13  1  0
  7 19  4  0
  8 18  1  0
  8 23  1  0
  8 28  2  0
  9 17  1  0
  9 24  1  0
 10 11  1  0
 10 24  1  0
 11 23  1  0
 12 14  4  0
 12 16  4  0
 14 19  4  0
 15 18  4  0
 16 20  4  0
 17 25  1  0
 18 26  4  0
 19 29  4  0
 20 29  4  0
 21 23  1  0
 21 25  1  0
 27 29  4  0
M  END
$$$$

 Created by Python create_sdf_string function

 29 32  0  0  0  0  0  0  0  0999 V2000
    5.4450    8.7154   22.6662 C   0  0  0  0  0  0  0  0  0  0  0  0
   10.9154    5.4574   20.5483 C   0  0  0  0  0  0  0  0  0  0  0  0
    7.2709    4.5089   22.7542 C   0  0  0  0  0  0  0  0  0  0  0  0
    5.9698    7.6329   24.6581 C   0  0  0  0  0  0  0  0  0  0  0  0
    4.5542    8.9057   21.7104 O   0  0  0  0  0  0  0  0  0  0  0  0
    6.9895    3.2085   23.0690 C   0  0  0  0  0  0  0  0  0  0  0  0
    7.8391    2.2253   22.7260 N   0  0  0  0  0  0  0  0  0  0  0  0
    8.6968    9.8373   23.6359 C   0  0  0  0  0  0  0  0  0  0  0  0
   12.5135    6.5957   21.8396 C   0  0  0  0  0  0  0  0  0  0  0  0
   10.9406    8.2330   21.1350 C   0  0  0  0  0  0  0  0  0  0  0  0
    9.6648    8.5956   21.7310 C   0  0  0  0  0  0  0  0  0  0  0  0
   10.8829    1.7153   20.9865 C   0  0  0  0  0  0  0  0  0  0  0  0
    5.7768    2.8533   23.7910 C   0  0  0  0  0  0  0  0  0  0  0  0
    9.7977    1.4791   21.6912 N   0  0  0  0  0  0  0  0  0  0  0  0
    6.5976    9.3401   22.6478 N   0  0  0  0  0  0  0  0  0  0  0  0
   11.2031    3.0042   20.6246 C   0  0  0  0  0  0  0  0  0  0  0  0
   12.8688    7.7370   22.7287 C   0  0  0  0  0  0  0  0  0  0  0  0
    7.4487    9.1361   23.6506 C   0  0  0  0  0  0  0  0  0  0  0  0
    8.9772    2.5025   22.0273 C   0  0  0  0  0  0  0  0  0  0  0  0
   10.4859    4.0901   20.9730 C   0  0  0  0  0  0  0  0  0  0  0  0
   11.0962    9.3293   23.5072 C   0  0  0  0  0  0  0  0  0  0  0  0
    5.1273    7.8529   23.6208 N   0  0  0  0  0  0  0  0  0  0  0  0
    9.7552    9.2338   23.0171 N   0  0  0  0  0  0  0  0  0  0  0  0
   11.1797    6.7591   21.3326 N   0  0  0  0  0  0  0  0  0  0  0  0
   11.7728    8.0337   23.7267 C   0  0  0  0  0  0  0  0  0  0  0  0
    7.1194    8.3344   24.6775 C   0  0  0  0  0  0  0  0  0  0  0  0
    8.4311    4.7963   22.0500 C   0  0  0  0  0  0  0  0  0  0  0  0
    8.7393   10.8706   24.1871 O   0  0  0  0  0  0  0  0  0  0  0  0
    9.3093    3.8166   21.6712 C   0  0  0  0  0  0  0  0  0  0  0  0
  1  5  1  0
  1 15  4  0
  1 22  4  0
  2 20  1  0
  2 24  1  0
  3  6  4  0
  3 27  4  0
  4 22  4  0
  4 26  4  0
  6  7  4  0
  6 13  1  0
  7 19  4  0
  8 18  1  0
  8 23  1  0
  8 28  2  0
  9 17  1  0
  9 24  1  0
 10 11  1  0
 10 24  1  0
 11 23  1  0
 12 14  4  0
 12 16  4  0
 14 19  4  0
 15 18  4  0
 16 20  4  0
 17 25  1  0
 18 26  4  0
 19 29  4  0
 20 29  4  0
 21 23  1  0
 21 25  1  0
 27 29  4  0
M  END
$$$$

 Created by Python create_sdf_string function

 29 32  0  0  0  0  0  0  0  0999 V2000
    5.4450    8.7154   22.6662 C   0  0  0  0  0  0  0  0  0  0  0  0
   10.9154    5.4574   20.5483 C   0  0  0  0  0  0  0  0  0  0  0  0
    7.2709    4.5089   22.7542 C   0  0  0  0  0  0  0  0  0  0  0  0
    5.9698    7.6329   24.6581 C   0  0  0  0  0  0  0  0  0  0  0  0
    4.5542    8.9057   21.7104 O   0  0  0  0  0  0  0  0  0  0  0  0
    6.9895    3.2085   23.0690 C   0  0  0  0  0  0  0  0  0  0  0  0
    7.8391    2.2253   22.7260 N   0  0  0  0  0  0  0  0  0  0  0  0
    8.6968    9.8373   23.6359 C   0  0  0  0  0  0  0  0  0  0  0  0
   12.5135    6.5957   21.8396 C   0  0  0  0  0  0  0  0  0  0  0  0
   10.9406    8.2330   21.1350 C   0  0  0  0  0  0  0  0  0  0  0  0
    9.6648    8.5956   21.7310 C   0  0  0  0  0  0  0  0  0  0  0  0
   10.8829    1.7153   20.9865 C   0  0  0  0  0  0  0  0  0  0  0  0
    5.7768    2.8533   23.7910 C   0  0  0  0  0  0  0  0  0  0  0  0
    9.7977    1.4791   21.6912 N   0  0  0  0  0  0  0  0  0  0  0  0
    6.5976    9.3401   22.6478 N   0  0  0  0  0  0  0  0  0  0  0  0
   11.2031    3.0042   20.6246 C   0  0  0  0  0  0  0  0  0  0  0  0
   12.8688    7.7370   22.7287 C   0  0  0  0  0  0  0  0  0  0  0  0
    7.4487    9.1361   23.6506 C   0  0  0  0  0  0  0  0  0  0  0  0
    8.9772    2.5025   22.0273 C   0  0  0  0  0  0  0  0  0  0  0  0
   10.4859    4.0901   20.9730 C   0  0  0  0  0  0  0  0  0  0  0  0
   11.0962    9.3293   23.5072 C   0  0  0  0  0  0  0  0  0  0  0  0
    5.1273    7.8529   23.6208 N   0  0  0  0  0  0  0  0  0  0  0  0
    9.7552    9.2338   23.0171 N   0  0  0  0  0  0  0  0  0  0  0  0
   11.1797    6.7591   21.3326 N   0  0  0  0  0  0  0  0  0  0  0  0
   11.7728    8.0337   23.7267 C   0  0  0  0  0  0  0  0  0  0  0  0
    7.1194    8.3344   24.6775 C   0  0  0  0  0  0  0  0  0  0  0  0
    8.4311    4.7963   22.0500 C   0  0  0  0  0  0  0  0  0  0  0  0
    8.7393   10.8706   24.1871 O   0  0  0  0  0  0  0  0  0  0  0  0
    9.3093    3.8166   21.6712 C   0  0  0  0  0  0  0  0  0  0  0  0
  1  5  1  0
  1 15  4  0
  1 22  4  0
  2 20  1  0
  2 24  1  0
  3  6  4  0
  3 27  4  0
  4 22  4  0
  4 26  4  0
  6  7  4  0
  6 13  1  0
  7 19  4  0
  8 18  1  0
  8 23  1  0
  8 28  2  0
  9 17  1  0
  9 24  1  0
 10 11  1  0
 10 24  1  0
 11 23  1  0
 12 14  4  0
 12 16  4  0
 14 19  4  0
 15 18  4  0
 16 20  4  0
 17 25  1  0
 18 26  4  0
 19 29  4  0
 20 29  4  0
 21 23  1  0
 21 25  1  0
 27 29  4  0
M  END
$$$$

 Created by Python create_sdf_string function

 29 32  0  0  0  0  0  0  0  0999 V2000
    5.4450    8.7154   22.6662 C   0  0  0  0  0  0  0  0  0  0  0  0
   10.9154    5.4574   20.5483 C   0  0  0  0  0  0  0  0  0  0  0  0
    7.2709    4.5089   22.7542 C   0  0  0  0  0  0  0  0  0  0  0  0
    5.9698    7.6329   24.6581 C   0  0  0  0  0  0  0  0  0  0  0  0
    4.5542    8.9057   21.7104 O   0  0  0  0  0  0  0  0  0  0  0  0
    6.9895    3.2085   23.0690 C   0  0  0  0  0  0  0  0  0  0  0  0
    7.8391    2.2253   22.7260 N   0  0  0  0  0  0  0  0  0  0  0  0
    8.6968    9.8373   23.6359 C   0  0  0  0  0  0  0  0  0  0  0  0
   12.5135    6.5957   21.8396 C   0  0  0  0  0  0  0  0  0  0  0  0
   10.9406    8.2330   21.1350 C   0  0  0  0  0  0  0  0  0  0  0  0
    9.6648    8.5956   21.7310 C   0  0  0  0  0  0  0  0  0  0  0  0
   10.8829    1.7153   20.9865 C   0  0  0  0  0  0  0  0  0  0  0  0
    5.7768    2.8533   23.7910 C   0  0  0  0  0  0  0  0  0  0  0  0
    9.7977    1.4791   21.6912 N   0  0  0  0  0  0  0  0  0  0  0  0
    6.5976    9.3401   22.6478 N   0  0  0  0  0  0  0  0  0  0  0  0
   11.2031    3.0042   20.6246 C   0  0  0  0  0  0  0  0  0  0  0  0
   12.8688    7.7370   22.7287 C   0  0  0  0  0  0  0  0  0  0  0  0
    7.4487    9.1361   23.6506 C   0  0  0  0  0  0  0  0  0  0  0  0
    8.9772    2.5025   22.0273 C   0  0  0  0  0  0  0  0  0  0  0  0
   10.4859    4.0901   20.9730 C   0  0  0  0  0  0  0  0  0  0  0  0
   11.0962    9.3293   23.5072 C   0  0  0  0  0  0  0  0  0  0  0  0
    5.1273    7.8529   23.6208 N   0  0  0  0  0  0  0  0  0  0  0  0
    9.7552    9.2338   23.0171 N   0  0  0  0  0  0  0  0  0  0  0  0
   11.1797    6.7591   21.3326 N   0  0  0  0  0  0  0  0  0  0  0  0
   11.7728    8.0337   23.7267 C   0  0  0  0  0  0  0  0  0  0  0  0
    7.1194    8.3344   24.6775 C   0  0  0  0  0  0  0  0  0  0  0  0
    8.4311    4.7963   22.0500 C   0  0  0  0  0  0  0  0  0  0  0  0
    8.7393   10.8706   24.1871 O   0  0  0  0  0  0  0  0  0  0  0  0
    9.3093    3.8166   21.6712 C   0  0  0  0  0  0  0  0  0  0  0  0
  1  5  1  0
  1 15  4  0
  1 22  4  0
  2 20  1  0
  2 24  1  0
  3  6  4  0
  3 27  4  0
  4 22  4  0
  4 26  4  0
  6  7  4  0
  6 13  1  0
  7 19  4  0
  8 18  1  0
  8 23  1  0
  8 28  2  0
  9 17  1  0
  9 24  1  0
 10 11  1  0
 10 24  1  0
 11 23  1  0
 12 14  4  0
 12 16  4  0
 14 19  4  0
 15 18  4  0
 16 20  4  0
 17 25  1  0
 18 26  4  0
 19 29  4  0
 20 29  4  0
 21 23  1  0
 21 25  1  0
 27 29  4  0
M  END
$$$$

 Created by Python create_sdf_string function

 29 32  0  0  0  0  0  0  0  0999 V2000
    5.4450    8.7154   22.6662 C   0  0  0  0  0  0  0  0  0  0  0  0
   10.9154    5.4574   20.5483 C   0  0  0  0  0  0  0  0  0  0  0  0
    7.2709    4.5089   22.7542 C   0  0  0  0  0  0  0  0  0  0  0  0
    5.9698    7.6329   24.6581 C   0  0  0  0  0  0  0  0  0  0  0  0
    4.5542    8.9057   21.7104 O   0  0  0  0  0  0  0  0  0  0  0  0
    6.9895    3.2085   23.0690 C   0  0  0  0  0  0  0  0  0  0  0  0
    7.8391    2.2253   22.7260 N   0  0  0  0  0  0  0  0  0  0  0  0
    8.6968    9.8373   23.6359 C   0  0  0  0  0  0  0  0  0  0  0  0
   12.5135    6.5957   21.8396 C   0  0  0  0  0  0  0  0  0  0  0  0
   10.9406    8.2330   21.1350 C   0  0  0  0  0  0  0  0  0  0  0  0
    9.6648    8.5956   21.7310 C   0  0  0  0  0  0  0  0  0  0  0  0
   10.8829    1.7153   20.9865 C   0  0  0  0  0  0  0  0  0  0  0  0
    5.7768    2.8533   23.7910 C   0  0  0  0  0  0  0  0  0  0  0  0
    9.7977    1.4791   21.6912 N   0  0  0  0  0  0  0  0  0  0  0  0
    6.5976    9.3401   22.6478 N   0  0  0  0  0  0  0  0  0  0  0  0
   11.2031    3.0042   20.6246 C   0  0  0  0  0  0  0  0  0  0  0  0
   12.8688    7.7370   22.7287 C   0  0  0  0  0  0  0  0  0  0  0  0
    7.4487    9.1361   23.6506 C   0  0  0  0  0  0  0  0  0  0  0  0
    8.9772    2.5025   22.0273 C   0  0  0  0  0  0  0  0  0  0  0  0
   10.4859    4.0901   20.9730 C   0  0  0  0  0  0  0  0  0  0  0  0
   11.0962    9.3293   23.5072 C   0  0  0  0  0  0  0  0  0  0  0  0
    5.1273    7.8529   23.6208 N   0  0  0  0  0  0  0  0  0  0  0  0
    9.7552    9.2338   23.0171 N   0  0  0  0  0  0  0  0  0  0  0  0
   11.1797    6.7591   21.3326 N   0  0  0  0  0  0  0  0  0  0  0  0
   11.7728    8.0337   23.7267 C   0  0  0  0  0  0  0  0  0  0  0  0
    7.1194    8.3344   24.6775 C   0  0  0  0  0  0  0  0  0  0  0  0
    8.4311    4.7963   22.0500 C   0  0  0  0  0  0  0  0  0  0  0  0
    8.7393   10.8706   24.1871 O   0  0  0  0  0  0  0  0  0  0  0  0
    9.3093    3.8166   21.6712 C   0  0  0  0  0  0  0  0  0  0  0  0
  1  5  1  0
  1 15  4  0
  1 22  4  0
  2 20  1  0
  2 24  1  0
  3  6  4  0
  3 27  4  0
  4 22  4  0
  4 26  4  0
  6  7  4  0
  6 13  1  0
  7 19  4  0
  8 18  1  0
  8 23  1  0
  8 28  2  0
  9 17  1  0
  9 24  1  0
 10 11  1  0
 10 24  1  0
 11 23  1  0
 12 14  4  0
 12 16  4  0
 14 19  4  0
 15 18  4  0
 16 20  4  0
 17 25  1  0
 18 26  4  0
 19 29  4  0
 20 29  4  0
 21 23  1  0
 21 25  1  0
 27 29  4  0
M  END
$$$$

 Created by Python create_sdf_string function

 29 32  0  0  0  0  0  0  0  0999 V2000
    5.4450    8.7154   22.6662 C   0  0  0  0  0  0  0  0  0  0  0  0
   10.9154    5.4574   20.5483 C   0  0  0  0  0  0  0  0  0  0  0  0
    7.2709    4.5089   22.7542 C   0  0  0  0  0  0  0  0  0  0  0  0
    5.9698    7.6329   24.6581 C   0  0  0  0  0  0  0  0  0  0  0  0
    4.5542    8.9057   21.7104 O   0  0  0  0  0  0  0  0  0  0  0  0
    6.9895    3.2085   23.0690 C   0  0  0  0  0  0  0  0  0  0  0  0
    7.8391    2.2253   22.7260 N   0  0  0  0  0  0  0  0  0  0  0  0
    8.6968    9.8373   23.6359 C   0  0  0  0  0  0  0  0  0  0  0  0
   12.5135    6.5957   21.8396 C   0  0  0  0  0  0  0  0  0  0  0  0
   10.9406    8.2330   21.1350 C   0  0  0  0  0  0  0  0  0  0  0  0
    9.6648    8.5956   21.7310 C   0  0  0  0  0  0  0  0  0  0  0  0
   10.8829    1.7153   20.9865 C   0  0  0  0  0  0  0  0  0  0  0  0
    5.7768    2.8533   23.7910 C   0  0  0  0  0  0  0  0  0  0  0  0
    9.7977    1.4791   21.6912 N   0  0  0  0  0  0  0  0  0  0  0  0
    6.5976    9.3401   22.6478 N   0  0  0  0  0  0  0  0  0  0  0  0
   11.2031    3.0042   20.6246 C   0  0  0  0  0  0  0  0  0  0  0  0
   12.8688    7.7370   22.7287 C   0  0  0  0  0  0  0  0  0  0  0  0
    7.4487    9.1361   23.6506 C   0  0  0  0  0  0  0  0  0  0  0  0
    8.9772    2.5025   22.0273 C   0  0  0  0  0  0  0  0  0  0  0  0
   10.4859    4.0901   20.9730 C   0  0  0  0  0  0  0  0  0  0  0  0
   11.0962    9.3293   23.5072 C   0  0  0  0  0  0  0  0  0  0  0  0
    5.1273    7.8529   23.6208 N   0  0  0  0  0  0  0  0  0  0  0  0
    9.7552    9.2338   23.0171 N   0  0  0  0  0  0  0  0  0  0  0  0
   11.1797    6.7591   21.3326 N   0  0  0  0  0  0  0  0  0  0  0  0
   11.7728    8.0337   23.7267 C   0  0  0  0  0  0  0  0  0  0  0  0
    7.1194    8.3344   24.6775 C   0  0  0  0  0  0  0  0  0  0  0  0
    8.4311    4.7963   22.0500 C   0  0  0  0  0  0  0  0  0  0  0  0
    8.7393   10.8706   24.1871 O   0  0  0  0  0  0  0  0  0  0  0  0
    9.3093    3.8166   21.6712 C   0  0  0  0  0  0  0  0  0  0  0  0
  1  5  1  0
  1 15  4  0
  1 22  4  0
  2 20  1  0
  2 24  1  0
  3  6  4  0
  3 27  4  0
  4 22  4  0
  4 26  4  0
  6  7  4  0
  6 13  1  0
  7 19  4  0
  8 18  1  0
  8 23  1  0
  8 28  2  0
  9 17  1  0
  9 24  1  0
 10 11  1  0
 10 24  1  0
 11 23  1  0
 12 14  4  0
 12 16  4  0
 14 19  4  0
 15 18  4  0
 16 20  4  0
 17 25  1  0
 18 26  4  0
 19 29  4  0
 20 29  4  0
 21 23  1  0
 21 25  1  0
 27 29  4  0
M  END
$$$$

 Created by Python create_sdf_string function

 29 32  0  0  0  0  0  0  0  0999 V2000
    5.4450    8.7154   22.6662 C   0  0  0  0  0  0  0  0  0  0  0  0
   10.9154    5.4574   20.5483 C   0  0  0  0  0  0  0  0  0  0  0  0
    7.2709    4.5089   22.7542 C   0  0  0  0  0  0  0  0  0  0  0  0
    5.9698    7.6329   24.6581 C   0  0  0  0  0  0  0  0  0  0  0  0
    4.5542    8.9057   21.7104 O   0  0  0  0  0  0  0  0  0  0  0  0
    6.9895    3.2085   23.0690 C   0  0  0  0  0  0  0  0  0  0  0  0
    7.8391    2.2253   22.7260 N   0  0  0  0  0  0  0  0  0  0  0  0
    8.6968    9.8373   23.6359 C   0  0  0  0  0  0  0  0  0  0  0  0
   12.5135    6.5957   21.8396 C   0  0  0  0  0  0  0  0  0  0  0  0
   10.9406    8.2330   21.1350 C   0  0  0  0  0  0  0  0  0  0  0  0
    9.6648    8.5956   21.7310 C   0  0  0  0  0  0  0  0  0  0  0  0
   10.8829    1.7153   20.9865 C   0  0  0  0  0  0  0  0  0  0  0  0
    5.7768    2.8533   23.7910 C   0  0  0  0  0  0  0  0  0  0  0  0
    9.7977    1.4791   21.6912 N   0  0  0  0  0  0  0  0  0  0  0  0
    6.5976    9.3401   22.6478 N   0  0  0  0  0  0  0  0  0  0  0  0
   11.2031    3.0042   20.6246 C   0  0  0  0  0  0  0  0  0  0  0  0
   12.8688    7.7370   22.7287 C   0  0  0  0  0  0  0  0  0  0  0  0
    7.4487    9.1361   23.6506 C   0  0  0  0  0  0  0  0  0  0  0  0
    8.9772    2.5025   22.0273 C   0  0  0  0  0  0  0  0  0  0  0  0
   10.4859    4.0901   20.9730 C   0  0  0  0  0  0  0  0  0  0  0  0
   11.0962    9.3293   23.5072 C   0  0  0  0  0  0  0  0  0  0  0  0
    5.1273    7.8529   23.6208 N   0  0  0  0  0  0  0  0  0  0  0  0
    9.7552    9.2338   23.0171 N   0  0  0  0  0  0  0  0  0  0  0  0
   11.1797    6.7591   21.3326 N   0  0  0  0  0  0  0  0  0  0  0  0
   11.7728    8.0337   23.7267 C   0  0  0  0  0  0  0  0  0  0  0  0
    7.1194    8.3344   24.6775 C   0  0  0  0  0  0  0  0  0  0  0  0
    8.4311    4.7963   22.0500 C   0  0  0  0  0  0  0  0  0  0  0  0
    8.7393   10.8706   24.1871 O   0  0  0  0  0  0  0  0  0  0  0  0
    9.3093    3.8166   21.6712 C   0  0  0  0  0  0  0  0  0  0  0  0
  1  5  1  0
  1 15  4  0
  1 22  4  0
  2 20  1  0
  2 24  1  0
  3  6  4  0
  3 27  4  0
  4 22  4  0
  4 26  4  0
  6  7  4  0
  6 13  1  0
  7 19  4  0
  8 18  1  0
  8 23  1  0
  8 28  2  0
  9 17  1  0
  9 24  1  0
 10 11  1  0
 10 24  1  0
 11 23  1  0
 12 14  4  0
 12 16  4  0
 14 19  4  0
 15 18  4  0
 16 20  4  0
 17 25  1  0
 18 26  4  0
 19 29  4  0
 20 29  4  0
 21 23  1  0
 21 25  1  0
 27 29  4  0
M  END
$$$$

 Created by Python create_sdf_string function

 29 32  0  0  0  0  0  0  0  0999 V2000
    5.4450    8.7154   22.6662 C   0  0  0  0  0  0  0  0  0  0  0  0
   10.9154    5.4574   20.5483 C   0  0  0  0  0  0  0  0  0  0  0  0
    7.2709    4.5089   22.7542 C   0  0  0  0  0  0  0  0  0  0  0  0
    5.9698    7.6329   24.6581 C   0  0  0  0  0  0  0  0  0  0  0  0
    4.5542    8.9057   21.7104 O   0  0  0  0  0  0  0  0  0  0  0  0
    6.9895    3.2085   23.0690 C   0  0  0  0  0  0  0  0  0  0  0  0
    7.8391    2.2253   22.7260 N   0  0  0  0  0  0  0  0  0  0  0  0
    8.6968    9.8373   23.6359 C   0  0  0  0  0  0  0  0  0  0  0  0
   12.5135    6.5957   21.8396 C   0  0  0  0  0  0  0  0  0  0  0  0
   10.9406    8.2330   21.1350 C   0  0  0  0  0  0  0  0  0  0  0  0
    9.6648    8.5956   21.7310 C   0  0  0  0  0  0  0  0  0  0  0  0
   10.8829    1.7153   20.9865 C   0  0  0  0  0  0  0  0  0  0  0  0
    5.7768    2.8533   23.7910 C   0  0  0  0  0  0  0  0  0  0  0  0
    9.7977    1.4791   21.6912 N   0  0  0  0  0  0  0  0  0  0  0  0
    6.5976    9.3401   22.6478 N   0  0  0  0  0  0  0  0  0  0  0  0
   11.2031    3.0042   20.6246 C   0  0  0  0  0  0  0  0  0  0  0  0
   12.8688    7.7370   22.7287 C   0  0  0  0  0  0  0  0  0  0  0  0
    7.4487    9.1361   23.6506 C   0  0  0  0  0  0  0  0  0  0  0  0
    8.9772    2.5025   22.0273 C   0  0  0  0  0  0  0  0  0  0  0  0
   10.4859    4.0901   20.9730 C   0  0  0  0  0  0  0  0  0  0  0  0
   11.0962    9.3293   23.5072 C   0  0  0  0  0  0  0  0  0  0  0  0
    5.1273    7.8529   23.6208 N   0  0  0  0  0  0  0  0  0  0  0  0
    9.7552    9.2338   23.0171 N   0  0  0  0  0  0  0  0  0  0  0  0
   11.1797    6.7591   21.3326 N   0  0  0  0  0  0  0  0  0  0  0  0
   11.7728    8.0337   23.7267 C   0  0  0  0  0  0  0  0  0  0  0  0
    7.1194    8.3344   24.6775 C   0  0  0  0  0  0  0  0  0  0  0  0
    8.4311    4.7963   22.0500 C   0  0  0  0  0  0  0  0  0  0  0  0
    8.7393   10.8706   24.1871 O   0  0  0  0  0  0  0  0  0  0  0  0
    9.3093    3.8166   21.6712 C   0  0  0  0  0  0  0  0  0  0  0  0
  1  5  1  0
  1 15  4  0
  1 22  4  0
  2 20  1  0
  2 24  1  0
  3  6  4  0
  3 27  4  0
  4 22  4  0
  4 26  4  0
  6  7  4  0
  6 13  1  0
  7 19  4  0
  8 18  1  0
  8 23  1  0
  8 28  2  0
  9 17  1  0
  9 24  1  0
 10 11  1  0
 10 24  1  0
 11 23  1  0
 12 14  4  0
 12 16  4  0
 14 19  4  0
 15 18  4  0
 16 20  4  0
 17 25  1  0
 18 26  4  0
 19 29  4  0
 20 29  4  0
 21 23  1  0
 21 25  1  0
 27 29  4  0
M  END
$$$$

 Created by Python create_sdf_string function

 29 32  0  0  0  0  0  0  0  0999 V2000
    5.4450    8.7154   22.6662 C   0  0  0  0  0  0  0  0  0  0  0  0
   10.9154    5.4574   20.5483 C   0  0  0  0  0  0  0  0  0  0  0  0
    7.2709    4.5089   22.7542 C   0  0  0  0  0  0  0  0  0  0  0  0
    5.9698    7.6329   24.6581 C   0  0  0  0  0  0  0  0  0  0  0  0
    4.5542    8.9057   21.7104 O   0  0  0  0  0  0  0  0  0  0  0  0
    6.9895    3.2085   23.0690 C   0  0  0  0  0  0  0  0  0  0  0  0
    7.8391    2.2253   22.7260 N   0  0  0  0  0  0  0  0  0  0  0  0
    8.6968    9.8373   23.6359 C   0  0  0  0  0  0  0  0  0  0  0  0
   12.5135    6.5957   21.8396 C   0  0  0  0  0  0  0  0  0  0  0  0
   10.9406    8.2330   21.1350 C   0  0  0  0  0  0  0  0  0  0  0  0
    9.6648    8.5956   21.7310 C   0  0  0  0  0  0  0  0  0  0  0  0
   10.8829    1.7153   20.9865 C   0  0  0  0  0  0  0  0  0  0  0  0
    5.7768    2.8533   23.7910 C   0  0  0  0  0  0  0  0  0  0  0  0
    9.7977    1.4791   21.6912 N   0  0  0  0  0  0  0  0  0  0  0  0
    6.5976    9.3401   22.6478 N   0  0  0  0  0  0  0  0  0  0  0  0
   11.2031    3.0042   20.6246 C   0  0  0  0  0  0  0  0  0  0  0  0
   12.8688    7.7370   22.7287 C   0  0  0  0  0  0  0  0  0  0  0  0
    7.4487    9.1361   23.6506 C   0  0  0  0  0  0  0  0  0  0  0  0
    8.9772    2.5025   22.0273 C   0  0  0  0  0  0  0  0  0  0  0  0
   10.4859    4.0901   20.9730 C   0  0  0  0  0  0  0  0  0  0  0  0
   11.0962    9.3293   23.5072 C   0  0  0  0  0  0  0  0  0  0  0  0
    5.1273    7.8529   23.6208 N   0  0  0  0  0  0  0  0  0  0  0  0
    9.7552    9.2338   23.0171 N   0  0  0  0  0  0  0  0  0  0  0  0
   11.1797    6.7591   21.3326 N   0  0  0  0  0  0  0  0  0  0  0  0
   11.7728    8.0337   23.7267 C   0  0  0  0  0  0  0  0  0  0  0  0
    7.1194    8.3344   24.6775 C   0  0  0  0  0  0  0  0  0  0  0  0
    8.4311    4.7963   22.0500 C   0  0  0  0  0  0  0  0  0  0  0  0
    8.7393   10.8706   24.1871 O   0  0  0  0  0  0  0  0  0  0  0  0
    9.3093    3.8166   21.6712 C   0  0  0  0  0  0  0  0  0  0  0  0
  1  5  1  0
  1 15  4  0
  1 22  4  0
  2 20  1  0
  2 24  1  0
  3  6  4  0
  3 27  4  0
  4 22  4  0
  4 26  4  0
  6  7  4  0
  6 13  1  0
  7 19  4  0
  8 18  1  0
  8 23  1  0
  8 28  2  0
  9 17  1  0
  9 24  1  0
 10 11  1  0
 10 24  1  0
 11 23  1  0
 12 14  4  0
 12 16  4  0
 14 19  4  0
 15 18  4  0
 16 20  4  0
 17 25  1  0
 18 26  4  0
 19 29  4  0
 20 29  4  0
 21 23  1  0
 21 25  1  0
 27 29  4  0
M  END
$$$$

 Created by Python create_sdf_string function

 29 32  0  0  0  0  0  0  0  0999 V2000
    5.4450    8.7154   22.6662 C   0  0  0  0  0  0  0  0  0  0  0  0
   10.9154    5.4574   20.5483 C   0  0  0  0  0  0  0  0  0  0  0  0
    7.2709    4.5089   22.7542 C   0  0  0  0  0  0  0  0  0  0  0  0
    5.9698    7.6329   24.6581 C   0  0  0  0  0  0  0  0  0  0  0  0
    4.5542    8.9057   21.7104 O   0  0  0  0  0  0  0  0  0  0  0  0
    6.9895    3.2085   23.0690 C   0  0  0  0  0  0  0  0  0  0  0  0
    7.8391    2.2253   22.7260 N   0  0  0  0  0  0  0  0  0  0  0  0
    8.6968    9.8373   23.6359 C   0  0  0  0  0  0  0  0  0  0  0  0
   12.5135    6.5957   21.8396 C   0  0  0  0  0  0  0  0  0  0  0  0
   10.9406    8.2330   21.1350 C   0  0  0  0  0  0  0  0  0  0  0  0
    9.6648    8.5956   21.7310 C   0  0  0  0  0  0  0  0  0  0  0  0
   10.8829    1.7153   20.9865 C   0  0  0  0  0  0  0  0  0  0  0  0
    5.7768    2.8533   23.7910 C   0  0  0  0  0  0  0  0  0  0  0  0
    9.7977    1.4791   21.6912 N   0  0  0  0  0  0  0  0  0  0  0  0
    6.5976    9.3401   22.6478 N   0  0  0  0  0  0  0  0  0  0  0  0
   11.2031    3.0042   20.6246 C   0  0  0  0  0  0  0  0  0  0  0  0
   12.8688    7.7370   22.7287 C   0  0  0  0  0  0  0  0  0  0  0  0
    7.4487    9.1361   23.6506 C   0  0  0  0  0  0  0  0  0  0  0  0
    8.9772    2.5025   22.0273 C   0  0  0  0  0  0  0  0  0  0  0  0
   10.4859    4.0901   20.9730 C   0  0  0  0  0  0  0  0  0  0  0  0
   11.0962    9.3293   23.5072 C   0  0  0  0  0  0  0  0  0  0  0  0
    5.1273    7.8529   23.6208 N   0  0  0  0  0  0  0  0  0  0  0  0
    9.7552    9.2338   23.0171 N   0  0  0  0  0  0  0  0  0  0  0  0
   11.1797    6.7591   21.3326 N   0  0  0  0  0  0  0  0  0  0  0  0
   11.7728    8.0337   23.7267 C   0  0  0  0  0  0  0  0  0  0  0  0
    7.1194    8.3344   24.6775 C   0  0  0  0  0  0  0  0  0  0  0  0
    8.4311    4.7963   22.0500 C   0  0  0  0  0  0  0  0  0  0  0  0
    8.7393   10.8706   24.1871 O   0  0  0  0  0  0  0  0  0  0  0  0
    9.3093    3.8166   21.6712 C   0  0  0  0  0  0  0  0  0  0  0  0
  1  5  1  0
  1 15  4  0
  1 22  4  0
  2 20  1  0
  2 24  1  0
  3  6  4  0
  3 27  4  0
  4 22  4  0
  4 26  4  0
  6  7  4  0
  6 13  1  0
  7 19  4  0
  8 18  1  0
  8 23  1  0
  8 28  2  0
  9 17  1  0
  9 24  1  0
 10 11  1  0
 10 24  1  0
 11 23  1  0
 12 14  4  0
 12 16  4  0
 14 19  4  0
 15 18  4  0
 16 20  4  0
 17 25  1  0
 18 26  4  0
 19 29  4  0
 20 29  4  0
 21 23  1  0
 21 25  1  0
 27 29  4  0
M  END
$$$$

 Created by Python create_sdf_string function

 29 32  0  0  0  0  0  0  0  0999 V2000
    5.4450    8.7154   22.6662 C   0  0  0  0  0  0  0  0  0  0  0  0
   10.9154    5.4574   20.5483 C   0  0  0  0  0  0  0  0  0  0  0  0
    7.2709    4.5089   22.7542 C   0  0  0  0  0  0  0  0  0  0  0  0
    5.9698    7.6329   24.6581 C   0  0  0  0  0  0  0  0  0  0  0  0
    4.5542    8.9057   21.7104 O   0  0  0  0  0  0  0  0  0  0  0  0
    6.9895    3.2085   23.0690 C   0  0  0  0  0  0  0  0  0  0  0  0
    7.8391    2.2253   22.7260 N   0  0  0  0  0  0  0  0  0  0  0  0
    8.6968    9.8373   23.6359 C   0  0  0  0  0  0  0  0  0  0  0  0
   12.5135    6.5957   21.8396 C   0  0  0  0  0  0  0  0  0  0  0  0
   10.9406    8.2330   21.1350 C   0  0  0  0  0  0  0  0  0  0  0  0
    9.6648    8.5956   21.7310 C   0  0  0  0  0  0  0  0  0  0  0  0
   10.8829    1.7153   20.9865 C   0  0  0  0  0  0  0  0  0  0  0  0
    5.7768    2.8533   23.7910 C   0  0  0  0  0  0  0  0  0  0  0  0
    9.7977    1.4791   21.6912 N   0  0  0  0  0  0  0  0  0  0  0  0
    6.5976    9.3401   22.6478 N   0  0  0  0  0  0  0  0  0  0  0  0
   11.2031    3.0042   20.6246 C   0  0  0  0  0  0  0  0  0  0  0  0
   12.8688    7.7370   22.7287 C   0  0  0  0  0  0  0  0  0  0  0  0
    7.4487    9.1361   23.6506 C   0  0  0  0  0  0  0  0  0  0  0  0
    8.9772    2.5025   22.0273 C   0  0  0  0  0  0  0  0  0  0  0  0
   10.4859    4.0901   20.9730 C   0  0  0  0  0  0  0  0  0  0  0  0
   11.0962    9.3293   23.5072 C   0  0  0  0  0  0  0  0  0  0  0  0
    5.1273    7.8529   23.6208 N   0  0  0  0  0  0  0  0  0  0  0  0
    9.7552    9.2338   23.0171 N   0  0  0  0  0  0  0  0  0  0  0  0
   11.1797    6.7591   21.3326 N   0  0  0  0  0  0  0  0  0  0  0  0
   11.7728    8.0337   23.7267 C   0  0  0  0  0  0  0  0  0  0  0  0
    7.1194    8.3344   24.6775 C   0  0  0  0  0  0  0  0  0  0  0  0
    8.4311    4.7963   22.0500 C   0  0  0  0  0  0  0  0  0  0  0  0
    8.7393   10.8706   24.1871 O   0  0  0  0  0  0  0  0  0  0  0  0
    9.3093    3.8166   21.6712 C   0  0  0  0  0  0  0  0  0  0  0  0
  1  5  1  0
  1 15  4  0
  1 22  4  0
  2 20  1  0
  2 24  1  0
  3  6  4  0
  3 27  4  0
  4 22  4  0
  4 26  4  0
  6  7  4  0
  6 13  1  0
  7 19  4  0
  8 18  1  0
  8 23  1  0
  8 28  2  0
  9 17  1  0
  9 24  1  0
 10 11  1  0
 10 24  1  0
 11 23  1  0
 12 14  4  0
 12 16  4  0
 14 19  4  0
 15 18  4  0
 16 20  4  0
 17 25  1  0
 18 26  4  0
 19 29  4  0
 20 29  4  0
 21 23  1  0
 21 25  1  0
 27 29  4  0
M  END
$$$$

 Created by Python create_sdf_string function

 29 32  0  0  0  0  0  0  0  0999 V2000
    5.4450    8.7154   22.6662 C   0  0  0  0  0  0  0  0  0  0  0  0
   10.9154    5.4574   20.5483 C   0  0  0  0  0  0  0  0  0  0  0  0
    7.2709    4.5089   22.7542 C   0  0  0  0  0  0  0  0  0  0  0  0
    5.9698    7.6329   24.6581 C   0  0  0  0  0  0  0  0  0  0  0  0
    4.5542    8.9057   21.7104 O   0  0  0  0  0  0  0  0  0  0  0  0
    6.9895    3.2085   23.0690 C   0  0  0  0  0  0  0  0  0  0  0  0
    7.8391    2.2253   22.7260 N   0  0  0  0  0  0  0  0  0  0  0  0
    8.6968    9.8373   23.6359 C   0  0  0  0  0  0  0  0  0  0  0  0
   12.5135    6.5957   21.8396 C   0  0  0  0  0  0  0  0  0  0  0  0
   10.9406    8.2330   21.1350 C   0  0  0  0  0  0  0  0  0  0  0  0
    9.6648    8.5956   21.7310 C   0  0  0  0  0  0  0  0  0  0  0  0
   10.8829    1.7153   20.9865 C   0  0  0  0  0  0  0  0  0  0  0  0
    5.7768    2.8533   23.7910 C   0  0  0  0  0  0  0  0  0  0  0  0
    9.7977    1.4791   21.6912 N   0  0  0  0  0  0  0  0  0  0  0  0
    6.5976    9.3401   22.6478 N   0  0  0  0  0  0  0  0  0  0  0  0
   11.2031    3.0042   20.6246 C   0  0  0  0  0  0  0  0  0  0  0  0
   12.8688    7.7370   22.7287 C   0  0  0  0  0  0  0  0  0  0  0  0
    7.4487    9.1361   23.6506 C   0  0  0  0  0  0  0  0  0  0  0  0
    8.9772    2.5025   22.0273 C   0  0  0  0  0  0  0  0  0  0  0  0
   10.4859    4.0901   20.9730 C   0  0  0  0  0  0  0  0  0  0  0  0
   11.0962    9.3293   23.5072 C   0  0  0  0  0  0  0  0  0  0  0  0
    5.1273    7.8529   23.6208 N   0  0  0  0  0  0  0  0  0  0  0  0
    9.7552    9.2338   23.0171 N   0  0  0  0  0  0  0  0  0  0  0  0
   11.1797    6.7591   21.3326 N   0  0  0  0  0  0  0  0  0  0  0  0
   11.7728    8.0337   23.7267 C   0  0  0  0  0  0  0  0  0  0  0  0
    7.1194    8.3344   24.6775 C   0  0  0  0  0  0  0  0  0  0  0  0
    8.4311    4.7963   22.0500 C   0  0  0  0  0  0  0  0  0  0  0  0
    8.7393   10.8706   24.1871 O   0  0  0  0  0  0  0  0  0  0  0  0
    9.3093    3.8166   21.6712 C   0  0  0  0  0  0  0  0  0  0  0  0
  1  5  1  0
  1 15  4  0
  1 22  4  0
  2 20  1  0
  2 24  1  0
  3  6  4  0
  3 27  4  0
  4 22  4  0
  4 26  4  0
  6  7  4  0
  6 13  1  0
  7 19  4  0
  8 18  1  0
  8 23  1  0
  8 28  2  0
  9 17  1  0
  9 24  1  0
 10 11  1  0
 10 24  1  0
 11 23  1  0
 12 14  4  0
 12 16  4  0
 14 19  4  0
 15 18  4  0
 16 20  4  0
 17 25  1  0
 18 26  4  0
 19 29  4  0
 20 29  4  0
 21 23  1  0
 21 25  1  0
 27 29  4  0
M  END
$$$$

 Created by Python create_sdf_string function

 29 32  0  0  0  0  0  0  0  0999 V2000
    5.4450    8.7154   22.6662 C   0  0  0  0  0  0  0  0  0  0  0  0
   10.9154    5.4574   20.5483 C   0  0  0  0  0  0  0  0  0  0  0  0
    7.2709    4.5089   22.7542 C   0  0  0  0  0  0  0  0  0  0  0  0
    5.9698    7.6329   24.6581 C   0  0  0  0  0  0  0  0  0  0  0  0
    4.5542    8.9057   21.7104 O   0  0  0  0  0  0  0  0  0  0  0  0
    6.9895    3.2085   23.0690 C   0  0  0  0  0  0  0  0  0  0  0  0
    7.8391    2.2253   22.7260 N   0  0  0  0  0  0  0  0  0  0  0  0
    8.6968    9.8373   23.6359 C   0  0  0  0  0  0  0  0  0  0  0  0
   12.5135    6.5957   21.8396 C   0  0  0  0  0  0  0  0  0  0  0  0
   10.9406    8.2330   21.1350 C   0  0  0  0  0  0  0  0  0  0  0  0
    9.6648    8.5956   21.7310 C   0  0  0  0  0  0  0  0  0  0  0  0
   10.8829    1.7153   20.9865 C   0  0  0  0  0  0  0  0  0  0  0  0
    5.7768    2.8533   23.7910 C   0  0  0  0  0  0  0  0  0  0  0  0
    9.7977    1.4791   21.6912 N   0  0  0  0  0  0  0  0  0  0  0  0
    6.5976    9.3401   22.6478 N   0  0  0  0  0  0  0  0  0  0  0  0
   11.2031    3.0042   20.6246 C   0  0  0  0  0  0  0  0  0  0  0  0
   12.8688    7.7370   22.7287 C   0  0  0  0  0  0  0  0  0  0  0  0
    7.4487    9.1361   23.6506 C   0  0  0  0  0  0  0  0  0  0  0  0
    8.9772    2.5025   22.0273 C   0  0  0  0  0  0  0  0  0  0  0  0
   10.4859    4.0901   20.9730 C   0  0  0  0  0  0  0  0  0  0  0  0
   11.0962    9.3293   23.5072 C   0  0  0  0  0  0  0  0  0  0  0  0
    5.1273    7.8529   23.6208 N   0  0  0  0  0  0  0  0  0  0  0  0
    9.7552    9.2338   23.0171 N   0  0  0  0  0  0  0  0  0  0  0  0
   11.1797    6.7591   21.3326 N   0  0  0  0  0  0  0  0  0  0  0  0
   11.7728    8.0337   23.7267 C   0  0  0  0  0  0  0  0  0  0  0  0
    7.1194    8.3344   24.6775 C   0  0  0  0  0  0  0  0  0  0  0  0
    8.4311    4.7963   22.0500 C   0  0  0  0  0  0  0  0  0  0  0  0
    8.7393   10.8706   24.1871 O   0  0  0  0  0  0  0  0  0  0  0  0
    9.3093    3.8166   21.6712 C   0  0  0  0  0  0  0  0  0  0  0  0
  1  5  1  0
  1 15  4  0
  1 22  4  0
  2 20  1  0
  2 24  1  0
  3  6  4  0
  3 27  4  0
  4 22  4  0
  4 26  4  0
  6  7  4  0
  6 13  1  0
  7 19  4  0
  8 18  1  0
  8 23  1  0
  8 28  2  0
  9 17  1  0
  9 24  1  0
 10 11  1  0
 10 24  1  0
 11 23  1  0
 12 14  4  0
 12 16  4  0
 14 19  4  0
 15 18  4  0
 16 20  4  0
 17 25  1  0
 18 26  4  0
 19 29  4  0
 20 29  4  0
 21 23  1  0
 21 25  1  0
 27 29  4  0
M  END
$$$$

 Created by Python create_sdf_string function

 29 32  0  0  0  0  0  0  0  0999 V2000
    5.4450    8.7154   22.6662 C   0  0  0  0  0  0  0  0  0  0  0  0
   10.9154    5.4574   20.5483 C   0  0  0  0  0  0  0  0  0  0  0  0
    7.2709    4.5089   22.7542 C   0  0  0  0  0  0  0  0  0  0  0  0
    5.9698    7.6329   24.6581 C   0  0  0  0  0  0  0  0  0  0  0  0
    4.5542    8.9057   21.7104 O   0  0  0  0  0  0  0  0  0  0  0  0
    6.9895    3.2085   23.0690 C   0  0  0  0  0  0  0  0  0  0  0  0
    7.8391    2.2253   22.7260 N   0  0  0  0  0  0  0  0  0  0  0  0
    8.6968    9.8373   23.6359 C   0  0  0  0  0  0  0  0  0  0  0  0
   12.5135    6.5957   21.8396 C   0  0  0  0  0  0  0  0  0  0  0  0
   10.9406    8.2330   21.1350 C   0  0  0  0  0  0  0  0  0  0  0  0
    9.6648    8.5956   21.7310 C   0  0  0  0  0  0  0  0  0  0  0  0
   10.8829    1.7153   20.9865 C   0  0  0  0  0  0  0  0  0  0  0  0
    5.7768    2.8533   23.7910 C   0  0  0  0  0  0  0  0  0  0  0  0
    9.7977    1.4791   21.6912 N   0  0  0  0  0  0  0  0  0  0  0  0
    6.5976    9.3401   22.6478 N   0  0  0  0  0  0  0  0  0  0  0  0
   11.2031    3.0042   20.6246 C   0  0  0  0  0  0  0  0  0  0  0  0
   12.8688    7.7370   22.7287 C   0  0  0  0  0  0  0  0  0  0  0  0
    7.4487    9.1361   23.6506 C   0  0  0  0  0  0  0  0  0  0  0  0
    8.9772    2.5025   22.0273 C   0  0  0  0  0  0  0  0  0  0  0  0
   10.4859    4.0901   20.9730 C   0  0  0  0  0  0  0  0  0  0  0  0
   11.0962    9.3293   23.5072 C   0  0  0  0  0  0  0  0  0  0  0  0
    5.1273    7.8529   23.6208 N   0  0  0  0  0  0  0  0  0  0  0  0
    9.7552    9.2338   23.0171 N   0  0  0  0  0  0  0  0  0  0  0  0
   11.1797    6.7591   21.3326 N   0  0  0  0  0  0  0  0  0  0  0  0
   11.7728    8.0337   23.7267 C   0  0  0  0  0  0  0  0  0  0  0  0
    7.1194    8.3344   24.6775 C   0  0  0  0  0  0  0  0  0  0  0  0
    8.4311    4.7963   22.0500 C   0  0  0  0  0  0  0  0  0  0  0  0
    8.7393   10.8706   24.1871 O   0  0  0  0  0  0  0  0  0  0  0  0
    9.3093    3.8166   21.6712 C   0  0  0  0  0  0  0  0  0  0  0  0
  1  5  1  0
  1 15  4  0
  1 22  4  0
  2 20  1  0
  2 24  1  0
  3  6  4  0
  3 27  4  0
  4 22  4  0
  4 26  4  0
  6  7  4  0
  6 13  1  0
  7 19  4  0
  8 18  1  0
  8 23  1  0
  8 28  2  0
  9 17  1  0
  9 24  1  0
 10 11  1  0
 10 24  1  0
 11 23  1  0
 12 14  4  0
 12 16  4  0
 14 19  4  0
 15 18  4  0
 16 20  4  0
 17 25  1  0
 18 26  4  0
 19 29  4  0
 20 29  4  0
 21 23  1  0
 21 25  1  0
 27 29  4  0
M  END
$$$$

 Created by Python create_sdf_string function

 29 32  0  0  0  0  0  0  0  0999 V2000
    5.4450    8.7154   22.6662 C   0  0  0  0  0  0  0  0  0  0  0  0
   10.9154    5.4574   20.5483 C   0  0  0  0  0  0  0  0  0  0  0  0
    7.2709    4.5089   22.7542 C   0  0  0  0  0  0  0  0  0  0  0  0
    5.9698    7.6329   24.6581 C   0  0  0  0  0  0  0  0  0  0  0  0
    4.5542    8.9057   21.7104 O   0  0  0  0  0  0  0  0  0  0  0  0
    6.9895    3.2085   23.0690 C   0  0  0  0  0  0  0  0  0  0  0  0
    7.8391    2.2253   22.7260 N   0  0  0  0  0  0  0  0  0  0  0  0
    8.6968    9.8373   23.6359 C   0  0  0  0  0  0  0  0  0  0  0  0
   12.5135    6.5957   21.8396 C   0  0  0  0  0  0  0  0  0  0  0  0
   10.9406    8.2330   21.1350 C   0  0  0  0  0  0  0  0  0  0  0  0
    9.6648    8.5956   21.7310 C   0  0  0  0  0  0  0  0  0  0  0  0
   10.8829    1.7153   20.9865 C   0  0  0  0  0  0  0  0  0  0  0  0
    5.7768    2.8533   23.7910 C   0  0  0  0  0  0  0  0  0  0  0  0
    9.7977    1.4791   21.6912 N   0  0  0  0  0  0  0  0  0  0  0  0
    6.5976    9.3401   22.6478 N   0  0  0  0  0  0  0  0  0  0  0  0
   11.2031    3.0042   20.6246 C   0  0  0  0  0  0  0  0  0  0  0  0
   12.8688    7.7370   22.7287 C   0  0  0  0  0  0  0  0  0  0  0  0
    7.4487    9.1361   23.6506 C   0  0  0  0  0  0  0  0  0  0  0  0
    8.9772    2.5025   22.0273 C   0  0  0  0  0  0  0  0  0  0  0  0
   10.4859    4.0901   20.9730 C   0  0  0  0  0  0  0  0  0  0  0  0
   11.0962    9.3293   23.5072 C   0  0  0  0  0  0  0  0  0  0  0  0
    5.1273    7.8529   23.6208 N   0  0  0  0  0  0  0  0  0  0  0  0
    9.7552    9.2338   23.0171 N   0  0  0  0  0  0  0  0  0  0  0  0
   11.1797    6.7591   21.3326 N   0  0  0  0  0  0  0  0  0  0  0  0
   11.7728    8.0337   23.7267 C   0  0  0  0  0  0  0  0  0  0  0  0
    7.1194    8.3344   24.6775 C   0  0  0  0  0  0  0  0  0  0  0  0
    8.4311    4.7963   22.0500 C   0  0  0  0  0  0  0  0  0  0  0  0
    8.7393   10.8706   24.1871 O   0  0  0  0  0  0  0  0  0  0  0  0
    9.3093    3.8166   21.6712 C   0  0  0  0  0  0  0  0  0  0  0  0
  1  5  1  0
  1 15  4  0
  1 22  4  0
  2 20  1  0
  2 24  1  0
  3  6  4  0
  3 27  4  0
  4 22  4  0
  4 26  4  0
  6  7  4  0
  6 13  1  0
  7 19  4  0
  8 18  1  0
  8 23  1  0
  8 28  2  0
  9 17  1  0
  9 24  1  0
 10 11  1  0
 10 24  1  0
 11 23  1  0
 12 14  4  0
 12 16  4  0
 14 19  4  0
 15 18  4  0
 16 20  4  0
 17 25  1  0
 18 26  4  0
 19 29  4  0
 20 29  4  0
 21 23  1  0
 21 25  1  0
 27 29  4  0
M  END
$$$$

 Created by Python create_sdf_string function

 29 32  0  0  0  0  0  0  0  0999 V2000
    5.4450    8.7154   22.6662 C   0  0  0  0  0  0  0  0  0  0  0  0
   10.9154    5.4574   20.5483 C   0  0  0  0  0  0  0  0  0  0  0  0
    7.2709    4.5089   22.7542 C   0  0  0  0  0  0  0  0  0  0  0  0
    5.9698    7.6329   24.6581 C   0  0  0  0  0  0  0  0  0  0  0  0
    4.5542    8.9057   21.7104 O   0  0  0  0  0  0  0  0  0  0  0  0
    6.9895    3.2085   23.0690 C   0  0  0  0  0  0  0  0  0  0  0  0
    7.8391    2.2253   22.7260 N   0  0  0  0  0  0  0  0  0  0  0  0
    8.6968    9.8373   23.6359 C   0  0  0  0  0  0  0  0  0  0  0  0
   12.5135    6.5957   21.8396 C   0  0  0  0  0  0  0  0  0  0  0  0
   10.9406    8.2330   21.1350 C   0  0  0  0  0  0  0  0  0  0  0  0
    9.6648    8.5956   21.7310 C   0  0  0  0  0  0  0  0  0  0  0  0
   10.8829    1.7153   20.9865 C   0  0  0  0  0  0  0  0  0  0  0  0
    5.7768    2.8533   23.7910 C   0  0  0  0  0  0  0  0  0  0  0  0
    9.7977    1.4791   21.6912 N   0  0  0  0  0  0  0  0  0  0  0  0
    6.5976    9.3401   22.6478 N   0  0  0  0  0  0  0  0  0  0  0  0
   11.2031    3.0042   20.6246 C   0  0  0  0  0  0  0  0  0  0  0  0
   12.8688    7.7370   22.7287 C   0  0  0  0  0  0  0  0  0  0  0  0
    7.4487    9.1361   23.6506 C   0  0  0  0  0  0  0  0  0  0  0  0
    8.9772    2.5025   22.0273 C   0  0  0  0  0  0  0  0  0  0  0  0
   10.4859    4.0901   20.9730 C   0  0  0  0  0  0  0  0  0  0  0  0
   11.0962    9.3293   23.5072 C   0  0  0  0  0  0  0  0  0  0  0  0
    5.1273    7.8529   23.6208 N   0  0  0  0  0  0  0  0  0  0  0  0
    9.7552    9.2338   23.0171 N   0  0  0  0  0  0  0  0  0  0  0  0
   11.1797    6.7591   21.3326 N   0  0  0  0  0  0  0  0  0  0  0  0
   11.7728    8.0337   23.7267 C   0  0  0  0  0  0  0  0  0  0  0  0
    7.1194    8.3344   24.6775 C   0  0  0  0  0  0  0  0  0  0  0  0
    8.4311    4.7963   22.0500 C   0  0  0  0  0  0  0  0  0  0  0  0
    8.7393   10.8706   24.1871 O   0  0  0  0  0  0  0  0  0  0  0  0
    9.3093    3.8166   21.6712 C   0  0  0  0  0  0  0  0  0  0  0  0
  1  5  1  0
  1 15  4  0
  1 22  4  0
  2 20  1  0
  2 24  1  0
  3  6  4  0
  3 27  4  0
  4 22  4  0
  4 26  4  0
  6  7  4  0
  6 13  1  0
  7 19  4  0
  8 18  1  0
  8 23  1  0
  8 28  2  0
  9 17  1  0
  9 24  1  0
 10 11  1  0
 10 24  1  0
 11 23  1  0
 12 14  4  0
 12 16  4  0
 14 19  4  0
 15 18  4  0
 16 20  4  0
 17 25  1  0
 18 26  4  0
 19 29  4  0
 20 29  4  0
 21 23  1  0
 21 25  1  0
 27 29  4  0
M  END
$$$$

 Created by Python create_sdf_string function

 29 32  0  0  0  0  0  0  0  0999 V2000
    5.4450    8.7154   22.6662 C   0  0  0  0  0  0  0  0  0  0  0  0
   10.9154    5.4574   20.5483 C   0  0  0  0  0  0  0  0  0  0  0  0
    7.2709    4.5089   22.7542 C   0  0  0  0  0  0  0  0  0  0  0  0
    5.9698    7.6329   24.6581 C   0  0  0  0  0  0  0  0  0  0  0  0
    4.5542    8.9057   21.7104 O   0  0  0  0  0  0  0  0  0  0  0  0
    6.9895    3.2085   23.0690 C   0  0  0  0  0  0  0  0  0  0  0  0
    7.8391    2.2253   22.7260 N   0  0  0  0  0  0  0  0  0  0  0  0
    8.6968    9.8373   23.6359 C   0  0  0  0  0  0  0  0  0  0  0  0
   12.5135    6.5957   21.8396 C   0  0  0  0  0  0  0  0  0  0  0  0
   10.9406    8.2330   21.1350 C   0  0  0  0  0  0  0  0  0  0  0  0
    9.6648    8.5956   21.7310 C   0  0  0  0  0  0  0  0  0  0  0  0
   10.8829    1.7153   20.9865 C   0  0  0  0  0  0  0  0  0  0  0  0
    5.7768    2.8533   23.7910 C   0  0  0  0  0  0  0  0  0  0  0  0
    9.7977    1.4791   21.6912 N   0  0  0  0  0  0  0  0  0  0  0  0
    6.5976    9.3401   22.6478 N   0  0  0  0  0  0  0  0  0  0  0  0
   11.2031    3.0042   20.6246 C   0  0  0  0  0  0  0  0  0  0  0  0
   12.8688    7.7370   22.7287 C   0  0  0  0  0  0  0  0  0  0  0  0
    7.4487    9.1361   23.6506 C   0  0  0  0  0  0  0  0  0  0  0  0
    8.9772    2.5025   22.0273 C   0  0  0  0  0  0  0  0  0  0  0  0
   10.4859    4.0901   20.9730 C   0  0  0  0  0  0  0  0  0  0  0  0
   11.0962    9.3293   23.5072 C   0  0  0  0  0  0  0  0  0  0  0  0
    5.1273    7.8529   23.6208 N   0  0  0  0  0  0  0  0  0  0  0  0
    9.7552    9.2338   23.0171 N   0  0  0  0  0  0  0  0  0  0  0  0
   11.1797    6.7591   21.3326 N   0  0  0  0  0  0  0  0  0  0  0  0
   11.7728    8.0337   23.7267 C   0  0  0  0  0  0  0  0  0  0  0  0
    7.1194    8.3344   24.6775 C   0  0  0  0  0  0  0  0  0  0  0  0
    8.4311    4.7963   22.0500 C   0  0  0  0  0  0  0  0  0  0  0  0
    8.7393   10.8706   24.1871 O   0  0  0  0  0  0  0  0  0  0  0  0
    9.3093    3.8166   21.6712 C   0  0  0  0  0  0  0  0  0  0  0  0
  1  5  1  0
  1 15  4  0
  1 22  4  0
  2 20  1  0
  2 24  1  0
  3  6  4  0
  3 27  4  0
  4 22  4  0
  4 26  4  0
  6  7  4  0
  6 13  1  0
  7 19  4  0
  8 18  1  0
  8 23  1  0
  8 28  2  0
  9 17  1  0
  9 24  1  0
 10 11  1  0
 10 24  1  0
 11 23  1  0
 12 14  4  0
 12 16  4  0
 14 19  4  0
 15 18  4  0
 16 20  4  0
 17 25  1  0
 18 26  4  0
 19 29  4  0
 20 29  4  0
 21 23  1  0
 21 25  1  0
 27 29  4  0
M  END
$$$$

 Created by Python create_sdf_string function

 29 32  0  0  0  0  0  0  0  0999 V2000
    5.4450    8.7154   22.6662 C   0  0  0  0  0  0  0  0  0  0  0  0
   10.9154    5.4574   20.5483 C   0  0  0  0  0  0  0  0  0  0  0  0
    7.2709    4.5089   22.7542 C   0  0  0  0  0  0  0  0  0  0  0  0
    5.9698    7.6329   24.6581 C   0  0  0  0  0  0  0  0  0  0  0  0
    4.5542    8.9057   21.7104 O   0  0  0  0  0  0  0  0  0  0  0  0
    6.9895    3.2085   23.0690 C   0  0  0  0  0  0  0  0  0  0  0  0
    7.8391    2.2253   22.7260 N   0  0  0  0  0  0  0  0  0  0  0  0
    8.6968    9.8373   23.6359 C   0  0  0  0  0  0  0  0  0  0  0  0
   12.5135    6.5957   21.8396 C   0  0  0  0  0  0  0  0  0  0  0  0
   10.9406    8.2330   21.1350 C   0  0  0  0  0  0  0  0  0  0  0  0
    9.6648    8.5956   21.7310 C   0  0  0  0  0  0  0  0  0  0  0  0
   10.8829    1.7153   20.9865 C   0  0  0  0  0  0  0  0  0  0  0  0
    5.7768    2.8533   23.7910 C   0  0  0  0  0  0  0  0  0  0  0  0
    9.7977    1.4791   21.6912 N   0  0  0  0  0  0  0  0  0  0  0  0
    6.5976    9.3401   22.6478 N   0  0  0  0  0  0  0  0  0  0  0  0
   11.2031    3.0042   20.6246 C   0  0  0  0  0  0  0  0  0  0  0  0
   12.8688    7.7370   22.7287 C   0  0  0  0  0  0  0  0  0  0  0  0
    7.4487    9.1361   23.6506 C   0  0  0  0  0  0  0  0  0  0  0  0
    8.9772    2.5025   22.0273 C   0  0  0  0  0  0  0  0  0  0  0  0
   10.4859    4.0901   20.9730 C   0  0  0  0  0  0  0  0  0  0  0  0
   11.0962    9.3293   23.5072 C   0  0  0  0  0  0  0  0  0  0  0  0
    5.1273    7.8529   23.6208 N   0  0  0  0  0  0  0  0  0  0  0  0
    9.7552    9.2338   23.0171 N   0  0  0  0  0  0  0  0  0  0  0  0
   11.1797    6.7591   21.3326 N   0  0  0  0  0  0  0  0  0  0  0  0
   11.7728    8.0337   23.7267 C   0  0  0  0  0  0  0  0  0  0  0  0
    7.1194    8.3344   24.6775 C   0  0  0  0  0  0  0  0  0  0  0  0
    8.4311    4.7963   22.0500 C   0  0  0  0  0  0  0  0  0  0  0  0
    8.7393   10.8706   24.1871 O   0  0  0  0  0  0  0  0  0  0  0  0
    9.3093    3.8166   21.6712 C   0  0  0  0  0  0  0  0  0  0  0  0
  1  5  1  0
  1 15  4  0
  1 22  4  0
  2 20  1  0
  2 24  1  0
  3  6  4  0
  3 27  4  0
  4 22  4  0
  4 26  4  0
  6  7  4  0
  6 13  1  0
  7 19  4  0
  8 18  1  0
  8 23  1  0
  8 28  2  0
  9 17  1  0
  9 24  1  0
 10 11  1  0
 10 24  1  0
 11 23  1  0
 12 14  4  0
 12 16  4  0
 14 19  4  0
 15 18  4  0
 16 20  4  0
 17 25  1  0
 18 26  4  0
 19 29  4  0
 20 29  4  0
 21 23  1  0
 21 25  1  0
 27 29  4  0
M  END
$$$$

 Created by Python create_sdf_string function

 29 32  0  0  0  0  0  0  0  0999 V2000
    5.4450    8.7154   22.6662 C   0  0  0  0  0  0  0  0  0  0  0  0
   10.9154    5.4574   20.5483 C   0  0  0  0  0  0  0  0  0  0  0  0
    7.2709    4.5089   22.7542 C   0  0  0  0  0  0  0  0  0  0  0  0
    5.9698    7.6329   24.6581 C   0  0  0  0  0  0  0  0  0  0  0  0
    4.5542    8.9057   21.7104 O   0  0  0  0  0  0  0  0  0  0  0  0
    6.9895    3.2085   23.0690 C   0  0  0  0  0  0  0  0  0  0  0  0
    7.8391    2.2253   22.7260 N   0  0  0  0  0  0  0  0  0  0  0  0
    8.6968    9.8373   23.6359 C   0  0  0  0  0  0  0  0  0  0  0  0
   12.5135    6.5957   21.8396 C   0  0  0  0  0  0  0  0  0  0  0  0
   10.9406    8.2330   21.1350 C   0  0  0  0  0  0  0  0  0  0  0  0
    9.6648    8.5956   21.7310 C   0  0  0  0  0  0  0  0  0  0  0  0
   10.8829    1.7153   20.9865 C   0  0  0  0  0  0  0  0  0  0  0  0
    5.7768    2.8533   23.7910 C   0  0  0  0  0  0  0  0  0  0  0  0
    9.7977    1.4791   21.6912 N   0  0  0  0  0  0  0  0  0  0  0  0
    6.5976    9.3401   22.6478 N   0  0  0  0  0  0  0  0  0  0  0  0
   11.2031    3.0042   20.6246 C   0  0  0  0  0  0  0  0  0  0  0  0
   12.8688    7.7370   22.7287 C   0  0  0  0  0  0  0  0  0  0  0  0
    7.4487    9.1361   23.6506 C   0  0  0  0  0  0  0  0  0  0  0  0
    8.9772    2.5025   22.0273 C   0  0  0  0  0  0  0  0  0  0  0  0
   10.4859    4.0901   20.9730 C   0  0  0  0  0  0  0  0  0  0  0  0
   11.0962    9.3293   23.5072 C   0  0  0  0  0  0  0  0  0  0  0  0
    5.1273    7.8529   23.6208 N   0  0  0  0  0  0  0  0  0  0  0  0
    9.7552    9.2338   23.0171 N   0  0  0  0  0  0  0  0  0  0  0  0
   11.1797    6.7591   21.3326 N   0  0  0  0  0  0  0  0  0  0  0  0
   11.7728    8.0337   23.7267 C   0  0  0  0  0  0  0  0  0  0  0  0
    7.1194    8.3344   24.6775 C   0  0  0  0  0  0  0  0  0  0  0  0
    8.4311    4.7963   22.0500 C   0  0  0  0  0  0  0  0  0  0  0  0
    8.7393   10.8706   24.1871 O   0  0  0  0  0  0  0  0  0  0  0  0
    9.3093    3.8166   21.6712 C   0  0  0  0  0  0  0  0  0  0  0  0
  1  5  1  0
  1 15  4  0
  1 22  4  0
  2 20  1  0
  2 24  1  0
  3  6  4  0
  3 27  4  0
  4 22  4  0
  4 26  4  0
  6  7  4  0
  6 13  1  0
  7 19  4  0
  8 18  1  0
  8 23  1  0
  8 28  2  0
  9 17  1  0
  9 24  1  0
 10 11  1  0
 10 24  1  0
 11 23  1  0
 12 14  4  0
 12 16  4  0
 14 19  4  0
 15 18  4  0
 16 20  4  0
 17 25  1  0
 18 26  4  0
 19 29  4  0
 20 29  4  0
 21 23  1  0
 21 25  1  0
 27 29  4  0
M  END
$$$$

 Created by Python create_sdf_string function

 29 32  0  0  0  0  0  0  0  0999 V2000
    5.4450    8.7154   22.6662 C   0  0  0  0  0  0  0  0  0  0  0  0
   10.9154    5.4574   20.5483 C   0  0  0  0  0  0  0  0  0  0  0  0
    7.2709    4.5089   22.7542 C   0  0  0  0  0  0  0  0  0  0  0  0
    5.9698    7.6329   24.6581 C   0  0  0  0  0  0  0  0  0  0  0  0
    4.5542    8.9057   21.7104 O   0  0  0  0  0  0  0  0  0  0  0  0
    6.9895    3.2085   23.0690 C   0  0  0  0  0  0  0  0  0  0  0  0
    7.8391    2.2253   22.7260 N   0  0  0  0  0  0  0  0  0  0  0  0
    8.6968    9.8373   23.6359 C   0  0  0  0  0  0  0  0  0  0  0  0
   12.5135    6.5957   21.8396 C   0  0  0  0  0  0  0  0  0  0  0  0
   10.9406    8.2330   21.1350 C   0  0  0  0  0  0  0  0  0  0  0  0
    9.6648    8.5956   21.7310 C   0  0  0  0  0  0  0  0  0  0  0  0
   10.8829    1.7153   20.9865 C   0  0  0  0  0  0  0  0  0  0  0  0
    5.7768    2.8533   23.7910 C   0  0  0  0  0  0  0  0  0  0  0  0
    9.7977    1.4791   21.6912 N   0  0  0  0  0  0  0  0  0  0  0  0
    6.5976    9.3401   22.6478 N   0  0  0  0  0  0  0  0  0  0  0  0
   11.2031    3.0042   20.6246 C   0  0  0  0  0  0  0  0  0  0  0  0
   12.8688    7.7370   22.7287 C   0  0  0  0  0  0  0  0  0  0  0  0
    7.4487    9.1361   23.6506 C   0  0  0  0  0  0  0  0  0  0  0  0
    8.9772    2.5025   22.0273 C   0  0  0  0  0  0  0  0  0  0  0  0
   10.4859    4.0901   20.9730 C   0  0  0  0  0  0  0  0  0  0  0  0
   11.0962    9.3293   23.5072 C   0  0  0  0  0  0  0  0  0  0  0  0
    5.1273    7.8529   23.6208 N   0  0  0  0  0  0  0  0  0  0  0  0
    9.7552    9.2338   23.0171 N   0  0  0  0  0  0  0  0  0  0  0  0
   11.1797    6.7591   21.3326 N   0  0  0  0  0  0  0  0  0  0  0  0
   11.7728    8.0337   23.7267 C   0  0  0  0  0  0  0  0  0  0  0  0
    7.1194    8.3344   24.6775 C   0  0  0  0  0  0  0  0  0  0  0  0
    8.4311    4.7963   22.0500 C   0  0  0  0  0  0  0  0  0  0  0  0
    8.7393   10.8706   24.1871 O   0  0  0  0  0  0  0  0  0  0  0  0
    9.3093    3.8166   21.6712 C   0  0  0  0  0  0  0  0  0  0  0  0
  1  5  1  0
  1 15  4  0
  1 22  4  0
  2 20  1  0
  2 24  1  0
  3  6  4  0
  3 27  4  0
  4 22  4  0
  4 26  4  0
  6  7  4  0
  6 13  1  0
  7 19  4  0
  8 18  1  0
  8 23  1  0
  8 28  2  0
  9 17  1  0
  9 24  1  0
 10 11  1  0
 10 24  1  0
 11 23  1  0
 12 14  4  0
 12 16  4  0
 14 19  4  0
 15 18  4  0
 16 20  4  0
 17 25  1  0
 18 26  4  0
 19 29  4  0
 20 29  4  0
 21 23  1  0
 21 25  1  0
 27 29  4  0
M  END
$$$$

 Created by Python create_sdf_string function

 29 32  0  0  0  0  0  0  0  0999 V2000
    5.4450    8.7154   22.6662 C   0  0  0  0  0  0  0  0  0  0  0  0
   10.9154    5.4574   20.5483 C   0  0  0  0  0  0  0  0  0  0  0  0
    7.2709    4.5089   22.7542 C   0  0  0  0  0  0  0  0  0  0  0  0
    5.9698    7.6329   24.6581 C   0  0  0  0  0  0  0  0  0  0  0  0
    4.5542    8.9057   21.7104 O   0  0  0  0  0  0  0  0  0  0  0  0
    6.9895    3.2085   23.0690 C   0  0  0  0  0  0  0  0  0  0  0  0
    7.8391    2.2253   22.7260 N   0  0  0  0  0  0  0  0  0  0  0  0
    8.6968    9.8373   23.6359 C   0  0  0  0  0  0  0  0  0  0  0  0
   12.5135    6.5957   21.8396 C   0  0  0  0  0  0  0  0  0  0  0  0
   10.9406    8.2330   21.1350 C   0  0  0  0  0  0  0  0  0  0  0  0
    9.6648    8.5956   21.7310 C   0  0  0  0  0  0  0  0  0  0  0  0
   10.8829    1.7153   20.9865 C   0  0  0  0  0  0  0  0  0  0  0  0
    5.7768    2.8533   23.7910 C   0  0  0  0  0  0  0  0  0  0  0  0
    9.7977    1.4791   21.6912 N   0  0  0  0  0  0  0  0  0  0  0  0
    6.5976    9.3401   22.6478 N   0  0  0  0  0  0  0  0  0  0  0  0
   11.2031    3.0042   20.6246 C   0  0  0  0  0  0  0  0  0  0  0  0
   12.8688    7.7370   22.7287 C   0  0  0  0  0  0  0  0  0  0  0  0
    7.4487    9.1361   23.6506 C   0  0  0  0  0  0  0  0  0  0  0  0
    8.9772    2.5025   22.0273 C   0  0  0  0  0  0  0  0  0  0  0  0
   10.4859    4.0901   20.9730 C   0  0  0  0  0  0  0  0  0  0  0  0
   11.0962    9.3293   23.5072 C   0  0  0  0  0  0  0  0  0  0  0  0
    5.1273    7.8529   23.6208 N   0  0  0  0  0  0  0  0  0  0  0  0
    9.7552    9.2338   23.0171 N   0  0  0  0  0  0  0  0  0  0  0  0
   11.1797    6.7591   21.3326 N   0  0  0  0  0  0  0  0  0  0  0  0
   11.7728    8.0337   23.7267 C   0  0  0  0  0  0  0  0  0  0  0  0
    7.1194    8.3344   24.6775 C   0  0  0  0  0  0  0  0  0  0  0  0
    8.4311    4.7963   22.0500 C   0  0  0  0  0  0  0  0  0  0  0  0
    8.7393   10.8706   24.1871 O   0  0  0  0  0  0  0  0  0  0  0  0
    9.3093    3.8166   21.6712 C   0  0  0  0  0  0  0  0  0  0  0  0
  1  5  1  0
  1 15  4  0
  1 22  4  0
  2 20  1  0
  2 24  1  0
  3  6  4  0
  3 27  4  0
  4 22  4  0
  4 26  4  0
  6  7  4  0
  6 13  1  0
  7 19  4  0
  8 18  1  0
  8 23  1  0
  8 28  2  0
  9 17  1  0
  9 24  1  0
 10 11  1  0
 10 24  1  0
 11 23  1  0
 12 14  4  0
 12 16  4  0
 14 19  4  0
 15 18  4  0
 16 20  4  0
 17 25  1  0
 18 26  4  0
 19 29  4  0
 20 29  4  0
 21 23  1  0
 21 25  1  0
 27 29  4  0
M  END
$$$$

 Created by Python create_sdf_string function

 29 32  0  0  0  0  0  0  0  0999 V2000
    5.4450    8.7154   22.6662 C   0  0  0  0  0  0  0  0  0  0  0  0
   10.9154    5.4574   20.5483 C   0  0  0  0  0  0  0  0  0  0  0  0
    7.2709    4.5089   22.7542 C   0  0  0  0  0  0  0  0  0  0  0  0
    5.9698    7.6329   24.6581 C   0  0  0  0  0  0  0  0  0  0  0  0
    4.5542    8.9057   21.7104 O   0  0  0  0  0  0  0  0  0  0  0  0
    6.9895    3.2085   23.0690 C   0  0  0  0  0  0  0  0  0  0  0  0
    7.8391    2.2253   22.7260 N   0  0  0  0  0  0  0  0  0  0  0  0
    8.6968    9.8373   23.6359 C   0  0  0  0  0  0  0  0  0  0  0  0
   12.5135    6.5957   21.8396 C   0  0  0  0  0  0  0  0  0  0  0  0
   10.9406    8.2330   21.1350 C   0  0  0  0  0  0  0  0  0  0  0  0
    9.6648    8.5956   21.7310 C   0  0  0  0  0  0  0  0  0  0  0  0
   10.8829    1.7153   20.9865 C   0  0  0  0  0  0  0  0  0  0  0  0
    5.7768    2.8533   23.7910 C   0  0  0  0  0  0  0  0  0  0  0  0
    9.7977    1.4791   21.6912 N   0  0  0  0  0  0  0  0  0  0  0  0
    6.5976    9.3401   22.6478 N   0  0  0  0  0  0  0  0  0  0  0  0
   11.2031    3.0042   20.6246 C   0  0  0  0  0  0  0  0  0  0  0  0
   12.8688    7.7370   22.7287 C   0  0  0  0  0  0  0  0  0  0  0  0
    7.4487    9.1361   23.6506 C   0  0  0  0  0  0  0  0  0  0  0  0
    8.9772    2.5025   22.0273 C   0  0  0  0  0  0  0  0  0  0  0  0
   10.4859    4.0901   20.9730 C   0  0  0  0  0  0  0  0  0  0  0  0
   11.0962    9.3293   23.5072 C   0  0  0  0  0  0  0  0  0  0  0  0
    5.1273    7.8529   23.6208 N   0  0  0  0  0  0  0  0  0  0  0  0
    9.7552    9.2338   23.0171 N   0  0  0  0  0  0  0  0  0  0  0  0
   11.1797    6.7591   21.3326 N   0  0  0  0  0  0  0  0  0  0  0  0
   11.7728    8.0337   23.7267 C   0  0  0  0  0  0  0  0  0  0  0  0
    7.1194    8.3344   24.6775 C   0  0  0  0  0  0  0  0  0  0  0  0
    8.4311    4.7963   22.0500 C   0  0  0  0  0  0  0  0  0  0  0  0
    8.7393   10.8706   24.1871 O   0  0  0  0  0  0  0  0  0  0  0  0
    9.3093    3.8166   21.6712 C   0  0  0  0  0  0  0  0  0  0  0  0
  1  5  1  0
  1 15  4  0
  1 22  4  0
  2 20  1  0
  2 24  1  0
  3  6  4  0
  3 27  4  0
  4 22  4  0
  4 26  4  0
  6  7  4  0
  6 13  1  0
  7 19  4  0
  8 18  1  0
  8 23  1  0
  8 28  2  0
  9 17  1  0
  9 24  1  0
 10 11  1  0
 10 24  1  0
 11 23  1  0
 12 14  4  0
 12 16  4  0
 14 19  4  0
 15 18  4  0
 16 20  4  0
 17 25  1  0
 18 26  4  0
 19 29  4  0
 20 29  4  0
 21 23  1  0
 21 25  1  0
 27 29  4  0
M  END
$$$$

 Created by Python create_sdf_string function

 29 32  0  0  0  0  0  0  0  0999 V2000
    5.4450    8.7154   22.6662 C   0  0  0  0  0  0  0  0  0  0  0  0
   10.9154    5.4574   20.5483 C   0  0  0  0  0  0  0  0  0  0  0  0
    7.2709    4.5089   22.7542 C   0  0  0  0  0  0  0  0  0  0  0  0
    5.9698    7.6329   24.6581 C   0  0  0  0  0  0  0  0  0  0  0  0
    4.5542    8.9057   21.7104 O   0  0  0  0  0  0  0  0  0  0  0  0
    6.9895    3.2085   23.0690 C   0  0  0  0  0  0  0  0  0  0  0  0
    7.8391    2.2253   22.7260 N   0  0  0  0  0  0  0  0  0  0  0  0
    8.6968    9.8373   23.6359 C   0  0  0  0  0  0  0  0  0  0  0  0
   12.5135    6.5957   21.8396 C   0  0  0  0  0  0  0  0  0  0  0  0
   10.9406    8.2330   21.1350 C   0  0  0  0  0  0  0  0  0  0  0  0
    9.6648    8.5956   21.7310 C   0  0  0  0  0  0  0  0  0  0  0  0
   10.8829    1.7153   20.9865 C   0  0  0  0  0  0  0  0  0  0  0  0
    5.7768    2.8533   23.7910 C   0  0  0  0  0  0  0  0  0  0  0  0
    9.7977    1.4791   21.6912 N   0  0  0  0  0  0  0  0  0  0  0  0
    6.5976    9.3401   22.6478 N   0  0  0  0  0  0  0  0  0  0  0  0
   11.2031    3.0042   20.6246 C   0  0  0  0  0  0  0  0  0  0  0  0
   12.8688    7.7370   22.7287 C   0  0  0  0  0  0  0  0  0  0  0  0
    7.4487    9.1361   23.6506 C   0  0  0  0  0  0  0  0  0  0  0  0
    8.9772    2.5025   22.0273 C   0  0  0  0  0  0  0  0  0  0  0  0
   10.4859    4.0901   20.9730 C   0  0  0  0  0  0  0  0  0  0  0  0
   11.0962    9.3293   23.5072 C   0  0  0  0  0  0  0  0  0  0  0  0
    5.1273    7.8529   23.6208 N   0  0  0  0  0  0  0  0  0  0  0  0
    9.7552    9.2338   23.0171 N   0  0  0  0  0  0  0  0  0  0  0  0
   11.1797    6.7591   21.3326 N   0  0  0  0  0  0  0  0  0  0  0  0
   11.7728    8.0337   23.7267 C   0  0  0  0  0  0  0  0  0  0  0  0
    7.1194    8.3344   24.6775 C   0  0  0  0  0  0  0  0  0  0  0  0
    8.4311    4.7963   22.0500 C   0  0  0  0  0  0  0  0  0  0  0  0
    8.7393   10.8706   24.1871 O   0  0  0  0  0  0  0  0  0  0  0  0
    9.3093    3.8166   21.6712 C   0  0  0  0  0  0  0  0  0  0  0  0
  1  5  1  0
  1 15  4  0
  1 22  4  0
  2 20  1  0
  2 24  1  0
  3  6  4  0
  3 27  4  0
  4 22  4  0
  4 26  4  0
  6  7  4  0
  6 13  1  0
  7 19  4  0
  8 18  1  0
  8 23  1  0
  8 28  2  0
  9 17  1  0
  9 24  1  0
 10 11  1  0
 10 24  1  0
 11 23  1  0
 12 14  4  0
 12 16  4  0
 14 19  4  0
 15 18  4  0
 16 20  4  0
 17 25  1  0
 18 26  4  0
 19 29  4  0
 20 29  4  0
 21 23  1  0
 21 25  1  0
 27 29  4  0
M  END
$$$$

 Created by Python create_sdf_string function

 29 32  0  0  0  0  0  0  0  0999 V2000
    5.4450    8.7154   22.6662 C   0  0  0  0  0  0  0  0  0  0  0  0
   10.9154    5.4574   20.5483 C   0  0  0  0  0  0  0  0  0  0  0  0
    7.2709    4.5089   22.7542 C   0  0  0  0  0  0  0  0  0  0  0  0
    5.9698    7.6329   24.6581 C   0  0  0  0  0  0  0  0  0  0  0  0
    4.5542    8.9057   21.7104 O   0  0  0  0  0  0  0  0  0  0  0  0
    6.9895    3.2085   23.0690 C   0  0  0  0  0  0  0  0  0  0  0  0
    7.8391    2.2253   22.7260 N   0  0  0  0  0  0  0  0  0  0  0  0
    8.6968    9.8373   23.6359 C   0  0  0  0  0  0  0  0  0  0  0  0
   12.5135    6.5957   21.8396 C   0  0  0  0  0  0  0  0  0  0  0  0
   10.9406    8.2330   21.1350 C   0  0  0  0  0  0  0  0  0  0  0  0
    9.6648    8.5956   21.7310 C   0  0  0  0  0  0  0  0  0  0  0  0
   10.8829    1.7153   20.9865 C   0  0  0  0  0  0  0  0  0  0  0  0
    5.7768    2.8533   23.7910 C   0  0  0  0  0  0  0  0  0  0  0  0
    9.7977    1.4791   21.6912 N   0  0  0  0  0  0  0  0  0  0  0  0
    6.5976    9.3401   22.6478 N   0  0  0  0  0  0  0  0  0  0  0  0
   11.2031    3.0042   20.6246 C   0  0  0  0  0  0  0  0  0  0  0  0
   12.8688    7.7370   22.7287 C   0  0  0  0  0  0  0  0  0  0  0  0
    7.4487    9.1361   23.6506 C   0  0  0  0  0  0  0  0  0  0  0  0
    8.9772    2.5025   22.0273 C   0  0  0  0  0  0  0  0  0  0  0  0
   10.4859    4.0901   20.9730 C   0  0  0  0  0  0  0  0  0  0  0  0
   11.0962    9.3293   23.5072 C   0  0  0  0  0  0  0  0  0  0  0  0
    5.1273    7.8529   23.6208 N   0  0  0  0  0  0  0  0  0  0  0  0
    9.7552    9.2338   23.0171 N   0  0  0  0  0  0  0  0  0  0  0  0
   11.1797    6.7591   21.3326 N   0  0  0  0  0  0  0  0  0  0  0  0
   11.7728    8.0337   23.7267 C   0  0  0  0  0  0  0  0  0  0  0  0
    7.1194    8.3344   24.6775 C   0  0  0  0  0  0  0  0  0  0  0  0
    8.4311    4.7963   22.0500 C   0  0  0  0  0  0  0  0  0  0  0  0
    8.7393   10.8706   24.1871 O   0  0  0  0  0  0  0  0  0  0  0  0
    9.3093    3.8166   21.6712 C   0  0  0  0  0  0  0  0  0  0  0  0
  1  5  1  0
  1 15  4  0
  1 22  4  0
  2 20  1  0
  2 24  1  0
  3  6  4  0
  3 27  4  0
  4 22  4  0
  4 26  4  0
  6  7  4  0
  6 13  1  0
  7 19  4  0
  8 18  1  0
  8 23  1  0
  8 28  2  0
  9 17  1  0
  9 24  1  0
 10 11  1  0
 10 24  1  0
 11 23  1  0
 12 14  4  0
 12 16  4  0
 14 19  4  0
 15 18  4  0
 16 20  4  0
 17 25  1  0
 18 26  4  0
 19 29  4  0
 20 29  4  0
 21 23  1  0
 21 25  1  0
 27 29  4  0
M  END
$$$$

 Created by Python create_sdf_string function

 29 32  0  0  0  0  0  0  0  0999 V2000
    5.4450    8.7154   22.6662 C   0  0  0  0  0  0  0  0  0  0  0  0
   10.9154    5.4574   20.5483 C   0  0  0  0  0  0  0  0  0  0  0  0
    7.2709    4.5089   22.7542 C   0  0  0  0  0  0  0  0  0  0  0  0
    5.9698    7.6329   24.6581 C   0  0  0  0  0  0  0  0  0  0  0  0
    4.5542    8.9057   21.7104 O   0  0  0  0  0  0  0  0  0  0  0  0
    6.9895    3.2085   23.0690 C   0  0  0  0  0  0  0  0  0  0  0  0
    7.8391    2.2253   22.7260 N   0  0  0  0  0  0  0  0  0  0  0  0
    8.6968    9.8373   23.6359 C   0  0  0  0  0  0  0  0  0  0  0  0
   12.5135    6.5957   21.8396 C   0  0  0  0  0  0  0  0  0  0  0  0
   10.9406    8.2330   21.1350 C   0  0  0  0  0  0  0  0  0  0  0  0
    9.6648    8.5956   21.7310 C   0  0  0  0  0  0  0  0  0  0  0  0
   10.8829    1.7153   20.9865 C   0  0  0  0  0  0  0  0  0  0  0  0
    5.7768    2.8533   23.7910 C   0  0  0  0  0  0  0  0  0  0  0  0
    9.7977    1.4791   21.6912 N   0  0  0  0  0  0  0  0  0  0  0  0
    6.5976    9.3401   22.6478 N   0  0  0  0  0  0  0  0  0  0  0  0
   11.2031    3.0042   20.6246 C   0  0  0  0  0  0  0  0  0  0  0  0
   12.8688    7.7370   22.7287 C   0  0  0  0  0  0  0  0  0  0  0  0
    7.4487    9.1361   23.6506 C   0  0  0  0  0  0  0  0  0  0  0  0
    8.9772    2.5025   22.0273 C   0  0  0  0  0  0  0  0  0  0  0  0
   10.4859    4.0901   20.9730 C   0  0  0  0  0  0  0  0  0  0  0  0
   11.0962    9.3293   23.5072 C   0  0  0  0  0  0  0  0  0  0  0  0
    5.1273    7.8529   23.6208 N   0  0  0  0  0  0  0  0  0  0  0  0
    9.7552    9.2338   23.0171 N   0  0  0  0  0  0  0  0  0  0  0  0
   11.1797    6.7591   21.3326 N   0  0  0  0  0  0  0  0  0  0  0  0
   11.7728    8.0337   23.7267 C   0  0  0  0  0  0  0  0  0  0  0  0
    7.1194    8.3344   24.6775 C   0  0  0  0  0  0  0  0  0  0  0  0
    8.4311    4.7963   22.0500 C   0  0  0  0  0  0  0  0  0  0  0  0
    8.7393   10.8706   24.1871 O   0  0  0  0  0  0  0  0  0  0  0  0
    9.3093    3.8166   21.6712 C   0  0  0  0  0  0  0  0  0  0  0  0
  1  5  1  0
  1 15  4  0
  1 22  4  0
  2 20  1  0
  2 24  1  0
  3  6  4  0
  3 27  4  0
  4 22  4  0
  4 26  4  0
  6  7  4  0
  6 13  1  0
  7 19  4  0
  8 18  1  0
  8 23  1  0
  8 28  2  0
  9 17  1  0
  9 24  1  0
 10 11  1  0
 10 24  1  0
 11 23  1  0
 12 14  4  0
 12 16  4  0
 14 19  4  0
 15 18  4  0
 16 20  4  0
 17 25  1  0
 18 26  4  0
 19 29  4  0
 20 29  4  0
 21 23  1  0
 21 25  1  0
 27 29  4  0
M  END
$$$$

 Created by Python create_sdf_string function

 29 32  0  0  0  0  0  0  0  0999 V2000
    5.4450    8.7154   22.6662 C   0  0  0  0  0  0  0  0  0  0  0  0
   10.9154    5.4574   20.5483 C   0  0  0  0  0  0  0  0  0  0  0  0
    7.2709    4.5089   22.7542 C   0  0  0  0  0  0  0  0  0  0  0  0
    5.9698    7.6329   24.6581 C   0  0  0  0  0  0  0  0  0  0  0  0
    4.5542    8.9057   21.7104 O   0  0  0  0  0  0  0  0  0  0  0  0
    6.9895    3.2085   23.0690 C   0  0  0  0  0  0  0  0  0  0  0  0
    7.8391    2.2253   22.7260 N   0  0  0  0  0  0  0  0  0  0  0  0
    8.6968    9.8373   23.6359 C   0  0  0  0  0  0  0  0  0  0  0  0
   12.5135    6.5957   21.8396 C   0  0  0  0  0  0  0  0  0  0  0  0
   10.9406    8.2330   21.1350 C   0  0  0  0  0  0  0  0  0  0  0  0
    9.6648    8.5956   21.7310 C   0  0  0  0  0  0  0  0  0  0  0  0
   10.8829    1.7153   20.9865 C   0  0  0  0  0  0  0  0  0  0  0  0
    5.7768    2.8533   23.7910 C   0  0  0  0  0  0  0  0  0  0  0  0
    9.7977    1.4791   21.6912 N   0  0  0  0  0  0  0  0  0  0  0  0
    6.5976    9.3401   22.6478 N   0  0  0  0  0  0  0  0  0  0  0  0
   11.2031    3.0042   20.6246 C   0  0  0  0  0  0  0  0  0  0  0  0
   12.8688    7.7370   22.7287 C   0  0  0  0  0  0  0  0  0  0  0  0
    7.4487    9.1361   23.6506 C   0  0  0  0  0  0  0  0  0  0  0  0
    8.9772    2.5025   22.0273 C   0  0  0  0  0  0  0  0  0  0  0  0
   10.4859    4.0901   20.9730 C   0  0  0  0  0  0  0  0  0  0  0  0
   11.0962    9.3293   23.5072 C   0  0  0  0  0  0  0  0  0  0  0  0
    5.1273    7.8529   23.6208 N   0  0  0  0  0  0  0  0  0  0  0  0
    9.7552    9.2338   23.0171 N   0  0  0  0  0  0  0  0  0  0  0  0
   11.1797    6.7591   21.3326 N   0  0  0  0  0  0  0  0  0  0  0  0
   11.7728    8.0337   23.7267 C   0  0  0  0  0  0  0  0  0  0  0  0
    7.1194    8.3344   24.6775 C   0  0  0  0  0  0  0  0  0  0  0  0
    8.4311    4.7963   22.0500 C   0  0  0  0  0  0  0  0  0  0  0  0
    8.7393   10.8706   24.1871 O   0  0  0  0  0  0  0  0  0  0  0  0
    9.3093    3.8166   21.6712 C   0  0  0  0  0  0  0  0  0  0  0  0
  1  5  1  0
  1 15  4  0
  1 22  4  0
  2 20  1  0
  2 24  1  0
  3  6  4  0
  3 27  4  0
  4 22  4  0
  4 26  4  0
  6  7  4  0
  6 13  1  0
  7 19  4  0
  8 18  1  0
  8 23  1  0
  8 28  2  0
  9 17  1  0
  9 24  1  0
 10 11  1  0
 10 24  1  0
 11 23  1  0
 12 14  4  0
 12 16  4  0
 14 19  4  0
 15 18  4  0
 16 20  4  0
 17 25  1  0
 18 26  4  0
 19 29  4  0
 20 29  4  0
 21 23  1  0
 21 25  1  0
 27 29  4  0
M  END
$$$$

 Created by Python create_sdf_string function

 29 32  0  0  0  0  0  0  0  0999 V2000
    5.4450    8.7154   22.6662 C   0  0  0  0  0  0  0  0  0  0  0  0
   10.9154    5.4574   20.5483 C   0  0  0  0  0  0  0  0  0  0  0  0
    7.2709    4.5089   22.7542 C   0  0  0  0  0  0  0  0  0  0  0  0
    5.9698    7.6329   24.6581 C   0  0  0  0  0  0  0  0  0  0  0  0
    4.5542    8.9057   21.7104 O   0  0  0  0  0  0  0  0  0  0  0  0
    6.9895    3.2085   23.0690 C   0  0  0  0  0  0  0  0  0  0  0  0
    7.8391    2.2253   22.7260 N   0  0  0  0  0  0  0  0  0  0  0  0
    8.6968    9.8373   23.6359 C   0  0  0  0  0  0  0  0  0  0  0  0
   12.5135    6.5957   21.8396 C   0  0  0  0  0  0  0  0  0  0  0  0
   10.9406    8.2330   21.1350 C   0  0  0  0  0  0  0  0  0  0  0  0
    9.6648    8.5956   21.7310 C   0  0  0  0  0  0  0  0  0  0  0  0
   10.8829    1.7153   20.9865 C   0  0  0  0  0  0  0  0  0  0  0  0
    5.7768    2.8533   23.7910 C   0  0  0  0  0  0  0  0  0  0  0  0
    9.7977    1.4791   21.6912 N   0  0  0  0  0  0  0  0  0  0  0  0
    6.5976    9.3401   22.6478 N   0  0  0  0  0  0  0  0  0  0  0  0
   11.2031    3.0042   20.6246 C   0  0  0  0  0  0  0  0  0  0  0  0
   12.8688    7.7370   22.7287 C   0  0  0  0  0  0  0  0  0  0  0  0
    7.4487    9.1361   23.6506 C   0  0  0  0  0  0  0  0  0  0  0  0
    8.9772    2.5025   22.0273 C   0  0  0  0  0  0  0  0  0  0  0  0
   10.4859    4.0901   20.9730 C   0  0  0  0  0  0  0  0  0  0  0  0
   11.0962    9.3293   23.5072 C   0  0  0  0  0  0  0  0  0  0  0  0
    5.1273    7.8529   23.6208 N   0  0  0  0  0  0  0  0  0  0  0  0
    9.7552    9.2338   23.0171 N   0  0  0  0  0  0  0  0  0  0  0  0
   11.1797    6.7591   21.3326 N   0  0  0  0  0  0  0  0  0  0  0  0
   11.7728    8.0337   23.7267 C   0  0  0  0  0  0  0  0  0  0  0  0
    7.1194    8.3344   24.6775 C   0  0  0  0  0  0  0  0  0  0  0  0
    8.4311    4.7963   22.0500 C   0  0  0  0  0  0  0  0  0  0  0  0
    8.7393   10.8706   24.1871 O   0  0  0  0  0  0  0  0  0  0  0  0
    9.3093    3.8166   21.6712 C   0  0  0  0  0  0  0  0  0  0  0  0
  1  5  1  0
  1 15  4  0
  1 22  4  0
  2 20  1  0
  2 24  1  0
  3  6  4  0
  3 27  4  0
  4 22  4  0
  4 26  4  0
  6  7  4  0
  6 13  1  0
  7 19  4  0
  8 18  1  0
  8 23  1  0
  8 28  2  0
  9 17  1  0
  9 24  1  0
 10 11  1  0
 10 24  1  0
 11 23  1  0
 12 14  4  0
 12 16  4  0
 14 19  4  0
 15 18  4  0
 16 20  4  0
 17 25  1  0
 18 26  4  0
 19 29  4  0
 20 29  4  0
 21 23  1  0
 21 25  1  0
 27 29  4  0
M  END
$$$$

 Created by Python create_sdf_string function

 29 32  0  0  0  0  0  0  0  0999 V2000
    5.4450    8.7154   22.6662 C   0  0  0  0  0  0  0  0  0  0  0  0
   10.9154    5.4574   20.5483 C   0  0  0  0  0  0  0  0  0  0  0  0
    7.2709    4.5089   22.7542 C   0  0  0  0  0  0  0  0  0  0  0  0
    5.9698    7.6329   24.6581 C   0  0  0  0  0  0  0  0  0  0  0  0
    4.5542    8.9057   21.7104 O   0  0  0  0  0  0  0  0  0  0  0  0
    6.9895    3.2085   23.0690 C   0  0  0  0  0  0  0  0  0  0  0  0
    7.8391    2.2253   22.7260 N   0  0  0  0  0  0  0  0  0  0  0  0
    8.6968    9.8373   23.6359 C   0  0  0  0  0  0  0  0  0  0  0  0
   12.5135    6.5957   21.8396 C   0  0  0  0  0  0  0  0  0  0  0  0
   10.9406    8.2330   21.1350 C   0  0  0  0  0  0  0  0  0  0  0  0
    9.6648    8.5956   21.7310 C   0  0  0  0  0  0  0  0  0  0  0  0
   10.8829    1.7153   20.9865 C   0  0  0  0  0  0  0  0  0  0  0  0
    5.7768    2.8533   23.7910 C   0  0  0  0  0  0  0  0  0  0  0  0
    9.7977    1.4791   21.6912 N   0  0  0  0  0  0  0  0  0  0  0  0
    6.5976    9.3401   22.6478 N   0  0  0  0  0  0  0  0  0  0  0  0
   11.2031    3.0042   20.6246 C   0  0  0  0  0  0  0  0  0  0  0  0
   12.8688    7.7370   22.7287 C   0  0  0  0  0  0  0  0  0  0  0  0
    7.4487    9.1361   23.6506 C   0  0  0  0  0  0  0  0  0  0  0  0
    8.9772    2.5025   22.0273 C   0  0  0  0  0  0  0  0  0  0  0  0
   10.4859    4.0901   20.9730 C   0  0  0  0  0  0  0  0  0  0  0  0
   11.0962    9.3293   23.5072 C   0  0  0  0  0  0  0  0  0  0  0  0
    5.1273    7.8529   23.6208 N   0  0  0  0  0  0  0  0  0  0  0  0
    9.7552    9.2338   23.0171 N   0  0  0  0  0  0  0  0  0  0  0  0
   11.1797    6.7591   21.3326 N   0  0  0  0  0  0  0  0  0  0  0  0
   11.7728    8.0337   23.7267 C   0  0  0  0  0  0  0  0  0  0  0  0
    7.1194    8.3344   24.6775 C   0  0  0  0  0  0  0  0  0  0  0  0
    8.4311    4.7963   22.0500 C   0  0  0  0  0  0  0  0  0  0  0  0
    8.7393   10.8706   24.1871 O   0  0  0  0  0  0  0  0  0  0  0  0
    9.3093    3.8166   21.6712 C   0  0  0  0  0  0  0  0  0  0  0  0
  1  5  1  0
  1 15  4  0
  1 22  4  0
  2 20  1  0
  2 24  1  0
  3  6  4  0
  3 27  4  0
  4 22  4  0
  4 26  4  0
  6  7  4  0
  6 13  1  0
  7 19  4  0
  8 18  1  0
  8 23  1  0
  8 28  2  0
  9 17  1  0
  9 24  1  0
 10 11  1  0
 10 24  1  0
 11 23  1  0
 12 14  4  0
 12 16  4  0
 14 19  4  0
 15 18  4  0
 16 20  4  0
 17 25  1  0
 18 26  4  0
 19 29  4  0
 20 29  4  0
 21 23  1  0
 21 25  1  0
 27 29  4  0
M  END
$$$$

 Created by Python create_sdf_string function

 29 32  0  0  0  0  0  0  0  0999 V2000
    5.4450    8.7154   22.6662 C   0  0  0  0  0  0  0  0  0  0  0  0
   10.9154    5.4574   20.5483 C   0  0  0  0  0  0  0  0  0  0  0  0
    7.2709    4.5089   22.7542 C   0  0  0  0  0  0  0  0  0  0  0  0
    5.9698    7.6329   24.6581 C   0  0  0  0  0  0  0  0  0  0  0  0
    4.5542    8.9057   21.7104 O   0  0  0  0  0  0  0  0  0  0  0  0
    6.9895    3.2085   23.0690 C   0  0  0  0  0  0  0  0  0  0  0  0
    7.8391    2.2253   22.7260 N   0  0  0  0  0  0  0  0  0  0  0  0
    8.6968    9.8373   23.6359 C   0  0  0  0  0  0  0  0  0  0  0  0
   12.5135    6.5957   21.8396 C   0  0  0  0  0  0  0  0  0  0  0  0
   10.9406    8.2330   21.1350 C   0  0  0  0  0  0  0  0  0  0  0  0
    9.6648    8.5956   21.7310 C   0  0  0  0  0  0  0  0  0  0  0  0
   10.8829    1.7153   20.9865 C   0  0  0  0  0  0  0  0  0  0  0  0
    5.7768    2.8533   23.7910 C   0  0  0  0  0  0  0  0  0  0  0  0
    9.7977    1.4791   21.6912 N   0  0  0  0  0  0  0  0  0  0  0  0
    6.5976    9.3401   22.6478 N   0  0  0  0  0  0  0  0  0  0  0  0
   11.2031    3.0042   20.6246 C   0  0  0  0  0  0  0  0  0  0  0  0
   12.8688    7.7370   22.7287 C   0  0  0  0  0  0  0  0  0  0  0  0
    7.4487    9.1361   23.6506 C   0  0  0  0  0  0  0  0  0  0  0  0
    8.9772    2.5025   22.0273 C   0  0  0  0  0  0  0  0  0  0  0  0
   10.4859    4.0901   20.9730 C   0  0  0  0  0  0  0  0  0  0  0  0
   11.0962    9.3293   23.5072 C   0  0  0  0  0  0  0  0  0  0  0  0
    5.1273    7.8529   23.6208 N   0  0  0  0  0  0  0  0  0  0  0  0
    9.7552    9.2338   23.0171 N   0  0  0  0  0  0  0  0  0  0  0  0
   11.1797    6.7591   21.3326 N   0  0  0  0  0  0  0  0  0  0  0  0
   11.7728    8.0337   23.7267 C   0  0  0  0  0  0  0  0  0  0  0  0
    7.1194    8.3344   24.6775 C   0  0  0  0  0  0  0  0  0  0  0  0
    8.4311    4.7963   22.0500 C   0  0  0  0  0  0  0  0  0  0  0  0
    8.7393   10.8706   24.1871 O   0  0  0  0  0  0  0  0  0  0  0  0
    9.3093    3.8166   21.6712 C   0  0  0  0  0  0  0  0  0  0  0  0
  1  5  1  0
  1 15  4  0
  1 22  4  0
  2 20  1  0
  2 24  1  0
  3  6  4  0
  3 27  4  0
  4 22  4  0
  4 26  4  0
  6  7  4  0
  6 13  1  0
  7 19  4  0
  8 18  1  0
  8 23  1  0
  8 28  2  0
  9 17  1  0
  9 24  1  0
 10 11  1  0
 10 24  1  0
 11 23  1  0
 12 14  4  0
 12 16  4  0
 14 19  4  0
 15 18  4  0
 16 20  4  0
 17 25  1  0
 18 26  4  0
 19 29  4  0
 20 29  4  0
 21 23  1  0
 21 25  1  0
 27 29  4  0
M  END
$$$$

 Created by Python create_sdf_string function

 29 32  0  0  0  0  0  0  0  0999 V2000
    5.4450    8.7154   22.6662 C   0  0  0  0  0  0  0  0  0  0  0  0
   10.9154    5.4574   20.5483 C   0  0  0  0  0  0  0  0  0  0  0  0
    7.2709    4.5089   22.7542 C   0  0  0  0  0  0  0  0  0  0  0  0
    5.9698    7.6329   24.6581 C   0  0  0  0  0  0  0  0  0  0  0  0
    4.5542    8.9057   21.7104 O   0  0  0  0  0  0  0  0  0  0  0  0
    6.9895    3.2085   23.0690 C   0  0  0  0  0  0  0  0  0  0  0  0
    7.8391    2.2253   22.7260 N   0  0  0  0  0  0  0  0  0  0  0  0
    8.6968    9.8373   23.6359 C   0  0  0  0  0  0  0  0  0  0  0  0
   12.5135    6.5957   21.8396 C   0  0  0  0  0  0  0  0  0  0  0  0
   10.9406    8.2330   21.1350 C   0  0  0  0  0  0  0  0  0  0  0  0
    9.6648    8.5956   21.7310 C   0  0  0  0  0  0  0  0  0  0  0  0
   10.8829    1.7153   20.9865 C   0  0  0  0  0  0  0  0  0  0  0  0
    5.7768    2.8533   23.7910 C   0  0  0  0  0  0  0  0  0  0  0  0
    9.7977    1.4791   21.6912 N   0  0  0  0  0  0  0  0  0  0  0  0
    6.5976    9.3401   22.6478 N   0  0  0  0  0  0  0  0  0  0  0  0
   11.2031    3.0042   20.6246 C   0  0  0  0  0  0  0  0  0  0  0  0
   12.8688    7.7370   22.7287 C   0  0  0  0  0  0  0  0  0  0  0  0
    7.4487    9.1361   23.6506 C   0  0  0  0  0  0  0  0  0  0  0  0
    8.9772    2.5025   22.0273 C   0  0  0  0  0  0  0  0  0  0  0  0
   10.4859    4.0901   20.9730 C   0  0  0  0  0  0  0  0  0  0  0  0
   11.0962    9.3293   23.5072 C   0  0  0  0  0  0  0  0  0  0  0  0
    5.1273    7.8529   23.6208 N   0  0  0  0  0  0  0  0  0  0  0  0
    9.7552    9.2338   23.0171 N   0  0  0  0  0  0  0  0  0  0  0  0
   11.1797    6.7591   21.3326 N   0  0  0  0  0  0  0  0  0  0  0  0
   11.7728    8.0337   23.7267 C   0  0  0  0  0  0  0  0  0  0  0  0
    7.1194    8.3344   24.6775 C   0  0  0  0  0  0  0  0  0  0  0  0
    8.4311    4.7963   22.0500 C   0  0  0  0  0  0  0  0  0  0  0  0
    8.7393   10.8706   24.1871 O   0  0  0  0  0  0  0  0  0  0  0  0
    9.3093    3.8166   21.6712 C   0  0  0  0  0  0  0  0  0  0  0  0
  1  5  1  0
  1 15  4  0
  1 22  4  0
  2 20  1  0
  2 24  1  0
  3  6  4  0
  3 27  4  0
  4 22  4  0
  4 26  4  0
  6  7  4  0
  6 13  1  0
  7 19  4  0
  8 18  1  0
  8 23  1  0
  8 28  2  0
  9 17  1  0
  9 24  1  0
 10 11  1  0
 10 24  1  0
 11 23  1  0
 12 14  4  0
 12 16  4  0
 14 19  4  0
 15 18  4  0
 16 20  4  0
 17 25  1  0
 18 26  4  0
 19 29  4  0
 20 29  4  0
 21 23  1  0
 21 25  1  0
 27 29  4  0
M  END
$$$$

 Created by Python create_sdf_string function

 29 32  0  0  0  0  0  0  0  0999 V2000
    5.4450    8.7154   22.6662 C   0  0  0  0  0  0  0  0  0  0  0  0
   10.9154    5.4574   20.5483 C   0  0  0  0  0  0  0  0  0  0  0  0
    7.2709    4.5089   22.7542 C   0  0  0  0  0  0  0  0  0  0  0  0
    5.9698    7.6329   24.6581 C   0  0  0  0  0  0  0  0  0  0  0  0
    4.5542    8.9057   21.7104 O   0  0  0  0  0  0  0  0  0  0  0  0
    6.9895    3.2085   23.0690 C   0  0  0  0  0  0  0  0  0  0  0  0
    7.8391    2.2253   22.7260 N   0  0  0  0  0  0  0  0  0  0  0  0
    8.6968    9.8373   23.6359 C   0  0  0  0  0  0  0  0  0  0  0  0
   12.5135    6.5957   21.8396 C   0  0  0  0  0  0  0  0  0  0  0  0
   10.9406    8.2330   21.1350 C   0  0  0  0  0  0  0  0  0  0  0  0
    9.6648    8.5956   21.7310 C   0  0  0  0  0  0  0  0  0  0  0  0
   10.8829    1.7153   20.9865 C   0  0  0  0  0  0  0  0  0  0  0  0
    5.7768    2.8533   23.7910 C   0  0  0  0  0  0  0  0  0  0  0  0
    9.7977    1.4791   21.6912 N   0  0  0  0  0  0  0  0  0  0  0  0
    6.5976    9.3401   22.6478 N   0  0  0  0  0  0  0  0  0  0  0  0
   11.2031    3.0042   20.6246 C   0  0  0  0  0  0  0  0  0  0  0  0
   12.8688    7.7370   22.7287 C   0  0  0  0  0  0  0  0  0  0  0  0
    7.4487    9.1361   23.6506 C   0  0  0  0  0  0  0  0  0  0  0  0
    8.9772    2.5025   22.0273 C   0  0  0  0  0  0  0  0  0  0  0  0
   10.4859    4.0901   20.9730 C   0  0  0  0  0  0  0  0  0  0  0  0
   11.0962    9.3293   23.5072 C   0  0  0  0  0  0  0  0  0  0  0  0
    5.1273    7.8529   23.6208 N   0  0  0  0  0  0  0  0  0  0  0  0
    9.7552    9.2338   23.0171 N   0  0  0  0  0  0  0  0  0  0  0  0
   11.1797    6.7591   21.3326 N   0  0  0  0  0  0  0  0  0  0  0  0
   11.7728    8.0337   23.7267 C   0  0  0  0  0  0  0  0  0  0  0  0
    7.1194    8.3344   24.6775 C   0  0  0  0  0  0  0  0  0  0  0  0
    8.4311    4.7963   22.0500 C   0  0  0  0  0  0  0  0  0  0  0  0
    8.7393   10.8706   24.1871 O   0  0  0  0  0  0  0  0  0  0  0  0
    9.3093    3.8166   21.6712 C   0  0  0  0  0  0  0  0  0  0  0  0
  1  5  1  0
  1 15  4  0
  1 22  4  0
  2 20  1  0
  2 24  1  0
  3  6  4  0
  3 27  4  0
  4 22  4  0
  4 26  4  0
  6  7  4  0
  6 13  1  0
  7 19  4  0
  8 18  1  0
  8 23  1  0
  8 28  2  0
  9 17  1  0
  9 24  1  0
 10 11  1  0
 10 24  1  0
 11 23  1  0
 12 14  4  0
 12 16  4  0
 14 19  4  0
 15 18  4  0
 16 20  4  0
 17 25  1  0
 18 26  4  0
 19 29  4  0
 20 29  4  0
 21 23  1  0
 21 25  1  0
 27 29  4  0
M  END
$$$$

 Created by Python create_sdf_string function

 29 32  0  0  0  0  0  0  0  0999 V2000
    5.4450    8.7154   22.6662 C   0  0  0  0  0  0  0  0  0  0  0  0
   10.9154    5.4574   20.5483 C   0  0  0  0  0  0  0  0  0  0  0  0
    7.2709    4.5089   22.7542 C   0  0  0  0  0  0  0  0  0  0  0  0
    5.9698    7.6329   24.6581 C   0  0  0  0  0  0  0  0  0  0  0  0
    4.5542    8.9057   21.7104 O   0  0  0  0  0  0  0  0  0  0  0  0
    6.9895    3.2085   23.0690 C   0  0  0  0  0  0  0  0  0  0  0  0
    7.8391    2.2253   22.7260 N   0  0  0  0  0  0  0  0  0  0  0  0
    8.6968    9.8373   23.6359 C   0  0  0  0  0  0  0  0  0  0  0  0
   12.5135    6.5957   21.8396 C   0  0  0  0  0  0  0  0  0  0  0  0
   10.9406    8.2330   21.1350 C   0  0  0  0  0  0  0  0  0  0  0  0
    9.6648    8.5956   21.7310 C   0  0  0  0  0  0  0  0  0  0  0  0
   10.8829    1.7153   20.9865 C   0  0  0  0  0  0  0  0  0  0  0  0
    5.7768    2.8533   23.7910 C   0  0  0  0  0  0  0  0  0  0  0  0
    9.7977    1.4791   21.6912 N   0  0  0  0  0  0  0  0  0  0  0  0
    6.5976    9.3401   22.6478 N   0  0  0  0  0  0  0  0  0  0  0  0
   11.2031    3.0042   20.6246 C   0  0  0  0  0  0  0  0  0  0  0  0
   12.8688    7.7370   22.7287 C   0  0  0  0  0  0  0  0  0  0  0  0
    7.4487    9.1361   23.6506 C   0  0  0  0  0  0  0  0  0  0  0  0
    8.9772    2.5025   22.0273 C   0  0  0  0  0  0  0  0  0  0  0  0
   10.4859    4.0901   20.9730 C   0  0  0  0  0  0  0  0  0  0  0  0
   11.0962    9.3293   23.5072 C   0  0  0  0  0  0  0  0  0  0  0  0
    5.1273    7.8529   23.6208 N   0  0  0  0  0  0  0  0  0  0  0  0
    9.7552    9.2338   23.0171 N   0  0  0  0  0  0  0  0  0  0  0  0
   11.1797    6.7591   21.3326 N   0  0  0  0  0  0  0  0  0  0  0  0
   11.7728    8.0337   23.7267 C   0  0  0  0  0  0  0  0  0  0  0  0
    7.1194    8.3344   24.6775 C   0  0  0  0  0  0  0  0  0  0  0  0
    8.4311    4.7963   22.0500 C   0  0  0  0  0  0  0  0  0  0  0  0
    8.7393   10.8706   24.1871 O   0  0  0  0  0  0  0  0  0  0  0  0
    9.3093    3.8166   21.6712 C   0  0  0  0  0  0  0  0  0  0  0  0
  1  5  1  0
  1 15  4  0
  1 22  4  0
  2 20  1  0
  2 24  1  0
  3  6  4  0
  3 27  4  0
  4 22  4  0
  4 26  4  0
  6  7  4  0
  6 13  1  0
  7 19  4  0
  8 18  1  0
  8 23  1  0
  8 28  2  0
  9 17  1  0
  9 24  1  0
 10 11  1  0
 10 24  1  0
 11 23  1  0
 12 14  4  0
 12 16  4  0
 14 19  4  0
 15 18  4  0
 16 20  4  0
 17 25  1  0
 18 26  4  0
 19 29  4  0
 20 29  4  0
 21 23  1  0
 21 25  1  0
 27 29  4  0
M  END
$$$$

 Created by Python create_sdf_string function

 29 32  0  0  0  0  0  0  0  0999 V2000
    5.4450    8.7154   22.6662 C   0  0  0  0  0  0  0  0  0  0  0  0
   10.9154    5.4574   20.5483 C   0  0  0  0  0  0  0  0  0  0  0  0
    7.2709    4.5089   22.7542 C   0  0  0  0  0  0  0  0  0  0  0  0
    5.9698    7.6329   24.6581 C   0  0  0  0  0  0  0  0  0  0  0  0
    4.5542    8.9057   21.7104 O   0  0  0  0  0  0  0  0  0  0  0  0
    6.9895    3.2085   23.0690 C   0  0  0  0  0  0  0  0  0  0  0  0
    7.8391    2.2253   22.7260 N   0  0  0  0  0  0  0  0  0  0  0  0
    8.6968    9.8373   23.6359 C   0  0  0  0  0  0  0  0  0  0  0  0
   12.5135    6.5957   21.8396 C   0  0  0  0  0  0  0  0  0  0  0  0
   10.9406    8.2330   21.1350 C   0  0  0  0  0  0  0  0  0  0  0  0
    9.6648    8.5956   21.7310 C   0  0  0  0  0  0  0  0  0  0  0  0
   10.8829    1.7153   20.9865 C   0  0  0  0  0  0  0  0  0  0  0  0
    5.7768    2.8533   23.7910 C   0  0  0  0  0  0  0  0  0  0  0  0
    9.7977    1.4791   21.6912 N   0  0  0  0  0  0  0  0  0  0  0  0
    6.5976    9.3401   22.6478 N   0  0  0  0  0  0  0  0  0  0  0  0
   11.2031    3.0042   20.6246 C   0  0  0  0  0  0  0  0  0  0  0  0
   12.8688    7.7370   22.7287 C   0  0  0  0  0  0  0  0  0  0  0  0
    7.4487    9.1361   23.6506 C   0  0  0  0  0  0  0  0  0  0  0  0
    8.9772    2.5025   22.0273 C   0  0  0  0  0  0  0  0  0  0  0  0
   10.4859    4.0901   20.9730 C   0  0  0  0  0  0  0  0  0  0  0  0
   11.0962    9.3293   23.5072 C   0  0  0  0  0  0  0  0  0  0  0  0
    5.1273    7.8529   23.6208 N   0  0  0  0  0  0  0  0  0  0  0  0
    9.7552    9.2338   23.0171 N   0  0  0  0  0  0  0  0  0  0  0  0
   11.1797    6.7591   21.3326 N   0  0  0  0  0  0  0  0  0  0  0  0
   11.7728    8.0337   23.7267 C   0  0  0  0  0  0  0  0  0  0  0  0
    7.1194    8.3344   24.6775 C   0  0  0  0  0  0  0  0  0  0  0  0
    8.4311    4.7963   22.0500 C   0  0  0  0  0  0  0  0  0  0  0  0
    8.7393   10.8706   24.1871 O   0  0  0  0  0  0  0  0  0  0  0  0
    9.3093    3.8166   21.6712 C   0  0  0  0  0  0  0  0  0  0  0  0
  1  5  1  0
  1 15  4  0
  1 22  4  0
  2 20  1  0
  2 24  1  0
  3  6  4  0
  3 27  4  0
  4 22  4  0
  4 26  4  0
  6  7  4  0
  6 13  1  0
  7 19  4  0
  8 18  1  0
  8 23  1  0
  8 28  2  0
  9 17  1  0
  9 24  1  0
 10 11  1  0
 10 24  1  0
 11 23  1  0
 12 14  4  0
 12 16  4  0
 14 19  4  0
 15 18  4  0
 16 20  4  0
 17 25  1  0
 18 26  4  0
 19 29  4  0
 20 29  4  0
 21 23  1  0
 21 25  1  0
 27 29  4  0
M  END
$$$$

 Created by Python create_sdf_string function

 29 32  0  0  0  0  0  0  0  0999 V2000
    5.4450    8.7154   22.6662 C   0  0  0  0  0  0  0  0  0  0  0  0
   10.9154    5.4574   20.5483 C   0  0  0  0  0  0  0  0  0  0  0  0
    7.2709    4.5089   22.7542 C   0  0  0  0  0  0  0  0  0  0  0  0
    5.9698    7.6329   24.6581 C   0  0  0  0  0  0  0  0  0  0  0  0
    4.5542    8.9057   21.7104 O   0  0  0  0  0  0  0  0  0  0  0  0
    6.9895    3.2085   23.0690 C   0  0  0  0  0  0  0  0  0  0  0  0
    7.8391    2.2253   22.7260 N   0  0  0  0  0  0  0  0  0  0  0  0
    8.6968    9.8373   23.6359 C   0  0  0  0  0  0  0  0  0  0  0  0
   12.5135    6.5957   21.8396 C   0  0  0  0  0  0  0  0  0  0  0  0
   10.9406    8.2330   21.1350 C   0  0  0  0  0  0  0  0  0  0  0  0
    9.6648    8.5956   21.7310 C   0  0  0  0  0  0  0  0  0  0  0  0
   10.8829    1.7153   20.9865 C   0  0  0  0  0  0  0  0  0  0  0  0
    5.7768    2.8533   23.7910 C   0  0  0  0  0  0  0  0  0  0  0  0
    9.7977    1.4791   21.6912 N   0  0  0  0  0  0  0  0  0  0  0  0
    6.5976    9.3401   22.6478 N   0  0  0  0  0  0  0  0  0  0  0  0
   11.2031    3.0042   20.6246 C   0  0  0  0  0  0  0  0  0  0  0  0
   12.8688    7.7370   22.7287 C   0  0  0  0  0  0  0  0  0  0  0  0
    7.4487    9.1361   23.6506 C   0  0  0  0  0  0  0  0  0  0  0  0
    8.9772    2.5025   22.0273 C   0  0  0  0  0  0  0  0  0  0  0  0
   10.4859    4.0901   20.9730 C   0  0  0  0  0  0  0  0  0  0  0  0
   11.0962    9.3293   23.5072 C   0  0  0  0  0  0  0  0  0  0  0  0
    5.1273    7.8529   23.6208 N   0  0  0  0  0  0  0  0  0  0  0  0
    9.7552    9.2338   23.0171 N   0  0  0  0  0  0  0  0  0  0  0  0
   11.1797    6.7591   21.3326 N   0  0  0  0  0  0  0  0  0  0  0  0
   11.7728    8.0337   23.7267 C   0  0  0  0  0  0  0  0  0  0  0  0
    7.1194    8.3344   24.6775 C   0  0  0  0  0  0  0  0  0  0  0  0
    8.4311    4.7963   22.0500 C   0  0  0  0  0  0  0  0  0  0  0  0
    8.7393   10.8706   24.1871 O   0  0  0  0  0  0  0  0  0  0  0  0
    9.3093    3.8166   21.6712 C   0  0  0  0  0  0  0  0  0  0  0  0
  1  5  1  0
  1 15  4  0
  1 22  4  0
  2 20  1  0
  2 24  1  0
  3  6  4  0
  3 27  4  0
  4 22  4  0
  4 26  4  0
  6  7  4  0
  6 13  1  0
  7 19  4  0
  8 18  1  0
  8 23  1  0
  8 28  2  0
  9 17  1  0
  9 24  1  0
 10 11  1  0
 10 24  1  0
 11 23  1  0
 12 14  4  0
 12 16  4  0
 14 19  4  0
 15 18  4  0
 16 20  4  0
 17 25  1  0
 18 26  4  0
 19 29  4  0
 20 29  4  0
 21 23  1  0
 21 25  1  0
 27 29  4  0
M  END
$$$$

 Created by Python create_sdf_string function

 29 32  0  0  0  0  0  0  0  0999 V2000
    5.4450    8.7154   22.6662 C   0  0  0  0  0  0  0  0  0  0  0  0
   10.9154    5.4574   20.5483 C   0  0  0  0  0  0  0  0  0  0  0  0
    7.2709    4.5089   22.7542 C   0  0  0  0  0  0  0  0  0  0  0  0
    5.9698    7.6329   24.6581 C   0  0  0  0  0  0  0  0  0  0  0  0
    4.5542    8.9057   21.7104 O   0  0  0  0  0  0  0  0  0  0  0  0
    6.9895    3.2085   23.0690 C   0  0  0  0  0  0  0  0  0  0  0  0
    7.8391    2.2253   22.7260 N   0  0  0  0  0  0  0  0  0  0  0  0
    8.6968    9.8373   23.6359 C   0  0  0  0  0  0  0  0  0  0  0  0
   12.5135    6.5957   21.8396 C   0  0  0  0  0  0  0  0  0  0  0  0
   10.9406    8.2330   21.1350 C   0  0  0  0  0  0  0  0  0  0  0  0
    9.6648    8.5956   21.7310 C   0  0  0  0  0  0  0  0  0  0  0  0
   10.8829    1.7153   20.9865 C   0  0  0  0  0  0  0  0  0  0  0  0
    5.7768    2.8533   23.7910 C   0  0  0  0  0  0  0  0  0  0  0  0
    9.7977    1.4791   21.6912 N   0  0  0  0  0  0  0  0  0  0  0  0
    6.5976    9.3401   22.6478 N   0  0  0  0  0  0  0  0  0  0  0  0
   11.2031    3.0042   20.6246 C   0  0  0  0  0  0  0  0  0  0  0  0
   12.8688    7.7370   22.7287 C   0  0  0  0  0  0  0  0  0  0  0  0
    7.4487    9.1361   23.6506 C   0  0  0  0  0  0  0  0  0  0  0  0
    8.9772    2.5025   22.0273 C   0  0  0  0  0  0  0  0  0  0  0  0
   10.4859    4.0901   20.9730 C   0  0  0  0  0  0  0  0  0  0  0  0
   11.0962    9.3293   23.5072 C   0  0  0  0  0  0  0  0  0  0  0  0
    5.1273    7.8529   23.6208 N   0  0  0  0  0  0  0  0  0  0  0  0
    9.7552    9.2338   23.0171 N   0  0  0  0  0  0  0  0  0  0  0  0
   11.1797    6.7591   21.3326 N   0  0  0  0  0  0  0  0  0  0  0  0
   11.7728    8.0337   23.7267 C   0  0  0  0  0  0  0  0  0  0  0  0
    7.1194    8.3344   24.6775 C   0  0  0  0  0  0  0  0  0  0  0  0
    8.4311    4.7963   22.0500 C   0  0  0  0  0  0  0  0  0  0  0  0
    8.7393   10.8706   24.1871 O   0  0  0  0  0  0  0  0  0  0  0  0
    9.3093    3.8166   21.6712 C   0  0  0  0  0  0  0  0  0  0  0  0
  1  5  1  0
  1 15  4  0
  1 22  4  0
  2 20  1  0
  2 24  1  0
  3  6  4  0
  3 27  4  0
  4 22  4  0
  4 26  4  0
  6  7  4  0
  6 13  1  0
  7 19  4  0
  8 18  1  0
  8 23  1  0
  8 28  2  0
  9 17  1  0
  9 24  1  0
 10 11  1  0
 10 24  1  0
 11 23  1  0
 12 14  4  0
 12 16  4  0
 14 19  4  0
 15 18  4  0
 16 20  4  0
 17 25  1  0
 18 26  4  0
 19 29  4  0
 20 29  4  0
 21 23  1  0
 21 25  1  0
 27 29  4  0
M  END
$$$$

 Created by Python create_sdf_string function

 29 32  0  0  0  0  0  0  0  0999 V2000
    5.4450    8.7154   22.6662 C   0  0  0  0  0  0  0  0  0  0  0  0
   10.9154    5.4574   20.5483 C   0  0  0  0  0  0  0  0  0  0  0  0
    7.2709    4.5089   22.7542 C   0  0  0  0  0  0  0  0  0  0  0  0
    5.9698    7.6329   24.6581 C   0  0  0  0  0  0  0  0  0  0  0  0
    4.5542    8.9057   21.7104 O   0  0  0  0  0  0  0  0  0  0  0  0
    6.9895    3.2085   23.0690 C   0  0  0  0  0  0  0  0  0  0  0  0
    7.8391    2.2253   22.7260 N   0  0  0  0  0  0  0  0  0  0  0  0
    8.6968    9.8373   23.6359 C   0  0  0  0  0  0  0  0  0  0  0  0
   12.5135    6.5957   21.8396 C   0  0  0  0  0  0  0  0  0  0  0  0
   10.9406    8.2330   21.1350 C   0  0  0  0  0  0  0  0  0  0  0  0
    9.6648    8.5956   21.7310 C   0  0  0  0  0  0  0  0  0  0  0  0
   10.8829    1.7153   20.9865 C   0  0  0  0  0  0  0  0  0  0  0  0
    5.7768    2.8533   23.7910 C   0  0  0  0  0  0  0  0  0  0  0  0
    9.7977    1.4791   21.6912 N   0  0  0  0  0  0  0  0  0  0  0  0
    6.5976    9.3401   22.6478 N   0  0  0  0  0  0  0  0  0  0  0  0
   11.2031    3.0042   20.6246 C   0  0  0  0  0  0  0  0  0  0  0  0
   12.8688    7.7370   22.7287 C   0  0  0  0  0  0  0  0  0  0  0  0
    7.4487    9.1361   23.6506 C   0  0  0  0  0  0  0  0  0  0  0  0
    8.9772    2.5025   22.0273 C   0  0  0  0  0  0  0  0  0  0  0  0
   10.4859    4.0901   20.9730 C   0  0  0  0  0  0  0  0  0  0  0  0
   11.0962    9.3293   23.5072 C   0  0  0  0  0  0  0  0  0  0  0  0
    5.1273    7.8529   23.6208 N   0  0  0  0  0  0  0  0  0  0  0  0
    9.7552    9.2338   23.0171 N   0  0  0  0  0  0  0  0  0  0  0  0
   11.1797    6.7591   21.3326 N   0  0  0  0  0  0  0  0  0  0  0  0
   11.7728    8.0337   23.7267 C   0  0  0  0  0  0  0  0  0  0  0  0
    7.1194    8.3344   24.6775 C   0  0  0  0  0  0  0  0  0  0  0  0
    8.4311    4.7963   22.0500 C   0  0  0  0  0  0  0  0  0  0  0  0
    8.7393   10.8706   24.1871 O   0  0  0  0  0  0  0  0  0  0  0  0
    9.3093    3.8166   21.6712 C   0  0  0  0  0  0  0  0  0  0  0  0
  1  5  1  0
  1 15  4  0
  1 22  4  0
  2 20  1  0
  2 24  1  0
  3  6  4  0
  3 27  4  0
  4 22  4  0
  4 26  4  0
  6  7  4  0
  6 13  1  0
  7 19  4  0
  8 18  1  0
  8 23  1  0
  8 28  2  0
  9 17  1  0
  9 24  1  0
 10 11  1  0
 10 24  1  0
 11 23  1  0
 12 14  4  0
 12 16  4  0
 14 19  4  0
 15 18  4  0
 16 20  4  0
 17 25  1  0
 18 26  4  0
 19 29  4  0
 20 29  4  0
 21 23  1  0
 21 25  1  0
 27 29  4  0
M  END
$$$$

 Created by Python create_sdf_string function

 29 32  0  0  0  0  0  0  0  0999 V2000
    5.4450    8.7154   22.6662 C   0  0  0  0  0  0  0  0  0  0  0  0
   10.9154    5.4574   20.5483 C   0  0  0  0  0  0  0  0  0  0  0  0
    7.2709    4.5089   22.7542 C   0  0  0  0  0  0  0  0  0  0  0  0
    5.9698    7.6329   24.6581 C   0  0  0  0  0  0  0  0  0  0  0  0
    4.5542    8.9057   21.7104 O   0  0  0  0  0  0  0  0  0  0  0  0
    6.9895    3.2085   23.0690 C   0  0  0  0  0  0  0  0  0  0  0  0
    7.8391    2.2253   22.7260 N   0  0  0  0  0  0  0  0  0  0  0  0
    8.6968    9.8373   23.6359 C   0  0  0  0  0  0  0  0  0  0  0  0
   12.5135    6.5957   21.8396 C   0  0  0  0  0  0  0  0  0  0  0  0
   10.9406    8.2330   21.1350 C   0  0  0  0  0  0  0  0  0  0  0  0
    9.6648    8.5956   21.7310 C   0  0  0  0  0  0  0  0  0  0  0  0
   10.8829    1.7153   20.9865 C   0  0  0  0  0  0  0  0  0  0  0  0
    5.7768    2.8533   23.7910 C   0  0  0  0  0  0  0  0  0  0  0  0
    9.7977    1.4791   21.6912 N   0  0  0  0  0  0  0  0  0  0  0  0
    6.5976    9.3401   22.6478 N   0  0  0  0  0  0  0  0  0  0  0  0
   11.2031    3.0042   20.6246 C   0  0  0  0  0  0  0  0  0  0  0  0
   12.8688    7.7370   22.7287 C   0  0  0  0  0  0  0  0  0  0  0  0
    7.4487    9.1361   23.6506 C   0  0  0  0  0  0  0  0  0  0  0  0
    8.9772    2.5025   22.0273 C   0  0  0  0  0  0  0  0  0  0  0  0
   10.4859    4.0901   20.9730 C   0  0  0  0  0  0  0  0  0  0  0  0
   11.0962    9.3293   23.5072 C   0  0  0  0  0  0  0  0  0  0  0  0
    5.1273    7.8529   23.6208 N   0  0  0  0  0  0  0  0  0  0  0  0
    9.7552    9.2338   23.0171 N   0  0  0  0  0  0  0  0  0  0  0  0
   11.1797    6.7591   21.3326 N   0  0  0  0  0  0  0  0  0  0  0  0
   11.7728    8.0337   23.7267 C   0  0  0  0  0  0  0  0  0  0  0  0
    7.1194    8.3344   24.6775 C   0  0  0  0  0  0  0  0  0  0  0  0
    8.4311    4.7963   22.0500 C   0  0  0  0  0  0  0  0  0  0  0  0
    8.7393   10.8706   24.1871 O   0  0  0  0  0  0  0  0  0  0  0  0
    9.3093    3.8166   21.6712 C   0  0  0  0  0  0  0  0  0  0  0  0
  1  5  1  0
  1 15  4  0
  1 22  4  0
  2 20  1  0
  2 24  1  0
  3  6  4  0
  3 27  4  0
  4 22  4  0
  4 26  4  0
  6  7  4  0
  6 13  1  0
  7 19  4  0
  8 18  1  0
  8 23  1  0
  8 28  2  0
  9 17  1  0
  9 24  1  0
 10 11  1  0
 10 24  1  0
 11 23  1  0
 12 14  4  0
 12 16  4  0
 14 19  4  0
 15 18  4  0
 16 20  4  0
 17 25  1  0
 18 26  4  0
 19 29  4  0
 20 29  4  0
 21 23  1  0
 21 25  1  0
 27 29  4  0
M  END
$$$$

 Created by Python create_sdf_string function

 29 32  0  0  0  0  0  0  0  0999 V2000
    5.4450    8.7154   22.6662 C   0  0  0  0  0  0  0  0  0  0  0  0
   10.9154    5.4574   20.5483 C   0  0  0  0  0  0  0  0  0  0  0  0
    7.2709    4.5089   22.7542 C   0  0  0  0  0  0  0  0  0  0  0  0
    5.9698    7.6329   24.6581 C   0  0  0  0  0  0  0  0  0  0  0  0
    4.5542    8.9057   21.7104 O   0  0  0  0  0  0  0  0  0  0  0  0
    6.9895    3.2085   23.0690 C   0  0  0  0  0  0  0  0  0  0  0  0
    7.8391    2.2253   22.7260 N   0  0  0  0  0  0  0  0  0  0  0  0
    8.6968    9.8373   23.6359 C   0  0  0  0  0  0  0  0  0  0  0  0
   12.5135    6.5957   21.8396 C   0  0  0  0  0  0  0  0  0  0  0  0
   10.9406    8.2330   21.1350 C   0  0  0  0  0  0  0  0  0  0  0  0
    9.6648    8.5956   21.7310 C   0  0  0  0  0  0  0  0  0  0  0  0
   10.8829    1.7153   20.9865 C   0  0  0  0  0  0  0  0  0  0  0  0
    5.7768    2.8533   23.7910 C   0  0  0  0  0  0  0  0  0  0  0  0
    9.7977    1.4791   21.6912 N   0  0  0  0  0  0  0  0  0  0  0  0
    6.5976    9.3401   22.6478 N   0  0  0  0  0  0  0  0  0  0  0  0
   11.2031    3.0042   20.6246 C   0  0  0  0  0  0  0  0  0  0  0  0
   12.8688    7.7370   22.7287 C   0  0  0  0  0  0  0  0  0  0  0  0
    7.4487    9.1361   23.6506 C   0  0  0  0  0  0  0  0  0  0  0  0
    8.9772    2.5025   22.0273 C   0  0  0  0  0  0  0  0  0  0  0  0
   10.4859    4.0901   20.9730 C   0  0  0  0  0  0  0  0  0  0  0  0
   11.0962    9.3293   23.5072 C   0  0  0  0  0  0  0  0  0  0  0  0
    5.1273    7.8529   23.6208 N   0  0  0  0  0  0  0  0  0  0  0  0
    9.7552    9.2338   23.0171 N   0  0  0  0  0  0  0  0  0  0  0  0
   11.1797    6.7591   21.3326 N   0  0  0  0  0  0  0  0  0  0  0  0
   11.7728    8.0337   23.7267 C   0  0  0  0  0  0  0  0  0  0  0  0
    7.1194    8.3344   24.6775 C   0  0  0  0  0  0  0  0  0  0  0  0
    8.4311    4.7963   22.0500 C   0  0  0  0  0  0  0  0  0  0  0  0
    8.7393   10.8706   24.1871 O   0  0  0  0  0  0  0  0  0  0  0  0
    9.3093    3.8166   21.6712 C   0  0  0  0  0  0  0  0  0  0  0  0
  1  5  1  0
  1 15  4  0
  1 22  4  0
  2 20  1  0
  2 24  1  0
  3  6  4  0
  3 27  4  0
  4 22  4  0
  4 26  4  0
  6  7  4  0
  6 13  1  0
  7 19  4  0
  8 18  1  0
  8 23  1  0
  8 28  2  0
  9 17  1  0
  9 24  1  0
 10 11  1  0
 10 24  1  0
 11 23  1  0
 12 14  4  0
 12 16  4  0
 14 19  4  0
 15 18  4  0
 16 20  4  0
 17 25  1  0
 18 26  4  0
 19 29  4  0
 20 29  4  0
 21 23  1  0
 21 25  1  0
 27 29  4  0
M  END
$$$$

 Created by Python create_sdf_string function

 29 32  0  0  0  0  0  0  0  0999 V2000
    5.4450    8.7154   22.6662 C   0  0  0  0  0  0  0  0  0  0  0  0
   10.9154    5.4574   20.5483 C   0  0  0  0  0  0  0  0  0  0  0  0
    7.2709    4.5089   22.7542 C   0  0  0  0  0  0  0  0  0  0  0  0
    5.9698    7.6329   24.6581 C   0  0  0  0  0  0  0  0  0  0  0  0
    4.5542    8.9057   21.7104 O   0  0  0  0  0  0  0  0  0  0  0  0
    6.9895    3.2085   23.0690 C   0  0  0  0  0  0  0  0  0  0  0  0
    7.8391    2.2253   22.7260 N   0  0  0  0  0  0  0  0  0  0  0  0
    8.6968    9.8373   23.6359 C   0  0  0  0  0  0  0  0  0  0  0  0
   12.5135    6.5957   21.8396 C   0  0  0  0  0  0  0  0  0  0  0  0
   10.9406    8.2330   21.1350 C   0  0  0  0  0  0  0  0  0  0  0  0
    9.6648    8.5956   21.7310 C   0  0  0  0  0  0  0  0  0  0  0  0
   10.8829    1.7153   20.9865 C   0  0  0  0  0  0  0  0  0  0  0  0
    5.7768    2.8533   23.7910 C   0  0  0  0  0  0  0  0  0  0  0  0
    9.7977    1.4791   21.6912 N   0  0  0  0  0  0  0  0  0  0  0  0
    6.5976    9.3401   22.6478 N   0  0  0  0  0  0  0  0  0  0  0  0
   11.2031    3.0042   20.6246 C   0  0  0  0  0  0  0  0  0  0  0  0
   12.8688    7.7370   22.7287 C   0  0  0  0  0  0  0  0  0  0  0  0
    7.4487    9.1361   23.6506 C   0  0  0  0  0  0  0  0  0  0  0  0
    8.9772    2.5025   22.0273 C   0  0  0  0  0  0  0  0  0  0  0  0
   10.4859    4.0901   20.9730 C   0  0  0  0  0  0  0  0  0  0  0  0
   11.0962    9.3293   23.5072 C   0  0  0  0  0  0  0  0  0  0  0  0
    5.1273    7.8529   23.6208 N   0  0  0  0  0  0  0  0  0  0  0  0
    9.7552    9.2338   23.0171 N   0  0  0  0  0  0  0  0  0  0  0  0
   11.1797    6.7591   21.3326 N   0  0  0  0  0  0  0  0  0  0  0  0
   11.7728    8.0337   23.7267 C   0  0  0  0  0  0  0  0  0  0  0  0
    7.1194    8.3344   24.6775 C   0  0  0  0  0  0  0  0  0  0  0  0
    8.4311    4.7963   22.0500 C   0  0  0  0  0  0  0  0  0  0  0  0
    8.7393   10.8706   24.1871 O   0  0  0  0  0  0  0  0  0  0  0  0
    9.3093    3.8166   21.6712 C   0  0  0  0  0  0  0  0  0  0  0  0
  1  5  1  0
  1 15  4  0
  1 22  4  0
  2 20  1  0
  2 24  1  0
  3  6  4  0
  3 27  4  0
  4 22  4  0
  4 26  4  0
  6  7  4  0
  6 13  1  0
  7 19  4  0
  8 18  1  0
  8 23  1  0
  8 28  2  0
  9 17  1  0
  9 24  1  0
 10 11  1  0
 10 24  1  0
 11 23  1  0
 12 14  4  0
 12 16  4  0
 14 19  4  0
 15 18  4  0
 16 20  4  0
 17 25  1  0
 18 26  4  0
 19 29  4  0
 20 29  4  0
 21 23  1  0
 21 25  1  0
 27 29  4  0
M  END
$$$$

 Created by Python create_sdf_string function

 29 32  0  0  0  0  0  0  0  0999 V2000
    5.4450    8.7154   22.6662 C   0  0  0  0  0  0  0  0  0  0  0  0
   10.9154    5.4574   20.5483 C   0  0  0  0  0  0  0  0  0  0  0  0
    7.2709    4.5089   22.7542 C   0  0  0  0  0  0  0  0  0  0  0  0
    5.9698    7.6329   24.6581 C   0  0  0  0  0  0  0  0  0  0  0  0
    4.5542    8.9057   21.7104 O   0  0  0  0  0  0  0  0  0  0  0  0
    6.9895    3.2085   23.0690 C   0  0  0  0  0  0  0  0  0  0  0  0
    7.8391    2.2253   22.7260 N   0  0  0  0  0  0  0  0  0  0  0  0
    8.6968    9.8373   23.6359 C   0  0  0  0  0  0  0  0  0  0  0  0
   12.5135    6.5957   21.8396 C   0  0  0  0  0  0  0  0  0  0  0  0
   10.9406    8.2330   21.1350 C   0  0  0  0  0  0  0  0  0  0  0  0
    9.6648    8.5956   21.7310 C   0  0  0  0  0  0  0  0  0  0  0  0
   10.8829    1.7153   20.9865 C   0  0  0  0  0  0  0  0  0  0  0  0
    5.7768    2.8533   23.7910 C   0  0  0  0  0  0  0  0  0  0  0  0
    9.7977    1.4791   21.6912 N   0  0  0  0  0  0  0  0  0  0  0  0
    6.5976    9.3401   22.6478 N   0  0  0  0  0  0  0  0  0  0  0  0
   11.2031    3.0042   20.6246 C   0  0  0  0  0  0  0  0  0  0  0  0
   12.8688    7.7370   22.7287 C   0  0  0  0  0  0  0  0  0  0  0  0
    7.4487    9.1361   23.6506 C   0  0  0  0  0  0  0  0  0  0  0  0
    8.9772    2.5025   22.0273 C   0  0  0  0  0  0  0  0  0  0  0  0
   10.4859    4.0901   20.9730 C   0  0  0  0  0  0  0  0  0  0  0  0
   11.0962    9.3293   23.5072 C   0  0  0  0  0  0  0  0  0  0  0  0
    5.1273    7.8529   23.6208 N   0  0  0  0  0  0  0  0  0  0  0  0
    9.7552    9.2338   23.0171 N   0  0  0  0  0  0  0  0  0  0  0  0
   11.1797    6.7591   21.3326 N   0  0  0  0  0  0  0  0  0  0  0  0
   11.7728    8.0337   23.7267 C   0  0  0  0  0  0  0  0  0  0  0  0
    7.1194    8.3344   24.6775 C   0  0  0  0  0  0  0  0  0  0  0  0
    8.4311    4.7963   22.0500 C   0  0  0  0  0  0  0  0  0  0  0  0
    8.7393   10.8706   24.1871 O   0  0  0  0  0  0  0  0  0  0  0  0
    9.3093    3.8166   21.6712 C   0  0  0  0  0  0  0  0  0  0  0  0
  1  5  1  0
  1 15  4  0
  1 22  4  0
  2 20  1  0
  2 24  1  0
  3  6  4  0
  3 27  4  0
  4 22  4  0
  4 26  4  0
  6  7  4  0
  6 13  1  0
  7 19  4  0
  8 18  1  0
  8 23  1  0
  8 28  2  0
  9 17  1  0
  9 24  1  0
 10 11  1  0
 10 24  1  0
 11 23  1  0
 12 14  4  0
 12 16  4  0
 14 19  4  0
 15 18  4  0
 16 20  4  0
 17 25  1  0
 18 26  4  0
 19 29  4  0
 20 29  4  0
 21 23  1  0
 21 25  1  0
 27 29  4  0
M  END
$$$$

 Created by Python create_sdf_string function

 29 32  0  0  0  0  0  0  0  0999 V2000
    5.4450    8.7154   22.6662 C   0  0  0  0  0  0  0  0  0  0  0  0
   10.9154    5.4574   20.5483 C   0  0  0  0  0  0  0  0  0  0  0  0
    7.2709    4.5089   22.7542 C   0  0  0  0  0  0  0  0  0  0  0  0
    5.9698    7.6329   24.6581 C   0  0  0  0  0  0  0  0  0  0  0  0
    4.5542    8.9057   21.7104 O   0  0  0  0  0  0  0  0  0  0  0  0
    6.9895    3.2085   23.0690 C   0  0  0  0  0  0  0  0  0  0  0  0
    7.8391    2.2253   22.7260 N   0  0  0  0  0  0  0  0  0  0  0  0
    8.6968    9.8373   23.6359 C   0  0  0  0  0  0  0  0  0  0  0  0
   12.5135    6.5957   21.8396 C   0  0  0  0  0  0  0  0  0  0  0  0
   10.9406    8.2330   21.1350 C   0  0  0  0  0  0  0  0  0  0  0  0
    9.6648    8.5956   21.7310 C   0  0  0  0  0  0  0  0  0  0  0  0
   10.8829    1.7153   20.9865 C   0  0  0  0  0  0  0  0  0  0  0  0
    5.7768    2.8533   23.7910 C   0  0  0  0  0  0  0  0  0  0  0  0
    9.7977    1.4791   21.6912 N   0  0  0  0  0  0  0  0  0  0  0  0
    6.5976    9.3401   22.6478 N   0  0  0  0  0  0  0  0  0  0  0  0
   11.2031    3.0042   20.6246 C   0  0  0  0  0  0  0  0  0  0  0  0
   12.8688    7.7370   22.7287 C   0  0  0  0  0  0  0  0  0  0  0  0
    7.4487    9.1361   23.6506 C   0  0  0  0  0  0  0  0  0  0  0  0
    8.9772    2.5025   22.0273 C   0  0  0  0  0  0  0  0  0  0  0  0
   10.4859    4.0901   20.9730 C   0  0  0  0  0  0  0  0  0  0  0  0
   11.0962    9.3293   23.5072 C   0  0  0  0  0  0  0  0  0  0  0  0
    5.1273    7.8529   23.6208 N   0  0  0  0  0  0  0  0  0  0  0  0
    9.7552    9.2338   23.0171 N   0  0  0  0  0  0  0  0  0  0  0  0
   11.1797    6.7591   21.3326 N   0  0  0  0  0  0  0  0  0  0  0  0
   11.7728    8.0337   23.7267 C   0  0  0  0  0  0  0  0  0  0  0  0
    7.1194    8.3344   24.6775 C   0  0  0  0  0  0  0  0  0  0  0  0
    8.4311    4.7963   22.0500 C   0  0  0  0  0  0  0  0  0  0  0  0
    8.7393   10.8706   24.1871 O   0  0  0  0  0  0  0  0  0  0  0  0
    9.3093    3.8166   21.6712 C   0  0  0  0  0  0  0  0  0  0  0  0
  1  5  1  0
  1 15  4  0
  1 22  4  0
  2 20  1  0
  2 24  1  0
  3  6  4  0
  3 27  4  0
  4 22  4  0
  4 26  4  0
  6  7  4  0
  6 13  1  0
  7 19  4  0
  8 18  1  0
  8 23  1  0
  8 28  2  0
  9 17  1  0
  9 24  1  0
 10 11  1  0
 10 24  1  0
 11 23  1  0
 12 14  4  0
 12 16  4  0
 14 19  4  0
 15 18  4  0
 16 20  4  0
 17 25  1  0
 18 26  4  0
 19 29  4  0
 20 29  4  0
 21 23  1  0
 21 25  1  0
 27 29  4  0
M  END
$$$$

 Created by Python create_sdf_string function

 29 32  0  0  0  0  0  0  0  0999 V2000
    5.4450    8.7154   22.6662 C   0  0  0  0  0  0  0  0  0  0  0  0
   10.9154    5.4574   20.5483 C   0  0  0  0  0  0  0  0  0  0  0  0
    7.2709    4.5089   22.7542 C   0  0  0  0  0  0  0  0  0  0  0  0
    5.9698    7.6329   24.6581 C   0  0  0  0  0  0  0  0  0  0  0  0
    4.5542    8.9057   21.7104 O   0  0  0  0  0  0  0  0  0  0  0  0
    6.9895    3.2085   23.0690 C   0  0  0  0  0  0  0  0  0  0  0  0
    7.8391    2.2253   22.7260 N   0  0  0  0  0  0  0  0  0  0  0  0
    8.6968    9.8373   23.6359 C   0  0  0  0  0  0  0  0  0  0  0  0
   12.5135    6.5957   21.8396 C   0  0  0  0  0  0  0  0  0  0  0  0
   10.9406    8.2330   21.1350 C   0  0  0  0  0  0  0  0  0  0  0  0
    9.6648    8.5956   21.7310 C   0  0  0  0  0  0  0  0  0  0  0  0
   10.8829    1.7153   20.9865 C   0  0  0  0  0  0  0  0  0  0  0  0
    5.7768    2.8533   23.7910 C   0  0  0  0  0  0  0  0  0  0  0  0
    9.7977    1.4791   21.6912 N   0  0  0  0  0  0  0  0  0  0  0  0
    6.5976    9.3401   22.6478 N   0  0  0  0  0  0  0  0  0  0  0  0
   11.2031    3.0042   20.6246 C   0  0  0  0  0  0  0  0  0  0  0  0
   12.8688    7.7370   22.7287 C   0  0  0  0  0  0  0  0  0  0  0  0
    7.4487    9.1361   23.6506 C   0  0  0  0  0  0  0  0  0  0  0  0
    8.9772    2.5025   22.0273 C   0  0  0  0  0  0  0  0  0  0  0  0
   10.4859    4.0901   20.9730 C   0  0  0  0  0  0  0  0  0  0  0  0
   11.0962    9.3293   23.5072 C   0  0  0  0  0  0  0  0  0  0  0  0
    5.1273    7.8529   23.6208 N   0  0  0  0  0  0  0  0  0  0  0  0
    9.7552    9.2338   23.0171 N   0  0  0  0  0  0  0  0  0  0  0  0
   11.1797    6.7591   21.3326 N   0  0  0  0  0  0  0  0  0  0  0  0
   11.7728    8.0337   23.7267 C   0  0  0  0  0  0  0  0  0  0  0  0
    7.1194    8.3344   24.6775 C   0  0  0  0  0  0  0  0  0  0  0  0
    8.4311    4.7963   22.0500 C   0  0  0  0  0  0  0  0  0  0  0  0
    8.7393   10.8706   24.1871 O   0  0  0  0  0  0  0  0  0  0  0  0
    9.3093    3.8166   21.6712 C   0  0  0  0  0  0  0  0  0  0  0  0
  1  5  1  0
  1 15  4  0
  1 22  4  0
  2 20  1  0
  2 24  1  0
  3  6  4  0
  3 27  4  0
  4 22  4  0
  4 26  4  0
  6  7  4  0
  6 13  1  0
  7 19  4  0
  8 18  1  0
  8 23  1  0
  8 28  2  0
  9 17  1  0
  9 24  1  0
 10 11  1  0
 10 24  1  0
 11 23  1  0
 12 14  4  0
 12 16  4  0
 14 19  4  0
 15 18  4  0
 16 20  4  0
 17 25  1  0
 18 26  4  0
 19 29  4  0
 20 29  4  0
 21 23  1  0
 21 25  1  0
 27 29  4  0
M  END
$$$$

 Created by Python create_sdf_string function

 29 32  0  0  0  0  0  0  0  0999 V2000
    5.4450    8.7154   22.6662 C   0  0  0  0  0  0  0  0  0  0  0  0
   10.9154    5.4574   20.5483 C   0  0  0  0  0  0  0  0  0  0  0  0
    7.2709    4.5089   22.7542 C   0  0  0  0  0  0  0  0  0  0  0  0
    5.9698    7.6329   24.6581 C   0  0  0  0  0  0  0  0  0  0  0  0
    4.5542    8.9057   21.7104 O   0  0  0  0  0  0  0  0  0  0  0  0
    6.9895    3.2085   23.0690 C   0  0  0  0  0  0  0  0  0  0  0  0
    7.8391    2.2253   22.7260 N   0  0  0  0  0  0  0  0  0  0  0  0
    8.6968    9.8373   23.6359 C   0  0  0  0  0  0  0  0  0  0  0  0
   12.5135    6.5957   21.8396 C   0  0  0  0  0  0  0  0  0  0  0  0
   10.9406    8.2330   21.1350 C   0  0  0  0  0  0  0  0  0  0  0  0
    9.6648    8.5956   21.7310 C   0  0  0  0  0  0  0  0  0  0  0  0
   10.8829    1.7153   20.9865 C   0  0  0  0  0  0  0  0  0  0  0  0
    5.7768    2.8533   23.7910 C   0  0  0  0  0  0  0  0  0  0  0  0
    9.7977    1.4791   21.6912 N   0  0  0  0  0  0  0  0  0  0  0  0
    6.5976    9.3401   22.6478 N   0  0  0  0  0  0  0  0  0  0  0  0
   11.2031    3.0042   20.6246 C   0  0  0  0  0  0  0  0  0  0  0  0
   12.8688    7.7370   22.7287 C   0  0  0  0  0  0  0  0  0  0  0  0
    7.4487    9.1361   23.6506 C   0  0  0  0  0  0  0  0  0  0  0  0
    8.9772    2.5025   22.0273 C   0  0  0  0  0  0  0  0  0  0  0  0
   10.4859    4.0901   20.9730 C   0  0  0  0  0  0  0  0  0  0  0  0
   11.0962    9.3293   23.5072 C   0  0  0  0  0  0  0  0  0  0  0  0
    5.1273    7.8529   23.6208 N   0  0  0  0  0  0  0  0  0  0  0  0
    9.7552    9.2338   23.0171 N   0  0  0  0  0  0  0  0  0  0  0  0
   11.1797    6.7591   21.3326 N   0  0  0  0  0  0  0  0  0  0  0  0
   11.7728    8.0337   23.7267 C   0  0  0  0  0  0  0  0  0  0  0  0
    7.1194    8.3344   24.6775 C   0  0  0  0  0  0  0  0  0  0  0  0
    8.4311    4.7963   22.0500 C   0  0  0  0  0  0  0  0  0  0  0  0
    8.7393   10.8706   24.1871 O   0  0  0  0  0  0  0  0  0  0  0  0
    9.3093    3.8166   21.6712 C   0  0  0  0  0  0  0  0  0  0  0  0
  1  5  1  0
  1 15  4  0
  1 22  4  0
  2 20  1  0
  2 24  1  0
  3  6  4  0
  3 27  4  0
  4 22  4  0
  4 26  4  0
  6  7  4  0
  6 13  1  0
  7 19  4  0
  8 18  1  0
  8 23  1  0
  8 28  2  0
  9 17  1  0
  9 24  1  0
 10 11  1  0
 10 24  1  0
 11 23  1  0
 12 14  4  0
 12 16  4  0
 14 19  4  0
 15 18  4  0
 16 20  4  0
 17 25  1  0
 18 26  4  0
 19 29  4  0
 20 29  4  0
 21 23  1  0
 21 25  1  0
 27 29  4  0
M  END
$$$$

 Created by Python create_sdf_string function

 29 32  0  0  0  0  0  0  0  0999 V2000
    5.4450    8.7154   22.6662 C   0  0  0  0  0  0  0  0  0  0  0  0
   10.9154    5.4574   20.5483 C   0  0  0  0  0  0  0  0  0  0  0  0
    7.2709    4.5089   22.7542 C   0  0  0  0  0  0  0  0  0  0  0  0
    5.9698    7.6329   24.6581 C   0  0  0  0  0  0  0  0  0  0  0  0
    4.5542    8.9057   21.7104 O   0  0  0  0  0  0  0  0  0  0  0  0
    6.9895    3.2085   23.0690 C   0  0  0  0  0  0  0  0  0  0  0  0
    7.8391    2.2253   22.7260 N   0  0  0  0  0  0  0  0  0  0  0  0
    8.6968    9.8373   23.6359 C   0  0  0  0  0  0  0  0  0  0  0  0
   12.5135    6.5957   21.8396 C   0  0  0  0  0  0  0  0  0  0  0  0
   10.9406    8.2330   21.1350 C   0  0  0  0  0  0  0  0  0  0  0  0
    9.6648    8.5956   21.7310 C   0  0  0  0  0  0  0  0  0  0  0  0
   10.8829    1.7153   20.9865 C   0  0  0  0  0  0  0  0  0  0  0  0
    5.7768    2.8533   23.7910 C   0  0  0  0  0  0  0  0  0  0  0  0
    9.7977    1.4791   21.6912 N   0  0  0  0  0  0  0  0  0  0  0  0
    6.5976    9.3401   22.6478 N   0  0  0  0  0  0  0  0  0  0  0  0
   11.2031    3.0042   20.6246 C   0  0  0  0  0  0  0  0  0  0  0  0
   12.8688    7.7370   22.7287 C   0  0  0  0  0  0  0  0  0  0  0  0
    7.4487    9.1361   23.6506 C   0  0  0  0  0  0  0  0  0  0  0  0
    8.9772    2.5025   22.0273 C   0  0  0  0  0  0  0  0  0  0  0  0
   10.4859    4.0901   20.9730 C   0  0  0  0  0  0  0  0  0  0  0  0
   11.0962    9.3293   23.5072 C   0  0  0  0  0  0  0  0  0  0  0  0
    5.1273    7.8529   23.6208 N   0  0  0  0  0  0  0  0  0  0  0  0
    9.7552    9.2338   23.0171 N   0  0  0  0  0  0  0  0  0  0  0  0
   11.1797    6.7591   21.3326 N   0  0  0  0  0  0  0  0  0  0  0  0
   11.7728    8.0337   23.7267 C   0  0  0  0  0  0  0  0  0  0  0  0
    7.1194    8.3344   24.6775 C   0  0  0  0  0  0  0  0  0  0  0  0
    8.4311    4.7963   22.0500 C   0  0  0  0  0  0  0  0  0  0  0  0
    8.7393   10.8706   24.1871 O   0  0  0  0  0  0  0  0  0  0  0  0
    9.3093    3.8166   21.6712 C   0  0  0  0  0  0  0  0  0  0  0  0
  1  5  1  0
  1 15  4  0
  1 22  4  0
  2 20  1  0
  2 24  1  0
  3  6  4  0
  3 27  4  0
  4 22  4  0
  4 26  4  0
  6  7  4  0
  6 13  1  0
  7 19  4  0
  8 18  1  0
  8 23  1  0
  8 28  2  0
  9 17  1  0
  9 24  1  0
 10 11  1  0
 10 24  1  0
 11 23  1  0
 12 14  4  0
 12 16  4  0
 14 19  4  0
 15 18  4  0
 16 20  4  0
 17 25  1  0
 18 26  4  0
 19 29  4  0
 20 29  4  0
 21 23  1  0
 21 25  1  0
 27 29  4  0
M  END
$$$$

 Created by Python create_sdf_string function

 29 32  0  0  0  0  0  0  0  0999 V2000
    5.4450    8.7154   22.6662 C   0  0  0  0  0  0  0  0  0  0  0  0
   10.9154    5.4574   20.5483 C   0  0  0  0  0  0  0  0  0  0  0  0
    7.2709    4.5089   22.7542 C   0  0  0  0  0  0  0  0  0  0  0  0
    5.9698    7.6329   24.6581 C   0  0  0  0  0  0  0  0  0  0  0  0
    4.5542    8.9057   21.7104 O   0  0  0  0  0  0  0  0  0  0  0  0
    6.9895    3.2085   23.0690 C   0  0  0  0  0  0  0  0  0  0  0  0
    7.8391    2.2253   22.7260 N   0  0  0  0  0  0  0  0  0  0  0  0
    8.6968    9.8373   23.6359 C   0  0  0  0  0  0  0  0  0  0  0  0
   12.5135    6.5957   21.8396 C   0  0  0  0  0  0  0  0  0  0  0  0
   10.9406    8.2330   21.1350 C   0  0  0  0  0  0  0  0  0  0  0  0
    9.6648    8.5956   21.7310 C   0  0  0  0  0  0  0  0  0  0  0  0
   10.8829    1.7153   20.9865 C   0  0  0  0  0  0  0  0  0  0  0  0
    5.7768    2.8533   23.7910 C   0  0  0  0  0  0  0  0  0  0  0  0
    9.7977    1.4791   21.6912 N   0  0  0  0  0  0  0  0  0  0  0  0
    6.5976    9.3401   22.6478 N   0  0  0  0  0  0  0  0  0  0  0  0
   11.2031    3.0042   20.6246 C   0  0  0  0  0  0  0  0  0  0  0  0
   12.8688    7.7370   22.7287 C   0  0  0  0  0  0  0  0  0  0  0  0
    7.4487    9.1361   23.6506 C   0  0  0  0  0  0  0  0  0  0  0  0
    8.9772    2.5025   22.0273 C   0  0  0  0  0  0  0  0  0  0  0  0
   10.4859    4.0901   20.9730 C   0  0  0  0  0  0  0  0  0  0  0  0
   11.0962    9.3293   23.5072 C   0  0  0  0  0  0  0  0  0  0  0  0
    5.1273    7.8529   23.6208 N   0  0  0  0  0  0  0  0  0  0  0  0
    9.7552    9.2338   23.0171 N   0  0  0  0  0  0  0  0  0  0  0  0
   11.1797    6.7591   21.3326 N   0  0  0  0  0  0  0  0  0  0  0  0
   11.7728    8.0337   23.7267 C   0  0  0  0  0  0  0  0  0  0  0  0
    7.1194    8.3344   24.6775 C   0  0  0  0  0  0  0  0  0  0  0  0
    8.4311    4.7963   22.0500 C   0  0  0  0  0  0  0  0  0  0  0  0
    8.7393   10.8706   24.1871 O   0  0  0  0  0  0  0  0  0  0  0  0
    9.3093    3.8166   21.6712 C   0  0  0  0  0  0  0  0  0  0  0  0
  1  5  1  0
  1 15  4  0
  1 22  4  0
  2 20  1  0
  2 24  1  0
  3  6  4  0
  3 27  4  0
  4 22  4  0
  4 26  4  0
  6  7  4  0
  6 13  1  0
  7 19  4  0
  8 18  1  0
  8 23  1  0
  8 28  2  0
  9 17  1  0
  9 24  1  0
 10 11  1  0
 10 24  1  0
 11 23  1  0
 12 14  4  0
 12 16  4  0
 14 19  4  0
 15 18  4  0
 16 20  4  0
 17 25  1  0
 18 26  4  0
 19 29  4  0
 20 29  4  0
 21 23  1  0
 21 25  1  0
 27 29  4  0
M  END
$$$$

 Created by Python create_sdf_string function

 29 32  0  0  0  0  0  0  0  0999 V2000
    5.4450    8.7154   22.6662 C   0  0  0  0  0  0  0  0  0  0  0  0
   10.9154    5.4574   20.5483 C   0  0  0  0  0  0  0  0  0  0  0  0
    7.2709    4.5089   22.7542 C   0  0  0  0  0  0  0  0  0  0  0  0
    5.9698    7.6329   24.6581 C   0  0  0  0  0  0  0  0  0  0  0  0
    4.5542    8.9057   21.7104 O   0  0  0  0  0  0  0  0  0  0  0  0
    6.9895    3.2085   23.0690 C   0  0  0  0  0  0  0  0  0  0  0  0
    7.8391    2.2253   22.7260 N   0  0  0  0  0  0  0  0  0  0  0  0
    8.6968    9.8373   23.6359 C   0  0  0  0  0  0  0  0  0  0  0  0
   12.5135    6.5957   21.8396 C   0  0  0  0  0  0  0  0  0  0  0  0
   10.9406    8.2330   21.1350 C   0  0  0  0  0  0  0  0  0  0  0  0
    9.6648    8.5956   21.7310 C   0  0  0  0  0  0  0  0  0  0  0  0
   10.8829    1.7153   20.9865 C   0  0  0  0  0  0  0  0  0  0  0  0
    5.7768    2.8533   23.7910 C   0  0  0  0  0  0  0  0  0  0  0  0
    9.7977    1.4791   21.6912 N   0  0  0  0  0  0  0  0  0  0  0  0
    6.5976    9.3401   22.6478 N   0  0  0  0  0  0  0  0  0  0  0  0
   11.2031    3.0042   20.6246 C   0  0  0  0  0  0  0  0  0  0  0  0
   12.8688    7.7370   22.7287 C   0  0  0  0  0  0  0  0  0  0  0  0
    7.4487    9.1361   23.6506 C   0  0  0  0  0  0  0  0  0  0  0  0
    8.9772    2.5025   22.0273 C   0  0  0  0  0  0  0  0  0  0  0  0
   10.4859    4.0901   20.9730 C   0  0  0  0  0  0  0  0  0  0  0  0
   11.0962    9.3293   23.5072 C   0  0  0  0  0  0  0  0  0  0  0  0
    5.1273    7.8529   23.6208 N   0  0  0  0  0  0  0  0  0  0  0  0
    9.7552    9.2338   23.0171 N   0  0  0  0  0  0  0  0  0  0  0  0
   11.1797    6.7591   21.3326 N   0  0  0  0  0  0  0  0  0  0  0  0
   11.7728    8.0337   23.7267 C   0  0  0  0  0  0  0  0  0  0  0  0
    7.1194    8.3344   24.6775 C   0  0  0  0  0  0  0  0  0  0  0  0
    8.4311    4.7963   22.0500 C   0  0  0  0  0  0  0  0  0  0  0  0
    8.7393   10.8706   24.1871 O   0  0  0  0  0  0  0  0  0  0  0  0
    9.3093    3.8166   21.6712 C   0  0  0  0  0  0  0  0  0  0  0  0
  1  5  1  0
  1 15  4  0
  1 22  4  0
  2 20  1  0
  2 24  1  0
  3  6  4  0
  3 27  4  0
  4 22  4  0
  4 26  4  0
  6  7  4  0
  6 13  1  0
  7 19  4  0
  8 18  1  0
  8 23  1  0
  8 28  2  0
  9 17  1  0
  9 24  1  0
 10 11  1  0
 10 24  1  0
 11 23  1  0
 12 14  4  0
 12 16  4  0
 14 19  4  0
 15 18  4  0
 16 20  4  0
 17 25  1  0
 18 26  4  0
 19 29  4  0
 20 29  4  0
 21 23  1  0
 21 25  1  0
 27 29  4  0
M  END
$$$$

 Created by Python create_sdf_string function

 29 32  0  0  0  0  0  0  0  0999 V2000
    5.4450    8.7154   22.6662 C   0  0  0  0  0  0  0  0  0  0  0  0
   10.9154    5.4574   20.5483 C   0  0  0  0  0  0  0  0  0  0  0  0
    7.2709    4.5089   22.7542 C   0  0  0  0  0  0  0  0  0  0  0  0
    5.9698    7.6329   24.6581 C   0  0  0  0  0  0  0  0  0  0  0  0
    4.5542    8.9057   21.7104 O   0  0  0  0  0  0  0  0  0  0  0  0
    6.9895    3.2085   23.0690 C   0  0  0  0  0  0  0  0  0  0  0  0
    7.8391    2.2253   22.7260 N   0  0  0  0  0  0  0  0  0  0  0  0
    8.6968    9.8373   23.6359 C   0  0  0  0  0  0  0  0  0  0  0  0
   12.5135    6.5957   21.8396 C   0  0  0  0  0  0  0  0  0  0  0  0
   10.9406    8.2330   21.1350 C   0  0  0  0  0  0  0  0  0  0  0  0
    9.6648    8.5956   21.7310 C   0  0  0  0  0  0  0  0  0  0  0  0
   10.8829    1.7153   20.9865 C   0  0  0  0  0  0  0  0  0  0  0  0
    5.7768    2.8533   23.7910 C   0  0  0  0  0  0  0  0  0  0  0  0
    9.7977    1.4791   21.6912 N   0  0  0  0  0  0  0  0  0  0  0  0
    6.5976    9.3401   22.6478 N   0  0  0  0  0  0  0  0  0  0  0  0
   11.2031    3.0042   20.6246 C   0  0  0  0  0  0  0  0  0  0  0  0
   12.8688    7.7370   22.7287 C   0  0  0  0  0  0  0  0  0  0  0  0
    7.4487    9.1361   23.6506 C   0  0  0  0  0  0  0  0  0  0  0  0
    8.9772    2.5025   22.0273 C   0  0  0  0  0  0  0  0  0  0  0  0
   10.4859    4.0901   20.9730 C   0  0  0  0  0  0  0  0  0  0  0  0
   11.0962    9.3293   23.5072 C   0  0  0  0  0  0  0  0  0  0  0  0
    5.1273    7.8529   23.6208 N   0  0  0  0  0  0  0  0  0  0  0  0
    9.7552    9.2338   23.0171 N   0  0  0  0  0  0  0  0  0  0  0  0
   11.1797    6.7591   21.3326 N   0  0  0  0  0  0  0  0  0  0  0  0
   11.7728    8.0337   23.7267 C   0  0  0  0  0  0  0  0  0  0  0  0
    7.1194    8.3344   24.6775 C   0  0  0  0  0  0  0  0  0  0  0  0
    8.4311    4.7963   22.0500 C   0  0  0  0  0  0  0  0  0  0  0  0
    8.7393   10.8706   24.1871 O   0  0  0  0  0  0  0  0  0  0  0  0
    9.3093    3.8166   21.6712 C   0  0  0  0  0  0  0  0  0  0  0  0
  1  5  1  0
  1 15  4  0
  1 22  4  0
  2 20  1  0
  2 24  1  0
  3  6  4  0
  3 27  4  0
  4 22  4  0
  4 26  4  0
  6  7  4  0
  6 13  1  0
  7 19  4  0
  8 18  1  0
  8 23  1  0
  8 28  2  0
  9 17  1  0
  9 24  1  0
 10 11  1  0
 10 24  1  0
 11 23  1  0
 12 14  4  0
 12 16  4  0
 14 19  4  0
 15 18  4  0
 16 20  4  0
 17 25  1  0
 18 26  4  0
 19 29  4  0
 20 29  4  0
 21 23  1  0
 21 25  1  0
 27 29  4  0
M  END
$$$$

 Created by Python create_sdf_string function

 29 32  0  0  0  0  0  0  0  0999 V2000
    5.4450    8.7154   22.6662 C   0  0  0  0  0  0  0  0  0  0  0  0
   10.9154    5.4574   20.5483 C   0  0  0  0  0  0  0  0  0  0  0  0
    7.2709    4.5089   22.7542 C   0  0  0  0  0  0  0  0  0  0  0  0
    5.9698    7.6329   24.6581 C   0  0  0  0  0  0  0  0  0  0  0  0
    4.5542    8.9057   21.7104 O   0  0  0  0  0  0  0  0  0  0  0  0
    6.9895    3.2085   23.0690 C   0  0  0  0  0  0  0  0  0  0  0  0
    7.8391    2.2253   22.7260 N   0  0  0  0  0  0  0  0  0  0  0  0
    8.6968    9.8373   23.6359 C   0  0  0  0  0  0  0  0  0  0  0  0
   12.5135    6.5957   21.8396 C   0  0  0  0  0  0  0  0  0  0  0  0
   10.9406    8.2330   21.1350 C   0  0  0  0  0  0  0  0  0  0  0  0
    9.6648    8.5956   21.7310 C   0  0  0  0  0  0  0  0  0  0  0  0
   10.8829    1.7153   20.9865 C   0  0  0  0  0  0  0  0  0  0  0  0
    5.7768    2.8533   23.7910 C   0  0  0  0  0  0  0  0  0  0  0  0
    9.7977    1.4791   21.6912 N   0  0  0  0  0  0  0  0  0  0  0  0
    6.5976    9.3401   22.6478 N   0  0  0  0  0  0  0  0  0  0  0  0
   11.2031    3.0042   20.6246 C   0  0  0  0  0  0  0  0  0  0  0  0
   12.8688    7.7370   22.7287 C   0  0  0  0  0  0  0  0  0  0  0  0
    7.4487    9.1361   23.6506 C   0  0  0  0  0  0  0  0  0  0  0  0
    8.9772    2.5025   22.0273 C   0  0  0  0  0  0  0  0  0  0  0  0
   10.4859    4.0901   20.9730 C   0  0  0  0  0  0  0  0  0  0  0  0
   11.0962    9.3293   23.5072 C   0  0  0  0  0  0  0  0  0  0  0  0
    5.1273    7.8529   23.6208 N   0  0  0  0  0  0  0  0  0  0  0  0
    9.7552    9.2338   23.0171 N   0  0  0  0  0  0  0  0  0  0  0  0
   11.1797    6.7591   21.3326 N   0  0  0  0  0  0  0  0  0  0  0  0
   11.7728    8.0337   23.7267 C   0  0  0  0  0  0  0  0  0  0  0  0
    7.1194    8.3344   24.6775 C   0  0  0  0  0  0  0  0  0  0  0  0
    8.4311    4.7963   22.0500 C   0  0  0  0  0  0  0  0  0  0  0  0
    8.7393   10.8706   24.1871 O   0  0  0  0  0  0  0  0  0  0  0  0
    9.3093    3.8166   21.6712 C   0  0  0  0  0  0  0  0  0  0  0  0
  1  5  1  0
  1 15  4  0
  1 22  4  0
  2 20  1  0
  2 24  1  0
  3  6  4  0
  3 27  4  0
  4 22  4  0
  4 26  4  0
  6  7  4  0
  6 13  1  0
  7 19  4  0
  8 18  1  0
  8 23  1  0
  8 28  2  0
  9 17  1  0
  9 24  1  0
 10 11  1  0
 10 24  1  0
 11 23  1  0
 12 14  4  0
 12 16  4  0
 14 19  4  0
 15 18  4  0
 16 20  4  0
 17 25  1  0
 18 26  4  0
 19 29  4  0
 20 29  4  0
 21 23  1  0
 21 25  1  0
 27 29  4  0
M  END
$$$$

 Created by Python create_sdf_string function

 29 32  0  0  0  0  0  0  0  0999 V2000
    5.4450    8.7154   22.6662 C   0  0  0  0  0  0  0  0  0  0  0  0
   10.9154    5.4574   20.5483 C   0  0  0  0  0  0  0  0  0  0  0  0
    7.2709    4.5089   22.7542 C   0  0  0  0  0  0  0  0  0  0  0  0
    5.9698    7.6329   24.6581 C   0  0  0  0  0  0  0  0  0  0  0  0
    4.5542    8.9057   21.7104 O   0  0  0  0  0  0  0  0  0  0  0  0
    6.9895    3.2085   23.0690 C   0  0  0  0  0  0  0  0  0  0  0  0
    7.8391    2.2253   22.7260 N   0  0  0  0  0  0  0  0  0  0  0  0
    8.6968    9.8373   23.6359 C   0  0  0  0  0  0  0  0  0  0  0  0
   12.5135    6.5957   21.8396 C   0  0  0  0  0  0  0  0  0  0  0  0
   10.9406    8.2330   21.1350 C   0  0  0  0  0  0  0  0  0  0  0  0
    9.6648    8.5956   21.7310 C   0  0  0  0  0  0  0  0  0  0  0  0
   10.8829    1.7153   20.9865 C   0  0  0  0  0  0  0  0  0  0  0  0
    5.7768    2.8533   23.7910 C   0  0  0  0  0  0  0  0  0  0  0  0
    9.7977    1.4791   21.6912 N   0  0  0  0  0  0  0  0  0  0  0  0
    6.5976    9.3401   22.6478 N   0  0  0  0  0  0  0  0  0  0  0  0
   11.2031    3.0042   20.6246 C   0  0  0  0  0  0  0  0  0  0  0  0
   12.8688    7.7370   22.7287 C   0  0  0  0  0  0  0  0  0  0  0  0
    7.4487    9.1361   23.6506 C   0  0  0  0  0  0  0  0  0  0  0  0
    8.9772    2.5025   22.0273 C   0  0  0  0  0  0  0  0  0  0  0  0
   10.4859    4.0901   20.9730 C   0  0  0  0  0  0  0  0  0  0  0  0
   11.0962    9.3293   23.5072 C   0  0  0  0  0  0  0  0  0  0  0  0
    5.1273    7.8529   23.6208 N   0  0  0  0  0  0  0  0  0  0  0  0
    9.7552    9.2338   23.0171 N   0  0  0  0  0  0  0  0  0  0  0  0
   11.1797    6.7591   21.3326 N   0  0  0  0  0  0  0  0  0  0  0  0
   11.7728    8.0337   23.7267 C   0  0  0  0  0  0  0  0  0  0  0  0
    7.1194    8.3344   24.6775 C   0  0  0  0  0  0  0  0  0  0  0  0
    8.4311    4.7963   22.0500 C   0  0  0  0  0  0  0  0  0  0  0  0
    8.7393   10.8706   24.1871 O   0  0  0  0  0  0  0  0  0  0  0  0
    9.3093    3.8166   21.6712 C   0  0  0  0  0  0  0  0  0  0  0  0
  1  5  1  0
  1 15  4  0
  1 22  4  0
  2 20  1  0
  2 24  1  0
  3  6  4  0
  3 27  4  0
  4 22  4  0
  4 26  4  0
  6  7  4  0
  6 13  1  0
  7 19  4  0
  8 18  1  0
  8 23  1  0
  8 28  2  0
  9 17  1  0
  9 24  1  0
 10 11  1  0
 10 24  1  0
 11 23  1  0
 12 14  4  0
 12 16  4  0
 14 19  4  0
 15 18  4  0
 16 20  4  0
 17 25  1  0
 18 26  4  0
 19 29  4  0
 20 29  4  0
 21 23  1  0
 21 25  1  0
 27 29  4  0
M  END
$$$$

 Created by Python create_sdf_string function

 29 32  0  0  0  0  0  0  0  0999 V2000
    5.4450    8.7154   22.6662 C   0  0  0  0  0  0  0  0  0  0  0  0
   10.9154    5.4574   20.5483 C   0  0  0  0  0  0  0  0  0  0  0  0
    7.2709    4.5089   22.7542 C   0  0  0  0  0  0  0  0  0  0  0  0
    5.9698    7.6329   24.6581 C   0  0  0  0  0  0  0  0  0  0  0  0
    4.5542    8.9057   21.7104 O   0  0  0  0  0  0  0  0  0  0  0  0
    6.9895    3.2085   23.0690 C   0  0  0  0  0  0  0  0  0  0  0  0
    7.8391    2.2253   22.7260 N   0  0  0  0  0  0  0  0  0  0  0  0
    8.6968    9.8373   23.6359 C   0  0  0  0  0  0  0  0  0  0  0  0
   12.5135    6.5957   21.8396 C   0  0  0  0  0  0  0  0  0  0  0  0
   10.9406    8.2330   21.1350 C   0  0  0  0  0  0  0  0  0  0  0  0
    9.6648    8.5956   21.7310 C   0  0  0  0  0  0  0  0  0  0  0  0
   10.8829    1.7153   20.9865 C   0  0  0  0  0  0  0  0  0  0  0  0
    5.7768    2.8533   23.7910 C   0  0  0  0  0  0  0  0  0  0  0  0
    9.7977    1.4791   21.6912 N   0  0  0  0  0  0  0  0  0  0  0  0
    6.5976    9.3401   22.6478 N   0  0  0  0  0  0  0  0  0  0  0  0
   11.2031    3.0042   20.6246 C   0  0  0  0  0  0  0  0  0  0  0  0
   12.8688    7.7370   22.7287 C   0  0  0  0  0  0  0  0  0  0  0  0
    7.4487    9.1361   23.6506 C   0  0  0  0  0  0  0  0  0  0  0  0
    8.9772    2.5025   22.0273 C   0  0  0  0  0  0  0  0  0  0  0  0
   10.4859    4.0901   20.9730 C   0  0  0  0  0  0  0  0  0  0  0  0
   11.0962    9.3293   23.5072 C   0  0  0  0  0  0  0  0  0  0  0  0
    5.1273    7.8529   23.6208 N   0  0  0  0  0  0  0  0  0  0  0  0
    9.7552    9.2338   23.0171 N   0  0  0  0  0  0  0  0  0  0  0  0
   11.1797    6.7591   21.3326 N   0  0  0  0  0  0  0  0  0  0  0  0
   11.7728    8.0337   23.7267 C   0  0  0  0  0  0  0  0  0  0  0  0
    7.1194    8.3344   24.6775 C   0  0  0  0  0  0  0  0  0  0  0  0
    8.4311    4.7963   22.0500 C   0  0  0  0  0  0  0  0  0  0  0  0
    8.7393   10.8706   24.1871 O   0  0  0  0  0  0  0  0  0  0  0  0
    9.3093    3.8166   21.6712 C   0  0  0  0  0  0  0  0  0  0  0  0
  1  5  1  0
  1 15  4  0
  1 22  4  0
  2 20  1  0
  2 24  1  0
  3  6  4  0
  3 27  4  0
  4 22  4  0
  4 26  4  0
  6  7  4  0
  6 13  1  0
  7 19  4  0
  8 18  1  0
  8 23  1  0
  8 28  2  0
  9 17  1  0
  9 24  1  0
 10 11  1  0
 10 24  1  0
 11 23  1  0
 12 14  4  0
 12 16  4  0
 14 19  4  0
 15 18  4  0
 16 20  4  0
 17 25  1  0
 18 26  4  0
 19 29  4  0
 20 29  4  0
 21 23  1  0
 21 25  1  0
 27 29  4  0
M  END
$$$$

 Created by Python create_sdf_string function

 29 32  0  0  0  0  0  0  0  0999 V2000
    5.4450    8.7154   22.6662 C   0  0  0  0  0  0  0  0  0  0  0  0
   10.9154    5.4574   20.5483 C   0  0  0  0  0  0  0  0  0  0  0  0
    7.2709    4.5089   22.7542 C   0  0  0  0  0  0  0  0  0  0  0  0
    5.9698    7.6329   24.6581 C   0  0  0  0  0  0  0  0  0  0  0  0
    4.5542    8.9057   21.7104 O   0  0  0  0  0  0  0  0  0  0  0  0
    6.9895    3.2085   23.0690 C   0  0  0  0  0  0  0  0  0  0  0  0
    7.8391    2.2253   22.7260 N   0  0  0  0  0  0  0  0  0  0  0  0
    8.6968    9.8373   23.6359 C   0  0  0  0  0  0  0  0  0  0  0  0
   12.5135    6.5957   21.8396 C   0  0  0  0  0  0  0  0  0  0  0  0
   10.9406    8.2330   21.1350 C   0  0  0  0  0  0  0  0  0  0  0  0
    9.6648    8.5956   21.7310 C   0  0  0  0  0  0  0  0  0  0  0  0
   10.8829    1.7153   20.9865 C   0  0  0  0  0  0  0  0  0  0  0  0
    5.7768    2.8533   23.7910 C   0  0  0  0  0  0  0  0  0  0  0  0
    9.7977    1.4791   21.6912 N   0  0  0  0  0  0  0  0  0  0  0  0
    6.5976    9.3401   22.6478 N   0  0  0  0  0  0  0  0  0  0  0  0
   11.2031    3.0042   20.6246 C   0  0  0  0  0  0  0  0  0  0  0  0
   12.8688    7.7370   22.7287 C   0  0  0  0  0  0  0  0  0  0  0  0
    7.4487    9.1361   23.6506 C   0  0  0  0  0  0  0  0  0  0  0  0
    8.9772    2.5025   22.0273 C   0  0  0  0  0  0  0  0  0  0  0  0
   10.4859    4.0901   20.9730 C   0  0  0  0  0  0  0  0  0  0  0  0
   11.0962    9.3293   23.5072 C   0  0  0  0  0  0  0  0  0  0  0  0
    5.1273    7.8529   23.6208 N   0  0  0  0  0  0  0  0  0  0  0  0
    9.7552    9.2338   23.0171 N   0  0  0  0  0  0  0  0  0  0  0  0
   11.1797    6.7591   21.3326 N   0  0  0  0  0  0  0  0  0  0  0  0
   11.7728    8.0337   23.7267 C   0  0  0  0  0  0  0  0  0  0  0  0
    7.1194    8.3344   24.6775 C   0  0  0  0  0  0  0  0  0  0  0  0
    8.4311    4.7963   22.0500 C   0  0  0  0  0  0  0  0  0  0  0  0
    8.7393   10.8706   24.1871 O   0  0  0  0  0  0  0  0  0  0  0  0
    9.3093    3.8166   21.6712 C   0  0  0  0  0  0  0  0  0  0  0  0
  1  5  1  0
  1 15  4  0
  1 22  4  0
  2 20  1  0
  2 24  1  0
  3  6  4  0
  3 27  4  0
  4 22  4  0
  4 26  4  0
  6  7  4  0
  6 13  1  0
  7 19  4  0
  8 18  1  0
  8 23  1  0
  8 28  2  0
  9 17  1  0
  9 24  1  0
 10 11  1  0
 10 24  1  0
 11 23  1  0
 12 14  4  0
 12 16  4  0
 14 19  4  0
 15 18  4  0
 16 20  4  0
 17 25  1  0
 18 26  4  0
 19 29  4  0
 20 29  4  0
 21 23  1  0
 21 25  1  0
 27 29  4  0
M  END
$$$$

 Created by Python create_sdf_string function

 29 32  0  0  0  0  0  0  0  0999 V2000
    5.4450    8.7154   22.6662 C   0  0  0  0  0  0  0  0  0  0  0  0
   10.9154    5.4574   20.5483 C   0  0  0  0  0  0  0  0  0  0  0  0
    7.2709    4.5089   22.7542 C   0  0  0  0  0  0  0  0  0  0  0  0
    5.9698    7.6329   24.6581 C   0  0  0  0  0  0  0  0  0  0  0  0
    4.5542    8.9057   21.7104 O   0  0  0  0  0  0  0  0  0  0  0  0
    6.9895    3.2085   23.0690 C   0  0  0  0  0  0  0  0  0  0  0  0
    7.8391    2.2253   22.7260 N   0  0  0  0  0  0  0  0  0  0  0  0
    8.6968    9.8373   23.6359 C   0  0  0  0  0  0  0  0  0  0  0  0
   12.5135    6.5957   21.8396 C   0  0  0  0  0  0  0  0  0  0  0  0
   10.9406    8.2330   21.1350 C   0  0  0  0  0  0  0  0  0  0  0  0
    9.6648    8.5956   21.7310 C   0  0  0  0  0  0  0  0  0  0  0  0
   10.8829    1.7153   20.9865 C   0  0  0  0  0  0  0  0  0  0  0  0
    5.7768    2.8533   23.7910 C   0  0  0  0  0  0  0  0  0  0  0  0
    9.7977    1.4791   21.6912 N   0  0  0  0  0  0  0  0  0  0  0  0
    6.5976    9.3401   22.6478 N   0  0  0  0  0  0  0  0  0  0  0  0
   11.2031    3.0042   20.6246 C   0  0  0  0  0  0  0  0  0  0  0  0
   12.8688    7.7370   22.7287 C   0  0  0  0  0  0  0  0  0  0  0  0
    7.4487    9.1361   23.6506 C   0  0  0  0  0  0  0  0  0  0  0  0
    8.9772    2.5025   22.0273 C   0  0  0  0  0  0  0  0  0  0  0  0
   10.4859    4.0901   20.9730 C   0  0  0  0  0  0  0  0  0  0  0  0
   11.0962    9.3293   23.5072 C   0  0  0  0  0  0  0  0  0  0  0  0
    5.1273    7.8529   23.6208 N   0  0  0  0  0  0  0  0  0  0  0  0
    9.7552    9.2338   23.0171 N   0  0  0  0  0  0  0  0  0  0  0  0
   11.1797    6.7591   21.3326 N   0  0  0  0  0  0  0  0  0  0  0  0
   11.7728    8.0337   23.7267 C   0  0  0  0  0  0  0  0  0  0  0  0
    7.1194    8.3344   24.6775 C   0  0  0  0  0  0  0  0  0  0  0  0
    8.4311    4.7963   22.0500 C   0  0  0  0  0  0  0  0  0  0  0  0
    8.7393   10.8706   24.1871 O   0  0  0  0  0  0  0  0  0  0  0  0
    9.3093    3.8166   21.6712 C   0  0  0  0  0  0  0  0  0  0  0  0
  1  5  1  0
  1 15  4  0
  1 22  4  0
  2 20  1  0
  2 24  1  0
  3  6  4  0
  3 27  4  0
  4 22  4  0
  4 26  4  0
  6  7  4  0
  6 13  1  0
  7 19  4  0
  8 18  1  0
  8 23  1  0
  8 28  2  0
  9 17  1  0
  9 24  1  0
 10 11  1  0
 10 24  1  0
 11 23  1  0
 12 14  4  0
 12 16  4  0
 14 19  4  0
 15 18  4  0
 16 20  4  0
 17 25  1  0
 18 26  4  0
 19 29  4  0
 20 29  4  0
 21 23  1  0
 21 25  1  0
 27 29  4  0
M  END
$$$$

 Created by Python create_sdf_string function

 29 32  0  0  0  0  0  0  0  0999 V2000
    5.4450    8.7154   22.6662 C   0  0  0  0  0  0  0  0  0  0  0  0
   10.9154    5.4574   20.5483 C   0  0  0  0  0  0  0  0  0  0  0  0
    7.2709    4.5089   22.7542 C   0  0  0  0  0  0  0  0  0  0  0  0
    5.9698    7.6329   24.6581 C   0  0  0  0  0  0  0  0  0  0  0  0
    4.5542    8.9057   21.7104 O   0  0  0  0  0  0  0  0  0  0  0  0
    6.9895    3.2085   23.0690 C   0  0  0  0  0  0  0  0  0  0  0  0
    7.8391    2.2253   22.7260 N   0  0  0  0  0  0  0  0  0  0  0  0
    8.6968    9.8373   23.6359 C   0  0  0  0  0  0  0  0  0  0  0  0
   12.5135    6.5957   21.8396 C   0  0  0  0  0  0  0  0  0  0  0  0
   10.9406    8.2330   21.1350 C   0  0  0  0  0  0  0  0  0  0  0  0
    9.6648    8.5956   21.7310 C   0  0  0  0  0  0  0  0  0  0  0  0
   10.8829    1.7153   20.9865 C   0  0  0  0  0  0  0  0  0  0  0  0
    5.7768    2.8533   23.7910 C   0  0  0  0  0  0  0  0  0  0  0  0
    9.7977    1.4791   21.6912 N   0  0  0  0  0  0  0  0  0  0  0  0
    6.5976    9.3401   22.6478 N   0  0  0  0  0  0  0  0  0  0  0  0
   11.2031    3.0042   20.6246 C   0  0  0  0  0  0  0  0  0  0  0  0
   12.8688    7.7370   22.7287 C   0  0  0  0  0  0  0  0  0  0  0  0
    7.4487    9.1361   23.6506 C   0  0  0  0  0  0  0  0  0  0  0  0
    8.9772    2.5025   22.0273 C   0  0  0  0  0  0  0  0  0  0  0  0
   10.4859    4.0901   20.9730 C   0  0  0  0  0  0  0  0  0  0  0  0
   11.0962    9.3293   23.5072 C   0  0  0  0  0  0  0  0  0  0  0  0
    5.1273    7.8529   23.6208 N   0  0  0  0  0  0  0  0  0  0  0  0
    9.7552    9.2338   23.0171 N   0  0  0  0  0  0  0  0  0  0  0  0
   11.1797    6.7591   21.3326 N   0  0  0  0  0  0  0  0  0  0  0  0
   11.7728    8.0337   23.7267 C   0  0  0  0  0  0  0  0  0  0  0  0
    7.1194    8.3344   24.6775 C   0  0  0  0  0  0  0  0  0  0  0  0
    8.4311    4.7963   22.0500 C   0  0  0  0  0  0  0  0  0  0  0  0
    8.7393   10.8706   24.1871 O   0  0  0  0  0  0  0  0  0  0  0  0
    9.3093    3.8166   21.6712 C   0  0  0  0  0  0  0  0  0  0  0  0
  1  5  1  0
  1 15  4  0
  1 22  4  0
  2 20  1  0
  2 24  1  0
  3  6  4  0
  3 27  4  0
  4 22  4  0
  4 26  4  0
  6  7  4  0
  6 13  1  0
  7 19  4  0
  8 18  1  0
  8 23  1  0
  8 28  2  0
  9 17  1  0
  9 24  1  0
 10 11  1  0
 10 24  1  0
 11 23  1  0
 12 14  4  0
 12 16  4  0
 14 19  4  0
 15 18  4  0
 16 20  4  0
 17 25  1  0
 18 26  4  0
 19 29  4  0
 20 29  4  0
 21 23  1  0
 21 25  1  0
 27 29  4  0
M  END
$$$$

 Created by Python create_sdf_string function

 29 32  0  0  0  0  0  0  0  0999 V2000
    5.4450    8.7154   22.6662 C   0  0  0  0  0  0  0  0  0  0  0  0
   10.9154    5.4574   20.5483 C   0  0  0  0  0  0  0  0  0  0  0  0
    7.2709    4.5089   22.7542 C   0  0  0  0  0  0  0  0  0  0  0  0
    5.9698    7.6329   24.6581 C   0  0  0  0  0  0  0  0  0  0  0  0
    4.5542    8.9057   21.7104 O   0  0  0  0  0  0  0  0  0  0  0  0
    6.9895    3.2085   23.0690 C   0  0  0  0  0  0  0  0  0  0  0  0
    7.8391    2.2253   22.7260 N   0  0  0  0  0  0  0  0  0  0  0  0
    8.6968    9.8373   23.6359 C   0  0  0  0  0  0  0  0  0  0  0  0
   12.5135    6.5957   21.8396 C   0  0  0  0  0  0  0  0  0  0  0  0
   10.9406    8.2330   21.1350 C   0  0  0  0  0  0  0  0  0  0  0  0
    9.6648    8.5956   21.7310 C   0  0  0  0  0  0  0  0  0  0  0  0
   10.8829    1.7153   20.9865 C   0  0  0  0  0  0  0  0  0  0  0  0
    5.7768    2.8533   23.7910 C   0  0  0  0  0  0  0  0  0  0  0  0
    9.7977    1.4791   21.6912 N   0  0  0  0  0  0  0  0  0  0  0  0
    6.5976    9.3401   22.6478 N   0  0  0  0  0  0  0  0  0  0  0  0
   11.2031    3.0042   20.6246 C   0  0  0  0  0  0  0  0  0  0  0  0
   12.8688    7.7370   22.7287 C   0  0  0  0  0  0  0  0  0  0  0  0
    7.4487    9.1361   23.6506 C   0  0  0  0  0  0  0  0  0  0  0  0
    8.9772    2.5025   22.0273 C   0  0  0  0  0  0  0  0  0  0  0  0
   10.4859    4.0901   20.9730 C   0  0  0  0  0  0  0  0  0  0  0  0
   11.0962    9.3293   23.5072 C   0  0  0  0  0  0  0  0  0  0  0  0
    5.1273    7.8529   23.6208 N   0  0  0  0  0  0  0  0  0  0  0  0
    9.7552    9.2338   23.0171 N   0  0  0  0  0  0  0  0  0  0  0  0
   11.1797    6.7591   21.3326 N   0  0  0  0  0  0  0  0  0  0  0  0
   11.7728    8.0337   23.7267 C   0  0  0  0  0  0  0  0  0  0  0  0
    7.1194    8.3344   24.6775 C   0  0  0  0  0  0  0  0  0  0  0  0
    8.4311    4.7963   22.0500 C   0  0  0  0  0  0  0  0  0  0  0  0
    8.7393   10.8706   24.1871 O   0  0  0  0  0  0  0  0  0  0  0  0
    9.3093    3.8166   21.6712 C   0  0  0  0  0  0  0  0  0  0  0  0
  1  5  1  0
  1 15  4  0
  1 22  4  0
  2 20  1  0
  2 24  1  0
  3  6  4  0
  3 27  4  0
  4 22  4  0
  4 26  4  0
  6  7  4  0
  6 13  1  0
  7 19  4  0
  8 18  1  0
  8 23  1  0
  8 28  2  0
  9 17  1  0
  9 24  1  0
 10 11  1  0
 10 24  1  0
 11 23  1  0
 12 14  4  0
 12 16  4  0
 14 19  4  0
 15 18  4  0
 16 20  4  0
 17 25  1  0
 18 26  4  0
 19 29  4  0
 20 29  4  0
 21 23  1  0
 21 25  1  0
 27 29  4  0
M  END
$$$$

 Created by Python create_sdf_string function

 29 32  0  0  0  0  0  0  0  0999 V2000
    5.4450    8.7154   22.6662 C   0  0  0  0  0  0  0  0  0  0  0  0
   10.9154    5.4574   20.5483 C   0  0  0  0  0  0  0  0  0  0  0  0
    7.2709    4.5089   22.7542 C   0  0  0  0  0  0  0  0  0  0  0  0
    5.9698    7.6329   24.6581 C   0  0  0  0  0  0  0  0  0  0  0  0
    4.5542    8.9057   21.7104 O   0  0  0  0  0  0  0  0  0  0  0  0
    6.9895    3.2085   23.0690 C   0  0  0  0  0  0  0  0  0  0  0  0
    7.8391    2.2253   22.7260 N   0  0  0  0  0  0  0  0  0  0  0  0
    8.6968    9.8373   23.6359 C   0  0  0  0  0  0  0  0  0  0  0  0
   12.5135    6.5957   21.8396 C   0  0  0  0  0  0  0  0  0  0  0  0
   10.9406    8.2330   21.1350 C   0  0  0  0  0  0  0  0  0  0  0  0
    9.6648    8.5956   21.7310 C   0  0  0  0  0  0  0  0  0  0  0  0
   10.8829    1.7153   20.9865 C   0  0  0  0  0  0  0  0  0  0  0  0
    5.7768    2.8533   23.7910 C   0  0  0  0  0  0  0  0  0  0  0  0
    9.7977    1.4791   21.6912 N   0  0  0  0  0  0  0  0  0  0  0  0
    6.5976    9.3401   22.6478 N   0  0  0  0  0  0  0  0  0  0  0  0
   11.2031    3.0042   20.6246 C   0  0  0  0  0  0  0  0  0  0  0  0
   12.8688    7.7370   22.7287 C   0  0  0  0  0  0  0  0  0  0  0  0
    7.4487    9.1361   23.6506 C   0  0  0  0  0  0  0  0  0  0  0  0
    8.9772    2.5025   22.0273 C   0  0  0  0  0  0  0  0  0  0  0  0
   10.4859    4.0901   20.9730 C   0  0  0  0  0  0  0  0  0  0  0  0
   11.0962    9.3293   23.5072 C   0  0  0  0  0  0  0  0  0  0  0  0
    5.1273    7.8529   23.6208 N   0  0  0  0  0  0  0  0  0  0  0  0
    9.7552    9.2338   23.0171 N   0  0  0  0  0  0  0  0  0  0  0  0
   11.1797    6.7591   21.3326 N   0  0  0  0  0  0  0  0  0  0  0  0
   11.7728    8.0337   23.7267 C   0  0  0  0  0  0  0  0  0  0  0  0
    7.1194    8.3344   24.6775 C   0  0  0  0  0  0  0  0  0  0  0  0
    8.4311    4.7963   22.0500 C   0  0  0  0  0  0  0  0  0  0  0  0
    8.7393   10.8706   24.1871 O   0  0  0  0  0  0  0  0  0  0  0  0
    9.3093    3.8166   21.6712 C   0  0  0  0  0  0  0  0  0  0  0  0
  1  5  1  0
  1 15  4  0
  1 22  4  0
  2 20  1  0
  2 24  1  0
  3  6  4  0
  3 27  4  0
  4 22  4  0
  4 26  4  0
  6  7  4  0
  6 13  1  0
  7 19  4  0
  8 18  1  0
  8 23  1  0
  8 28  2  0
  9 17  1  0
  9 24  1  0
 10 11  1  0
 10 24  1  0
 11 23  1  0
 12 14  4  0
 12 16  4  0
 14 19  4  0
 15 18  4  0
 16 20  4  0
 17 25  1  0
 18 26  4  0
 19 29  4  0
 20 29  4  0
 21 23  1  0
 21 25  1  0
 27 29  4  0
M  END
$$$$

 Created by Python create_sdf_string function

 29 32  0  0  0  0  0  0  0  0999 V2000
    5.4450    8.7154   22.6662 C   0  0  0  0  0  0  0  0  0  0  0  0
   10.9154    5.4574   20.5483 C   0  0  0  0  0  0  0  0  0  0  0  0
    7.2709    4.5089   22.7542 C   0  0  0  0  0  0  0  0  0  0  0  0
    5.9698    7.6329   24.6581 C   0  0  0  0  0  0  0  0  0  0  0  0
    4.5542    8.9057   21.7104 O   0  0  0  0  0  0  0  0  0  0  0  0
    6.9895    3.2085   23.0690 C   0  0  0  0  0  0  0  0  0  0  0  0
    7.8391    2.2253   22.7260 N   0  0  0  0  0  0  0  0  0  0  0  0
    8.6968    9.8373   23.6359 C   0  0  0  0  0  0  0  0  0  0  0  0
   12.5135    6.5957   21.8396 C   0  0  0  0  0  0  0  0  0  0  0  0
   10.9406    8.2330   21.1350 C   0  0  0  0  0  0  0  0  0  0  0  0
    9.6648    8.5956   21.7310 C   0  0  0  0  0  0  0  0  0  0  0  0
   10.8829    1.7153   20.9865 C   0  0  0  0  0  0  0  0  0  0  0  0
    5.7768    2.8533   23.7910 C   0  0  0  0  0  0  0  0  0  0  0  0
    9.7977    1.4791   21.6912 N   0  0  0  0  0  0  0  0  0  0  0  0
    6.5976    9.3401   22.6478 N   0  0  0  0  0  0  0  0  0  0  0  0
   11.2031    3.0042   20.6246 C   0  0  0  0  0  0  0  0  0  0  0  0
   12.8688    7.7370   22.7287 C   0  0  0  0  0  0  0  0  0  0  0  0
    7.4487    9.1361   23.6506 C   0  0  0  0  0  0  0  0  0  0  0  0
    8.9772    2.5025   22.0273 C   0  0  0  0  0  0  0  0  0  0  0  0
   10.4859    4.0901   20.9730 C   0  0  0  0  0  0  0  0  0  0  0  0
   11.0962    9.3293   23.5072 C   0  0  0  0  0  0  0  0  0  0  0  0
    5.1273    7.8529   23.6208 N   0  0  0  0  0  0  0  0  0  0  0  0
    9.7552    9.2338   23.0171 N   0  0  0  0  0  0  0  0  0  0  0  0
   11.1797    6.7591   21.3326 N   0  0  0  0  0  0  0  0  0  0  0  0
   11.7728    8.0337   23.7267 C   0  0  0  0  0  0  0  0  0  0  0  0
    7.1194    8.3344   24.6775 C   0  0  0  0  0  0  0  0  0  0  0  0
    8.4311    4.7963   22.0500 C   0  0  0  0  0  0  0  0  0  0  0  0
    8.7393   10.8706   24.1871 O   0  0  0  0  0  0  0  0  0  0  0  0
    9.3093    3.8166   21.6712 C   0  0  0  0  0  0  0  0  0  0  0  0
  1  5  1  0
  1 15  4  0
  1 22  4  0
  2 20  1  0
  2 24  1  0
  3  6  4  0
  3 27  4  0
  4 22  4  0
  4 26  4  0
  6  7  4  0
  6 13  1  0
  7 19  4  0
  8 18  1  0
  8 23  1  0
  8 28  2  0
  9 17  1  0
  9 24  1  0
 10 11  1  0
 10 24  1  0
 11 23  1  0
 12 14  4  0
 12 16  4  0
 14 19  4  0
 15 18  4  0
 16 20  4  0
 17 25  1  0
 18 26  4  0
 19 29  4  0
 20 29  4  0
 21 23  1  0
 21 25  1  0
 27 29  4  0
M  END
$$$$

 Created by Python create_sdf_string function

 29 32  0  0  0  0  0  0  0  0999 V2000
    5.4450    8.7154   22.6662 C   0  0  0  0  0  0  0  0  0  0  0  0
   10.9154    5.4574   20.5483 C   0  0  0  0  0  0  0  0  0  0  0  0
    7.2709    4.5089   22.7542 C   0  0  0  0  0  0  0  0  0  0  0  0
    5.9698    7.6329   24.6581 C   0  0  0  0  0  0  0  0  0  0  0  0
    4.5542    8.9057   21.7104 O   0  0  0  0  0  0  0  0  0  0  0  0
    6.9895    3.2085   23.0690 C   0  0  0  0  0  0  0  0  0  0  0  0
    7.8391    2.2253   22.7260 N   0  0  0  0  0  0  0  0  0  0  0  0
    8.6968    9.8373   23.6359 C   0  0  0  0  0  0  0  0  0  0  0  0
   12.5135    6.5957   21.8396 C   0  0  0  0  0  0  0  0  0  0  0  0
   10.9406    8.2330   21.1350 C   0  0  0  0  0  0  0  0  0  0  0  0
    9.6648    8.5956   21.7310 C   0  0  0  0  0  0  0  0  0  0  0  0
   10.8829    1.7153   20.9865 C   0  0  0  0  0  0  0  0  0  0  0  0
    5.7768    2.8533   23.7910 C   0  0  0  0  0  0  0  0  0  0  0  0
    9.7977    1.4791   21.6912 N   0  0  0  0  0  0  0  0  0  0  0  0
    6.5976    9.3401   22.6478 N   0  0  0  0  0  0  0  0  0  0  0  0
   11.2031    3.0042   20.6246 C   0  0  0  0  0  0  0  0  0  0  0  0
   12.8688    7.7370   22.7287 C   0  0  0  0  0  0  0  0  0  0  0  0
    7.4487    9.1361   23.6506 C   0  0  0  0  0  0  0  0  0  0  0  0
    8.9772    2.5025   22.0273 C   0  0  0  0  0  0  0  0  0  0  0  0
   10.4859    4.0901   20.9730 C   0  0  0  0  0  0  0  0  0  0  0  0
   11.0962    9.3293   23.5072 C   0  0  0  0  0  0  0  0  0  0  0  0
    5.1273    7.8529   23.6208 N   0  0  0  0  0  0  0  0  0  0  0  0
    9.7552    9.2338   23.0171 N   0  0  0  0  0  0  0  0  0  0  0  0
   11.1797    6.7591   21.3326 N   0  0  0  0  0  0  0  0  0  0  0  0
   11.7728    8.0337   23.7267 C   0  0  0  0  0  0  0  0  0  0  0  0
    7.1194    8.3344   24.6775 C   0  0  0  0  0  0  0  0  0  0  0  0
    8.4311    4.7963   22.0500 C   0  0  0  0  0  0  0  0  0  0  0  0
    8.7393   10.8706   24.1871 O   0  0  0  0  0  0  0  0  0  0  0  0
    9.3093    3.8166   21.6712 C   0  0  0  0  0  0  0  0  0  0  0  0
  1  5  1  0
  1 15  4  0
  1 22  4  0
  2 20  1  0
  2 24  1  0
  3  6  4  0
  3 27  4  0
  4 22  4  0
  4 26  4  0
  6  7  4  0
  6 13  1  0
  7 19  4  0
  8 18  1  0
  8 23  1  0
  8 28  2  0
  9 17  1  0
  9 24  1  0
 10 11  1  0
 10 24  1  0
 11 23  1  0
 12 14  4  0
 12 16  4  0
 14 19  4  0
 15 18  4  0
 16 20  4  0
 17 25  1  0
 18 26  4  0
 19 29  4  0
 20 29  4  0
 21 23  1  0
 21 25  1  0
 27 29  4  0
M  END
$$$$

 Created by Python create_sdf_string function

 29 32  0  0  0  0  0  0  0  0999 V2000
    5.4450    8.7154   22.6662 C   0  0  0  0  0  0  0  0  0  0  0  0
   10.9154    5.4574   20.5483 C   0  0  0  0  0  0  0  0  0  0  0  0
    7.2709    4.5089   22.7542 C   0  0  0  0  0  0  0  0  0  0  0  0
    5.9698    7.6329   24.6581 C   0  0  0  0  0  0  0  0  0  0  0  0
    4.5542    8.9057   21.7104 O   0  0  0  0  0  0  0  0  0  0  0  0
    6.9895    3.2085   23.0690 C   0  0  0  0  0  0  0  0  0  0  0  0
    7.8391    2.2253   22.7260 N   0  0  0  0  0  0  0  0  0  0  0  0
    8.6968    9.8373   23.6359 C   0  0  0  0  0  0  0  0  0  0  0  0
   12.5135    6.5957   21.8396 C   0  0  0  0  0  0  0  0  0  0  0  0
   10.9406    8.2330   21.1350 C   0  0  0  0  0  0  0  0  0  0  0  0
    9.6648    8.5956   21.7310 C   0  0  0  0  0  0  0  0  0  0  0  0
   10.8829    1.7153   20.9865 C   0  0  0  0  0  0  0  0  0  0  0  0
    5.7768    2.8533   23.7910 C   0  0  0  0  0  0  0  0  0  0  0  0
    9.7977    1.4791   21.6912 N   0  0  0  0  0  0  0  0  0  0  0  0
    6.5976    9.3401   22.6478 N   0  0  0  0  0  0  0  0  0  0  0  0
   11.2031    3.0042   20.6246 C   0  0  0  0  0  0  0  0  0  0  0  0
   12.8688    7.7370   22.7287 C   0  0  0  0  0  0  0  0  0  0  0  0
    7.4487    9.1361   23.6506 C   0  0  0  0  0  0  0  0  0  0  0  0
    8.9772    2.5025   22.0273 C   0  0  0  0  0  0  0  0  0  0  0  0
   10.4859    4.0901   20.9730 C   0  0  0  0  0  0  0  0  0  0  0  0
   11.0962    9.3293   23.5072 C   0  0  0  0  0  0  0  0  0  0  0  0
    5.1273    7.8529   23.6208 N   0  0  0  0  0  0  0  0  0  0  0  0
    9.7552    9.2338   23.0171 N   0  0  0  0  0  0  0  0  0  0  0  0
   11.1797    6.7591   21.3326 N   0  0  0  0  0  0  0  0  0  0  0  0
   11.7728    8.0337   23.7267 C   0  0  0  0  0  0  0  0  0  0  0  0
    7.1194    8.3344   24.6775 C   0  0  0  0  0  0  0  0  0  0  0  0
    8.4311    4.7963   22.0500 C   0  0  0  0  0  0  0  0  0  0  0  0
    8.7393   10.8706   24.1871 O   0  0  0  0  0  0  0  0  0  0  0  0
    9.3093    3.8166   21.6712 C   0  0  0  0  0  0  0  0  0  0  0  0
  1  5  1  0
  1 15  4  0
  1 22  4  0
  2 20  1  0
  2 24  1  0
  3  6  4  0
  3 27  4  0
  4 22  4  0
  4 26  4  0
  6  7  4  0
  6 13  1  0
  7 19  4  0
  8 18  1  0
  8 23  1  0
  8 28  2  0
  9 17  1  0
  9 24  1  0
 10 11  1  0
 10 24  1  0
 11 23  1  0
 12 14  4  0
 12 16  4  0
 14 19  4  0
 15 18  4  0
 16 20  4  0
 17 25  1  0
 18 26  4  0
 19 29  4  0
 20 29  4  0
 21 23  1  0
 21 25  1  0
 27 29  4  0
M  END
$$$$

 Created by Python create_sdf_string function

 29 32  0  0  0  0  0  0  0  0999 V2000
    5.4450    8.7154   22.6662 C   0  0  0  0  0  0  0  0  0  0  0  0
   10.9154    5.4574   20.5483 C   0  0  0  0  0  0  0  0  0  0  0  0
    7.2709    4.5089   22.7542 C   0  0  0  0  0  0  0  0  0  0  0  0
    5.9698    7.6329   24.6581 C   0  0  0  0  0  0  0  0  0  0  0  0
    4.5542    8.9057   21.7104 O   0  0  0  0  0  0  0  0  0  0  0  0
    6.9895    3.2085   23.0690 C   0  0  0  0  0  0  0  0  0  0  0  0
    7.8391    2.2253   22.7260 N   0  0  0  0  0  0  0  0  0  0  0  0
    8.6968    9.8373   23.6359 C   0  0  0  0  0  0  0  0  0  0  0  0
   12.5135    6.5957   21.8396 C   0  0  0  0  0  0  0  0  0  0  0  0
   10.9406    8.2330   21.1350 C   0  0  0  0  0  0  0  0  0  0  0  0
    9.6648    8.5956   21.7310 C   0  0  0  0  0  0  0  0  0  0  0  0
   10.8829    1.7153   20.9865 C   0  0  0  0  0  0  0  0  0  0  0  0
    5.7768    2.8533   23.7910 C   0  0  0  0  0  0  0  0  0  0  0  0
    9.7977    1.4791   21.6912 N   0  0  0  0  0  0  0  0  0  0  0  0
    6.5976    9.3401   22.6478 N   0  0  0  0  0  0  0  0  0  0  0  0
   11.2031    3.0042   20.6246 C   0  0  0  0  0  0  0  0  0  0  0  0
   12.8688    7.7370   22.7287 C   0  0  0  0  0  0  0  0  0  0  0  0
    7.4487    9.1361   23.6506 C   0  0  0  0  0  0  0  0  0  0  0  0
    8.9772    2.5025   22.0273 C   0  0  0  0  0  0  0  0  0  0  0  0
   10.4859    4.0901   20.9730 C   0  0  0  0  0  0  0  0  0  0  0  0
   11.0962    9.3293   23.5072 C   0  0  0  0  0  0  0  0  0  0  0  0
    5.1273    7.8529   23.6208 N   0  0  0  0  0  0  0  0  0  0  0  0
    9.7552    9.2338   23.0171 N   0  0  0  0  0  0  0  0  0  0  0  0
   11.1797    6.7591   21.3326 N   0  0  0  0  0  0  0  0  0  0  0  0
   11.7728    8.0337   23.7267 C   0  0  0  0  0  0  0  0  0  0  0  0
    7.1194    8.3344   24.6775 C   0  0  0  0  0  0  0  0  0  0  0  0
    8.4311    4.7963   22.0500 C   0  0  0  0  0  0  0  0  0  0  0  0
    8.7393   10.8706   24.1871 O   0  0  0  0  0  0  0  0  0  0  0  0
    9.3093    3.8166   21.6712 C   0  0  0  0  0  0  0  0  0  0  0  0
  1  5  1  0
  1 15  4  0
  1 22  4  0
  2 20  1  0
  2 24  1  0
  3  6  4  0
  3 27  4  0
  4 22  4  0
  4 26  4  0
  6  7  4  0
  6 13  1  0
  7 19  4  0
  8 18  1  0
  8 23  1  0
  8 28  2  0
  9 17  1  0
  9 24  1  0
 10 11  1  0
 10 24  1  0
 11 23  1  0
 12 14  4  0
 12 16  4  0
 14 19  4  0
 15 18  4  0
 16 20  4  0
 17 25  1  0
 18 26  4  0
 19 29  4  0
 20 29  4  0
 21 23  1  0
 21 25  1  0
 27 29  4  0
M  END
$$$$

 Created by Python create_sdf_string function

 29 32  0  0  0  0  0  0  0  0999 V2000
    5.4450    8.7154   22.6662 C   0  0  0  0  0  0  0  0  0  0  0  0
   10.9154    5.4574   20.5483 C   0  0  0  0  0  0  0  0  0  0  0  0
    7.2709    4.5089   22.7542 C   0  0  0  0  0  0  0  0  0  0  0  0
    5.9698    7.6329   24.6581 C   0  0  0  0  0  0  0  0  0  0  0  0
    4.5542    8.9057   21.7104 O   0  0  0  0  0  0  0  0  0  0  0  0
    6.9895    3.2085   23.0690 C   0  0  0  0  0  0  0  0  0  0  0  0
    7.8391    2.2253   22.7260 N   0  0  0  0  0  0  0  0  0  0  0  0
    8.6968    9.8373   23.6359 C   0  0  0  0  0  0  0  0  0  0  0  0
   12.5135    6.5957   21.8396 C   0  0  0  0  0  0  0  0  0  0  0  0
   10.9406    8.2330   21.1350 C   0  0  0  0  0  0  0  0  0  0  0  0
    9.6648    8.5956   21.7310 C   0  0  0  0  0  0  0  0  0  0  0  0
   10.8829    1.7153   20.9865 C   0  0  0  0  0  0  0  0  0  0  0  0
    5.7768    2.8533   23.7910 C   0  0  0  0  0  0  0  0  0  0  0  0
    9.7977    1.4791   21.6912 N   0  0  0  0  0  0  0  0  0  0  0  0
    6.5976    9.3401   22.6478 N   0  0  0  0  0  0  0  0  0  0  0  0
   11.2031    3.0042   20.6246 C   0  0  0  0  0  0  0  0  0  0  0  0
   12.8688    7.7370   22.7287 C   0  0  0  0  0  0  0  0  0  0  0  0
    7.4487    9.1361   23.6506 C   0  0  0  0  0  0  0  0  0  0  0  0
    8.9772    2.5025   22.0273 C   0  0  0  0  0  0  0  0  0  0  0  0
   10.4859    4.0901   20.9730 C   0  0  0  0  0  0  0  0  0  0  0  0
   11.0962    9.3293   23.5072 C   0  0  0  0  0  0  0  0  0  0  0  0
    5.1273    7.8529   23.6208 N   0  0  0  0  0  0  0  0  0  0  0  0
    9.7552    9.2338   23.0171 N   0  0  0  0  0  0  0  0  0  0  0  0
   11.1797    6.7591   21.3326 N   0  0  0  0  0  0  0  0  0  0  0  0
   11.7728    8.0337   23.7267 C   0  0  0  0  0  0  0  0  0  0  0  0
    7.1194    8.3344   24.6775 C   0  0  0  0  0  0  0  0  0  0  0  0
    8.4311    4.7963   22.0500 C   0  0  0  0  0  0  0  0  0  0  0  0
    8.7393   10.8706   24.1871 O   0  0  0  0  0  0  0  0  0  0  0  0
    9.3093    3.8166   21.6712 C   0  0  0  0  0  0  0  0  0  0  0  0
  1  5  1  0
  1 15  4  0
  1 22  4  0
  2 20  1  0
  2 24  1  0
  3  6  4  0
  3 27  4  0
  4 22  4  0
  4 26  4  0
  6  7  4  0
  6 13  1  0
  7 19  4  0
  8 18  1  0
  8 23  1  0
  8 28  2  0
  9 17  1  0
  9 24  1  0
 10 11  1  0
 10 24  1  0
 11 23  1  0
 12 14  4  0
 12 16  4  0
 14 19  4  0
 15 18  4  0
 16 20  4  0
 17 25  1  0
 18 26  4  0
 19 29  4  0
 20 29  4  0
 21 23  1  0
 21 25  1  0
 27 29  4  0
M  END
$$$$

 Created by Python create_sdf_string function

 29 32  0  0  0  0  0  0  0  0999 V2000
    5.4450    8.7154   22.6662 C   0  0  0  0  0  0  0  0  0  0  0  0
   10.9154    5.4574   20.5483 C   0  0  0  0  0  0  0  0  0  0  0  0
    7.2709    4.5089   22.7542 C   0  0  0  0  0  0  0  0  0  0  0  0
    5.9698    7.6329   24.6581 C   0  0  0  0  0  0  0  0  0  0  0  0
    4.5542    8.9057   21.7104 O   0  0  0  0  0  0  0  0  0  0  0  0
    6.9895    3.2085   23.0690 C   0  0  0  0  0  0  0  0  0  0  0  0
    7.8391    2.2253   22.7260 N   0  0  0  0  0  0  0  0  0  0  0  0
    8.6968    9.8373   23.6359 C   0  0  0  0  0  0  0  0  0  0  0  0
   12.5135    6.5957   21.8396 C   0  0  0  0  0  0  0  0  0  0  0  0
   10.9406    8.2330   21.1350 C   0  0  0  0  0  0  0  0  0  0  0  0
    9.6648    8.5956   21.7310 C   0  0  0  0  0  0  0  0  0  0  0  0
   10.8829    1.7153   20.9865 C   0  0  0  0  0  0  0  0  0  0  0  0
    5.7768    2.8533   23.7910 C   0  0  0  0  0  0  0  0  0  0  0  0
    9.7977    1.4791   21.6912 N   0  0  0  0  0  0  0  0  0  0  0  0
    6.5976    9.3401   22.6478 N   0  0  0  0  0  0  0  0  0  0  0  0
   11.2031    3.0042   20.6246 C   0  0  0  0  0  0  0  0  0  0  0  0
   12.8688    7.7370   22.7287 C   0  0  0  0  0  0  0  0  0  0  0  0
    7.4487    9.1361   23.6506 C   0  0  0  0  0  0  0  0  0  0  0  0
    8.9772    2.5025   22.0273 C   0  0  0  0  0  0  0  0  0  0  0  0
   10.4859    4.0901   20.9730 C   0  0  0  0  0  0  0  0  0  0  0  0
   11.0962    9.3293   23.5072 C   0  0  0  0  0  0  0  0  0  0  0  0
    5.1273    7.8529   23.6208 N   0  0  0  0  0  0  0  0  0  0  0  0
    9.7552    9.2338   23.0171 N   0  0  0  0  0  0  0  0  0  0  0  0
   11.1797    6.7591   21.3326 N   0  0  0  0  0  0  0  0  0  0  0  0
   11.7728    8.0337   23.7267 C   0  0  0  0  0  0  0  0  0  0  0  0
    7.1194    8.3344   24.6775 C   0  0  0  0  0  0  0  0  0  0  0  0
    8.4311    4.7963   22.0500 C   0  0  0  0  0  0  0  0  0  0  0  0
    8.7393   10.8706   24.1871 O   0  0  0  0  0  0  0  0  0  0  0  0
    9.3093    3.8166   21.6712 C   0  0  0  0  0  0  0  0  0  0  0  0
  1  5  1  0
  1 15  4  0
  1 22  4  0
  2 20  1  0
  2 24  1  0
  3  6  4  0
  3 27  4  0
  4 22  4  0
  4 26  4  0
  6  7  4  0
  6 13  1  0
  7 19  4  0
  8 18  1  0
  8 23  1  0
  8 28  2  0
  9 17  1  0
  9 24  1  0
 10 11  1  0
 10 24  1  0
 11 23  1  0
 12 14  4  0
 12 16  4  0
 14 19  4  0
 15 18  4  0
 16 20  4  0
 17 25  1  0
 18 26  4  0
 19 29  4  0
 20 29  4  0
 21 23  1  0
 21 25  1  0
 27 29  4  0
M  END
$$$$

 Created by Python create_sdf_string function

 29 32  0  0  0  0  0  0  0  0999 V2000
    5.4450    8.7154   22.6662 C   0  0  0  0  0  0  0  0  0  0  0  0
   10.9154    5.4574   20.5483 C   0  0  0  0  0  0  0  0  0  0  0  0
    7.2709    4.5089   22.7542 C   0  0  0  0  0  0  0  0  0  0  0  0
    5.9698    7.6329   24.6581 C   0  0  0  0  0  0  0  0  0  0  0  0
    4.5542    8.9057   21.7104 O   0  0  0  0  0  0  0  0  0  0  0  0
    6.9895    3.2085   23.0690 C   0  0  0  0  0  0  0  0  0  0  0  0
    7.8391    2.2253   22.7260 N   0  0  0  0  0  0  0  0  0  0  0  0
    8.6968    9.8373   23.6359 C   0  0  0  0  0  0  0  0  0  0  0  0
   12.5135    6.5957   21.8396 C   0  0  0  0  0  0  0  0  0  0  0  0
   10.9406    8.2330   21.1350 C   0  0  0  0  0  0  0  0  0  0  0  0
    9.6648    8.5956   21.7310 C   0  0  0  0  0  0  0  0  0  0  0  0
   10.8829    1.7153   20.9865 C   0  0  0  0  0  0  0  0  0  0  0  0
    5.7768    2.8533   23.7910 C   0  0  0  0  0  0  0  0  0  0  0  0
    9.7977    1.4791   21.6912 N   0  0  0  0  0  0  0  0  0  0  0  0
    6.5976    9.3401   22.6478 N   0  0  0  0  0  0  0  0  0  0  0  0
   11.2031    3.0042   20.6246 C   0  0  0  0  0  0  0  0  0  0  0  0
   12.8688    7.7370   22.7287 C   0  0  0  0  0  0  0  0  0  0  0  0
    7.4487    9.1361   23.6506 C   0  0  0  0  0  0  0  0  0  0  0  0
    8.9772    2.5025   22.0273 C   0  0  0  0  0  0  0  0  0  0  0  0
   10.4859    4.0901   20.9730 C   0  0  0  0  0  0  0  0  0  0  0  0
   11.0962    9.3293   23.5072 C   0  0  0  0  0  0  0  0  0  0  0  0
    5.1273    7.8529   23.6208 N   0  0  0  0  0  0  0  0  0  0  0  0
    9.7552    9.2338   23.0171 N   0  0  0  0  0  0  0  0  0  0  0  0
   11.1797    6.7591   21.3326 N   0  0  0  0  0  0  0  0  0  0  0  0
   11.7728    8.0337   23.7267 C   0  0  0  0  0  0  0  0  0  0  0  0
    7.1194    8.3344   24.6775 C   0  0  0  0  0  0  0  0  0  0  0  0
    8.4311    4.7963   22.0500 C   0  0  0  0  0  0  0  0  0  0  0  0
    8.7393   10.8706   24.1871 O   0  0  0  0  0  0  0  0  0  0  0  0
    9.3093    3.8166   21.6712 C   0  0  0  0  0  0  0  0  0  0  0  0
  1  5  1  0
  1 15  4  0
  1 22  4  0
  2 20  1  0
  2 24  1  0
  3  6  4  0
  3 27  4  0
  4 22  4  0
  4 26  4  0
  6  7  4  0
  6 13  1  0
  7 19  4  0
  8 18  1  0
  8 23  1  0
  8 28  2  0
  9 17  1  0
  9 24  1  0
 10 11  1  0
 10 24  1  0
 11 23  1  0
 12 14  4  0
 12 16  4  0
 14 19  4  0
 15 18  4  0
 16 20  4  0
 17 25  1  0
 18 26  4  0
 19 29  4  0
 20 29  4  0
 21 23  1  0
 21 25  1  0
 27 29  4  0
M  END
$$$$

 Created by Python create_sdf_string function

 29 32  0  0  0  0  0  0  0  0999 V2000
    5.4450    8.7154   22.6662 C   0  0  0  0  0  0  0  0  0  0  0  0
   10.9154    5.4574   20.5483 C   0  0  0  0  0  0  0  0  0  0  0  0
    7.2709    4.5089   22.7542 C   0  0  0  0  0  0  0  0  0  0  0  0
    5.9698    7.6329   24.6581 C   0  0  0  0  0  0  0  0  0  0  0  0
    4.5542    8.9057   21.7104 O   0  0  0  0  0  0  0  0  0  0  0  0
    6.9895    3.2085   23.0690 C   0  0  0  0  0  0  0  0  0  0  0  0
    7.8391    2.2253   22.7260 N   0  0  0  0  0  0  0  0  0  0  0  0
    8.6968    9.8373   23.6359 C   0  0  0  0  0  0  0  0  0  0  0  0
   12.5135    6.5957   21.8396 C   0  0  0  0  0  0  0  0  0  0  0  0
   10.9406    8.2330   21.1350 C   0  0  0  0  0  0  0  0  0  0  0  0
    9.6648    8.5956   21.7310 C   0  0  0  0  0  0  0  0  0  0  0  0
   10.8829    1.7153   20.9865 C   0  0  0  0  0  0  0  0  0  0  0  0
    5.7768    2.8533   23.7910 C   0  0  0  0  0  0  0  0  0  0  0  0
    9.7977    1.4791   21.6912 N   0  0  0  0  0  0  0  0  0  0  0  0
    6.5976    9.3401   22.6478 N   0  0  0  0  0  0  0  0  0  0  0  0
   11.2031    3.0042   20.6246 C   0  0  0  0  0  0  0  0  0  0  0  0
   12.8688    7.7370   22.7287 C   0  0  0  0  0  0  0  0  0  0  0  0
    7.4487    9.1361   23.6506 C   0  0  0  0  0  0  0  0  0  0  0  0
    8.9772    2.5025   22.0273 C   0  0  0  0  0  0  0  0  0  0  0  0
   10.4859    4.0901   20.9730 C   0  0  0  0  0  0  0  0  0  0  0  0
   11.0962    9.3293   23.5072 C   0  0  0  0  0  0  0  0  0  0  0  0
    5.1273    7.8529   23.6208 N   0  0  0  0  0  0  0  0  0  0  0  0
    9.7552    9.2338   23.0171 N   0  0  0  0  0  0  0  0  0  0  0  0
   11.1797    6.7591   21.3326 N   0  0  0  0  0  0  0  0  0  0  0  0
   11.7728    8.0337   23.7267 C   0  0  0  0  0  0  0  0  0  0  0  0
    7.1194    8.3344   24.6775 C   0  0  0  0  0  0  0  0  0  0  0  0
    8.4311    4.7963   22.0500 C   0  0  0  0  0  0  0  0  0  0  0  0
    8.7393   10.8706   24.1871 O   0  0  0  0  0  0  0  0  0  0  0  0
    9.3093    3.8166   21.6712 C   0  0  0  0  0  0  0  0  0  0  0  0
  1  5  1  0
  1 15  4  0
  1 22  4  0
  2 20  1  0
  2 24  1  0
  3  6  4  0
  3 27  4  0
  4 22  4  0
  4 26  4  0
  6  7  4  0
  6 13  1  0
  7 19  4  0
  8 18  1  0
  8 23  1  0
  8 28  2  0
  9 17  1  0
  9 24  1  0
 10 11  1  0
 10 24  1  0
 11 23  1  0
 12 14  4  0
 12 16  4  0
 14 19  4  0
 15 18  4  0
 16 20  4  0
 17 25  1  0
 18 26  4  0
 19 29  4  0
 20 29  4  0
 21 23  1  0
 21 25  1  0
 27 29  4  0
M  END
$$$$

 Created by Python create_sdf_string function

 29 32  0  0  0  0  0  0  0  0999 V2000
    5.4450    8.7154   22.6662 C   0  0  0  0  0  0  0  0  0  0  0  0
   10.9154    5.4574   20.5483 C   0  0  0  0  0  0  0  0  0  0  0  0
    7.2709    4.5089   22.7542 C   0  0  0  0  0  0  0  0  0  0  0  0
    5.9698    7.6329   24.6581 C   0  0  0  0  0  0  0  0  0  0  0  0
    4.5542    8.9057   21.7104 O   0  0  0  0  0  0  0  0  0  0  0  0
    6.9895    3.2085   23.0690 C   0  0  0  0  0  0  0  0  0  0  0  0
    7.8391    2.2253   22.7260 N   0  0  0  0  0  0  0  0  0  0  0  0
    8.6968    9.8373   23.6359 C   0  0  0  0  0  0  0  0  0  0  0  0
   12.5135    6.5957   21.8396 C   0  0  0  0  0  0  0  0  0  0  0  0
   10.9406    8.2330   21.1350 C   0  0  0  0  0  0  0  0  0  0  0  0
    9.6648    8.5956   21.7310 C   0  0  0  0  0  0  0  0  0  0  0  0
   10.8829    1.7153   20.9865 C   0  0  0  0  0  0  0  0  0  0  0  0
    5.7768    2.8533   23.7910 C   0  0  0  0  0  0  0  0  0  0  0  0
    9.7977    1.4791   21.6912 N   0  0  0  0  0  0  0  0  0  0  0  0
    6.5976    9.3401   22.6478 N   0  0  0  0  0  0  0  0  0  0  0  0
   11.2031    3.0042   20.6246 C   0  0  0  0  0  0  0  0  0  0  0  0
   12.8688    7.7370   22.7287 C   0  0  0  0  0  0  0  0  0  0  0  0
    7.4487    9.1361   23.6506 C   0  0  0  0  0  0  0  0  0  0  0  0
    8.9772    2.5025   22.0273 C   0  0  0  0  0  0  0  0  0  0  0  0
   10.4859    4.0901   20.9730 C   0  0  0  0  0  0  0  0  0  0  0  0
   11.0962    9.3293   23.5072 C   0  0  0  0  0  0  0  0  0  0  0  0
    5.1273    7.8529   23.6208 N   0  0  0  0  0  0  0  0  0  0  0  0
    9.7552    9.2338   23.0171 N   0  0  0  0  0  0  0  0  0  0  0  0
   11.1797    6.7591   21.3326 N   0  0  0  0  0  0  0  0  0  0  0  0
   11.7728    8.0337   23.7267 C   0  0  0  0  0  0  0  0  0  0  0  0
    7.1194    8.3344   24.6775 C   0  0  0  0  0  0  0  0  0  0  0  0
    8.4311    4.7963   22.0500 C   0  0  0  0  0  0  0  0  0  0  0  0
    8.7393   10.8706   24.1871 O   0  0  0  0  0  0  0  0  0  0  0  0
    9.3093    3.8166   21.6712 C   0  0  0  0  0  0  0  0  0  0  0  0
  1  5  1  0
  1 15  4  0
  1 22  4  0
  2 20  1  0
  2 24  1  0
  3  6  4  0
  3 27  4  0
  4 22  4  0
  4 26  4  0
  6  7  4  0
  6 13  1  0
  7 19  4  0
  8 18  1  0
  8 23  1  0
  8 28  2  0
  9 17  1  0
  9 24  1  0
 10 11  1  0
 10 24  1  0
 11 23  1  0
 12 14  4  0
 12 16  4  0
 14 19  4  0
 15 18  4  0
 16 20  4  0
 17 25  1  0
 18 26  4  0
 19 29  4  0
 20 29  4  0
 21 23  1  0
 21 25  1  0
 27 29  4  0
M  END
$$$$

 Created by Python create_sdf_string function

 29 32  0  0  0  0  0  0  0  0999 V2000
    5.4450    8.7154   22.6662 C   0  0  0  0  0  0  0  0  0  0  0  0
   10.9154    5.4574   20.5483 C   0  0  0  0  0  0  0  0  0  0  0  0
    7.2709    4.5089   22.7542 C   0  0  0  0  0  0  0  0  0  0  0  0
    5.9698    7.6329   24.6581 C   0  0  0  0  0  0  0  0  0  0  0  0
    4.5542    8.9057   21.7104 O   0  0  0  0  0  0  0  0  0  0  0  0
    6.9895    3.2085   23.0690 C   0  0  0  0  0  0  0  0  0  0  0  0
    7.8391    2.2253   22.7260 N   0  0  0  0  0  0  0  0  0  0  0  0
    8.6968    9.8373   23.6359 C   0  0  0  0  0  0  0  0  0  0  0  0
   12.5135    6.5957   21.8396 C   0  0  0  0  0  0  0  0  0  0  0  0
   10.9406    8.2330   21.1350 C   0  0  0  0  0  0  0  0  0  0  0  0
    9.6648    8.5956   21.7310 C   0  0  0  0  0  0  0  0  0  0  0  0
   10.8829    1.7153   20.9865 C   0  0  0  0  0  0  0  0  0  0  0  0
    5.7768    2.8533   23.7910 C   0  0  0  0  0  0  0  0  0  0  0  0
    9.7977    1.4791   21.6912 N   0  0  0  0  0  0  0  0  0  0  0  0
    6.5976    9.3401   22.6478 N   0  0  0  0  0  0  0  0  0  0  0  0
   11.2031    3.0042   20.6246 C   0  0  0  0  0  0  0  0  0  0  0  0
   12.8688    7.7370   22.7287 C   0  0  0  0  0  0  0  0  0  0  0  0
    7.4487    9.1361   23.6506 C   0  0  0  0  0  0  0  0  0  0  0  0
    8.9772    2.5025   22.0273 C   0  0  0  0  0  0  0  0  0  0  0  0
   10.4859    4.0901   20.9730 C   0  0  0  0  0  0  0  0  0  0  0  0
   11.0962    9.3293   23.5072 C   0  0  0  0  0  0  0  0  0  0  0  0
    5.1273    7.8529   23.6208 N   0  0  0  0  0  0  0  0  0  0  0  0
    9.7552    9.2338   23.0171 N   0  0  0  0  0  0  0  0  0  0  0  0
   11.1797    6.7591   21.3326 N   0  0  0  0  0  0  0  0  0  0  0  0
   11.7728    8.0337   23.7267 C   0  0  0  0  0  0  0  0  0  0  0  0
    7.1194    8.3344   24.6775 C   0  0  0  0  0  0  0  0  0  0  0  0
    8.4311    4.7963   22.0500 C   0  0  0  0  0  0  0  0  0  0  0  0
    8.7393   10.8706   24.1871 O   0  0  0  0  0  0  0  0  0  0  0  0
    9.3093    3.8166   21.6712 C   0  0  0  0  0  0  0  0  0  0  0  0
  1  5  1  0
  1 15  4  0
  1 22  4  0
  2 20  1  0
  2 24  1  0
  3  6  4  0
  3 27  4  0
  4 22  4  0
  4 26  4  0
  6  7  4  0
  6 13  1  0
  7 19  4  0
  8 18  1  0
  8 23  1  0
  8 28  2  0
  9 17  1  0
  9 24  1  0
 10 11  1  0
 10 24  1  0
 11 23  1  0
 12 14  4  0
 12 16  4  0
 14 19  4  0
 15 18  4  0
 16 20  4  0
 17 25  1  0
 18 26  4  0
 19 29  4  0
 20 29  4  0
 21 23  1  0
 21 25  1  0
 27 29  4  0
M  END
$$$$

 Created by Python create_sdf_string function

 29 32  0  0  0  0  0  0  0  0999 V2000
    5.4450    8.7154   22.6662 C   0  0  0  0  0  0  0  0  0  0  0  0
   10.9154    5.4574   20.5483 C   0  0  0  0  0  0  0  0  0  0  0  0
    7.2709    4.5089   22.7542 C   0  0  0  0  0  0  0  0  0  0  0  0
    5.9698    7.6329   24.6581 C   0  0  0  0  0  0  0  0  0  0  0  0
    4.5542    8.9057   21.7104 O   0  0  0  0  0  0  0  0  0  0  0  0
    6.9895    3.2085   23.0690 C   0  0  0  0  0  0  0  0  0  0  0  0
    7.8391    2.2253   22.7260 N   0  0  0  0  0  0  0  0  0  0  0  0
    8.6968    9.8373   23.6359 C   0  0  0  0  0  0  0  0  0  0  0  0
   12.5135    6.5957   21.8396 C   0  0  0  0  0  0  0  0  0  0  0  0
   10.9406    8.2330   21.1350 C   0  0  0  0  0  0  0  0  0  0  0  0
    9.6648    8.5956   21.7310 C   0  0  0  0  0  0  0  0  0  0  0  0
   10.8829    1.7153   20.9865 C   0  0  0  0  0  0  0  0  0  0  0  0
    5.7768    2.8533   23.7910 C   0  0  0  0  0  0  0  0  0  0  0  0
    9.7977    1.4791   21.6912 N   0  0  0  0  0  0  0  0  0  0  0  0
    6.5976    9.3401   22.6478 N   0  0  0  0  0  0  0  0  0  0  0  0
   11.2031    3.0042   20.6246 C   0  0  0  0  0  0  0  0  0  0  0  0
   12.8688    7.7370   22.7287 C   0  0  0  0  0  0  0  0  0  0  0  0
    7.4487    9.1361   23.6506 C   0  0  0  0  0  0  0  0  0  0  0  0
    8.9772    2.5025   22.0273 C   0  0  0  0  0  0  0  0  0  0  0  0
   10.4859    4.0901   20.9730 C   0  0  0  0  0  0  0  0  0  0  0  0
   11.0962    9.3293   23.5072 C   0  0  0  0  0  0  0  0  0  0  0  0
    5.1273    7.8529   23.6208 N   0  0  0  0  0  0  0  0  0  0  0  0
    9.7552    9.2338   23.0171 N   0  0  0  0  0  0  0  0  0  0  0  0
   11.1797    6.7591   21.3326 N   0  0  0  0  0  0  0  0  0  0  0  0
   11.7728    8.0337   23.7267 C   0  0  0  0  0  0  0  0  0  0  0  0
    7.1194    8.3344   24.6775 C   0  0  0  0  0  0  0  0  0  0  0  0
    8.4311    4.7963   22.0500 C   0  0  0  0  0  0  0  0  0  0  0  0
    8.7393   10.8706   24.1871 O   0  0  0  0  0  0  0  0  0  0  0  0
    9.3093    3.8166   21.6712 C   0  0  0  0  0  0  0  0  0  0  0  0
  1  5  1  0
  1 15  4  0
  1 22  4  0
  2 20  1  0
  2 24  1  0
  3  6  4  0
  3 27  4  0
  4 22  4  0
  4 26  4  0
  6  7  4  0
  6 13  1  0
  7 19  4  0
  8 18  1  0
  8 23  1  0
  8 28  2  0
  9 17  1  0
  9 24  1  0
 10 11  1  0
 10 24  1  0
 11 23  1  0
 12 14  4  0
 12 16  4  0
 14 19  4  0
 15 18  4  0
 16 20  4  0
 17 25  1  0
 18 26  4  0
 19 29  4  0
 20 29  4  0
 21 23  1  0
 21 25  1  0
 27 29  4  0
M  END
$$$$

 Created by Python create_sdf_string function

 29 32  0  0  0  0  0  0  0  0999 V2000
    5.4450    8.7154   22.6662 C   0  0  0  0  0  0  0  0  0  0  0  0
   10.9154    5.4574   20.5483 C   0  0  0  0  0  0  0  0  0  0  0  0
    7.2709    4.5089   22.7542 C   0  0  0  0  0  0  0  0  0  0  0  0
    5.9698    7.6329   24.6581 C   0  0  0  0  0  0  0  0  0  0  0  0
    4.5542    8.9057   21.7104 O   0  0  0  0  0  0  0  0  0  0  0  0
    6.9895    3.2085   23.0690 C   0  0  0  0  0  0  0  0  0  0  0  0
    7.8391    2.2253   22.7260 N   0  0  0  0  0  0  0  0  0  0  0  0
    8.6968    9.8373   23.6359 C   0  0  0  0  0  0  0  0  0  0  0  0
   12.5135    6.5957   21.8396 C   0  0  0  0  0  0  0  0  0  0  0  0
   10.9406    8.2330   21.1350 C   0  0  0  0  0  0  0  0  0  0  0  0
    9.6648    8.5956   21.7310 C   0  0  0  0  0  0  0  0  0  0  0  0
   10.8829    1.7153   20.9865 C   0  0  0  0  0  0  0  0  0  0  0  0
    5.7768    2.8533   23.7910 C   0  0  0  0  0  0  0  0  0  0  0  0
    9.7977    1.4791   21.6912 N   0  0  0  0  0  0  0  0  0  0  0  0
    6.5976    9.3401   22.6478 N   0  0  0  0  0  0  0  0  0  0  0  0
   11.2031    3.0042   20.6246 C   0  0  0  0  0  0  0  0  0  0  0  0
   12.8688    7.7370   22.7287 C   0  0  0  0  0  0  0  0  0  0  0  0
    7.4487    9.1361   23.6506 C   0  0  0  0  0  0  0  0  0  0  0  0
    8.9772    2.5025   22.0273 C   0  0  0  0  0  0  0  0  0  0  0  0
   10.4859    4.0901   20.9730 C   0  0  0  0  0  0  0  0  0  0  0  0
   11.0962    9.3293   23.5072 C   0  0  0  0  0  0  0  0  0  0  0  0
    5.1273    7.8529   23.6208 N   0  0  0  0  0  0  0  0  0  0  0  0
    9.7552    9.2338   23.0171 N   0  0  0  0  0  0  0  0  0  0  0  0
   11.1797    6.7591   21.3326 N   0  0  0  0  0  0  0  0  0  0  0  0
   11.7728    8.0337   23.7267 C   0  0  0  0  0  0  0  0  0  0  0  0
    7.1194    8.3344   24.6775 C   0  0  0  0  0  0  0  0  0  0  0  0
    8.4311    4.7963   22.0500 C   0  0  0  0  0  0  0  0  0  0  0  0
    8.7393   10.8706   24.1871 O   0  0  0  0  0  0  0  0  0  0  0  0
    9.3093    3.8166   21.6712 C   0  0  0  0  0  0  0  0  0  0  0  0
  1  5  1  0
  1 15  4  0
  1 22  4  0
  2 20  1  0
  2 24  1  0
  3  6  4  0
  3 27  4  0
  4 22  4  0
  4 26  4  0
  6  7  4  0
  6 13  1  0
  7 19  4  0
  8 18  1  0
  8 23  1  0
  8 28  2  0
  9 17  1  0
  9 24  1  0
 10 11  1  0
 10 24  1  0
 11 23  1  0
 12 14  4  0
 12 16  4  0
 14 19  4  0
 15 18  4  0
 16 20  4  0
 17 25  1  0
 18 26  4  0
 19 29  4  0
 20 29  4  0
 21 23  1  0
 21 25  1  0
 27 29  4  0
M  END
$$$$

 Created by Python create_sdf_string function

 29 32  0  0  0  0  0  0  0  0999 V2000
    5.4450    8.7154   22.6662 C   0  0  0  0  0  0  0  0  0  0  0  0
   10.9154    5.4574   20.5483 C   0  0  0  0  0  0  0  0  0  0  0  0
    7.2709    4.5089   22.7542 C   0  0  0  0  0  0  0  0  0  0  0  0
    5.9698    7.6329   24.6581 C   0  0  0  0  0  0  0  0  0  0  0  0
    4.5542    8.9057   21.7104 O   0  0  0  0  0  0  0  0  0  0  0  0
    6.9895    3.2085   23.0690 C   0  0  0  0  0  0  0  0  0  0  0  0
    7.8391    2.2253   22.7260 N   0  0  0  0  0  0  0  0  0  0  0  0
    8.6968    9.8373   23.6359 C   0  0  0  0  0  0  0  0  0  0  0  0
   12.5135    6.5957   21.8396 C   0  0  0  0  0  0  0  0  0  0  0  0
   10.9406    8.2330   21.1350 C   0  0  0  0  0  0  0  0  0  0  0  0
    9.6648    8.5956   21.7310 C   0  0  0  0  0  0  0  0  0  0  0  0
   10.8829    1.7153   20.9865 C   0  0  0  0  0  0  0  0  0  0  0  0
    5.7768    2.8533   23.7910 C   0  0  0  0  0  0  0  0  0  0  0  0
    9.7977    1.4791   21.6912 N   0  0  0  0  0  0  0  0  0  0  0  0
    6.5976    9.3401   22.6478 N   0  0  0  0  0  0  0  0  0  0  0  0
   11.2031    3.0042   20.6246 C   0  0  0  0  0  0  0  0  0  0  0  0
   12.8688    7.7370   22.7287 C   0  0  0  0  0  0  0  0  0  0  0  0
    7.4487    9.1361   23.6506 C   0  0  0  0  0  0  0  0  0  0  0  0
    8.9772    2.5025   22.0273 C   0  0  0  0  0  0  0  0  0  0  0  0
   10.4859    4.0901   20.9730 C   0  0  0  0  0  0  0  0  0  0  0  0
   11.0962    9.3293   23.5072 C   0  0  0  0  0  0  0  0  0  0  0  0
    5.1273    7.8529   23.6208 N   0  0  0  0  0  0  0  0  0  0  0  0
    9.7552    9.2338   23.0171 N   0  0  0  0  0  0  0  0  0  0  0  0
   11.1797    6.7591   21.3326 N   0  0  0  0  0  0  0  0  0  0  0  0
   11.7728    8.0337   23.7267 C   0  0  0  0  0  0  0  0  0  0  0  0
    7.1194    8.3344   24.6775 C   0  0  0  0  0  0  0  0  0  0  0  0
    8.4311    4.7963   22.0500 C   0  0  0  0  0  0  0  0  0  0  0  0
    8.7393   10.8706   24.1871 O   0  0  0  0  0  0  0  0  0  0  0  0
    9.3093    3.8166   21.6712 C   0  0  0  0  0  0  0  0  0  0  0  0
  1  5  1  0
  1 15  4  0
  1 22  4  0
  2 20  1  0
  2 24  1  0
  3  6  4  0
  3 27  4  0
  4 22  4  0
  4 26  4  0
  6  7  4  0
  6 13  1  0
  7 19  4  0
  8 18  1  0
  8 23  1  0
  8 28  2  0
  9 17  1  0
  9 24  1  0
 10 11  1  0
 10 24  1  0
 11 23  1  0
 12 14  4  0
 12 16  4  0
 14 19  4  0
 15 18  4  0
 16 20  4  0
 17 25  1  0
 18 26  4  0
 19 29  4  0
 20 29  4  0
 21 23  1  0
 21 25  1  0
 27 29  4  0
M  END
$$$$

 Created by Python create_sdf_string function

 29 32  0  0  0  0  0  0  0  0999 V2000
    5.4450    8.7154   22.6662 C   0  0  0  0  0  0  0  0  0  0  0  0
   10.9154    5.4574   20.5483 C   0  0  0  0  0  0  0  0  0  0  0  0
    7.2709    4.5089   22.7542 C   0  0  0  0  0  0  0  0  0  0  0  0
    5.9698    7.6329   24.6581 C   0  0  0  0  0  0  0  0  0  0  0  0
    4.5542    8.9057   21.7104 O   0  0  0  0  0  0  0  0  0  0  0  0
    6.9895    3.2085   23.0690 C   0  0  0  0  0  0  0  0  0  0  0  0
    7.8391    2.2253   22.7260 N   0  0  0  0  0  0  0  0  0  0  0  0
    8.6968    9.8373   23.6359 C   0  0  0  0  0  0  0  0  0  0  0  0
   12.5135    6.5957   21.8396 C   0  0  0  0  0  0  0  0  0  0  0  0
   10.9406    8.2330   21.1350 C   0  0  0  0  0  0  0  0  0  0  0  0
    9.6648    8.5956   21.7310 C   0  0  0  0  0  0  0  0  0  0  0  0
   10.8829    1.7153   20.9865 C   0  0  0  0  0  0  0  0  0  0  0  0
    5.7768    2.8533   23.7910 C   0  0  0  0  0  0  0  0  0  0  0  0
    9.7977    1.4791   21.6912 N   0  0  0  0  0  0  0  0  0  0  0  0
    6.5976    9.3401   22.6478 N   0  0  0  0  0  0  0  0  0  0  0  0
   11.2031    3.0042   20.6246 C   0  0  0  0  0  0  0  0  0  0  0  0
   12.8688    7.7370   22.7287 C   0  0  0  0  0  0  0  0  0  0  0  0
    7.4487    9.1361   23.6506 C   0  0  0  0  0  0  0  0  0  0  0  0
    8.9772    2.5025   22.0273 C   0  0  0  0  0  0  0  0  0  0  0  0
   10.4859    4.0901   20.9730 C   0  0  0  0  0  0  0  0  0  0  0  0
   11.0962    9.3293   23.5072 C   0  0  0  0  0  0  0  0  0  0  0  0
    5.1273    7.8529   23.6208 N   0  0  0  0  0  0  0  0  0  0  0  0
    9.7552    9.2338   23.0171 N   0  0  0  0  0  0  0  0  0  0  0  0
   11.1797    6.7591   21.3326 N   0  0  0  0  0  0  0  0  0  0  0  0
   11.7728    8.0337   23.7267 C   0  0  0  0  0  0  0  0  0  0  0  0
    7.1194    8.3344   24.6775 C   0  0  0  0  0  0  0  0  0  0  0  0
    8.4311    4.7963   22.0500 C   0  0  0  0  0  0  0  0  0  0  0  0
    8.7393   10.8706   24.1871 O   0  0  0  0  0  0  0  0  0  0  0  0
    9.3093    3.8166   21.6712 C   0  0  0  0  0  0  0  0  0  0  0  0
  1  5  1  0
  1 15  4  0
  1 22  4  0
  2 20  1  0
  2 24  1  0
  3  6  4  0
  3 27  4  0
  4 22  4  0
  4 26  4  0
  6  7  4  0
  6 13  1  0
  7 19  4  0
  8 18  1  0
  8 23  1  0
  8 28  2  0
  9 17  1  0
  9 24  1  0
 10 11  1  0
 10 24  1  0
 11 23  1  0
 12 14  4  0
 12 16  4  0
 14 19  4  0
 15 18  4  0
 16 20  4  0
 17 25  1  0
 18 26  4  0
 19 29  4  0
 20 29  4  0
 21 23  1  0
 21 25  1  0
 27 29  4  0
M  END
$$$$

 Created by Python create_sdf_string function

 29 32  0  0  0  0  0  0  0  0999 V2000
    5.4450    8.7154   22.6662 C   0  0  0  0  0  0  0  0  0  0  0  0
   10.9154    5.4574   20.5483 C   0  0  0  0  0  0  0  0  0  0  0  0
    7.2709    4.5089   22.7542 C   0  0  0  0  0  0  0  0  0  0  0  0
    5.9698    7.6329   24.6581 C   0  0  0  0  0  0  0  0  0  0  0  0
    4.5542    8.9057   21.7104 O   0  0  0  0  0  0  0  0  0  0  0  0
    6.9895    3.2085   23.0690 C   0  0  0  0  0  0  0  0  0  0  0  0
    7.8391    2.2253   22.7260 N   0  0  0  0  0  0  0  0  0  0  0  0
    8.6968    9.8373   23.6359 C   0  0  0  0  0  0  0  0  0  0  0  0
   12.5135    6.5957   21.8396 C   0  0  0  0  0  0  0  0  0  0  0  0
   10.9406    8.2330   21.1350 C   0  0  0  0  0  0  0  0  0  0  0  0
    9.6648    8.5956   21.7310 C   0  0  0  0  0  0  0  0  0  0  0  0
   10.8829    1.7153   20.9865 C   0  0  0  0  0  0  0  0  0  0  0  0
    5.7768    2.8533   23.7910 C   0  0  0  0  0  0  0  0  0  0  0  0
    9.7977    1.4791   21.6912 N   0  0  0  0  0  0  0  0  0  0  0  0
    6.5976    9.3401   22.6478 N   0  0  0  0  0  0  0  0  0  0  0  0
   11.2031    3.0042   20.6246 C   0  0  0  0  0  0  0  0  0  0  0  0
   12.8688    7.7370   22.7287 C   0  0  0  0  0  0  0  0  0  0  0  0
    7.4487    9.1361   23.6506 C   0  0  0  0  0  0  0  0  0  0  0  0
    8.9772    2.5025   22.0273 C   0  0  0  0  0  0  0  0  0  0  0  0
   10.4859    4.0901   20.9730 C   0  0  0  0  0  0  0  0  0  0  0  0
   11.0962    9.3293   23.5072 C   0  0  0  0  0  0  0  0  0  0  0  0
    5.1273    7.8529   23.6208 N   0  0  0  0  0  0  0  0  0  0  0  0
    9.7552    9.2338   23.0171 N   0  0  0  0  0  0  0  0  0  0  0  0
   11.1797    6.7591   21.3326 N   0  0  0  0  0  0  0  0  0  0  0  0
   11.7728    8.0337   23.7267 C   0  0  0  0  0  0  0  0  0  0  0  0
    7.1194    8.3344   24.6775 C   0  0  0  0  0  0  0  0  0  0  0  0
    8.4311    4.7963   22.0500 C   0  0  0  0  0  0  0  0  0  0  0  0
    8.7393   10.8706   24.1871 O   0  0  0  0  0  0  0  0  0  0  0  0
    9.3093    3.8166   21.6712 C   0  0  0  0  0  0  0  0  0  0  0  0
  1  5  1  0
  1 15  4  0
  1 22  4  0
  2 20  1  0
  2 24  1  0
  3  6  4  0
  3 27  4  0
  4 22  4  0
  4 26  4  0
  6  7  4  0
  6 13  1  0
  7 19  4  0
  8 18  1  0
  8 23  1  0
  8 28  2  0
  9 17  1  0
  9 24  1  0
 10 11  1  0
 10 24  1  0
 11 23  1  0
 12 14  4  0
 12 16  4  0
 14 19  4  0
 15 18  4  0
 16 20  4  0
 17 25  1  0
 18 26  4  0
 19 29  4  0
 20 29  4  0
 21 23  1  0
 21 25  1  0
 27 29  4  0
M  END
$$$$

 Created by Python create_sdf_string function

 29 32  0  0  0  0  0  0  0  0999 V2000
    5.4450    8.7154   22.6662 C   0  0  0  0  0  0  0  0  0  0  0  0
   10.9154    5.4574   20.5483 C   0  0  0  0  0  0  0  0  0  0  0  0
    7.2709    4.5089   22.7542 C   0  0  0  0  0  0  0  0  0  0  0  0
    5.9698    7.6329   24.6581 C   0  0  0  0  0  0  0  0  0  0  0  0
    4.5542    8.9057   21.7104 O   0  0  0  0  0  0  0  0  0  0  0  0
    6.9895    3.2085   23.0690 C   0  0  0  0  0  0  0  0  0  0  0  0
    7.8391    2.2253   22.7260 N   0  0  0  0  0  0  0  0  0  0  0  0
    8.6968    9.8373   23.6359 C   0  0  0  0  0  0  0  0  0  0  0  0
   12.5135    6.5957   21.8396 C   0  0  0  0  0  0  0  0  0  0  0  0
   10.9406    8.2330   21.1350 C   0  0  0  0  0  0  0  0  0  0  0  0
    9.6648    8.5956   21.7310 C   0  0  0  0  0  0  0  0  0  0  0  0
   10.8829    1.7153   20.9865 C   0  0  0  0  0  0  0  0  0  0  0  0
    5.7768    2.8533   23.7910 C   0  0  0  0  0  0  0  0  0  0  0  0
    9.7977    1.4791   21.6912 N   0  0  0  0  0  0  0  0  0  0  0  0
    6.5976    9.3401   22.6478 N   0  0  0  0  0  0  0  0  0  0  0  0
   11.2031    3.0042   20.6246 C   0  0  0  0  0  0  0  0  0  0  0  0
   12.8688    7.7370   22.7287 C   0  0  0  0  0  0  0  0  0  0  0  0
    7.4487    9.1361   23.6506 C   0  0  0  0  0  0  0  0  0  0  0  0
    8.9772    2.5025   22.0273 C   0  0  0  0  0  0  0  0  0  0  0  0
   10.4859    4.0901   20.9730 C   0  0  0  0  0  0  0  0  0  0  0  0
   11.0962    9.3293   23.5072 C   0  0  0  0  0  0  0  0  0  0  0  0
    5.1273    7.8529   23.6208 N   0  0  0  0  0  0  0  0  0  0  0  0
    9.7552    9.2338   23.0171 N   0  0  0  0  0  0  0  0  0  0  0  0
   11.1797    6.7591   21.3326 N   0  0  0  0  0  0  0  0  0  0  0  0
   11.7728    8.0337   23.7267 C   0  0  0  0  0  0  0  0  0  0  0  0
    7.1194    8.3344   24.6775 C   0  0  0  0  0  0  0  0  0  0  0  0
    8.4311    4.7963   22.0500 C   0  0  0  0  0  0  0  0  0  0  0  0
    8.7393   10.8706   24.1871 O   0  0  0  0  0  0  0  0  0  0  0  0
    9.3093    3.8166   21.6712 C   0  0  0  0  0  0  0  0  0  0  0  0
  1  5  1  0
  1 15  4  0
  1 22  4  0
  2 20  1  0
  2 24  1  0
  3  6  4  0
  3 27  4  0
  4 22  4  0
  4 26  4  0
  6  7  4  0
  6 13  1  0
  7 19  4  0
  8 18  1  0
  8 23  1  0
  8 28  2  0
  9 17  1  0
  9 24  1  0
 10 11  1  0
 10 24  1  0
 11 23  1  0
 12 14  4  0
 12 16  4  0
 14 19  4  0
 15 18  4  0
 16 20  4  0
 17 25  1  0
 18 26  4  0
 19 29  4  0
 20 29  4  0
 21 23  1  0
 21 25  1  0
 27 29  4  0
M  END
$$$$

 Created by Python create_sdf_string function

 29 32  0  0  0  0  0  0  0  0999 V2000
    5.4450    8.7154   22.6662 C   0  0  0  0  0  0  0  0  0  0  0  0
   10.9154    5.4574   20.5483 C   0  0  0  0  0  0  0  0  0  0  0  0
    7.2709    4.5089   22.7542 C   0  0  0  0  0  0  0  0  0  0  0  0
    5.9698    7.6329   24.6581 C   0  0  0  0  0  0  0  0  0  0  0  0
    4.5542    8.9057   21.7104 O   0  0  0  0  0  0  0  0  0  0  0  0
    6.9895    3.2085   23.0690 C   0  0  0  0  0  0  0  0  0  0  0  0
    7.8391    2.2253   22.7260 N   0  0  0  0  0  0  0  0  0  0  0  0
    8.6968    9.8373   23.6359 C   0  0  0  0  0  0  0  0  0  0  0  0
   12.5135    6.5957   21.8396 C   0  0  0  0  0  0  0  0  0  0  0  0
   10.9406    8.2330   21.1350 C   0  0  0  0  0  0  0  0  0  0  0  0
    9.6648    8.5956   21.7310 C   0  0  0  0  0  0  0  0  0  0  0  0
   10.8829    1.7153   20.9865 C   0  0  0  0  0  0  0  0  0  0  0  0
    5.7768    2.8533   23.7910 C   0  0  0  0  0  0  0  0  0  0  0  0
    9.7977    1.4791   21.6912 N   0  0  0  0  0  0  0  0  0  0  0  0
    6.5976    9.3401   22.6478 N   0  0  0  0  0  0  0  0  0  0  0  0
   11.2031    3.0042   20.6246 C   0  0  0  0  0  0  0  0  0  0  0  0
   12.8688    7.7370   22.7287 C   0  0  0  0  0  0  0  0  0  0  0  0
    7.4487    9.1361   23.6506 C   0  0  0  0  0  0  0  0  0  0  0  0
    8.9772    2.5025   22.0273 C   0  0  0  0  0  0  0  0  0  0  0  0
   10.4859    4.0901   20.9730 C   0  0  0  0  0  0  0  0  0  0  0  0
   11.0962    9.3293   23.5072 C   0  0  0  0  0  0  0  0  0  0  0  0
    5.1273    7.8529   23.6208 N   0  0  0  0  0  0  0  0  0  0  0  0
    9.7552    9.2338   23.0171 N   0  0  0  0  0  0  0  0  0  0  0  0
   11.1797    6.7591   21.3326 N   0  0  0  0  0  0  0  0  0  0  0  0
   11.7728    8.0337   23.7267 C   0  0  0  0  0  0  0  0  0  0  0  0
    7.1194    8.3344   24.6775 C   0  0  0  0  0  0  0  0  0  0  0  0
    8.4311    4.7963   22.0500 C   0  0  0  0  0  0  0  0  0  0  0  0
    8.7393   10.8706   24.1871 O   0  0  0  0  0  0  0  0  0  0  0  0
    9.3093    3.8166   21.6712 C   0  0  0  0  0  0  0  0  0  0  0  0
  1  5  1  0
  1 15  4  0
  1 22  4  0
  2 20  1  0
  2 24  1  0
  3  6  4  0
  3 27  4  0
  4 22  4  0
  4 26  4  0
  6  7  4  0
  6 13  1  0
  7 19  4  0
  8 18  1  0
  8 23  1  0
  8 28  2  0
  9 17  1  0
  9 24  1  0
 10 11  1  0
 10 24  1  0
 11 23  1  0
 12 14  4  0
 12 16  4  0
 14 19  4  0
 15 18  4  0
 16 20  4  0
 17 25  1  0
 18 26  4  0
 19 29  4  0
 20 29  4  0
 21 23  1  0
 21 25  1  0
 27 29  4  0
M  END
$$$$

 Created by Python create_sdf_string function

 29 32  0  0  0  0  0  0  0  0999 V2000
    5.4450    8.7154   22.6662 C   0  0  0  0  0  0  0  0  0  0  0  0
   10.9154    5.4574   20.5483 C   0  0  0  0  0  0  0  0  0  0  0  0
    7.2709    4.5089   22.7542 C   0  0  0  0  0  0  0  0  0  0  0  0
    5.9698    7.6329   24.6581 C   0  0  0  0  0  0  0  0  0  0  0  0
    4.5542    8.9057   21.7104 O   0  0  0  0  0  0  0  0  0  0  0  0
    6.9895    3.2085   23.0690 C   0  0  0  0  0  0  0  0  0  0  0  0
    7.8391    2.2253   22.7260 N   0  0  0  0  0  0  0  0  0  0  0  0
    8.6968    9.8373   23.6359 C   0  0  0  0  0  0  0  0  0  0  0  0
   12.5135    6.5957   21.8396 C   0  0  0  0  0  0  0  0  0  0  0  0
   10.9406    8.2330   21.1350 C   0  0  0  0  0  0  0  0  0  0  0  0
    9.6648    8.5956   21.7310 C   0  0  0  0  0  0  0  0  0  0  0  0
   10.8829    1.7153   20.9865 C   0  0  0  0  0  0  0  0  0  0  0  0
    5.7768    2.8533   23.7910 C   0  0  0  0  0  0  0  0  0  0  0  0
    9.7977    1.4791   21.6912 N   0  0  0  0  0  0  0  0  0  0  0  0
    6.5976    9.3401   22.6478 N   0  0  0  0  0  0  0  0  0  0  0  0
   11.2031    3.0042   20.6246 C   0  0  0  0  0  0  0  0  0  0  0  0
   12.8688    7.7370   22.7287 C   0  0  0  0  0  0  0  0  0  0  0  0
    7.4487    9.1361   23.6506 C   0  0  0  0  0  0  0  0  0  0  0  0
    8.9772    2.5025   22.0273 C   0  0  0  0  0  0  0  0  0  0  0  0
   10.4859    4.0901   20.9730 C   0  0  0  0  0  0  0  0  0  0  0  0
   11.0962    9.3293   23.5072 C   0  0  0  0  0  0  0  0  0  0  0  0
    5.1273    7.8529   23.6208 N   0  0  0  0  0  0  0  0  0  0  0  0
    9.7552    9.2338   23.0171 N   0  0  0  0  0  0  0  0  0  0  0  0
   11.1797    6.7591   21.3326 N   0  0  0  0  0  0  0  0  0  0  0  0
   11.7728    8.0337   23.7267 C   0  0  0  0  0  0  0  0  0  0  0  0
    7.1194    8.3344   24.6775 C   0  0  0  0  0  0  0  0  0  0  0  0
    8.4311    4.7963   22.0500 C   0  0  0  0  0  0  0  0  0  0  0  0
    8.7393   10.8706   24.1871 O   0  0  0  0  0  0  0  0  0  0  0  0
    9.3093    3.8166   21.6712 C   0  0  0  0  0  0  0  0  0  0  0  0
  1  5  1  0
  1 15  4  0
  1 22  4  0
  2 20  1  0
  2 24  1  0
  3  6  4  0
  3 27  4  0
  4 22  4  0
  4 26  4  0
  6  7  4  0
  6 13  1  0
  7 19  4  0
  8 18  1  0
  8 23  1  0
  8 28  2  0
  9 17  1  0
  9 24  1  0
 10 11  1  0
 10 24  1  0
 11 23  1  0
 12 14  4  0
 12 16  4  0
 14 19  4  0
 15 18  4  0
 16 20  4  0
 17 25  1  0
 18 26  4  0
 19 29  4  0
 20 29  4  0
 21 23  1  0
 21 25  1  0
 27 29  4  0
M  END
$$$$

 Created by Python create_sdf_string function

 29 32  0  0  0  0  0  0  0  0999 V2000
    5.4450    8.7154   22.6662 C   0  0  0  0  0  0  0  0  0  0  0  0
   10.9154    5.4574   20.5483 C   0  0  0  0  0  0  0  0  0  0  0  0
    7.2709    4.5089   22.7542 C   0  0  0  0  0  0  0  0  0  0  0  0
    5.9698    7.6329   24.6581 C   0  0  0  0  0  0  0  0  0  0  0  0
    4.5542    8.9057   21.7104 O   0  0  0  0  0  0  0  0  0  0  0  0
    6.9895    3.2085   23.0690 C   0  0  0  0  0  0  0  0  0  0  0  0
    7.8391    2.2253   22.7260 N   0  0  0  0  0  0  0  0  0  0  0  0
    8.6968    9.8373   23.6359 C   0  0  0  0  0  0  0  0  0  0  0  0
   12.5135    6.5957   21.8396 C   0  0  0  0  0  0  0  0  0  0  0  0
   10.9406    8.2330   21.1350 C   0  0  0  0  0  0  0  0  0  0  0  0
    9.6648    8.5956   21.7310 C   0  0  0  0  0  0  0  0  0  0  0  0
   10.8829    1.7153   20.9865 C   0  0  0  0  0  0  0  0  0  0  0  0
    5.7768    2.8533   23.7910 C   0  0  0  0  0  0  0  0  0  0  0  0
    9.7977    1.4791   21.6912 N   0  0  0  0  0  0  0  0  0  0  0  0
    6.5976    9.3401   22.6478 N   0  0  0  0  0  0  0  0  0  0  0  0
   11.2031    3.0042   20.6246 C   0  0  0  0  0  0  0  0  0  0  0  0
   12.8688    7.7370   22.7287 C   0  0  0  0  0  0  0  0  0  0  0  0
    7.4487    9.1361   23.6506 C   0  0  0  0  0  0  0  0  0  0  0  0
    8.9772    2.5025   22.0273 C   0  0  0  0  0  0  0  0  0  0  0  0
   10.4859    4.0901   20.9730 C   0  0  0  0  0  0  0  0  0  0  0  0
   11.0962    9.3293   23.5072 C   0  0  0  0  0  0  0  0  0  0  0  0
    5.1273    7.8529   23.6208 N   0  0  0  0  0  0  0  0  0  0  0  0
    9.7552    9.2338   23.0171 N   0  0  0  0  0  0  0  0  0  0  0  0
   11.1797    6.7591   21.3326 N   0  0  0  0  0  0  0  0  0  0  0  0
   11.7728    8.0337   23.7267 C   0  0  0  0  0  0  0  0  0  0  0  0
    7.1194    8.3344   24.6775 C   0  0  0  0  0  0  0  0  0  0  0  0
    8.4311    4.7963   22.0500 C   0  0  0  0  0  0  0  0  0  0  0  0
    8.7393   10.8706   24.1871 O   0  0  0  0  0  0  0  0  0  0  0  0
    9.3093    3.8166   21.6712 C   0  0  0  0  0  0  0  0  0  0  0  0
  1  5  1  0
  1 15  4  0
  1 22  4  0
  2 20  1  0
  2 24  1  0
  3  6  4  0
  3 27  4  0
  4 22  4  0
  4 26  4  0
  6  7  4  0
  6 13  1  0
  7 19  4  0
  8 18  1  0
  8 23  1  0
  8 28  2  0
  9 17  1  0
  9 24  1  0
 10 11  1  0
 10 24  1  0
 11 23  1  0
 12 14  4  0
 12 16  4  0
 14 19  4  0
 15 18  4  0
 16 20  4  0
 17 25  1  0
 18 26  4  0
 19 29  4  0
 20 29  4  0
 21 23  1  0
 21 25  1  0
 27 29  4  0
M  END
$$$$

 Created by Python create_sdf_string function

 29 32  0  0  0  0  0  0  0  0999 V2000
    5.4450    8.7154   22.6662 C   0  0  0  0  0  0  0  0  0  0  0  0
   10.9154    5.4574   20.5483 C   0  0  0  0  0  0  0  0  0  0  0  0
    7.2709    4.5089   22.7542 C   0  0  0  0  0  0  0  0  0  0  0  0
    5.9698    7.6329   24.6581 C   0  0  0  0  0  0  0  0  0  0  0  0
    4.5542    8.9057   21.7104 O   0  0  0  0  0  0  0  0  0  0  0  0
    6.9895    3.2085   23.0690 C   0  0  0  0  0  0  0  0  0  0  0  0
    7.8391    2.2253   22.7260 N   0  0  0  0  0  0  0  0  0  0  0  0
    8.6968    9.8373   23.6359 C   0  0  0  0  0  0  0  0  0  0  0  0
   12.5135    6.5957   21.8396 C   0  0  0  0  0  0  0  0  0  0  0  0
   10.9406    8.2330   21.1350 C   0  0  0  0  0  0  0  0  0  0  0  0
    9.6648    8.5956   21.7310 C   0  0  0  0  0  0  0  0  0  0  0  0
   10.8829    1.7153   20.9865 C   0  0  0  0  0  0  0  0  0  0  0  0
    5.7768    2.8533   23.7910 C   0  0  0  0  0  0  0  0  0  0  0  0
    9.7977    1.4791   21.6912 N   0  0  0  0  0  0  0  0  0  0  0  0
    6.5976    9.3401   22.6478 N   0  0  0  0  0  0  0  0  0  0  0  0
   11.2031    3.0042   20.6246 C   0  0  0  0  0  0  0  0  0  0  0  0
   12.8688    7.7370   22.7287 C   0  0  0  0  0  0  0  0  0  0  0  0
    7.4487    9.1361   23.6506 C   0  0  0  0  0  0  0  0  0  0  0  0
    8.9772    2.5025   22.0273 C   0  0  0  0  0  0  0  0  0  0  0  0
   10.4859    4.0901   20.9730 C   0  0  0  0  0  0  0  0  0  0  0  0
   11.0962    9.3293   23.5072 C   0  0  0  0  0  0  0  0  0  0  0  0
    5.1273    7.8529   23.6208 N   0  0  0  0  0  0  0  0  0  0  0  0
    9.7552    9.2338   23.0171 N   0  0  0  0  0  0  0  0  0  0  0  0
   11.1797    6.7591   21.3326 N   0  0  0  0  0  0  0  0  0  0  0  0
   11.7728    8.0337   23.7267 C   0  0  0  0  0  0  0  0  0  0  0  0
    7.1194    8.3344   24.6775 C   0  0  0  0  0  0  0  0  0  0  0  0
    8.4311    4.7963   22.0500 C   0  0  0  0  0  0  0  0  0  0  0  0
    8.7393   10.8706   24.1871 O   0  0  0  0  0  0  0  0  0  0  0  0
    9.3093    3.8166   21.6712 C   0  0  0  0  0  0  0  0  0  0  0  0
  1  5  1  0
  1 15  4  0
  1 22  4  0
  2 20  1  0
  2 24  1  0
  3  6  4  0
  3 27  4  0
  4 22  4  0
  4 26  4  0
  6  7  4  0
  6 13  1  0
  7 19  4  0
  8 18  1  0
  8 23  1  0
  8 28  2  0
  9 17  1  0
  9 24  1  0
 10 11  1  0
 10 24  1  0
 11 23  1  0
 12 14  4  0
 12 16  4  0
 14 19  4  0
 15 18  4  0
 16 20  4  0
 17 25  1  0
 18 26  4  0
 19 29  4  0
 20 29  4  0
 21 23  1  0
 21 25  1  0
 27 29  4  0
M  END
$$$$

 Created by Python create_sdf_string function

 29 32  0  0  0  0  0  0  0  0999 V2000
    5.4450    8.7154   22.6662 C   0  0  0  0  0  0  0  0  0  0  0  0
   10.9154    5.4574   20.5483 C   0  0  0  0  0  0  0  0  0  0  0  0
    7.2709    4.5089   22.7542 C   0  0  0  0  0  0  0  0  0  0  0  0
    5.9698    7.6329   24.6581 C   0  0  0  0  0  0  0  0  0  0  0  0
    4.5542    8.9057   21.7104 O   0  0  0  0  0  0  0  0  0  0  0  0
    6.9895    3.2085   23.0690 C   0  0  0  0  0  0  0  0  0  0  0  0
    7.8391    2.2253   22.7260 N   0  0  0  0  0  0  0  0  0  0  0  0
    8.6968    9.8373   23.6359 C   0  0  0  0  0  0  0  0  0  0  0  0
   12.5135    6.5957   21.8396 C   0  0  0  0  0  0  0  0  0  0  0  0
   10.9406    8.2330   21.1350 C   0  0  0  0  0  0  0  0  0  0  0  0
    9.6648    8.5956   21.7310 C   0  0  0  0  0  0  0  0  0  0  0  0
   10.8829    1.7153   20.9865 C   0  0  0  0  0  0  0  0  0  0  0  0
    5.7768    2.8533   23.7910 C   0  0  0  0  0  0  0  0  0  0  0  0
    9.7977    1.4791   21.6912 N   0  0  0  0  0  0  0  0  0  0  0  0
    6.5976    9.3401   22.6478 N   0  0  0  0  0  0  0  0  0  0  0  0
   11.2031    3.0042   20.6246 C   0  0  0  0  0  0  0  0  0  0  0  0
   12.8688    7.7370   22.7287 C   0  0  0  0  0  0  0  0  0  0  0  0
    7.4487    9.1361   23.6506 C   0  0  0  0  0  0  0  0  0  0  0  0
    8.9772    2.5025   22.0273 C   0  0  0  0  0  0  0  0  0  0  0  0
   10.4859    4.0901   20.9730 C   0  0  0  0  0  0  0  0  0  0  0  0
   11.0962    9.3293   23.5072 C   0  0  0  0  0  0  0  0  0  0  0  0
    5.1273    7.8529   23.6208 N   0  0  0  0  0  0  0  0  0  0  0  0
    9.7552    9.2338   23.0171 N   0  0  0  0  0  0  0  0  0  0  0  0
   11.1797    6.7591   21.3326 N   0  0  0  0  0  0  0  0  0  0  0  0
   11.7728    8.0337   23.7267 C   0  0  0  0  0  0  0  0  0  0  0  0
    7.1194    8.3344   24.6775 C   0  0  0  0  0  0  0  0  0  0  0  0
    8.4311    4.7963   22.0500 C   0  0  0  0  0  0  0  0  0  0  0  0
    8.7393   10.8706   24.1871 O   0  0  0  0  0  0  0  0  0  0  0  0
    9.3093    3.8166   21.6712 C   0  0  0  0  0  0  0  0  0  0  0  0
  1  5  1  0
  1 15  4  0
  1 22  4  0
  2 20  1  0
  2 24  1  0
  3  6  4  0
  3 27  4  0
  4 22  4  0
  4 26  4  0
  6  7  4  0
  6 13  1  0
  7 19  4  0
  8 18  1  0
  8 23  1  0
  8 28  2  0
  9 17  1  0
  9 24  1  0
 10 11  1  0
 10 24  1  0
 11 23  1  0
 12 14  4  0
 12 16  4  0
 14 19  4  0
 15 18  4  0
 16 20  4  0
 17 25  1  0
 18 26  4  0
 19 29  4  0
 20 29  4  0
 21 23  1  0
 21 25  1  0
 27 29  4  0
M  END
$$$$

 Created by Python create_sdf_string function

 29 32  0  0  0  0  0  0  0  0999 V2000
    5.4450    8.7154   22.6662 C   0  0  0  0  0  0  0  0  0  0  0  0
   10.9154    5.4574   20.5483 C   0  0  0  0  0  0  0  0  0  0  0  0
    7.2709    4.5089   22.7542 C   0  0  0  0  0  0  0  0  0  0  0  0
    5.9698    7.6329   24.6581 C   0  0  0  0  0  0  0  0  0  0  0  0
    4.5542    8.9057   21.7104 O   0  0  0  0  0  0  0  0  0  0  0  0
    6.9895    3.2085   23.0690 C   0  0  0  0  0  0  0  0  0  0  0  0
    7.8391    2.2253   22.7260 N   0  0  0  0  0  0  0  0  0  0  0  0
    8.6968    9.8373   23.6359 C   0  0  0  0  0  0  0  0  0  0  0  0
   12.5135    6.5957   21.8396 C   0  0  0  0  0  0  0  0  0  0  0  0
   10.9406    8.2330   21.1350 C   0  0  0  0  0  0  0  0  0  0  0  0
    9.6648    8.5956   21.7310 C   0  0  0  0  0  0  0  0  0  0  0  0
   10.8829    1.7153   20.9865 C   0  0  0  0  0  0  0  0  0  0  0  0
    5.7768    2.8533   23.7910 C   0  0  0  0  0  0  0  0  0  0  0  0
    9.7977    1.4791   21.6912 N   0  0  0  0  0  0  0  0  0  0  0  0
    6.5976    9.3401   22.6478 N   0  0  0  0  0  0  0  0  0  0  0  0
   11.2031    3.0042   20.6246 C   0  0  0  0  0  0  0  0  0  0  0  0
   12.8688    7.7370   22.7287 C   0  0  0  0  0  0  0  0  0  0  0  0
    7.4487    9.1361   23.6506 C   0  0  0  0  0  0  0  0  0  0  0  0
    8.9772    2.5025   22.0273 C   0  0  0  0  0  0  0  0  0  0  0  0
   10.4859    4.0901   20.9730 C   0  0  0  0  0  0  0  0  0  0  0  0
   11.0962    9.3293   23.5072 C   0  0  0  0  0  0  0  0  0  0  0  0
    5.1273    7.8529   23.6208 N   0  0  0  0  0  0  0  0  0  0  0  0
    9.7552    9.2338   23.0171 N   0  0  0  0  0  0  0  0  0  0  0  0
   11.1797    6.7591   21.3326 N   0  0  0  0  0  0  0  0  0  0  0  0
   11.7728    8.0337   23.7267 C   0  0  0  0  0  0  0  0  0  0  0  0
    7.1194    8.3344   24.6775 C   0  0  0  0  0  0  0  0  0  0  0  0
    8.4311    4.7963   22.0500 C   0  0  0  0  0  0  0  0  0  0  0  0
    8.7393   10.8706   24.1871 O   0  0  0  0  0  0  0  0  0  0  0  0
    9.3093    3.8166   21.6712 C   0  0  0  0  0  0  0  0  0  0  0  0
  1  5  1  0
  1 15  4  0
  1 22  4  0
  2 20  1  0
  2 24  1  0
  3  6  4  0
  3 27  4  0
  4 22  4  0
  4 26  4  0
  6  7  4  0
  6 13  1  0
  7 19  4  0
  8 18  1  0
  8 23  1  0
  8 28  2  0
  9 17  1  0
  9 24  1  0
 10 11  1  0
 10 24  1  0
 11 23  1  0
 12 14  4  0
 12 16  4  0
 14 19  4  0
 15 18  4  0
 16 20  4  0
 17 25  1  0
 18 26  4  0
 19 29  4  0
 20 29  4  0
 21 23  1  0
 21 25  1  0
 27 29  4  0
M  END
$$$$

 Created by Python create_sdf_string function

 29 32  0  0  0  0  0  0  0  0999 V2000
    5.4450    8.7154   22.6662 C   0  0  0  0  0  0  0  0  0  0  0  0
   10.9154    5.4574   20.5483 C   0  0  0  0  0  0  0  0  0  0  0  0
    7.2709    4.5089   22.7542 C   0  0  0  0  0  0  0  0  0  0  0  0
    5.9698    7.6329   24.6581 C   0  0  0  0  0  0  0  0  0  0  0  0
    4.5542    8.9057   21.7104 O   0  0  0  0  0  0  0  0  0  0  0  0
    6.9895    3.2085   23.0690 C   0  0  0  0  0  0  0  0  0  0  0  0
    7.8391    2.2253   22.7260 N   0  0  0  0  0  0  0  0  0  0  0  0
    8.6968    9.8373   23.6359 C   0  0  0  0  0  0  0  0  0  0  0  0
   12.5135    6.5957   21.8396 C   0  0  0  0  0  0  0  0  0  0  0  0
   10.9406    8.2330   21.1350 C   0  0  0  0  0  0  0  0  0  0  0  0
    9.6648    8.5956   21.7310 C   0  0  0  0  0  0  0  0  0  0  0  0
   10.8829    1.7153   20.9865 C   0  0  0  0  0  0  0  0  0  0  0  0
    5.7768    2.8533   23.7910 C   0  0  0  0  0  0  0  0  0  0  0  0
    9.7977    1.4791   21.6912 N   0  0  0  0  0  0  0  0  0  0  0  0
    6.5976    9.3401   22.6478 N   0  0  0  0  0  0  0  0  0  0  0  0
   11.2031    3.0042   20.6246 C   0  0  0  0  0  0  0  0  0  0  0  0
   12.8688    7.7370   22.7287 C   0  0  0  0  0  0  0  0  0  0  0  0
    7.4487    9.1361   23.6506 C   0  0  0  0  0  0  0  0  0  0  0  0
    8.9772    2.5025   22.0273 C   0  0  0  0  0  0  0  0  0  0  0  0
   10.4859    4.0901   20.9730 C   0  0  0  0  0  0  0  0  0  0  0  0
   11.0962    9.3293   23.5072 C   0  0  0  0  0  0  0  0  0  0  0  0
    5.1273    7.8529   23.6208 N   0  0  0  0  0  0  0  0  0  0  0  0
    9.7552    9.2338   23.0171 N   0  0  0  0  0  0  0  0  0  0  0  0
   11.1797    6.7591   21.3326 N   0  0  0  0  0  0  0  0  0  0  0  0
   11.7728    8.0337   23.7267 C   0  0  0  0  0  0  0  0  0  0  0  0
    7.1194    8.3344   24.6775 C   0  0  0  0  0  0  0  0  0  0  0  0
    8.4311    4.7963   22.0500 C   0  0  0  0  0  0  0  0  0  0  0  0
    8.7393   10.8706   24.1871 O   0  0  0  0  0  0  0  0  0  0  0  0
    9.3093    3.8166   21.6712 C   0  0  0  0  0  0  0  0  0  0  0  0
  1  5  1  0
  1 15  4  0
  1 22  4  0
  2 20  1  0
  2 24  1  0
  3  6  4  0
  3 27  4  0
  4 22  4  0
  4 26  4  0
  6  7  4  0
  6 13  1  0
  7 19  4  0
  8 18  1  0
  8 23  1  0
  8 28  2  0
  9 17  1  0
  9 24  1  0
 10 11  1  0
 10 24  1  0
 11 23  1  0
 12 14  4  0
 12 16  4  0
 14 19  4  0
 15 18  4  0
 16 20  4  0
 17 25  1  0
 18 26  4  0
 19 29  4  0
 20 29  4  0
 21 23  1  0
 21 25  1  0
 27 29  4  0
M  END
$$$$

 Created by Python create_sdf_string function

 29 32  0  0  0  0  0  0  0  0999 V2000
    5.4450    8.7154   22.6662 C   0  0  0  0  0  0  0  0  0  0  0  0
   10.9154    5.4574   20.5483 C   0  0  0  0  0  0  0  0  0  0  0  0
    7.2709    4.5089   22.7542 C   0  0  0  0  0  0  0  0  0  0  0  0
    5.9698    7.6329   24.6581 C   0  0  0  0  0  0  0  0  0  0  0  0
    4.5542    8.9057   21.7104 O   0  0  0  0  0  0  0  0  0  0  0  0
    6.9895    3.2085   23.0690 C   0  0  0  0  0  0  0  0  0  0  0  0
    7.8391    2.2253   22.7260 N   0  0  0  0  0  0  0  0  0  0  0  0
    8.6968    9.8373   23.6359 C   0  0  0  0  0  0  0  0  0  0  0  0
   12.5135    6.5957   21.8396 C   0  0  0  0  0  0  0  0  0  0  0  0
   10.9406    8.2330   21.1350 C   0  0  0  0  0  0  0  0  0  0  0  0
    9.6648    8.5956   21.7310 C   0  0  0  0  0  0  0  0  0  0  0  0
   10.8829    1.7153   20.9865 C   0  0  0  0  0  0  0  0  0  0  0  0
    5.7768    2.8533   23.7910 C   0  0  0  0  0  0  0  0  0  0  0  0
    9.7977    1.4791   21.6912 N   0  0  0  0  0  0  0  0  0  0  0  0
    6.5976    9.3401   22.6478 N   0  0  0  0  0  0  0  0  0  0  0  0
   11.2031    3.0042   20.6246 C   0  0  0  0  0  0  0  0  0  0  0  0
   12.8688    7.7370   22.7287 C   0  0  0  0  0  0  0  0  0  0  0  0
    7.4487    9.1361   23.6506 C   0  0  0  0  0  0  0  0  0  0  0  0
    8.9772    2.5025   22.0273 C   0  0  0  0  0  0  0  0  0  0  0  0
   10.4859    4.0901   20.9730 C   0  0  0  0  0  0  0  0  0  0  0  0
   11.0962    9.3293   23.5072 C   0  0  0  0  0  0  0  0  0  0  0  0
    5.1273    7.8529   23.6208 N   0  0  0  0  0  0  0  0  0  0  0  0
    9.7552    9.2338   23.0171 N   0  0  0  0  0  0  0  0  0  0  0  0
   11.1797    6.7591   21.3326 N   0  0  0  0  0  0  0  0  0  0  0  0
   11.7728    8.0337   23.7267 C   0  0  0  0  0  0  0  0  0  0  0  0
    7.1194    8.3344   24.6775 C   0  0  0  0  0  0  0  0  0  0  0  0
    8.4311    4.7963   22.0500 C   0  0  0  0  0  0  0  0  0  0  0  0
    8.7393   10.8706   24.1871 O   0  0  0  0  0  0  0  0  0  0  0  0
    9.3093    3.8166   21.6712 C   0  0  0  0  0  0  0  0  0  0  0  0
  1  5  1  0
  1 15  4  0
  1 22  4  0
  2 20  1  0
  2 24  1  0
  3  6  4  0
  3 27  4  0
  4 22  4  0
  4 26  4  0
  6  7  4  0
  6 13  1  0
  7 19  4  0
  8 18  1  0
  8 23  1  0
  8 28  2  0
  9 17  1  0
  9 24  1  0
 10 11  1  0
 10 24  1  0
 11 23  1  0
 12 14  4  0
 12 16  4  0
 14 19  4  0
 15 18  4  0
 16 20  4  0
 17 25  1  0
 18 26  4  0
 19 29  4  0
 20 29  4  0
 21 23  1  0
 21 25  1  0
 27 29  4  0
M  END
$$$$

 Created by Python create_sdf_string function

 29 32  0  0  0  0  0  0  0  0999 V2000
    5.4450    8.7154   22.6662 C   0  0  0  0  0  0  0  0  0  0  0  0
   10.9154    5.4574   20.5483 C   0  0  0  0  0  0  0  0  0  0  0  0
    7.2709    4.5089   22.7542 C   0  0  0  0  0  0  0  0  0  0  0  0
    5.9698    7.6329   24.6581 C   0  0  0  0  0  0  0  0  0  0  0  0
    4.5542    8.9057   21.7104 O   0  0  0  0  0  0  0  0  0  0  0  0
    6.9895    3.2085   23.0690 C   0  0  0  0  0  0  0  0  0  0  0  0
    7.8391    2.2253   22.7260 N   0  0  0  0  0  0  0  0  0  0  0  0
    8.6968    9.8373   23.6359 C   0  0  0  0  0  0  0  0  0  0  0  0
   12.5135    6.5957   21.8396 C   0  0  0  0  0  0  0  0  0  0  0  0
   10.9406    8.2330   21.1350 C   0  0  0  0  0  0  0  0  0  0  0  0
    9.6648    8.5956   21.7310 C   0  0  0  0  0  0  0  0  0  0  0  0
   10.8829    1.7153   20.9865 C   0  0  0  0  0  0  0  0  0  0  0  0
    5.7768    2.8533   23.7910 C   0  0  0  0  0  0  0  0  0  0  0  0
    9.7977    1.4791   21.6912 N   0  0  0  0  0  0  0  0  0  0  0  0
    6.5976    9.3401   22.6478 N   0  0  0  0  0  0  0  0  0  0  0  0
   11.2031    3.0042   20.6246 C   0  0  0  0  0  0  0  0  0  0  0  0
   12.8688    7.7370   22.7287 C   0  0  0  0  0  0  0  0  0  0  0  0
    7.4487    9.1361   23.6506 C   0  0  0  0  0  0  0  0  0  0  0  0
    8.9772    2.5025   22.0273 C   0  0  0  0  0  0  0  0  0  0  0  0
   10.4859    4.0901   20.9730 C   0  0  0  0  0  0  0  0  0  0  0  0
   11.0962    9.3293   23.5072 C   0  0  0  0  0  0  0  0  0  0  0  0
    5.1273    7.8529   23.6208 N   0  0  0  0  0  0  0  0  0  0  0  0
    9.7552    9.2338   23.0171 N   0  0  0  0  0  0  0  0  0  0  0  0
   11.1797    6.7591   21.3326 N   0  0  0  0  0  0  0  0  0  0  0  0
   11.7728    8.0337   23.7267 C   0  0  0  0  0  0  0  0  0  0  0  0
    7.1194    8.3344   24.6775 C   0  0  0  0  0  0  0  0  0  0  0  0
    8.4311    4.7963   22.0500 C   0  0  0  0  0  0  0  0  0  0  0  0
    8.7393   10.8706   24.1871 O   0  0  0  0  0  0  0  0  0  0  0  0
    9.3093    3.8166   21.6712 C   0  0  0  0  0  0  0  0  0  0  0  0
  1  5  1  0
  1 15  4  0
  1 22  4  0
  2 20  1  0
  2 24  1  0
  3  6  4  0
  3 27  4  0
  4 22  4  0
  4 26  4  0
  6  7  4  0
  6 13  1  0
  7 19  4  0
  8 18  1  0
  8 23  1  0
  8 28  2  0
  9 17  1  0
  9 24  1  0
 10 11  1  0
 10 24  1  0
 11 23  1  0
 12 14  4  0
 12 16  4  0
 14 19  4  0
 15 18  4  0
 16 20  4  0
 17 25  1  0
 18 26  4  0
 19 29  4  0
 20 29  4  0
 21 23  1  0
 21 25  1  0
 27 29  4  0
M  END
$$$$

 Created by Python create_sdf_string function

 29 32  0  0  0  0  0  0  0  0999 V2000
    5.4450    8.7154   22.6662 C   0  0  0  0  0  0  0  0  0  0  0  0
   10.9154    5.4574   20.5483 C   0  0  0  0  0  0  0  0  0  0  0  0
    7.2709    4.5089   22.7542 C   0  0  0  0  0  0  0  0  0  0  0  0
    5.9698    7.6329   24.6581 C   0  0  0  0  0  0  0  0  0  0  0  0
    4.5542    8.9057   21.7104 O   0  0  0  0  0  0  0  0  0  0  0  0
    6.9895    3.2085   23.0690 C   0  0  0  0  0  0  0  0  0  0  0  0
    7.8391    2.2253   22.7260 N   0  0  0  0  0  0  0  0  0  0  0  0
    8.6968    9.8373   23.6359 C   0  0  0  0  0  0  0  0  0  0  0  0
   12.5135    6.5957   21.8396 C   0  0  0  0  0  0  0  0  0  0  0  0
   10.9406    8.2330   21.1350 C   0  0  0  0  0  0  0  0  0  0  0  0
    9.6648    8.5956   21.7310 C   0  0  0  0  0  0  0  0  0  0  0  0
   10.8829    1.7153   20.9865 C   0  0  0  0  0  0  0  0  0  0  0  0
    5.7768    2.8533   23.7910 C   0  0  0  0  0  0  0  0  0  0  0  0
    9.7977    1.4791   21.6912 N   0  0  0  0  0  0  0  0  0  0  0  0
    6.5976    9.3401   22.6478 N   0  0  0  0  0  0  0  0  0  0  0  0
   11.2031    3.0042   20.6246 C   0  0  0  0  0  0  0  0  0  0  0  0
   12.8688    7.7370   22.7287 C   0  0  0  0  0  0  0  0  0  0  0  0
    7.4487    9.1361   23.6506 C   0  0  0  0  0  0  0  0  0  0  0  0
    8.9772    2.5025   22.0273 C   0  0  0  0  0  0  0  0  0  0  0  0
   10.4859    4.0901   20.9730 C   0  0  0  0  0  0  0  0  0  0  0  0
   11.0962    9.3293   23.5072 C   0  0  0  0  0  0  0  0  0  0  0  0
    5.1273    7.8529   23.6208 N   0  0  0  0  0  0  0  0  0  0  0  0
    9.7552    9.2338   23.0171 N   0  0  0  0  0  0  0  0  0  0  0  0
   11.1797    6.7591   21.3326 N   0  0  0  0  0  0  0  0  0  0  0  0
   11.7728    8.0337   23.7267 C   0  0  0  0  0  0  0  0  0  0  0  0
    7.1194    8.3344   24.6775 C   0  0  0  0  0  0  0  0  0  0  0  0
    8.4311    4.7963   22.0500 C   0  0  0  0  0  0  0  0  0  0  0  0
    8.7393   10.8706   24.1871 O   0  0  0  0  0  0  0  0  0  0  0  0
    9.3093    3.8166   21.6712 C   0  0  0  0  0  0  0  0  0  0  0  0
  1  5  1  0
  1 15  4  0
  1 22  4  0
  2 20  1  0
  2 24  1  0
  3  6  4  0
  3 27  4  0
  4 22  4  0
  4 26  4  0
  6  7  4  0
  6 13  1  0
  7 19  4  0
  8 18  1  0
  8 23  1  0
  8 28  2  0
  9 17  1  0
  9 24  1  0
 10 11  1  0
 10 24  1  0
 11 23  1  0
 12 14  4  0
 12 16  4  0
 14 19  4  0
 15 18  4  0
 16 20  4  0
 17 25  1  0
 18 26  4  0
 19 29  4  0
 20 29  4  0
 21 23  1  0
 21 25  1  0
 27 29  4  0
M  END
$$$$

 Created by Python create_sdf_string function

 29 32  0  0  0  0  0  0  0  0999 V2000
    5.4450    8.7154   22.6662 C   0  0  0  0  0  0  0  0  0  0  0  0
   10.9154    5.4574   20.5483 C   0  0  0  0  0  0  0  0  0  0  0  0
    7.2709    4.5089   22.7542 C   0  0  0  0  0  0  0  0  0  0  0  0
    5.9698    7.6329   24.6581 C   0  0  0  0  0  0  0  0  0  0  0  0
    4.5542    8.9057   21.7104 O   0  0  0  0  0  0  0  0  0  0  0  0
    6.9895    3.2085   23.0690 C   0  0  0  0  0  0  0  0  0  0  0  0
    7.8391    2.2253   22.7260 N   0  0  0  0  0  0  0  0  0  0  0  0
    8.6968    9.8373   23.6359 C   0  0  0  0  0  0  0  0  0  0  0  0
   12.5135    6.5957   21.8396 C   0  0  0  0  0  0  0  0  0  0  0  0
   10.9406    8.2330   21.1350 C   0  0  0  0  0  0  0  0  0  0  0  0
    9.6648    8.5956   21.7310 C   0  0  0  0  0  0  0  0  0  0  0  0
   10.8829    1.7153   20.9865 C   0  0  0  0  0  0  0  0  0  0  0  0
    5.7768    2.8533   23.7910 C   0  0  0  0  0  0  0  0  0  0  0  0
    9.7977    1.4791   21.6912 N   0  0  0  0  0  0  0  0  0  0  0  0
    6.5976    9.3401   22.6478 N   0  0  0  0  0  0  0  0  0  0  0  0
   11.2031    3.0042   20.6246 C   0  0  0  0  0  0  0  0  0  0  0  0
   12.8688    7.7370   22.7287 C   0  0  0  0  0  0  0  0  0  0  0  0
    7.4487    9.1361   23.6506 C   0  0  0  0  0  0  0  0  0  0  0  0
    8.9772    2.5025   22.0273 C   0  0  0  0  0  0  0  0  0  0  0  0
   10.4859    4.0901   20.9730 C   0  0  0  0  0  0  0  0  0  0  0  0
   11.0962    9.3293   23.5072 C   0  0  0  0  0  0  0  0  0  0  0  0
    5.1273    7.8529   23.6208 N   0  0  0  0  0  0  0  0  0  0  0  0
    9.7552    9.2338   23.0171 N   0  0  0  0  0  0  0  0  0  0  0  0
   11.1797    6.7591   21.3326 N   0  0  0  0  0  0  0  0  0  0  0  0
   11.7728    8.0337   23.7267 C   0  0  0  0  0  0  0  0  0  0  0  0
    7.1194    8.3344   24.6775 C   0  0  0  0  0  0  0  0  0  0  0  0
    8.4311    4.7963   22.0500 C   0  0  0  0  0  0  0  0  0  0  0  0
    8.7393   10.8706   24.1871 O   0  0  0  0  0  0  0  0  0  0  0  0
    9.3093    3.8166   21.6712 C   0  0  0  0  0  0  0  0  0  0  0  0
  1  5  1  0
  1 15  4  0
  1 22  4  0
  2 20  1  0
  2 24  1  0
  3  6  4  0
  3 27  4  0
  4 22  4  0
  4 26  4  0
  6  7  4  0
  6 13  1  0
  7 19  4  0
  8 18  1  0
  8 23  1  0
  8 28  2  0
  9 17  1  0
  9 24  1  0
 10 11  1  0
 10 24  1  0
 11 23  1  0
 12 14  4  0
 12 16  4  0
 14 19  4  0
 15 18  4  0
 16 20  4  0
 17 25  1  0
 18 26  4  0
 19 29  4  0
 20 29  4  0
 21 23  1  0
 21 25  1  0
 27 29  4  0
M  END
$$$$

 Created by Python create_sdf_string function

 29 32  0  0  0  0  0  0  0  0999 V2000
    5.4450    8.7154   22.6662 C   0  0  0  0  0  0  0  0  0  0  0  0
   10.9154    5.4574   20.5483 C   0  0  0  0  0  0  0  0  0  0  0  0
    7.2709    4.5089   22.7542 C   0  0  0  0  0  0  0  0  0  0  0  0
    5.9698    7.6329   24.6581 C   0  0  0  0  0  0  0  0  0  0  0  0
    4.5542    8.9057   21.7104 O   0  0  0  0  0  0  0  0  0  0  0  0
    6.9895    3.2085   23.0690 C   0  0  0  0  0  0  0  0  0  0  0  0
    7.8391    2.2253   22.7260 N   0  0  0  0  0  0  0  0  0  0  0  0
    8.6968    9.8373   23.6359 C   0  0  0  0  0  0  0  0  0  0  0  0
   12.5135    6.5957   21.8396 C   0  0  0  0  0  0  0  0  0  0  0  0
   10.9406    8.2330   21.1350 C   0  0  0  0  0  0  0  0  0  0  0  0
    9.6648    8.5956   21.7310 C   0  0  0  0  0  0  0  0  0  0  0  0
   10.8829    1.7153   20.9865 C   0  0  0  0  0  0  0  0  0  0  0  0
    5.7768    2.8533   23.7910 C   0  0  0  0  0  0  0  0  0  0  0  0
    9.7977    1.4791   21.6912 N   0  0  0  0  0  0  0  0  0  0  0  0
    6.5976    9.3401   22.6478 N   0  0  0  0  0  0  0  0  0  0  0  0
   11.2031    3.0042   20.6246 C   0  0  0  0  0  0  0  0  0  0  0  0
   12.8688    7.7370   22.7287 C   0  0  0  0  0  0  0  0  0  0  0  0
    7.4487    9.1361   23.6506 C   0  0  0  0  0  0  0  0  0  0  0  0
    8.9772    2.5025   22.0273 C   0  0  0  0  0  0  0  0  0  0  0  0
   10.4859    4.0901   20.9730 C   0  0  0  0  0  0  0  0  0  0  0  0
   11.0962    9.3293   23.5072 C   0  0  0  0  0  0  0  0  0  0  0  0
    5.1273    7.8529   23.6208 N   0  0  0  0  0  0  0  0  0  0  0  0
    9.7552    9.2338   23.0171 N   0  0  0  0  0  0  0  0  0  0  0  0
   11.1797    6.7591   21.3326 N   0  0  0  0  0  0  0  0  0  0  0  0
   11.7728    8.0337   23.7267 C   0  0  0  0  0  0  0  0  0  0  0  0
    7.1194    8.3344   24.6775 C   0  0  0  0  0  0  0  0  0  0  0  0
    8.4311    4.7963   22.0500 C   0  0  0  0  0  0  0  0  0  0  0  0
    8.7393   10.8706   24.1871 O   0  0  0  0  0  0  0  0  0  0  0  0
    9.3093    3.8166   21.6712 C   0  0  0  0  0  0  0  0  0  0  0  0
  1  5  1  0
  1 15  4  0
  1 22  4  0
  2 20  1  0
  2 24  1  0
  3  6  4  0
  3 27  4  0
  4 22  4  0
  4 26  4  0
  6  7  4  0
  6 13  1  0
  7 19  4  0
  8 18  1  0
  8 23  1  0
  8 28  2  0
  9 17  1  0
  9 24  1  0
 10 11  1  0
 10 24  1  0
 11 23  1  0
 12 14  4  0
 12 16  4  0
 14 19  4  0
 15 18  4  0
 16 20  4  0
 17 25  1  0
 18 26  4  0
 19 29  4  0
 20 29  4  0
 21 23  1  0
 21 25  1  0
 27 29  4  0
M  END
$$$$

 Created by Python create_sdf_string function

 29 32  0  0  0  0  0  0  0  0999 V2000
    5.4450    8.7154   22.6662 C   0  0  0  0  0  0  0  0  0  0  0  0
   10.9154    5.4574   20.5483 C   0  0  0  0  0  0  0  0  0  0  0  0
    7.2709    4.5089   22.7542 C   0  0  0  0  0  0  0  0  0  0  0  0
    5.9698    7.6329   24.6581 C   0  0  0  0  0  0  0  0  0  0  0  0
    4.5542    8.9057   21.7104 O   0  0  0  0  0  0  0  0  0  0  0  0
    6.9895    3.2085   23.0690 C   0  0  0  0  0  0  0  0  0  0  0  0
    7.8391    2.2253   22.7260 N   0  0  0  0  0  0  0  0  0  0  0  0
    8.6968    9.8373   23.6359 C   0  0  0  0  0  0  0  0  0  0  0  0
   12.5135    6.5957   21.8396 C   0  0  0  0  0  0  0  0  0  0  0  0
   10.9406    8.2330   21.1350 C   0  0  0  0  0  0  0  0  0  0  0  0
    9.6648    8.5956   21.7310 C   0  0  0  0  0  0  0  0  0  0  0  0
   10.8829    1.7153   20.9865 C   0  0  0  0  0  0  0  0  0  0  0  0
    5.7768    2.8533   23.7910 C   0  0  0  0  0  0  0  0  0  0  0  0
    9.7977    1.4791   21.6912 N   0  0  0  0  0  0  0  0  0  0  0  0
    6.5976    9.3401   22.6478 N   0  0  0  0  0  0  0  0  0  0  0  0
   11.2031    3.0042   20.6246 C   0  0  0  0  0  0  0  0  0  0  0  0
   12.8688    7.7370   22.7287 C   0  0  0  0  0  0  0  0  0  0  0  0
    7.4487    9.1361   23.6506 C   0  0  0  0  0  0  0  0  0  0  0  0
    8.9772    2.5025   22.0273 C   0  0  0  0  0  0  0  0  0  0  0  0
   10.4859    4.0901   20.9730 C   0  0  0  0  0  0  0  0  0  0  0  0
   11.0962    9.3293   23.5072 C   0  0  0  0  0  0  0  0  0  0  0  0
    5.1273    7.8529   23.6208 N   0  0  0  0  0  0  0  0  0  0  0  0
    9.7552    9.2338   23.0171 N   0  0  0  0  0  0  0  0  0  0  0  0
   11.1797    6.7591   21.3326 N   0  0  0  0  0  0  0  0  0  0  0  0
   11.7728    8.0337   23.7267 C   0  0  0  0  0  0  0  0  0  0  0  0
    7.1194    8.3344   24.6775 C   0  0  0  0  0  0  0  0  0  0  0  0
    8.4311    4.7963   22.0500 C   0  0  0  0  0  0  0  0  0  0  0  0
    8.7393   10.8706   24.1871 O   0  0  0  0  0  0  0  0  0  0  0  0
    9.3093    3.8166   21.6712 C   0  0  0  0  0  0  0  0  0  0  0  0
  1  5  1  0
  1 15  4  0
  1 22  4  0
  2 20  1  0
  2 24  1  0
  3  6  4  0
  3 27  4  0
  4 22  4  0
  4 26  4  0
  6  7  4  0
  6 13  1  0
  7 19  4  0
  8 18  1  0
  8 23  1  0
  8 28  2  0
  9 17  1  0
  9 24  1  0
 10 11  1  0
 10 24  1  0
 11 23  1  0
 12 14  4  0
 12 16  4  0
 14 19  4  0
 15 18  4  0
 16 20  4  0
 17 25  1  0
 18 26  4  0
 19 29  4  0
 20 29  4  0
 21 23  1  0
 21 25  1  0
 27 29  4  0
M  END
$$$$

 Created by Python create_sdf_string function

 29 32  0  0  0  0  0  0  0  0999 V2000
    5.4450    8.7154   22.6662 C   0  0  0  0  0  0  0  0  0  0  0  0
   10.9154    5.4574   20.5483 C   0  0  0  0  0  0  0  0  0  0  0  0
    7.2709    4.5089   22.7542 C   0  0  0  0  0  0  0  0  0  0  0  0
    5.9698    7.6329   24.6581 C   0  0  0  0  0  0  0  0  0  0  0  0
    4.5542    8.9057   21.7104 O   0  0  0  0  0  0  0  0  0  0  0  0
    6.9895    3.2085   23.0690 C   0  0  0  0  0  0  0  0  0  0  0  0
    7.8391    2.2253   22.7260 N   0  0  0  0  0  0  0  0  0  0  0  0
    8.6968    9.8373   23.6359 C   0  0  0  0  0  0  0  0  0  0  0  0
   12.5135    6.5957   21.8396 C   0  0  0  0  0  0  0  0  0  0  0  0
   10.9406    8.2330   21.1350 C   0  0  0  0  0  0  0  0  0  0  0  0
    9.6648    8.5956   21.7310 C   0  0  0  0  0  0  0  0  0  0  0  0
   10.8829    1.7153   20.9865 C   0  0  0  0  0  0  0  0  0  0  0  0
    5.7768    2.8533   23.7910 C   0  0  0  0  0  0  0  0  0  0  0  0
    9.7977    1.4791   21.6912 N   0  0  0  0  0  0  0  0  0  0  0  0
    6.5976    9.3401   22.6478 N   0  0  0  0  0  0  0  0  0  0  0  0
   11.2031    3.0042   20.6246 C   0  0  0  0  0  0  0  0  0  0  0  0
   12.8688    7.7370   22.7287 C   0  0  0  0  0  0  0  0  0  0  0  0
    7.4487    9.1361   23.6506 C   0  0  0  0  0  0  0  0  0  0  0  0
    8.9772    2.5025   22.0273 C   0  0  0  0  0  0  0  0  0  0  0  0
   10.4859    4.0901   20.9730 C   0  0  0  0  0  0  0  0  0  0  0  0
   11.0962    9.3293   23.5072 C   0  0  0  0  0  0  0  0  0  0  0  0
    5.1273    7.8529   23.6208 N   0  0  0  0  0  0  0  0  0  0  0  0
    9.7552    9.2338   23.0171 N   0  0  0  0  0  0  0  0  0  0  0  0
   11.1797    6.7591   21.3326 N   0  0  0  0  0  0  0  0  0  0  0  0
   11.7728    8.0337   23.7267 C   0  0  0  0  0  0  0  0  0  0  0  0
    7.1194    8.3344   24.6775 C   0  0  0  0  0  0  0  0  0  0  0  0
    8.4311    4.7963   22.0500 C   0  0  0  0  0  0  0  0  0  0  0  0
    8.7393   10.8706   24.1871 O   0  0  0  0  0  0  0  0  0  0  0  0
    9.3093    3.8166   21.6712 C   0  0  0  0  0  0  0  0  0  0  0  0
  1  5  1  0
  1 15  4  0
  1 22  4  0
  2 20  1  0
  2 24  1  0
  3  6  4  0
  3 27  4  0
  4 22  4  0
  4 26  4  0
  6  7  4  0
  6 13  1  0
  7 19  4  0
  8 18  1  0
  8 23  1  0
  8 28  2  0
  9 17  1  0
  9 24  1  0
 10 11  1  0
 10 24  1  0
 11 23  1  0
 12 14  4  0
 12 16  4  0
 14 19  4  0
 15 18  4  0
 16 20  4  0
 17 25  1  0
 18 26  4  0
 19 29  4  0
 20 29  4  0
 21 23  1  0
 21 25  1  0
 27 29  4  0
M  END
$$$$

 Created by Python create_sdf_string function

 29 32  0  0  0  0  0  0  0  0999 V2000
    5.4450    8.7154   22.6662 C   0  0  0  0  0  0  0  0  0  0  0  0
   10.9154    5.4574   20.5483 C   0  0  0  0  0  0  0  0  0  0  0  0
    7.2709    4.5089   22.7542 C   0  0  0  0  0  0  0  0  0  0  0  0
    5.9698    7.6329   24.6581 C   0  0  0  0  0  0  0  0  0  0  0  0
    4.5542    8.9057   21.7104 O   0  0  0  0  0  0  0  0  0  0  0  0
    6.9895    3.2085   23.0690 C   0  0  0  0  0  0  0  0  0  0  0  0
    7.8391    2.2253   22.7260 N   0  0  0  0  0  0  0  0  0  0  0  0
    8.6968    9.8373   23.6359 C   0  0  0  0  0  0  0  0  0  0  0  0
   12.5135    6.5957   21.8396 C   0  0  0  0  0  0  0  0  0  0  0  0
   10.9406    8.2330   21.1350 C   0  0  0  0  0  0  0  0  0  0  0  0
    9.6648    8.5956   21.7310 C   0  0  0  0  0  0  0  0  0  0  0  0
   10.8829    1.7153   20.9865 C   0  0  0  0  0  0  0  0  0  0  0  0
    5.7768    2.8533   23.7910 C   0  0  0  0  0  0  0  0  0  0  0  0
    9.7977    1.4791   21.6912 N   0  0  0  0  0  0  0  0  0  0  0  0
    6.5976    9.3401   22.6478 N   0  0  0  0  0  0  0  0  0  0  0  0
   11.2031    3.0042   20.6246 C   0  0  0  0  0  0  0  0  0  0  0  0
   12.8688    7.7370   22.7287 C   0  0  0  0  0  0  0  0  0  0  0  0
    7.4487    9.1361   23.6506 C   0  0  0  0  0  0  0  0  0  0  0  0
    8.9772    2.5025   22.0273 C   0  0  0  0  0  0  0  0  0  0  0  0
   10.4859    4.0901   20.9730 C   0  0  0  0  0  0  0  0  0  0  0  0
   11.0962    9.3293   23.5072 C   0  0  0  0  0  0  0  0  0  0  0  0
    5.1273    7.8529   23.6208 N   0  0  0  0  0  0  0  0  0  0  0  0
    9.7552    9.2338   23.0171 N   0  0  0  0  0  0  0  0  0  0  0  0
   11.1797    6.7591   21.3326 N   0  0  0  0  0  0  0  0  0  0  0  0
   11.7728    8.0337   23.7267 C   0  0  0  0  0  0  0  0  0  0  0  0
    7.1194    8.3344   24.6775 C   0  0  0  0  0  0  0  0  0  0  0  0
    8.4311    4.7963   22.0500 C   0  0  0  0  0  0  0  0  0  0  0  0
    8.7393   10.8706   24.1871 O   0  0  0  0  0  0  0  0  0  0  0  0
    9.3093    3.8166   21.6712 C   0  0  0  0  0  0  0  0  0  0  0  0
  1  5  1  0
  1 15  4  0
  1 22  4  0
  2 20  1  0
  2 24  1  0
  3  6  4  0
  3 27  4  0
  4 22  4  0
  4 26  4  0
  6  7  4  0
  6 13  1  0
  7 19  4  0
  8 18  1  0
  8 23  1  0
  8 28  2  0
  9 17  1  0
  9 24  1  0
 10 11  1  0
 10 24  1  0
 11 23  1  0
 12 14  4  0
 12 16  4  0
 14 19  4  0
 15 18  4  0
 16 20  4  0
 17 25  1  0
 18 26  4  0
 19 29  4  0
 20 29  4  0
 21 23  1  0
 21 25  1  0
 27 29  4  0
M  END
$$$$

 Created by Python create_sdf_string function

 29 32  0  0  0  0  0  0  0  0999 V2000
    5.4450    8.7154   22.6662 C   0  0  0  0  0  0  0  0  0  0  0  0
   10.9154    5.4574   20.5483 C   0  0  0  0  0  0  0  0  0  0  0  0
    7.2709    4.5089   22.7542 C   0  0  0  0  0  0  0  0  0  0  0  0
    5.9698    7.6329   24.6581 C   0  0  0  0  0  0  0  0  0  0  0  0
    4.5542    8.9057   21.7104 O   0  0  0  0  0  0  0  0  0  0  0  0
    6.9895    3.2085   23.0690 C   0  0  0  0  0  0  0  0  0  0  0  0
    7.8391    2.2253   22.7260 N   0  0  0  0  0  0  0  0  0  0  0  0
    8.6968    9.8373   23.6359 C   0  0  0  0  0  0  0  0  0  0  0  0
   12.5135    6.5957   21.8396 C   0  0  0  0  0  0  0  0  0  0  0  0
   10.9406    8.2330   21.1350 C   0  0  0  0  0  0  0  0  0  0  0  0
    9.6648    8.5956   21.7310 C   0  0  0  0  0  0  0  0  0  0  0  0
   10.8829    1.7153   20.9865 C   0  0  0  0  0  0  0  0  0  0  0  0
    5.7768    2.8533   23.7910 C   0  0  0  0  0  0  0  0  0  0  0  0
    9.7977    1.4791   21.6912 N   0  0  0  0  0  0  0  0  0  0  0  0
    6.5976    9.3401   22.6478 N   0  0  0  0  0  0  0  0  0  0  0  0
   11.2031    3.0042   20.6246 C   0  0  0  0  0  0  0  0  0  0  0  0
   12.8688    7.7370   22.7287 C   0  0  0  0  0  0  0  0  0  0  0  0
    7.4487    9.1361   23.6506 C   0  0  0  0  0  0  0  0  0  0  0  0
    8.9772    2.5025   22.0273 C   0  0  0  0  0  0  0  0  0  0  0  0
   10.4859    4.0901   20.9730 C   0  0  0  0  0  0  0  0  0  0  0  0
   11.0962    9.3293   23.5072 C   0  0  0  0  0  0  0  0  0  0  0  0
    5.1273    7.8529   23.6208 N   0  0  0  0  0  0  0  0  0  0  0  0
    9.7552    9.2338   23.0171 N   0  0  0  0  0  0  0  0  0  0  0  0
   11.1797    6.7591   21.3326 N   0  0  0  0  0  0  0  0  0  0  0  0
   11.7728    8.0337   23.7267 C   0  0  0  0  0  0  0  0  0  0  0  0
    7.1194    8.3344   24.6775 C   0  0  0  0  0  0  0  0  0  0  0  0
    8.4311    4.7963   22.0500 C   0  0  0  0  0  0  0  0  0  0  0  0
    8.7393   10.8706   24.1871 O   0  0  0  0  0  0  0  0  0  0  0  0
    9.3093    3.8166   21.6712 C   0  0  0  0  0  0  0  0  0  0  0  0
  1  5  1  0
  1 15  4  0
  1 22  4  0
  2 20  1  0
  2 24  1  0
  3  6  4  0
  3 27  4  0
  4 22  4  0
  4 26  4  0
  6  7  4  0
  6 13  1  0
  7 19  4  0
  8 18  1  0
  8 23  1  0
  8 28  2  0
  9 17  1  0
  9 24  1  0
 10 11  1  0
 10 24  1  0
 11 23  1  0
 12 14  4  0
 12 16  4  0
 14 19  4  0
 15 18  4  0
 16 20  4  0
 17 25  1  0
 18 26  4  0
 19 29  4  0
 20 29  4  0
 21 23  1  0
 21 25  1  0
 27 29  4  0
M  END
$$$$

 Created by Python create_sdf_string function

 29 32  0  0  0  0  0  0  0  0999 V2000
    5.4450    8.7154   22.6662 C   0  0  0  0  0  0  0  0  0  0  0  0
   10.9154    5.4574   20.5483 C   0  0  0  0  0  0  0  0  0  0  0  0
    7.2709    4.5089   22.7542 C   0  0  0  0  0  0  0  0  0  0  0  0
    5.9698    7.6329   24.6581 C   0  0  0  0  0  0  0  0  0  0  0  0
    4.5542    8.9057   21.7104 O   0  0  0  0  0  0  0  0  0  0  0  0
    6.9895    3.2085   23.0690 C   0  0  0  0  0  0  0  0  0  0  0  0
    7.8391    2.2253   22.7260 N   0  0  0  0  0  0  0  0  0  0  0  0
    8.6968    9.8373   23.6359 C   0  0  0  0  0  0  0  0  0  0  0  0
   12.5135    6.5957   21.8396 C   0  0  0  0  0  0  0  0  0  0  0  0
   10.9406    8.2330   21.1350 C   0  0  0  0  0  0  0  0  0  0  0  0
    9.6648    8.5956   21.7310 C   0  0  0  0  0  0  0  0  0  0  0  0
   10.8829    1.7153   20.9865 C   0  0  0  0  0  0  0  0  0  0  0  0
    5.7768    2.8533   23.7910 C   0  0  0  0  0  0  0  0  0  0  0  0
    9.7977    1.4791   21.6912 N   0  0  0  0  0  0  0  0  0  0  0  0
    6.5976    9.3401   22.6478 N   0  0  0  0  0  0  0  0  0  0  0  0
   11.2031    3.0042   20.6246 C   0  0  0  0  0  0  0  0  0  0  0  0
   12.8688    7.7370   22.7287 C   0  0  0  0  0  0  0  0  0  0  0  0
    7.4487    9.1361   23.6506 C   0  0  0  0  0  0  0  0  0  0  0  0
    8.9772    2.5025   22.0273 C   0  0  0  0  0  0  0  0  0  0  0  0
   10.4859    4.0901   20.9730 C   0  0  0  0  0  0  0  0  0  0  0  0
   11.0962    9.3293   23.5072 C   0  0  0  0  0  0  0  0  0  0  0  0
    5.1273    7.8529   23.6208 N   0  0  0  0  0  0  0  0  0  0  0  0
    9.7552    9.2338   23.0171 N   0  0  0  0  0  0  0  0  0  0  0  0
   11.1797    6.7591   21.3326 N   0  0  0  0  0  0  0  0  0  0  0  0
   11.7728    8.0337   23.7267 C   0  0  0  0  0  0  0  0  0  0  0  0
    7.1194    8.3344   24.6775 C   0  0  0  0  0  0  0  0  0  0  0  0
    8.4311    4.7963   22.0500 C   0  0  0  0  0  0  0  0  0  0  0  0
    8.7393   10.8706   24.1871 O   0  0  0  0  0  0  0  0  0  0  0  0
    9.3093    3.8166   21.6712 C   0  0  0  0  0  0  0  0  0  0  0  0
  1  5  1  0
  1 15  4  0
  1 22  4  0
  2 20  1  0
  2 24  1  0
  3  6  4  0
  3 27  4  0
  4 22  4  0
  4 26  4  0
  6  7  4  0
  6 13  1  0
  7 19  4  0
  8 18  1  0
  8 23  1  0
  8 28  2  0
  9 17  1  0
  9 24  1  0
 10 11  1  0
 10 24  1  0
 11 23  1  0
 12 14  4  0
 12 16  4  0
 14 19  4  0
 15 18  4  0
 16 20  4  0
 17 25  1  0
 18 26  4  0
 19 29  4  0
 20 29  4  0
 21 23  1  0
 21 25  1  0
 27 29  4  0
M  END
$$$$

 Created by Python create_sdf_string function

 29 32  0  0  0  0  0  0  0  0999 V2000
    5.4450    8.7154   22.6662 C   0  0  0  0  0  0  0  0  0  0  0  0
   10.9154    5.4574   20.5483 C   0  0  0  0  0  0  0  0  0  0  0  0
    7.2709    4.5089   22.7542 C   0  0  0  0  0  0  0  0  0  0  0  0
    5.9698    7.6329   24.6581 C   0  0  0  0  0  0  0  0  0  0  0  0
    4.5542    8.9057   21.7104 O   0  0  0  0  0  0  0  0  0  0  0  0
    6.9895    3.2085   23.0690 C   0  0  0  0  0  0  0  0  0  0  0  0
    7.8391    2.2253   22.7260 N   0  0  0  0  0  0  0  0  0  0  0  0
    8.6968    9.8373   23.6359 C   0  0  0  0  0  0  0  0  0  0  0  0
   12.5135    6.5957   21.8396 C   0  0  0  0  0  0  0  0  0  0  0  0
   10.9406    8.2330   21.1350 C   0  0  0  0  0  0  0  0  0  0  0  0
    9.6648    8.5956   21.7310 C   0  0  0  0  0  0  0  0  0  0  0  0
   10.8829    1.7153   20.9865 C   0  0  0  0  0  0  0  0  0  0  0  0
    5.7768    2.8533   23.7910 C   0  0  0  0  0  0  0  0  0  0  0  0
    9.7977    1.4791   21.6912 N   0  0  0  0  0  0  0  0  0  0  0  0
    6.5976    9.3401   22.6478 N   0  0  0  0  0  0  0  0  0  0  0  0
   11.2031    3.0042   20.6246 C   0  0  0  0  0  0  0  0  0  0  0  0
   12.8688    7.7370   22.7287 C   0  0  0  0  0  0  0  0  0  0  0  0
    7.4487    9.1361   23.6506 C   0  0  0  0  0  0  0  0  0  0  0  0
    8.9772    2.5025   22.0273 C   0  0  0  0  0  0  0  0  0  0  0  0
   10.4859    4.0901   20.9730 C   0  0  0  0  0  0  0  0  0  0  0  0
   11.0962    9.3293   23.5072 C   0  0  0  0  0  0  0  0  0  0  0  0
    5.1273    7.8529   23.6208 N   0  0  0  0  0  0  0  0  0  0  0  0
    9.7552    9.2338   23.0171 N   0  0  0  0  0  0  0  0  0  0  0  0
   11.1797    6.7591   21.3326 N   0  0  0  0  0  0  0  0  0  0  0  0
   11.7728    8.0337   23.7267 C   0  0  0  0  0  0  0  0  0  0  0  0
    7.1194    8.3344   24.6775 C   0  0  0  0  0  0  0  0  0  0  0  0
    8.4311    4.7963   22.0500 C   0  0  0  0  0  0  0  0  0  0  0  0
    8.7393   10.8706   24.1871 O   0  0  0  0  0  0  0  0  0  0  0  0
    9.3093    3.8166   21.6712 C   0  0  0  0  0  0  0  0  0  0  0  0
  1  5  1  0
  1 15  4  0
  1 22  4  0
  2 20  1  0
  2 24  1  0
  3  6  4  0
  3 27  4  0
  4 22  4  0
  4 26  4  0
  6  7  4  0
  6 13  1  0
  7 19  4  0
  8 18  1  0
  8 23  1  0
  8 28  2  0
  9 17  1  0
  9 24  1  0
 10 11  1  0
 10 24  1  0
 11 23  1  0
 12 14  4  0
 12 16  4  0
 14 19  4  0
 15 18  4  0
 16 20  4  0
 17 25  1  0
 18 26  4  0
 19 29  4  0
 20 29  4  0
 21 23  1  0
 21 25  1  0
 27 29  4  0
M  END
$$$$

 Created by Python create_sdf_string function

 29 32  0  0  0  0  0  0  0  0999 V2000
    5.4450    8.7154   22.6662 C   0  0  0  0  0  0  0  0  0  0  0  0
   10.9154    5.4574   20.5483 C   0  0  0  0  0  0  0  0  0  0  0  0
    7.2709    4.5089   22.7542 C   0  0  0  0  0  0  0  0  0  0  0  0
    5.9698    7.6329   24.6581 C   0  0  0  0  0  0  0  0  0  0  0  0
    4.5542    8.9057   21.7104 O   0  0  0  0  0  0  0  0  0  0  0  0
    6.9895    3.2085   23.0690 C   0  0  0  0  0  0  0  0  0  0  0  0
    7.8391    2.2253   22.7260 N   0  0  0  0  0  0  0  0  0  0  0  0
    8.6968    9.8373   23.6359 C   0  0  0  0  0  0  0  0  0  0  0  0
   12.5135    6.5957   21.8396 C   0  0  0  0  0  0  0  0  0  0  0  0
   10.9406    8.2330   21.1350 C   0  0  0  0  0  0  0  0  0  0  0  0
    9.6648    8.5956   21.7310 C   0  0  0  0  0  0  0  0  0  0  0  0
   10.8829    1.7153   20.9865 C   0  0  0  0  0  0  0  0  0  0  0  0
    5.7768    2.8533   23.7910 C   0  0  0  0  0  0  0  0  0  0  0  0
    9.7977    1.4791   21.6912 N   0  0  0  0  0  0  0  0  0  0  0  0
    6.5976    9.3401   22.6478 N   0  0  0  0  0  0  0  0  0  0  0  0
   11.2031    3.0042   20.6246 C   0  0  0  0  0  0  0  0  0  0  0  0
   12.8688    7.7370   22.7287 C   0  0  0  0  0  0  0  0  0  0  0  0
    7.4487    9.1361   23.6506 C   0  0  0  0  0  0  0  0  0  0  0  0
    8.9772    2.5025   22.0273 C   0  0  0  0  0  0  0  0  0  0  0  0
   10.4859    4.0901   20.9730 C   0  0  0  0  0  0  0  0  0  0  0  0
   11.0962    9.3293   23.5072 C   0  0  0  0  0  0  0  0  0  0  0  0
    5.1273    7.8529   23.6208 N   0  0  0  0  0  0  0  0  0  0  0  0
    9.7552    9.2338   23.0171 N   0  0  0  0  0  0  0  0  0  0  0  0
   11.1797    6.7591   21.3326 N   0  0  0  0  0  0  0  0  0  0  0  0
   11.7728    8.0337   23.7267 C   0  0  0  0  0  0  0  0  0  0  0  0
    7.1194    8.3344   24.6775 C   0  0  0  0  0  0  0  0  0  0  0  0
    8.4311    4.7963   22.0500 C   0  0  0  0  0  0  0  0  0  0  0  0
    8.7393   10.8706   24.1871 O   0  0  0  0  0  0  0  0  0  0  0  0
    9.3093    3.8166   21.6712 C   0  0  0  0  0  0  0  0  0  0  0  0
  1  5  1  0
  1 15  4  0
  1 22  4  0
  2 20  1  0
  2 24  1  0
  3  6  4  0
  3 27  4  0
  4 22  4  0
  4 26  4  0
  6  7  4  0
  6 13  1  0
  7 19  4  0
  8 18  1  0
  8 23  1  0
  8 28  2  0
  9 17  1  0
  9 24  1  0
 10 11  1  0
 10 24  1  0
 11 23  1  0
 12 14  4  0
 12 16  4  0
 14 19  4  0
 15 18  4  0
 16 20  4  0
 17 25  1  0
 18 26  4  0
 19 29  4  0
 20 29  4  0
 21 23  1  0
 21 25  1  0
 27 29  4  0
M  END
$$$$

 Created by Python create_sdf_string function

 29 32  0  0  0  0  0  0  0  0999 V2000
    5.4450    8.7154   22.6662 C   0  0  0  0  0  0  0  0  0  0  0  0
   10.9154    5.4574   20.5483 C   0  0  0  0  0  0  0  0  0  0  0  0
    7.2709    4.5089   22.7542 C   0  0  0  0  0  0  0  0  0  0  0  0
    5.9698    7.6329   24.6581 C   0  0  0  0  0  0  0  0  0  0  0  0
    4.5542    8.9057   21.7104 O   0  0  0  0  0  0  0  0  0  0  0  0
    6.9895    3.2085   23.0690 C   0  0  0  0  0  0  0  0  0  0  0  0
    7.8391    2.2253   22.7260 N   0  0  0  0  0  0  0  0  0  0  0  0
    8.6968    9.8373   23.6359 C   0  0  0  0  0  0  0  0  0  0  0  0
   12.5135    6.5957   21.8396 C   0  0  0  0  0  0  0  0  0  0  0  0
   10.9406    8.2330   21.1350 C   0  0  0  0  0  0  0  0  0  0  0  0
    9.6648    8.5956   21.7310 C   0  0  0  0  0  0  0  0  0  0  0  0
   10.8829    1.7153   20.9865 C   0  0  0  0  0  0  0  0  0  0  0  0
    5.7768    2.8533   23.7910 C   0  0  0  0  0  0  0  0  0  0  0  0
    9.7977    1.4791   21.6912 N   0  0  0  0  0  0  0  0  0  0  0  0
    6.5976    9.3401   22.6478 N   0  0  0  0  0  0  0  0  0  0  0  0
   11.2031    3.0042   20.6246 C   0  0  0  0  0  0  0  0  0  0  0  0
   12.8688    7.7370   22.7287 C   0  0  0  0  0  0  0  0  0  0  0  0
    7.4487    9.1361   23.6506 C   0  0  0  0  0  0  0  0  0  0  0  0
    8.9772    2.5025   22.0273 C   0  0  0  0  0  0  0  0  0  0  0  0
   10.4859    4.0901   20.9730 C   0  0  0  0  0  0  0  0  0  0  0  0
   11.0962    9.3293   23.5072 C   0  0  0  0  0  0  0  0  0  0  0  0
    5.1273    7.8529   23.6208 N   0  0  0  0  0  0  0  0  0  0  0  0
    9.7552    9.2338   23.0171 N   0  0  0  0  0  0  0  0  0  0  0  0
   11.1797    6.7591   21.3326 N   0  0  0  0  0  0  0  0  0  0  0  0
   11.7728    8.0337   23.7267 C   0  0  0  0  0  0  0  0  0  0  0  0
    7.1194    8.3344   24.6775 C   0  0  0  0  0  0  0  0  0  0  0  0
    8.4311    4.7963   22.0500 C   0  0  0  0  0  0  0  0  0  0  0  0
    8.7393   10.8706   24.1871 O   0  0  0  0  0  0  0  0  0  0  0  0
    9.3093    3.8166   21.6712 C   0  0  0  0  0  0  0  0  0  0  0  0
  1  5  1  0
  1 15  4  0
  1 22  4  0
  2 20  1  0
  2 24  1  0
  3  6  4  0
  3 27  4  0
  4 22  4  0
  4 26  4  0
  6  7  4  0
  6 13  1  0
  7 19  4  0
  8 18  1  0
  8 23  1  0
  8 28  2  0
  9 17  1  0
  9 24  1  0
 10 11  1  0
 10 24  1  0
 11 23  1  0
 12 14  4  0
 12 16  4  0
 14 19  4  0
 15 18  4  0
 16 20  4  0
 17 25  1  0
 18 26  4  0
 19 29  4  0
 20 29  4  0
 21 23  1  0
 21 25  1  0
 27 29  4  0
M  END
$$$$

 Created by Python create_sdf_string function

 29 32  0  0  0  0  0  0  0  0999 V2000
    5.4450    8.7154   22.6662 C   0  0  0  0  0  0  0  0  0  0  0  0
   10.9154    5.4574   20.5483 C   0  0  0  0  0  0  0  0  0  0  0  0
    7.2709    4.5089   22.7542 C   0  0  0  0  0  0  0  0  0  0  0  0
    5.9698    7.6329   24.6581 C   0  0  0  0  0  0  0  0  0  0  0  0
    4.5542    8.9057   21.7104 O   0  0  0  0  0  0  0  0  0  0  0  0
    6.9895    3.2085   23.0690 C   0  0  0  0  0  0  0  0  0  0  0  0
    7.8391    2.2253   22.7260 N   0  0  0  0  0  0  0  0  0  0  0  0
    8.6968    9.8373   23.6359 C   0  0  0  0  0  0  0  0  0  0  0  0
   12.5135    6.5957   21.8396 C   0  0  0  0  0  0  0  0  0  0  0  0
   10.9406    8.2330   21.1350 C   0  0  0  0  0  0  0  0  0  0  0  0
    9.6648    8.5956   21.7310 C   0  0  0  0  0  0  0  0  0  0  0  0
   10.8829    1.7153   20.9865 C   0  0  0  0  0  0  0  0  0  0  0  0
    5.7768    2.8533   23.7910 C   0  0  0  0  0  0  0  0  0  0  0  0
    9.7977    1.4791   21.6912 N   0  0  0  0  0  0  0  0  0  0  0  0
    6.5976    9.3401   22.6478 N   0  0  0  0  0  0  0  0  0  0  0  0
   11.2031    3.0042   20.6246 C   0  0  0  0  0  0  0  0  0  0  0  0
   12.8688    7.7370   22.7287 C   0  0  0  0  0  0  0  0  0  0  0  0
    7.4487    9.1361   23.6506 C   0  0  0  0  0  0  0  0  0  0  0  0
    8.9772    2.5025   22.0273 C   0  0  0  0  0  0  0  0  0  0  0  0
   10.4859    4.0901   20.9730 C   0  0  0  0  0  0  0  0  0  0  0  0
   11.0962    9.3293   23.5072 C   0  0  0  0  0  0  0  0  0  0  0  0
    5.1273    7.8529   23.6208 N   0  0  0  0  0  0  0  0  0  0  0  0
    9.7552    9.2338   23.0171 N   0  0  0  0  0  0  0  0  0  0  0  0
   11.1797    6.7591   21.3326 N   0  0  0  0  0  0  0  0  0  0  0  0
   11.7728    8.0337   23.7267 C   0  0  0  0  0  0  0  0  0  0  0  0
    7.1194    8.3344   24.6775 C   0  0  0  0  0  0  0  0  0  0  0  0
    8.4311    4.7963   22.0500 C   0  0  0  0  0  0  0  0  0  0  0  0
    8.7393   10.8706   24.1871 O   0  0  0  0  0  0  0  0  0  0  0  0
    9.3093    3.8166   21.6712 C   0  0  0  0  0  0  0  0  0  0  0  0
  1  5  1  0
  1 15  4  0
  1 22  4  0
  2 20  1  0
  2 24  1  0
  3  6  4  0
  3 27  4  0
  4 22  4  0
  4 26  4  0
  6  7  4  0
  6 13  1  0
  7 19  4  0
  8 18  1  0
  8 23  1  0
  8 28  2  0
  9 17  1  0
  9 24  1  0
 10 11  1  0
 10 24  1  0
 11 23  1  0
 12 14  4  0
 12 16  4  0
 14 19  4  0
 15 18  4  0
 16 20  4  0
 17 25  1  0
 18 26  4  0
 19 29  4  0
 20 29  4  0
 21 23  1  0
 21 25  1  0
 27 29  4  0
M  END
$$$$

 Created by Python create_sdf_string function

 29 32  0  0  0  0  0  0  0  0999 V2000
    5.4450    8.7154   22.6662 C   0  0  0  0  0  0  0  0  0  0  0  0
   10.9154    5.4574   20.5483 C   0  0  0  0  0  0  0  0  0  0  0  0
    7.2709    4.5089   22.7542 C   0  0  0  0  0  0  0  0  0  0  0  0
    5.9698    7.6329   24.6581 C   0  0  0  0  0  0  0  0  0  0  0  0
    4.5542    8.9057   21.7104 O   0  0  0  0  0  0  0  0  0  0  0  0
    6.9895    3.2085   23.0690 C   0  0  0  0  0  0  0  0  0  0  0  0
    7.8391    2.2253   22.7260 N   0  0  0  0  0  0  0  0  0  0  0  0
    8.6968    9.8373   23.6359 C   0  0  0  0  0  0  0  0  0  0  0  0
   12.5135    6.5957   21.8396 C   0  0  0  0  0  0  0  0  0  0  0  0
   10.9406    8.2330   21.1350 C   0  0  0  0  0  0  0  0  0  0  0  0
    9.6648    8.5956   21.7310 C   0  0  0  0  0  0  0  0  0  0  0  0
   10.8829    1.7153   20.9865 C   0  0  0  0  0  0  0  0  0  0  0  0
    5.7768    2.8533   23.7910 C   0  0  0  0  0  0  0  0  0  0  0  0
    9.7977    1.4791   21.6912 N   0  0  0  0  0  0  0  0  0  0  0  0
    6.5976    9.3401   22.6478 N   0  0  0  0  0  0  0  0  0  0  0  0
   11.2031    3.0042   20.6246 C   0  0  0  0  0  0  0  0  0  0  0  0
   12.8688    7.7370   22.7287 C   0  0  0  0  0  0  0  0  0  0  0  0
    7.4487    9.1361   23.6506 C   0  0  0  0  0  0  0  0  0  0  0  0
    8.9772    2.5025   22.0273 C   0  0  0  0  0  0  0  0  0  0  0  0
   10.4859    4.0901   20.9730 C   0  0  0  0  0  0  0  0  0  0  0  0
   11.0962    9.3293   23.5072 C   0  0  0  0  0  0  0  0  0  0  0  0
    5.1273    7.8529   23.6208 N   0  0  0  0  0  0  0  0  0  0  0  0
    9.7552    9.2338   23.0171 N   0  0  0  0  0  0  0  0  0  0  0  0
   11.1797    6.7591   21.3326 N   0  0  0  0  0  0  0  0  0  0  0  0
   11.7728    8.0337   23.7267 C   0  0  0  0  0  0  0  0  0  0  0  0
    7.1194    8.3344   24.6775 C   0  0  0  0  0  0  0  0  0  0  0  0
    8.4311    4.7963   22.0500 C   0  0  0  0  0  0  0  0  0  0  0  0
    8.7393   10.8706   24.1871 O   0  0  0  0  0  0  0  0  0  0  0  0
    9.3093    3.8166   21.6712 C   0  0  0  0  0  0  0  0  0  0  0  0
  1  5  1  0
  1 15  4  0
  1 22  4  0
  2 20  1  0
  2 24  1  0
  3  6  4  0
  3 27  4  0
  4 22  4  0
  4 26  4  0
  6  7  4  0
  6 13  1  0
  7 19  4  0
  8 18  1  0
  8 23  1  0
  8 28  2  0
  9 17  1  0
  9 24  1  0
 10 11  1  0
 10 24  1  0
 11 23  1  0
 12 14  4  0
 12 16  4  0
 14 19  4  0
 15 18  4  0
 16 20  4  0
 17 25  1  0
 18 26  4  0
 19 29  4  0
 20 29  4  0
 21 23  1  0
 21 25  1  0
 27 29  4  0
M  END
$$$$

 Created by Python create_sdf_string function

 29 32  0  0  0  0  0  0  0  0999 V2000
    5.4450    8.7154   22.6662 C   0  0  0  0  0  0  0  0  0  0  0  0
   10.9154    5.4574   20.5483 C   0  0  0  0  0  0  0  0  0  0  0  0
    7.2709    4.5089   22.7542 C   0  0  0  0  0  0  0  0  0  0  0  0
    5.9698    7.6329   24.6581 C   0  0  0  0  0  0  0  0  0  0  0  0
    4.5542    8.9057   21.7104 O   0  0  0  0  0  0  0  0  0  0  0  0
    6.9895    3.2085   23.0690 C   0  0  0  0  0  0  0  0  0  0  0  0
    7.8391    2.2253   22.7260 N   0  0  0  0  0  0  0  0  0  0  0  0
    8.6968    9.8373   23.6359 C   0  0  0  0  0  0  0  0  0  0  0  0
   12.5135    6.5957   21.8396 C   0  0  0  0  0  0  0  0  0  0  0  0
   10.9406    8.2330   21.1350 C   0  0  0  0  0  0  0  0  0  0  0  0
    9.6648    8.5956   21.7310 C   0  0  0  0  0  0  0  0  0  0  0  0
   10.8829    1.7153   20.9865 C   0  0  0  0  0  0  0  0  0  0  0  0
    5.7768    2.8533   23.7910 C   0  0  0  0  0  0  0  0  0  0  0  0
    9.7977    1.4791   21.6912 N   0  0  0  0  0  0  0  0  0  0  0  0
    6.5976    9.3401   22.6478 N   0  0  0  0  0  0  0  0  0  0  0  0
   11.2031    3.0042   20.6246 C   0  0  0  0  0  0  0  0  0  0  0  0
   12.8688    7.7370   22.7287 C   0  0  0  0  0  0  0  0  0  0  0  0
    7.4487    9.1361   23.6506 C   0  0  0  0  0  0  0  0  0  0  0  0
    8.9772    2.5025   22.0273 C   0  0  0  0  0  0  0  0  0  0  0  0
   10.4859    4.0901   20.9730 C   0  0  0  0  0  0  0  0  0  0  0  0
   11.0962    9.3293   23.5072 C   0  0  0  0  0  0  0  0  0  0  0  0
    5.1273    7.8529   23.6208 N   0  0  0  0  0  0  0  0  0  0  0  0
    9.7552    9.2338   23.0171 N   0  0  0  0  0  0  0  0  0  0  0  0
   11.1797    6.7591   21.3326 N   0  0  0  0  0  0  0  0  0  0  0  0
   11.7728    8.0337   23.7267 C   0  0  0  0  0  0  0  0  0  0  0  0
    7.1194    8.3344   24.6775 C   0  0  0  0  0  0  0  0  0  0  0  0
    8.4311    4.7963   22.0500 C   0  0  0  0  0  0  0  0  0  0  0  0
    8.7393   10.8706   24.1871 O   0  0  0  0  0  0  0  0  0  0  0  0
    9.3093    3.8166   21.6712 C   0  0  0  0  0  0  0  0  0  0  0  0
  1  5  1  0
  1 15  4  0
  1 22  4  0
  2 20  1  0
  2 24  1  0
  3  6  4  0
  3 27  4  0
  4 22  4  0
  4 26  4  0
  6  7  4  0
  6 13  1  0
  7 19  4  0
  8 18  1  0
  8 23  1  0
  8 28  2  0
  9 17  1  0
  9 24  1  0
 10 11  1  0
 10 24  1  0
 11 23  1  0
 12 14  4  0
 12 16  4  0
 14 19  4  0
 15 18  4  0
 16 20  4  0
 17 25  1  0
 18 26  4  0
 19 29  4  0
 20 29  4  0
 21 23  1  0
 21 25  1  0
 27 29  4  0
M  END
$$$$

 Created by Python create_sdf_string function

 29 32  0  0  0  0  0  0  0  0999 V2000
    5.4450    8.7154   22.6662 C   0  0  0  0  0  0  0  0  0  0  0  0
   10.9154    5.4574   20.5483 C   0  0  0  0  0  0  0  0  0  0  0  0
    7.2709    4.5089   22.7542 C   0  0  0  0  0  0  0  0  0  0  0  0
    5.9698    7.6329   24.6581 C   0  0  0  0  0  0  0  0  0  0  0  0
    4.5542    8.9057   21.7104 O   0  0  0  0  0  0  0  0  0  0  0  0
    6.9895    3.2085   23.0690 C   0  0  0  0  0  0  0  0  0  0  0  0
    7.8391    2.2253   22.7260 N   0  0  0  0  0  0  0  0  0  0  0  0
    8.6968    9.8373   23.6359 C   0  0  0  0  0  0  0  0  0  0  0  0
   12.5135    6.5957   21.8396 C   0  0  0  0  0  0  0  0  0  0  0  0
   10.9406    8.2330   21.1350 C   0  0  0  0  0  0  0  0  0  0  0  0
    9.6648    8.5956   21.7310 C   0  0  0  0  0  0  0  0  0  0  0  0
   10.8829    1.7153   20.9865 C   0  0  0  0  0  0  0  0  0  0  0  0
    5.7768    2.8533   23.7910 C   0  0  0  0  0  0  0  0  0  0  0  0
    9.7977    1.4791   21.6912 N   0  0  0  0  0  0  0  0  0  0  0  0
    6.5976    9.3401   22.6478 N   0  0  0  0  0  0  0  0  0  0  0  0
   11.2031    3.0042   20.6246 C   0  0  0  0  0  0  0  0  0  0  0  0
   12.8688    7.7370   22.7287 C   0  0  0  0  0  0  0  0  0  0  0  0
    7.4487    9.1361   23.6506 C   0  0  0  0  0  0  0  0  0  0  0  0
    8.9772    2.5025   22.0273 C   0  0  0  0  0  0  0  0  0  0  0  0
   10.4859    4.0901   20.9730 C   0  0  0  0  0  0  0  0  0  0  0  0
   11.0962    9.3293   23.5072 C   0  0  0  0  0  0  0  0  0  0  0  0
    5.1273    7.8529   23.6208 N   0  0  0  0  0  0  0  0  0  0  0  0
    9.7552    9.2338   23.0171 N   0  0  0  0  0  0  0  0  0  0  0  0
   11.1797    6.7591   21.3326 N   0  0  0  0  0  0  0  0  0  0  0  0
   11.7728    8.0337   23.7267 C   0  0  0  0  0  0  0  0  0  0  0  0
    7.1194    8.3344   24.6775 C   0  0  0  0  0  0  0  0  0  0  0  0
    8.4311    4.7963   22.0500 C   0  0  0  0  0  0  0  0  0  0  0  0
    8.7393   10.8706   24.1871 O   0  0  0  0  0  0  0  0  0  0  0  0
    9.3093    3.8166   21.6712 C   0  0  0  0  0  0  0  0  0  0  0  0
  1  5  1  0
  1 15  4  0
  1 22  4  0
  2 20  1  0
  2 24  1  0
  3  6  4  0
  3 27  4  0
  4 22  4  0
  4 26  4  0
  6  7  4  0
  6 13  1  0
  7 19  4  0
  8 18  1  0
  8 23  1  0
  8 28  2  0
  9 17  1  0
  9 24  1  0
 10 11  1  0
 10 24  1  0
 11 23  1  0
 12 14  4  0
 12 16  4  0
 14 19  4  0
 15 18  4  0
 16 20  4  0
 17 25  1  0
 18 26  4  0
 19 29  4  0
 20 29  4  0
 21 23  1  0
 21 25  1  0
 27 29  4  0
M  END
$$$$

 Created by Python create_sdf_string function

 29 32  0  0  0  0  0  0  0  0999 V2000
    5.4450    8.7154   22.6662 C   0  0  0  0  0  0  0  0  0  0  0  0
   10.9154    5.4574   20.5483 C   0  0  0  0  0  0  0  0  0  0  0  0
    7.2709    4.5089   22.7542 C   0  0  0  0  0  0  0  0  0  0  0  0
    5.9698    7.6329   24.6581 C   0  0  0  0  0  0  0  0  0  0  0  0
    4.5542    8.9057   21.7104 O   0  0  0  0  0  0  0  0  0  0  0  0
    6.9895    3.2085   23.0690 C   0  0  0  0  0  0  0  0  0  0  0  0
    7.8391    2.2253   22.7260 N   0  0  0  0  0  0  0  0  0  0  0  0
    8.6968    9.8373   23.6359 C   0  0  0  0  0  0  0  0  0  0  0  0
   12.5135    6.5957   21.8396 C   0  0  0  0  0  0  0  0  0  0  0  0
   10.9406    8.2330   21.1350 C   0  0  0  0  0  0  0  0  0  0  0  0
    9.6648    8.5956   21.7310 C   0  0  0  0  0  0  0  0  0  0  0  0
   10.8829    1.7153   20.9865 C   0  0  0  0  0  0  0  0  0  0  0  0
    5.7768    2.8533   23.7910 C   0  0  0  0  0  0  0  0  0  0  0  0
    9.7977    1.4791   21.6912 N   0  0  0  0  0  0  0  0  0  0  0  0
    6.5976    9.3401   22.6478 N   0  0  0  0  0  0  0  0  0  0  0  0
   11.2031    3.0042   20.6246 C   0  0  0  0  0  0  0  0  0  0  0  0
   12.8688    7.7370   22.7287 C   0  0  0  0  0  0  0  0  0  0  0  0
    7.4487    9.1361   23.6506 C   0  0  0  0  0  0  0  0  0  0  0  0
    8.9772    2.5025   22.0273 C   0  0  0  0  0  0  0  0  0  0  0  0
   10.4859    4.0901   20.9730 C   0  0  0  0  0  0  0  0  0  0  0  0
   11.0962    9.3293   23.5072 C   0  0  0  0  0  0  0  0  0  0  0  0
    5.1273    7.8529   23.6208 N   0  0  0  0  0  0  0  0  0  0  0  0
    9.7552    9.2338   23.0171 N   0  0  0  0  0  0  0  0  0  0  0  0
   11.1797    6.7591   21.3326 N   0  0  0  0  0  0  0  0  0  0  0  0
   11.7728    8.0337   23.7267 C   0  0  0  0  0  0  0  0  0  0  0  0
    7.1194    8.3344   24.6775 C   0  0  0  0  0  0  0  0  0  0  0  0
    8.4311    4.7963   22.0500 C   0  0  0  0  0  0  0  0  0  0  0  0
    8.7393   10.8706   24.1871 O   0  0  0  0  0  0  0  0  0  0  0  0
    9.3093    3.8166   21.6712 C   0  0  0  0  0  0  0  0  0  0  0  0
  1  5  1  0
  1 15  4  0
  1 22  4  0
  2 20  1  0
  2 24  1  0
  3  6  4  0
  3 27  4  0
  4 22  4  0
  4 26  4  0
  6  7  4  0
  6 13  1  0
  7 19  4  0
  8 18  1  0
  8 23  1  0
  8 28  2  0
  9 17  1  0
  9 24  1  0
 10 11  1  0
 10 24  1  0
 11 23  1  0
 12 14  4  0
 12 16  4  0
 14 19  4  0
 15 18  4  0
 16 20  4  0
 17 25  1  0
 18 26  4  0
 19 29  4  0
 20 29  4  0
 21 23  1  0
 21 25  1  0
 27 29  4  0
M  END
$$$$

 Created by Python create_sdf_string function

 29 32  0  0  0  0  0  0  0  0999 V2000
    5.4450    8.7154   22.6662 C   0  0  0  0  0  0  0  0  0  0  0  0
   10.9154    5.4574   20.5483 C   0  0  0  0  0  0  0  0  0  0  0  0
    7.2709    4.5089   22.7542 C   0  0  0  0  0  0  0  0  0  0  0  0
    5.9698    7.6329   24.6581 C   0  0  0  0  0  0  0  0  0  0  0  0
    4.5542    8.9057   21.7104 O   0  0  0  0  0  0  0  0  0  0  0  0
    6.9895    3.2085   23.0690 C   0  0  0  0  0  0  0  0  0  0  0  0
    7.8391    2.2253   22.7260 N   0  0  0  0  0  0  0  0  0  0  0  0
    8.6968    9.8373   23.6359 C   0  0  0  0  0  0  0  0  0  0  0  0
   12.5135    6.5957   21.8396 C   0  0  0  0  0  0  0  0  0  0  0  0
   10.9406    8.2330   21.1350 C   0  0  0  0  0  0  0  0  0  0  0  0
    9.6648    8.5956   21.7310 C   0  0  0  0  0  0  0  0  0  0  0  0
   10.8829    1.7153   20.9865 C   0  0  0  0  0  0  0  0  0  0  0  0
    5.7768    2.8533   23.7910 C   0  0  0  0  0  0  0  0  0  0  0  0
    9.7977    1.4791   21.6912 N   0  0  0  0  0  0  0  0  0  0  0  0
    6.5976    9.3401   22.6478 N   0  0  0  0  0  0  0  0  0  0  0  0
   11.2031    3.0042   20.6246 C   0  0  0  0  0  0  0  0  0  0  0  0
   12.8688    7.7370   22.7287 C   0  0  0  0  0  0  0  0  0  0  0  0
    7.4487    9.1361   23.6506 C   0  0  0  0  0  0  0  0  0  0  0  0
    8.9772    2.5025   22.0273 C   0  0  0  0  0  0  0  0  0  0  0  0
   10.4859    4.0901   20.9730 C   0  0  0  0  0  0  0  0  0  0  0  0
   11.0962    9.3293   23.5072 C   0  0  0  0  0  0  0  0  0  0  0  0
    5.1273    7.8529   23.6208 N   0  0  0  0  0  0  0  0  0  0  0  0
    9.7552    9.2338   23.0171 N   0  0  0  0  0  0  0  0  0  0  0  0
   11.1797    6.7591   21.3326 N   0  0  0  0  0  0  0  0  0  0  0  0
   11.7728    8.0337   23.7267 C   0  0  0  0  0  0  0  0  0  0  0  0
    7.1194    8.3344   24.6775 C   0  0  0  0  0  0  0  0  0  0  0  0
    8.4311    4.7963   22.0500 C   0  0  0  0  0  0  0  0  0  0  0  0
    8.7393   10.8706   24.1871 O   0  0  0  0  0  0  0  0  0  0  0  0
    9.3093    3.8166   21.6712 C   0  0  0  0  0  0  0  0  0  0  0  0
  1  5  1  0
  1 15  4  0
  1 22  4  0
  2 20  1  0
  2 24  1  0
  3  6  4  0
  3 27  4  0
  4 22  4  0
  4 26  4  0
  6  7  4  0
  6 13  1  0
  7 19  4  0
  8 18  1  0
  8 23  1  0
  8 28  2  0
  9 17  1  0
  9 24  1  0
 10 11  1  0
 10 24  1  0
 11 23  1  0
 12 14  4  0
 12 16  4  0
 14 19  4  0
 15 18  4  0
 16 20  4  0
 17 25  1  0
 18 26  4  0
 19 29  4  0
 20 29  4  0
 21 23  1  0
 21 25  1  0
 27 29  4  0
M  END
$$$$

 Created by Python create_sdf_string function

 29 32  0  0  0  0  0  0  0  0999 V2000
    5.4450    8.7154   22.6662 C   0  0  0  0  0  0  0  0  0  0  0  0
   10.9154    5.4574   20.5483 C   0  0  0  0  0  0  0  0  0  0  0  0
    7.2709    4.5089   22.7542 C   0  0  0  0  0  0  0  0  0  0  0  0
    5.9698    7.6329   24.6581 C   0  0  0  0  0  0  0  0  0  0  0  0
    4.5542    8.9057   21.7104 O   0  0  0  0  0  0  0  0  0  0  0  0
    6.9895    3.2085   23.0690 C   0  0  0  0  0  0  0  0  0  0  0  0
    7.8391    2.2253   22.7260 N   0  0  0  0  0  0  0  0  0  0  0  0
    8.6968    9.8373   23.6359 C   0  0  0  0  0  0  0  0  0  0  0  0
   12.5135    6.5957   21.8396 C   0  0  0  0  0  0  0  0  0  0  0  0
   10.9406    8.2330   21.1350 C   0  0  0  0  0  0  0  0  0  0  0  0
    9.6648    8.5956   21.7310 C   0  0  0  0  0  0  0  0  0  0  0  0
   10.8829    1.7153   20.9865 C   0  0  0  0  0  0  0  0  0  0  0  0
    5.7768    2.8533   23.7910 C   0  0  0  0  0  0  0  0  0  0  0  0
    9.7977    1.4791   21.6912 N   0  0  0  0  0  0  0  0  0  0  0  0
    6.5976    9.3401   22.6478 N   0  0  0  0  0  0  0  0  0  0  0  0
   11.2031    3.0042   20.6246 C   0  0  0  0  0  0  0  0  0  0  0  0
   12.8688    7.7370   22.7287 C   0  0  0  0  0  0  0  0  0  0  0  0
    7.4487    9.1361   23.6506 C   0  0  0  0  0  0  0  0  0  0  0  0
    8.9772    2.5025   22.0273 C   0  0  0  0  0  0  0  0  0  0  0  0
   10.4859    4.0901   20.9730 C   0  0  0  0  0  0  0  0  0  0  0  0
   11.0962    9.3293   23.5072 C   0  0  0  0  0  0  0  0  0  0  0  0
    5.1273    7.8529   23.6208 N   0  0  0  0  0  0  0  0  0  0  0  0
    9.7552    9.2338   23.0171 N   0  0  0  0  0  0  0  0  0  0  0  0
   11.1797    6.7591   21.3326 N   0  0  0  0  0  0  0  0  0  0  0  0
   11.7728    8.0337   23.7267 C   0  0  0  0  0  0  0  0  0  0  0  0
    7.1194    8.3344   24.6775 C   0  0  0  0  0  0  0  0  0  0  0  0
    8.4311    4.7963   22.0500 C   0  0  0  0  0  0  0  0  0  0  0  0
    8.7393   10.8706   24.1871 O   0  0  0  0  0  0  0  0  0  0  0  0
    9.3093    3.8166   21.6712 C   0  0  0  0  0  0  0  0  0  0  0  0
  1  5  1  0
  1 15  4  0
  1 22  4  0
  2 20  1  0
  2 24  1  0
  3  6  4  0
  3 27  4  0
  4 22  4  0
  4 26  4  0
  6  7  4  0
  6 13  1  0
  7 19  4  0
  8 18  1  0
  8 23  1  0
  8 28  2  0
  9 17  1  0
  9 24  1  0
 10 11  1  0
 10 24  1  0
 11 23  1  0
 12 14  4  0
 12 16  4  0
 14 19  4  0
 15 18  4  0
 16 20  4  0
 17 25  1  0
 18 26  4  0
 19 29  4  0
 20 29  4  0
 21 23  1  0
 21 25  1  0
 27 29  4  0
M  END
$$$$

 Created by Python create_sdf_string function

 29 32  0  0  0  0  0  0  0  0999 V2000
    5.4450    8.7154   22.6662 C   0  0  0  0  0  0  0  0  0  0  0  0
   10.9154    5.4574   20.5483 C   0  0  0  0  0  0  0  0  0  0  0  0
    7.2709    4.5089   22.7542 C   0  0  0  0  0  0  0  0  0  0  0  0
    5.9698    7.6329   24.6581 C   0  0  0  0  0  0  0  0  0  0  0  0
    4.5542    8.9057   21.7104 O   0  0  0  0  0  0  0  0  0  0  0  0
    6.9895    3.2085   23.0690 C   0  0  0  0  0  0  0  0  0  0  0  0
    7.8391    2.2253   22.7260 N   0  0  0  0  0  0  0  0  0  0  0  0
    8.6968    9.8373   23.6359 C   0  0  0  0  0  0  0  0  0  0  0  0
   12.5135    6.5957   21.8396 C   0  0  0  0  0  0  0  0  0  0  0  0
   10.9406    8.2330   21.1350 C   0  0  0  0  0  0  0  0  0  0  0  0
    9.6648    8.5956   21.7310 C   0  0  0  0  0  0  0  0  0  0  0  0
   10.8829    1.7153   20.9865 C   0  0  0  0  0  0  0  0  0  0  0  0
    5.7768    2.8533   23.7910 C   0  0  0  0  0  0  0  0  0  0  0  0
    9.7977    1.4791   21.6912 N   0  0  0  0  0  0  0  0  0  0  0  0
    6.5976    9.3401   22.6478 N   0  0  0  0  0  0  0  0  0  0  0  0
   11.2031    3.0042   20.6246 C   0  0  0  0  0  0  0  0  0  0  0  0
   12.8688    7.7370   22.7287 C   0  0  0  0  0  0  0  0  0  0  0  0
    7.4487    9.1361   23.6506 C   0  0  0  0  0  0  0  0  0  0  0  0
    8.9772    2.5025   22.0273 C   0  0  0  0  0  0  0  0  0  0  0  0
   10.4859    4.0901   20.9730 C   0  0  0  0  0  0  0  0  0  0  0  0
   11.0962    9.3293   23.5072 C   0  0  0  0  0  0  0  0  0  0  0  0
    5.1273    7.8529   23.6208 N   0  0  0  0  0  0  0  0  0  0  0  0
    9.7552    9.2338   23.0171 N   0  0  0  0  0  0  0  0  0  0  0  0
   11.1797    6.7591   21.3326 N   0  0  0  0  0  0  0  0  0  0  0  0
   11.7728    8.0337   23.7267 C   0  0  0  0  0  0  0  0  0  0  0  0
    7.1194    8.3344   24.6775 C   0  0  0  0  0  0  0  0  0  0  0  0
    8.4311    4.7963   22.0500 C   0  0  0  0  0  0  0  0  0  0  0  0
    8.7393   10.8706   24.1871 O   0  0  0  0  0  0  0  0  0  0  0  0
    9.3093    3.8166   21.6712 C   0  0  0  0  0  0  0  0  0  0  0  0
  1  5  1  0
  1 15  4  0
  1 22  4  0
  2 20  1  0
  2 24  1  0
  3  6  4  0
  3 27  4  0
  4 22  4  0
  4 26  4  0
  6  7  4  0
  6 13  1  0
  7 19  4  0
  8 18  1  0
  8 23  1  0
  8 28  2  0
  9 17  1  0
  9 24  1  0
 10 11  1  0
 10 24  1  0
 11 23  1  0
 12 14  4  0
 12 16  4  0
 14 19  4  0
 15 18  4  0
 16 20  4  0
 17 25  1  0
 18 26  4  0
 19 29  4  0
 20 29  4  0
 21 23  1  0
 21 25  1  0
 27 29  4  0
M  END
$$$$

 Created by Python create_sdf_string function

 29 32  0  0  0  0  0  0  0  0999 V2000
    5.4450    8.7154   22.6662 C   0  0  0  0  0  0  0  0  0  0  0  0
   10.9154    5.4574   20.5483 C   0  0  0  0  0  0  0  0  0  0  0  0
    7.2709    4.5089   22.7542 C   0  0  0  0  0  0  0  0  0  0  0  0
    5.9698    7.6329   24.6581 C   0  0  0  0  0  0  0  0  0  0  0  0
    4.5542    8.9057   21.7104 O   0  0  0  0  0  0  0  0  0  0  0  0
    6.9895    3.2085   23.0690 C   0  0  0  0  0  0  0  0  0  0  0  0
    7.8391    2.2253   22.7260 N   0  0  0  0  0  0  0  0  0  0  0  0
    8.6968    9.8373   23.6359 C   0  0  0  0  0  0  0  0  0  0  0  0
   12.5135    6.5957   21.8396 C   0  0  0  0  0  0  0  0  0  0  0  0
   10.9406    8.2330   21.1350 C   0  0  0  0  0  0  0  0  0  0  0  0
    9.6648    8.5956   21.7310 C   0  0  0  0  0  0  0  0  0  0  0  0
   10.8829    1.7153   20.9865 C   0  0  0  0  0  0  0  0  0  0  0  0
    5.7768    2.8533   23.7910 C   0  0  0  0  0  0  0  0  0  0  0  0
    9.7977    1.4791   21.6912 N   0  0  0  0  0  0  0  0  0  0  0  0
    6.5976    9.3401   22.6478 N   0  0  0  0  0  0  0  0  0  0  0  0
   11.2031    3.0042   20.6246 C   0  0  0  0  0  0  0  0  0  0  0  0
   12.8688    7.7370   22.7287 C   0  0  0  0  0  0  0  0  0  0  0  0
    7.4487    9.1361   23.6506 C   0  0  0  0  0  0  0  0  0  0  0  0
    8.9772    2.5025   22.0273 C   0  0  0  0  0  0  0  0  0  0  0  0
   10.4859    4.0901   20.9730 C   0  0  0  0  0  0  0  0  0  0  0  0
   11.0962    9.3293   23.5072 C   0  0  0  0  0  0  0  0  0  0  0  0
    5.1273    7.8529   23.6208 N   0  0  0  0  0  0  0  0  0  0  0  0
    9.7552    9.2338   23.0171 N   0  0  0  0  0  0  0  0  0  0  0  0
   11.1797    6.7591   21.3326 N   0  0  0  0  0  0  0  0  0  0  0  0
   11.7728    8.0337   23.7267 C   0  0  0  0  0  0  0  0  0  0  0  0
    7.1194    8.3344   24.6775 C   0  0  0  0  0  0  0  0  0  0  0  0
    8.4311    4.7963   22.0500 C   0  0  0  0  0  0  0  0  0  0  0  0
    8.7393   10.8706   24.1871 O   0  0  0  0  0  0  0  0  0  0  0  0
    9.3093    3.8166   21.6712 C   0  0  0  0  0  0  0  0  0  0  0  0
  1  5  1  0
  1 15  4  0
  1 22  4  0
  2 20  1  0
  2 24  1  0
  3  6  4  0
  3 27  4  0
  4 22  4  0
  4 26  4  0
  6  7  4  0
  6 13  1  0
  7 19  4  0
  8 18  1  0
  8 23  1  0
  8 28  2  0
  9 17  1  0
  9 24  1  0
 10 11  1  0
 10 24  1  0
 11 23  1  0
 12 14  4  0
 12 16  4  0
 14 19  4  0
 15 18  4  0
 16 20  4  0
 17 25  1  0
 18 26  4  0
 19 29  4  0
 20 29  4  0
 21 23  1  0
 21 25  1  0
 27 29  4  0
M  END
$$$$

 Created by Python create_sdf_string function

 29 32  0  0  0  0  0  0  0  0999 V2000
    5.4450    8.7154   22.6662 C   0  0  0  0  0  0  0  0  0  0  0  0
   10.9154    5.4574   20.5483 C   0  0  0  0  0  0  0  0  0  0  0  0
    7.2709    4.5089   22.7542 C   0  0  0  0  0  0  0  0  0  0  0  0
    5.9698    7.6329   24.6581 C   0  0  0  0  0  0  0  0  0  0  0  0
    4.5542    8.9057   21.7104 O   0  0  0  0  0  0  0  0  0  0  0  0
    6.9895    3.2085   23.0690 C   0  0  0  0  0  0  0  0  0  0  0  0
    7.8391    2.2253   22.7260 N   0  0  0  0  0  0  0  0  0  0  0  0
    8.6968    9.8373   23.6359 C   0  0  0  0  0  0  0  0  0  0  0  0
   12.5135    6.5957   21.8396 C   0  0  0  0  0  0  0  0  0  0  0  0
   10.9406    8.2330   21.1350 C   0  0  0  0  0  0  0  0  0  0  0  0
    9.6648    8.5956   21.7310 C   0  0  0  0  0  0  0  0  0  0  0  0
   10.8829    1.7153   20.9865 C   0  0  0  0  0  0  0  0  0  0  0  0
    5.7768    2.8533   23.7910 C   0  0  0  0  0  0  0  0  0  0  0  0
    9.7977    1.4791   21.6912 N   0  0  0  0  0  0  0  0  0  0  0  0
    6.5976    9.3401   22.6478 N   0  0  0  0  0  0  0  0  0  0  0  0
   11.2031    3.0042   20.6246 C   0  0  0  0  0  0  0  0  0  0  0  0
   12.8688    7.7370   22.7287 C   0  0  0  0  0  0  0  0  0  0  0  0
    7.4487    9.1361   23.6506 C   0  0  0  0  0  0  0  0  0  0  0  0
    8.9772    2.5025   22.0273 C   0  0  0  0  0  0  0  0  0  0  0  0
   10.4859    4.0901   20.9730 C   0  0  0  0  0  0  0  0  0  0  0  0
   11.0962    9.3293   23.5072 C   0  0  0  0  0  0  0  0  0  0  0  0
    5.1273    7.8529   23.6208 N   0  0  0  0  0  0  0  0  0  0  0  0
    9.7552    9.2338   23.0171 N   0  0  0  0  0  0  0  0  0  0  0  0
   11.1797    6.7591   21.3326 N   0  0  0  0  0  0  0  0  0  0  0  0
   11.7728    8.0337   23.7267 C   0  0  0  0  0  0  0  0  0  0  0  0
    7.1194    8.3344   24.6775 C   0  0  0  0  0  0  0  0  0  0  0  0
    8.4311    4.7963   22.0500 C   0  0  0  0  0  0  0  0  0  0  0  0
    8.7393   10.8706   24.1871 O   0  0  0  0  0  0  0  0  0  0  0  0
    9.3093    3.8166   21.6712 C   0  0  0  0  0  0  0  0  0  0  0  0
  1  5  1  0
  1 15  4  0
  1 22  4  0
  2 20  1  0
  2 24  1  0
  3  6  4  0
  3 27  4  0
  4 22  4  0
  4 26  4  0
  6  7  4  0
  6 13  1  0
  7 19  4  0
  8 18  1  0
  8 23  1  0
  8 28  2  0
  9 17  1  0
  9 24  1  0
 10 11  1  0
 10 24  1  0
 11 23  1  0
 12 14  4  0
 12 16  4  0
 14 19  4  0
 15 18  4  0
 16 20  4  0
 17 25  1  0
 18 26  4  0
 19 29  4  0
 20 29  4  0
 21 23  1  0
 21 25  1  0
 27 29  4  0
M  END
$$$$

 Created by Python create_sdf_string function

 29 32  0  0  0  0  0  0  0  0999 V2000
    5.4450    8.7154   22.6662 C   0  0  0  0  0  0  0  0  0  0  0  0
   10.9154    5.4574   20.5483 C   0  0  0  0  0  0  0  0  0  0  0  0
    7.2709    4.5089   22.7542 C   0  0  0  0  0  0  0  0  0  0  0  0
    5.9698    7.6329   24.6581 C   0  0  0  0  0  0  0  0  0  0  0  0
    4.5542    8.9057   21.7104 O   0  0  0  0  0  0  0  0  0  0  0  0
    6.9895    3.2085   23.0690 C   0  0  0  0  0  0  0  0  0  0  0  0
    7.8391    2.2253   22.7260 N   0  0  0  0  0  0  0  0  0  0  0  0
    8.6968    9.8373   23.6359 C   0  0  0  0  0  0  0  0  0  0  0  0
   12.5135    6.5957   21.8396 C   0  0  0  0  0  0  0  0  0  0  0  0
   10.9406    8.2330   21.1350 C   0  0  0  0  0  0  0  0  0  0  0  0
    9.6648    8.5956   21.7310 C   0  0  0  0  0  0  0  0  0  0  0  0
   10.8829    1.7153   20.9865 C   0  0  0  0  0  0  0  0  0  0  0  0
    5.7768    2.8533   23.7910 C   0  0  0  0  0  0  0  0  0  0  0  0
    9.7977    1.4791   21.6912 N   0  0  0  0  0  0  0  0  0  0  0  0
    6.5976    9.3401   22.6478 N   0  0  0  0  0  0  0  0  0  0  0  0
   11.2031    3.0042   20.6246 C   0  0  0  0  0  0  0  0  0  0  0  0
   12.8688    7.7370   22.7287 C   0  0  0  0  0  0  0  0  0  0  0  0
    7.4487    9.1361   23.6506 C   0  0  0  0  0  0  0  0  0  0  0  0
    8.9772    2.5025   22.0273 C   0  0  0  0  0  0  0  0  0  0  0  0
   10.4859    4.0901   20.9730 C   0  0  0  0  0  0  0  0  0  0  0  0
   11.0962    9.3293   23.5072 C   0  0  0  0  0  0  0  0  0  0  0  0
    5.1273    7.8529   23.6208 N   0  0  0  0  0  0  0  0  0  0  0  0
    9.7552    9.2338   23.0171 N   0  0  0  0  0  0  0  0  0  0  0  0
   11.1797    6.7591   21.3326 N   0  0  0  0  0  0  0  0  0  0  0  0
   11.7728    8.0337   23.7267 C   0  0  0  0  0  0  0  0  0  0  0  0
    7.1194    8.3344   24.6775 C   0  0  0  0  0  0  0  0  0  0  0  0
    8.4311    4.7963   22.0500 C   0  0  0  0  0  0  0  0  0  0  0  0
    8.7393   10.8706   24.1871 O   0  0  0  0  0  0  0  0  0  0  0  0
    9.3093    3.8166   21.6712 C   0  0  0  0  0  0  0  0  0  0  0  0
  1  5  1  0
  1 15  4  0
  1 22  4  0
  2 20  1  0
  2 24  1  0
  3  6  4  0
  3 27  4  0
  4 22  4  0
  4 26  4  0
  6  7  4  0
  6 13  1  0
  7 19  4  0
  8 18  1  0
  8 23  1  0
  8 28  2  0
  9 17  1  0
  9 24  1  0
 10 11  1  0
 10 24  1  0
 11 23  1  0
 12 14  4  0
 12 16  4  0
 14 19  4  0
 15 18  4  0
 16 20  4  0
 17 25  1  0
 18 26  4  0
 19 29  4  0
 20 29  4  0
 21 23  1  0
 21 25  1  0
 27 29  4  0
M  END
$$$$

 Created by Python create_sdf_string function

 29 32  0  0  0  0  0  0  0  0999 V2000
    5.4450    8.7154   22.6662 C   0  0  0  0  0  0  0  0  0  0  0  0
   10.9154    5.4574   20.5483 C   0  0  0  0  0  0  0  0  0  0  0  0
    7.2709    4.5089   22.7542 C   0  0  0  0  0  0  0  0  0  0  0  0
    5.9698    7.6329   24.6581 C   0  0  0  0  0  0  0  0  0  0  0  0
    4.5542    8.9057   21.7104 O   0  0  0  0  0  0  0  0  0  0  0  0
    6.9895    3.2085   23.0690 C   0  0  0  0  0  0  0  0  0  0  0  0
    7.8391    2.2253   22.7260 N   0  0  0  0  0  0  0  0  0  0  0  0
    8.6968    9.8373   23.6359 C   0  0  0  0  0  0  0  0  0  0  0  0
   12.5135    6.5957   21.8396 C   0  0  0  0  0  0  0  0  0  0  0  0
   10.9406    8.2330   21.1350 C   0  0  0  0  0  0  0  0  0  0  0  0
    9.6648    8.5956   21.7310 C   0  0  0  0  0  0  0  0  0  0  0  0
   10.8829    1.7153   20.9865 C   0  0  0  0  0  0  0  0  0  0  0  0
    5.7768    2.8533   23.7910 C   0  0  0  0  0  0  0  0  0  0  0  0
    9.7977    1.4791   21.6912 N   0  0  0  0  0  0  0  0  0  0  0  0
    6.5976    9.3401   22.6478 N   0  0  0  0  0  0  0  0  0  0  0  0
   11.2031    3.0042   20.6246 C   0  0  0  0  0  0  0  0  0  0  0  0
   12.8688    7.7370   22.7287 C   0  0  0  0  0  0  0  0  0  0  0  0
    7.4487    9.1361   23.6506 C   0  0  0  0  0  0  0  0  0  0  0  0
    8.9772    2.5025   22.0273 C   0  0  0  0  0  0  0  0  0  0  0  0
   10.4859    4.0901   20.9730 C   0  0  0  0  0  0  0  0  0  0  0  0
   11.0962    9.3293   23.5072 C   0  0  0  0  0  0  0  0  0  0  0  0
    5.1273    7.8529   23.6208 N   0  0  0  0  0  0  0  0  0  0  0  0
    9.7552    9.2338   23.0171 N   0  0  0  0  0  0  0  0  0  0  0  0
   11.1797    6.7591   21.3326 N   0  0  0  0  0  0  0  0  0  0  0  0
   11.7728    8.0337   23.7267 C   0  0  0  0  0  0  0  0  0  0  0  0
    7.1194    8.3344   24.6775 C   0  0  0  0  0  0  0  0  0  0  0  0
    8.4311    4.7963   22.0500 C   0  0  0  0  0  0  0  0  0  0  0  0
    8.7393   10.8706   24.1871 O   0  0  0  0  0  0  0  0  0  0  0  0
    9.3093    3.8166   21.6712 C   0  0  0  0  0  0  0  0  0  0  0  0
  1  5  1  0
  1 15  4  0
  1 22  4  0
  2 20  1  0
  2 24  1  0
  3  6  4  0
  3 27  4  0
  4 22  4  0
  4 26  4  0
  6  7  4  0
  6 13  1  0
  7 19  4  0
  8 18  1  0
  8 23  1  0
  8 28  2  0
  9 17  1  0
  9 24  1  0
 10 11  1  0
 10 24  1  0
 11 23  1  0
 12 14  4  0
 12 16  4  0
 14 19  4  0
 15 18  4  0
 16 20  4  0
 17 25  1  0
 18 26  4  0
 19 29  4  0
 20 29  4  0
 21 23  1  0
 21 25  1  0
 27 29  4  0
M  END
$$$$

 Created by Python create_sdf_string function

 29 32  0  0  0  0  0  0  0  0999 V2000
    5.4450    8.7154   22.6662 C   0  0  0  0  0  0  0  0  0  0  0  0
   10.9154    5.4574   20.5483 C   0  0  0  0  0  0  0  0  0  0  0  0
    7.2709    4.5089   22.7542 C   0  0  0  0  0  0  0  0  0  0  0  0
    5.9698    7.6329   24.6581 C   0  0  0  0  0  0  0  0  0  0  0  0
    4.5542    8.9057   21.7104 O   0  0  0  0  0  0  0  0  0  0  0  0
    6.9895    3.2085   23.0690 C   0  0  0  0  0  0  0  0  0  0  0  0
    7.8391    2.2253   22.7260 N   0  0  0  0  0  0  0  0  0  0  0  0
    8.6968    9.8373   23.6359 C   0  0  0  0  0  0  0  0  0  0  0  0
   12.5135    6.5957   21.8396 C   0  0  0  0  0  0  0  0  0  0  0  0
   10.9406    8.2330   21.1350 C   0  0  0  0  0  0  0  0  0  0  0  0
    9.6648    8.5956   21.7310 C   0  0  0  0  0  0  0  0  0  0  0  0
   10.8829    1.7153   20.9865 C   0  0  0  0  0  0  0  0  0  0  0  0
    5.7768    2.8533   23.7910 C   0  0  0  0  0  0  0  0  0  0  0  0
    9.7977    1.4791   21.6912 N   0  0  0  0  0  0  0  0  0  0  0  0
    6.5976    9.3401   22.6478 N   0  0  0  0  0  0  0  0  0  0  0  0
   11.2031    3.0042   20.6246 C   0  0  0  0  0  0  0  0  0  0  0  0
   12.8688    7.7370   22.7287 C   0  0  0  0  0  0  0  0  0  0  0  0
    7.4487    9.1361   23.6506 C   0  0  0  0  0  0  0  0  0  0  0  0
    8.9772    2.5025   22.0273 C   0  0  0  0  0  0  0  0  0  0  0  0
   10.4859    4.0901   20.9730 C   0  0  0  0  0  0  0  0  0  0  0  0
   11.0962    9.3293   23.5072 C   0  0  0  0  0  0  0  0  0  0  0  0
    5.1273    7.8529   23.6208 N   0  0  0  0  0  0  0  0  0  0  0  0
    9.7552    9.2338   23.0171 N   0  0  0  0  0  0  0  0  0  0  0  0
   11.1797    6.7591   21.3326 N   0  0  0  0  0  0  0  0  0  0  0  0
   11.7728    8.0337   23.7267 C   0  0  0  0  0  0  0  0  0  0  0  0
    7.1194    8.3344   24.6775 C   0  0  0  0  0  0  0  0  0  0  0  0
    8.4311    4.7963   22.0500 C   0  0  0  0  0  0  0  0  0  0  0  0
    8.7393   10.8706   24.1871 O   0  0  0  0  0  0  0  0  0  0  0  0
    9.3093    3.8166   21.6712 C   0  0  0  0  0  0  0  0  0  0  0  0
  1  5  1  0
  1 15  4  0
  1 22  4  0
  2 20  1  0
  2 24  1  0
  3  6  4  0
  3 27  4  0
  4 22  4  0
  4 26  4  0
  6  7  4  0
  6 13  1  0
  7 19  4  0
  8 18  1  0
  8 23  1  0
  8 28  2  0
  9 17  1  0
  9 24  1  0
 10 11  1  0
 10 24  1  0
 11 23  1  0
 12 14  4  0
 12 16  4  0
 14 19  4  0
 15 18  4  0
 16 20  4  0
 17 25  1  0
 18 26  4  0
 19 29  4  0
 20 29  4  0
 21 23  1  0
 21 25  1  0
 27 29  4  0
M  END
$$$$

 Created by Python create_sdf_string function

 29 32  0  0  0  0  0  0  0  0999 V2000
    5.4450    8.7154   22.6662 C   0  0  0  0  0  0  0  0  0  0  0  0
   10.9154    5.4574   20.5483 C   0  0  0  0  0  0  0  0  0  0  0  0
    7.2709    4.5089   22.7542 C   0  0  0  0  0  0  0  0  0  0  0  0
    5.9698    7.6329   24.6581 C   0  0  0  0  0  0  0  0  0  0  0  0
    4.5542    8.9057   21.7104 O   0  0  0  0  0  0  0  0  0  0  0  0
    6.9895    3.2085   23.0690 C   0  0  0  0  0  0  0  0  0  0  0  0
    7.8391    2.2253   22.7260 N   0  0  0  0  0  0  0  0  0  0  0  0
    8.6968    9.8373   23.6359 C   0  0  0  0  0  0  0  0  0  0  0  0
   12.5135    6.5957   21.8396 C   0  0  0  0  0  0  0  0  0  0  0  0
   10.9406    8.2330   21.1350 C   0  0  0  0  0  0  0  0  0  0  0  0
    9.6648    8.5956   21.7310 C   0  0  0  0  0  0  0  0  0  0  0  0
   10.8829    1.7153   20.9865 C   0  0  0  0  0  0  0  0  0  0  0  0
    5.7768    2.8533   23.7910 C   0  0  0  0  0  0  0  0  0  0  0  0
    9.7977    1.4791   21.6912 N   0  0  0  0  0  0  0  0  0  0  0  0
    6.5976    9.3401   22.6478 N   0  0  0  0  0  0  0  0  0  0  0  0
   11.2031    3.0042   20.6246 C   0  0  0  0  0  0  0  0  0  0  0  0
   12.8688    7.7370   22.7287 C   0  0  0  0  0  0  0  0  0  0  0  0
    7.4487    9.1361   23.6506 C   0  0  0  0  0  0  0  0  0  0  0  0
    8.9772    2.5025   22.0273 C   0  0  0  0  0  0  0  0  0  0  0  0
   10.4859    4.0901   20.9730 C   0  0  0  0  0  0  0  0  0  0  0  0
   11.0962    9.3293   23.5072 C   0  0  0  0  0  0  0  0  0  0  0  0
    5.1273    7.8529   23.6208 N   0  0  0  0  0  0  0  0  0  0  0  0
    9.7552    9.2338   23.0171 N   0  0  0  0  0  0  0  0  0  0  0  0
   11.1797    6.7591   21.3326 N   0  0  0  0  0  0  0  0  0  0  0  0
   11.7728    8.0337   23.7267 C   0  0  0  0  0  0  0  0  0  0  0  0
    7.1194    8.3344   24.6775 C   0  0  0  0  0  0  0  0  0  0  0  0
    8.4311    4.7963   22.0500 C   0  0  0  0  0  0  0  0  0  0  0  0
    8.7393   10.8706   24.1871 O   0  0  0  0  0  0  0  0  0  0  0  0
    9.3093    3.8166   21.6712 C   0  0  0  0  0  0  0  0  0  0  0  0
  1  5  1  0
  1 15  4  0
  1 22  4  0
  2 20  1  0
  2 24  1  0
  3  6  4  0
  3 27  4  0
  4 22  4  0
  4 26  4  0
  6  7  4  0
  6 13  1  0
  7 19  4  0
  8 18  1  0
  8 23  1  0
  8 28  2  0
  9 17  1  0
  9 24  1  0
 10 11  1  0
 10 24  1  0
 11 23  1  0
 12 14  4  0
 12 16  4  0
 14 19  4  0
 15 18  4  0
 16 20  4  0
 17 25  1  0
 18 26  4  0
 19 29  4  0
 20 29  4  0
 21 23  1  0
 21 25  1  0
 27 29  4  0
M  END
$$$$

 Created by Python create_sdf_string function

 29 32  0  0  0  0  0  0  0  0999 V2000
    5.4450    8.7154   22.6662 C   0  0  0  0  0  0  0  0  0  0  0  0
   10.9154    5.4574   20.5483 C   0  0  0  0  0  0  0  0  0  0  0  0
    7.2709    4.5089   22.7542 C   0  0  0  0  0  0  0  0  0  0  0  0
    5.9698    7.6329   24.6581 C   0  0  0  0  0  0  0  0  0  0  0  0
    4.5542    8.9057   21.7104 O   0  0  0  0  0  0  0  0  0  0  0  0
    6.9895    3.2085   23.0690 C   0  0  0  0  0  0  0  0  0  0  0  0
    7.8391    2.2253   22.7260 N   0  0  0  0  0  0  0  0  0  0  0  0
    8.6968    9.8373   23.6359 C   0  0  0  0  0  0  0  0  0  0  0  0
   12.5135    6.5957   21.8396 C   0  0  0  0  0  0  0  0  0  0  0  0
   10.9406    8.2330   21.1350 C   0  0  0  0  0  0  0  0  0  0  0  0
    9.6648    8.5956   21.7310 C   0  0  0  0  0  0  0  0  0  0  0  0
   10.8829    1.7153   20.9865 C   0  0  0  0  0  0  0  0  0  0  0  0
    5.7768    2.8533   23.7910 C   0  0  0  0  0  0  0  0  0  0  0  0
    9.7977    1.4791   21.6912 N   0  0  0  0  0  0  0  0  0  0  0  0
    6.5976    9.3401   22.6478 N   0  0  0  0  0  0  0  0  0  0  0  0
   11.2031    3.0042   20.6246 C   0  0  0  0  0  0  0  0  0  0  0  0
   12.8688    7.7370   22.7287 C   0  0  0  0  0  0  0  0  0  0  0  0
    7.4487    9.1361   23.6506 C   0  0  0  0  0  0  0  0  0  0  0  0
    8.9772    2.5025   22.0273 C   0  0  0  0  0  0  0  0  0  0  0  0
   10.4859    4.0901   20.9730 C   0  0  0  0  0  0  0  0  0  0  0  0
   11.0962    9.3293   23.5072 C   0  0  0  0  0  0  0  0  0  0  0  0
    5.1273    7.8529   23.6208 N   0  0  0  0  0  0  0  0  0  0  0  0
    9.7552    9.2338   23.0171 N   0  0  0  0  0  0  0  0  0  0  0  0
   11.1797    6.7591   21.3326 N   0  0  0  0  0  0  0  0  0  0  0  0
   11.7728    8.0337   23.7267 C   0  0  0  0  0  0  0  0  0  0  0  0
    7.1194    8.3344   24.6775 C   0  0  0  0  0  0  0  0  0  0  0  0
    8.4311    4.7963   22.0500 C   0  0  0  0  0  0  0  0  0  0  0  0
    8.7393   10.8706   24.1871 O   0  0  0  0  0  0  0  0  0  0  0  0
    9.3093    3.8166   21.6712 C   0  0  0  0  0  0  0  0  0  0  0  0
  1  5  1  0
  1 15  4  0
  1 22  4  0
  2 20  1  0
  2 24  1  0
  3  6  4  0
  3 27  4  0
  4 22  4  0
  4 26  4  0
  6  7  4  0
  6 13  1  0
  7 19  4  0
  8 18  1  0
  8 23  1  0
  8 28  2  0
  9 17  1  0
  9 24  1  0
 10 11  1  0
 10 24  1  0
 11 23  1  0
 12 14  4  0
 12 16  4  0
 14 19  4  0
 15 18  4  0
 16 20  4  0
 17 25  1  0
 18 26  4  0
 19 29  4  0
 20 29  4  0
 21 23  1  0
 21 25  1  0
 27 29  4  0
M  END
$$$$

 Created by Python create_sdf_string function

 29 32  0  0  0  0  0  0  0  0999 V2000
    5.4450    8.7154   22.6662 C   0  0  0  0  0  0  0  0  0  0  0  0
   10.9154    5.4574   20.5483 C   0  0  0  0  0  0  0  0  0  0  0  0
    7.2709    4.5089   22.7542 C   0  0  0  0  0  0  0  0  0  0  0  0
    5.9698    7.6329   24.6581 C   0  0  0  0  0  0  0  0  0  0  0  0
    4.5542    8.9057   21.7104 O   0  0  0  0  0  0  0  0  0  0  0  0
    6.9895    3.2085   23.0690 C   0  0  0  0  0  0  0  0  0  0  0  0
    7.8391    2.2253   22.7260 N   0  0  0  0  0  0  0  0  0  0  0  0
    8.6968    9.8373   23.6359 C   0  0  0  0  0  0  0  0  0  0  0  0
   12.5135    6.5957   21.8396 C   0  0  0  0  0  0  0  0  0  0  0  0
   10.9406    8.2330   21.1350 C   0  0  0  0  0  0  0  0  0  0  0  0
    9.6648    8.5956   21.7310 C   0  0  0  0  0  0  0  0  0  0  0  0
   10.8829    1.7153   20.9865 C   0  0  0  0  0  0  0  0  0  0  0  0
    5.7768    2.8533   23.7910 C   0  0  0  0  0  0  0  0  0  0  0  0
    9.7977    1.4791   21.6912 N   0  0  0  0  0  0  0  0  0  0  0  0
    6.5976    9.3401   22.6478 N   0  0  0  0  0  0  0  0  0  0  0  0
   11.2031    3.0042   20.6246 C   0  0  0  0  0  0  0  0  0  0  0  0
   12.8688    7.7370   22.7287 C   0  0  0  0  0  0  0  0  0  0  0  0
    7.4487    9.1361   23.6506 C   0  0  0  0  0  0  0  0  0  0  0  0
    8.9772    2.5025   22.0273 C   0  0  0  0  0  0  0  0  0  0  0  0
   10.4859    4.0901   20.9730 C   0  0  0  0  0  0  0  0  0  0  0  0
   11.0962    9.3293   23.5072 C   0  0  0  0  0  0  0  0  0  0  0  0
    5.1273    7.8529   23.6208 N   0  0  0  0  0  0  0  0  0  0  0  0
    9.7552    9.2338   23.0171 N   0  0  0  0  0  0  0  0  0  0  0  0
   11.1797    6.7591   21.3326 N   0  0  0  0  0  0  0  0  0  0  0  0
   11.7728    8.0337   23.7267 C   0  0  0  0  0  0  0  0  0  0  0  0
    7.1194    8.3344   24.6775 C   0  0  0  0  0  0  0  0  0  0  0  0
    8.4311    4.7963   22.0500 C   0  0  0  0  0  0  0  0  0  0  0  0
    8.7393   10.8706   24.1871 O   0  0  0  0  0  0  0  0  0  0  0  0
    9.3093    3.8166   21.6712 C   0  0  0  0  0  0  0  0  0  0  0  0
  1  5  1  0
  1 15  4  0
  1 22  4  0
  2 20  1  0
  2 24  1  0
  3  6  4  0
  3 27  4  0
  4 22  4  0
  4 26  4  0
  6  7  4  0
  6 13  1  0
  7 19  4  0
  8 18  1  0
  8 23  1  0
  8 28  2  0
  9 17  1  0
  9 24  1  0
 10 11  1  0
 10 24  1  0
 11 23  1  0
 12 14  4  0
 12 16  4  0
 14 19  4  0
 15 18  4  0
 16 20  4  0
 17 25  1  0
 18 26  4  0
 19 29  4  0
 20 29  4  0
 21 23  1  0
 21 25  1  0
 27 29  4  0
M  END
$$$$

 Created by Python create_sdf_string function

 29 32  0  0  0  0  0  0  0  0999 V2000
    5.4450    8.7154   22.6662 C   0  0  0  0  0  0  0  0  0  0  0  0
   10.9154    5.4574   20.5483 C   0  0  0  0  0  0  0  0  0  0  0  0
    7.2709    4.5089   22.7542 C   0  0  0  0  0  0  0  0  0  0  0  0
    5.9698    7.6329   24.6581 C   0  0  0  0  0  0  0  0  0  0  0  0
    4.5542    8.9057   21.7104 O   0  0  0  0  0  0  0  0  0  0  0  0
    6.9895    3.2085   23.0690 C   0  0  0  0  0  0  0  0  0  0  0  0
    7.8391    2.2253   22.7260 N   0  0  0  0  0  0  0  0  0  0  0  0
    8.6968    9.8373   23.6359 C   0  0  0  0  0  0  0  0  0  0  0  0
   12.5135    6.5957   21.8396 C   0  0  0  0  0  0  0  0  0  0  0  0
   10.9406    8.2330   21.1350 C   0  0  0  0  0  0  0  0  0  0  0  0
    9.6648    8.5956   21.7310 C   0  0  0  0  0  0  0  0  0  0  0  0
   10.8829    1.7153   20.9865 C   0  0  0  0  0  0  0  0  0  0  0  0
    5.7768    2.8533   23.7910 C   0  0  0  0  0  0  0  0  0  0  0  0
    9.7977    1.4791   21.6912 N   0  0  0  0  0  0  0  0  0  0  0  0
    6.5976    9.3401   22.6478 N   0  0  0  0  0  0  0  0  0  0  0  0
   11.2031    3.0042   20.6246 C   0  0  0  0  0  0  0  0  0  0  0  0
   12.8688    7.7370   22.7287 C   0  0  0  0  0  0  0  0  0  0  0  0
    7.4487    9.1361   23.6506 C   0  0  0  0  0  0  0  0  0  0  0  0
    8.9772    2.5025   22.0273 C   0  0  0  0  0  0  0  0  0  0  0  0
   10.4859    4.0901   20.9730 C   0  0  0  0  0  0  0  0  0  0  0  0
   11.0962    9.3293   23.5072 C   0  0  0  0  0  0  0  0  0  0  0  0
    5.1273    7.8529   23.6208 N   0  0  0  0  0  0  0  0  0  0  0  0
    9.7552    9.2338   23.0171 N   0  0  0  0  0  0  0  0  0  0  0  0
   11.1797    6.7591   21.3326 N   0  0  0  0  0  0  0  0  0  0  0  0
   11.7728    8.0337   23.7267 C   0  0  0  0  0  0  0  0  0  0  0  0
    7.1194    8.3344   24.6775 C   0  0  0  0  0  0  0  0  0  0  0  0
    8.4311    4.7963   22.0500 C   0  0  0  0  0  0  0  0  0  0  0  0
    8.7393   10.8706   24.1871 O   0  0  0  0  0  0  0  0  0  0  0  0
    9.3093    3.8166   21.6712 C   0  0  0  0  0  0  0  0  0  0  0  0
  1  5  1  0
  1 15  4  0
  1 22  4  0
  2 20  1  0
  2 24  1  0
  3  6  4  0
  3 27  4  0
  4 22  4  0
  4 26  4  0
  6  7  4  0
  6 13  1  0
  7 19  4  0
  8 18  1  0
  8 23  1  0
  8 28  2  0
  9 17  1  0
  9 24  1  0
 10 11  1  0
 10 24  1  0
 11 23  1  0
 12 14  4  0
 12 16  4  0
 14 19  4  0
 15 18  4  0
 16 20  4  0
 17 25  1  0
 18 26  4  0
 19 29  4  0
 20 29  4  0
 21 23  1  0
 21 25  1  0
 27 29  4  0
M  END
$$$$

 Created by Python create_sdf_string function

 29 32  0  0  0  0  0  0  0  0999 V2000
    5.4450    8.7154   22.6662 C   0  0  0  0  0  0  0  0  0  0  0  0
   10.9154    5.4574   20.5483 C   0  0  0  0  0  0  0  0  0  0  0  0
    7.2709    4.5089   22.7542 C   0  0  0  0  0  0  0  0  0  0  0  0
    5.9698    7.6329   24.6581 C   0  0  0  0  0  0  0  0  0  0  0  0
    4.5542    8.9057   21.7104 O   0  0  0  0  0  0  0  0  0  0  0  0
    6.9895    3.2085   23.0690 C   0  0  0  0  0  0  0  0  0  0  0  0
    7.8391    2.2253   22.7260 N   0  0  0  0  0  0  0  0  0  0  0  0
    8.6968    9.8373   23.6359 C   0  0  0  0  0  0  0  0  0  0  0  0
   12.5135    6.5957   21.8396 C   0  0  0  0  0  0  0  0  0  0  0  0
   10.9406    8.2330   21.1350 C   0  0  0  0  0  0  0  0  0  0  0  0
    9.6648    8.5956   21.7310 C   0  0  0  0  0  0  0  0  0  0  0  0
   10.8829    1.7153   20.9865 C   0  0  0  0  0  0  0  0  0  0  0  0
    5.7768    2.8533   23.7910 C   0  0  0  0  0  0  0  0  0  0  0  0
    9.7977    1.4791   21.6912 N   0  0  0  0  0  0  0  0  0  0  0  0
    6.5976    9.3401   22.6478 N   0  0  0  0  0  0  0  0  0  0  0  0
   11.2031    3.0042   20.6246 C   0  0  0  0  0  0  0  0  0  0  0  0
   12.8688    7.7370   22.7287 C   0  0  0  0  0  0  0  0  0  0  0  0
    7.4487    9.1361   23.6506 C   0  0  0  0  0  0  0  0  0  0  0  0
    8.9772    2.5025   22.0273 C   0  0  0  0  0  0  0  0  0  0  0  0
   10.4859    4.0901   20.9730 C   0  0  0  0  0  0  0  0  0  0  0  0
   11.0962    9.3293   23.5072 C   0  0  0  0  0  0  0  0  0  0  0  0
    5.1273    7.8529   23.6208 N   0  0  0  0  0  0  0  0  0  0  0  0
    9.7552    9.2338   23.0171 N   0  0  0  0  0  0  0  0  0  0  0  0
   11.1797    6.7591   21.3326 N   0  0  0  0  0  0  0  0  0  0  0  0
   11.7728    8.0337   23.7267 C   0  0  0  0  0  0  0  0  0  0  0  0
    7.1194    8.3344   24.6775 C   0  0  0  0  0  0  0  0  0  0  0  0
    8.4311    4.7963   22.0500 C   0  0  0  0  0  0  0  0  0  0  0  0
    8.7393   10.8706   24.1871 O   0  0  0  0  0  0  0  0  0  0  0  0
    9.3093    3.8166   21.6712 C   0  0  0  0  0  0  0  0  0  0  0  0
  1  5  1  0
  1 15  4  0
  1 22  4  0
  2 20  1  0
  2 24  1  0
  3  6  4  0
  3 27  4  0
  4 22  4  0
  4 26  4  0
  6  7  4  0
  6 13  1  0
  7 19  4  0
  8 18  1  0
  8 23  1  0
  8 28  2  0
  9 17  1  0
  9 24  1  0
 10 11  1  0
 10 24  1  0
 11 23  1  0
 12 14  4  0
 12 16  4  0
 14 19  4  0
 15 18  4  0
 16 20  4  0
 17 25  1  0
 18 26  4  0
 19 29  4  0
 20 29  4  0
 21 23  1  0
 21 25  1  0
 27 29  4  0
M  END
$$$$

 Created by Python create_sdf_string function

 29 32  0  0  0  0  0  0  0  0999 V2000
    5.4450    8.7154   22.6662 C   0  0  0  0  0  0  0  0  0  0  0  0
   10.9154    5.4574   20.5483 C   0  0  0  0  0  0  0  0  0  0  0  0
    7.2709    4.5089   22.7542 C   0  0  0  0  0  0  0  0  0  0  0  0
    5.9698    7.6329   24.6581 C   0  0  0  0  0  0  0  0  0  0  0  0
    4.5542    8.9057   21.7104 O   0  0  0  0  0  0  0  0  0  0  0  0
    6.9895    3.2085   23.0690 C   0  0  0  0  0  0  0  0  0  0  0  0
    7.8391    2.2253   22.7260 N   0  0  0  0  0  0  0  0  0  0  0  0
    8.6968    9.8373   23.6359 C   0  0  0  0  0  0  0  0  0  0  0  0
   12.5135    6.5957   21.8396 C   0  0  0  0  0  0  0  0  0  0  0  0
   10.9406    8.2330   21.1350 C   0  0  0  0  0  0  0  0  0  0  0  0
    9.6648    8.5956   21.7310 C   0  0  0  0  0  0  0  0  0  0  0  0
   10.8829    1.7153   20.9865 C   0  0  0  0  0  0  0  0  0  0  0  0
    5.7768    2.8533   23.7910 C   0  0  0  0  0  0  0  0  0  0  0  0
    9.7977    1.4791   21.6912 N   0  0  0  0  0  0  0  0  0  0  0  0
    6.5976    9.3401   22.6478 N   0  0  0  0  0  0  0  0  0  0  0  0
   11.2031    3.0042   20.6246 C   0  0  0  0  0  0  0  0  0  0  0  0
   12.8688    7.7370   22.7287 C   0  0  0  0  0  0  0  0  0  0  0  0
    7.4487    9.1361   23.6506 C   0  0  0  0  0  0  0  0  0  0  0  0
    8.9772    2.5025   22.0273 C   0  0  0  0  0  0  0  0  0  0  0  0
   10.4859    4.0901   20.9730 C   0  0  0  0  0  0  0  0  0  0  0  0
   11.0962    9.3293   23.5072 C   0  0  0  0  0  0  0  0  0  0  0  0
    5.1273    7.8529   23.6208 N   0  0  0  0  0  0  0  0  0  0  0  0
    9.7552    9.2338   23.0171 N   0  0  0  0  0  0  0  0  0  0  0  0
   11.1797    6.7591   21.3326 N   0  0  0  0  0  0  0  0  0  0  0  0
   11.7728    8.0337   23.7267 C   0  0  0  0  0  0  0  0  0  0  0  0
    7.1194    8.3344   24.6775 C   0  0  0  0  0  0  0  0  0  0  0  0
    8.4311    4.7963   22.0500 C   0  0  0  0  0  0  0  0  0  0  0  0
    8.7393   10.8706   24.1871 O   0  0  0  0  0  0  0  0  0  0  0  0
    9.3093    3.8166   21.6712 C   0  0  0  0  0  0  0  0  0  0  0  0
  1  5  1  0
  1 15  4  0
  1 22  4  0
  2 20  1  0
  2 24  1  0
  3  6  4  0
  3 27  4  0
  4 22  4  0
  4 26  4  0
  6  7  4  0
  6 13  1  0
  7 19  4  0
  8 18  1  0
  8 23  1  0
  8 28  2  0
  9 17  1  0
  9 24  1  0
 10 11  1  0
 10 24  1  0
 11 23  1  0
 12 14  4  0
 12 16  4  0
 14 19  4  0
 15 18  4  0
 16 20  4  0
 17 25  1  0
 18 26  4  0
 19 29  4  0
 20 29  4  0
 21 23  1  0
 21 25  1  0
 27 29  4  0
M  END
$$$$

 Created by Python create_sdf_string function

 29 32  0  0  0  0  0  0  0  0999 V2000
    5.4450    8.7154   22.6662 C   0  0  0  0  0  0  0  0  0  0  0  0
   10.9154    5.4574   20.5483 C   0  0  0  0  0  0  0  0  0  0  0  0
    7.2709    4.5089   22.7542 C   0  0  0  0  0  0  0  0  0  0  0  0
    5.9698    7.6329   24.6581 C   0  0  0  0  0  0  0  0  0  0  0  0
    4.5542    8.9057   21.7104 O   0  0  0  0  0  0  0  0  0  0  0  0
    6.9895    3.2085   23.0690 C   0  0  0  0  0  0  0  0  0  0  0  0
    7.8391    2.2253   22.7260 N   0  0  0  0  0  0  0  0  0  0  0  0
    8.6968    9.8373   23.6359 C   0  0  0  0  0  0  0  0  0  0  0  0
   12.5135    6.5957   21.8396 C   0  0  0  0  0  0  0  0  0  0  0  0
   10.9406    8.2330   21.1350 C   0  0  0  0  0  0  0  0  0  0  0  0
    9.6648    8.5956   21.7310 C   0  0  0  0  0  0  0  0  0  0  0  0
   10.8829    1.7153   20.9865 C   0  0  0  0  0  0  0  0  0  0  0  0
    5.7768    2.8533   23.7910 C   0  0  0  0  0  0  0  0  0  0  0  0
    9.7977    1.4791   21.6912 N   0  0  0  0  0  0  0  0  0  0  0  0
    6.5976    9.3401   22.6478 N   0  0  0  0  0  0  0  0  0  0  0  0
   11.2031    3.0042   20.6246 C   0  0  0  0  0  0  0  0  0  0  0  0
   12.8688    7.7370   22.7287 C   0  0  0  0  0  0  0  0  0  0  0  0
    7.4487    9.1361   23.6506 C   0  0  0  0  0  0  0  0  0  0  0  0
    8.9772    2.5025   22.0273 C   0  0  0  0  0  0  0  0  0  0  0  0
   10.4859    4.0901   20.9730 C   0  0  0  0  0  0  0  0  0  0  0  0
   11.0962    9.3293   23.5072 C   0  0  0  0  0  0  0  0  0  0  0  0
    5.1273    7.8529   23.6208 N   0  0  0  0  0  0  0  0  0  0  0  0
    9.7552    9.2338   23.0171 N   0  0  0  0  0  0  0  0  0  0  0  0
   11.1797    6.7591   21.3326 N   0  0  0  0  0  0  0  0  0  0  0  0
   11.7728    8.0337   23.7267 C   0  0  0  0  0  0  0  0  0  0  0  0
    7.1194    8.3344   24.6775 C   0  0  0  0  0  0  0  0  0  0  0  0
    8.4311    4.7963   22.0500 C   0  0  0  0  0  0  0  0  0  0  0  0
    8.7393   10.8706   24.1871 O   0  0  0  0  0  0  0  0  0  0  0  0
    9.3093    3.8166   21.6712 C   0  0  0  0  0  0  0  0  0  0  0  0
  1  5  1  0
  1 15  4  0
  1 22  4  0
  2 20  1  0
  2 24  1  0
  3  6  4  0
  3 27  4  0
  4 22  4  0
  4 26  4  0
  6  7  4  0
  6 13  1  0
  7 19  4  0
  8 18  1  0
  8 23  1  0
  8 28  2  0
  9 17  1  0
  9 24  1  0
 10 11  1  0
 10 24  1  0
 11 23  1  0
 12 14  4  0
 12 16  4  0
 14 19  4  0
 15 18  4  0
 16 20  4  0
 17 25  1  0
 18 26  4  0
 19 29  4  0
 20 29  4  0
 21 23  1  0
 21 25  1  0
 27 29  4  0
M  END
$$$$

 Created by Python create_sdf_string function

 29 32  0  0  0  0  0  0  0  0999 V2000
    5.4450    8.7154   22.6662 C   0  0  0  0  0  0  0  0  0  0  0  0
   10.9154    5.4574   20.5483 C   0  0  0  0  0  0  0  0  0  0  0  0
    7.2709    4.5089   22.7542 C   0  0  0  0  0  0  0  0  0  0  0  0
    5.9698    7.6329   24.6581 C   0  0  0  0  0  0  0  0  0  0  0  0
    4.5542    8.9057   21.7104 O   0  0  0  0  0  0  0  0  0  0  0  0
    6.9895    3.2085   23.0690 C   0  0  0  0  0  0  0  0  0  0  0  0
    7.8391    2.2253   22.7260 N   0  0  0  0  0  0  0  0  0  0  0  0
    8.6968    9.8373   23.6359 C   0  0  0  0  0  0  0  0  0  0  0  0
   12.5135    6.5957   21.8396 C   0  0  0  0  0  0  0  0  0  0  0  0
   10.9406    8.2330   21.1350 C   0  0  0  0  0  0  0  0  0  0  0  0
    9.6648    8.5956   21.7310 C   0  0  0  0  0  0  0  0  0  0  0  0
   10.8829    1.7153   20.9865 C   0  0  0  0  0  0  0  0  0  0  0  0
    5.7768    2.8533   23.7910 C   0  0  0  0  0  0  0  0  0  0  0  0
    9.7977    1.4791   21.6912 N   0  0  0  0  0  0  0  0  0  0  0  0
    6.5976    9.3401   22.6478 N   0  0  0  0  0  0  0  0  0  0  0  0
   11.2031    3.0042   20.6246 C   0  0  0  0  0  0  0  0  0  0  0  0
   12.8688    7.7370   22.7287 C   0  0  0  0  0  0  0  0  0  0  0  0
    7.4487    9.1361   23.6506 C   0  0  0  0  0  0  0  0  0  0  0  0
    8.9772    2.5025   22.0273 C   0  0  0  0  0  0  0  0  0  0  0  0
   10.4859    4.0901   20.9730 C   0  0  0  0  0  0  0  0  0  0  0  0
   11.0962    9.3293   23.5072 C   0  0  0  0  0  0  0  0  0  0  0  0
    5.1273    7.8529   23.6208 N   0  0  0  0  0  0  0  0  0  0  0  0
    9.7552    9.2338   23.0171 N   0  0  0  0  0  0  0  0  0  0  0  0
   11.1797    6.7591   21.3326 N   0  0  0  0  0  0  0  0  0  0  0  0
   11.7728    8.0337   23.7267 C   0  0  0  0  0  0  0  0  0  0  0  0
    7.1194    8.3344   24.6775 C   0  0  0  0  0  0  0  0  0  0  0  0
    8.4311    4.7963   22.0500 C   0  0  0  0  0  0  0  0  0  0  0  0
    8.7393   10.8706   24.1871 O   0  0  0  0  0  0  0  0  0  0  0  0
    9.3093    3.8166   21.6712 C   0  0  0  0  0  0  0  0  0  0  0  0
  1  5  1  0
  1 15  4  0
  1 22  4  0
  2 20  1  0
  2 24  1  0
  3  6  4  0
  3 27  4  0
  4 22  4  0
  4 26  4  0
  6  7  4  0
  6 13  1  0
  7 19  4  0
  8 18  1  0
  8 23  1  0
  8 28  2  0
  9 17  1  0
  9 24  1  0
 10 11  1  0
 10 24  1  0
 11 23  1  0
 12 14  4  0
 12 16  4  0
 14 19  4  0
 15 18  4  0
 16 20  4  0
 17 25  1  0
 18 26  4  0
 19 29  4  0
 20 29  4  0
 21 23  1  0
 21 25  1  0
 27 29  4  0
M  END
$$$$

 Created by Python create_sdf_string function

 29 32  0  0  0  0  0  0  0  0999 V2000
    5.4450    8.7154   22.6662 C   0  0  0  0  0  0  0  0  0  0  0  0
   10.9154    5.4574   20.5483 C   0  0  0  0  0  0  0  0  0  0  0  0
    7.2709    4.5089   22.7542 C   0  0  0  0  0  0  0  0  0  0  0  0
    5.9698    7.6329   24.6581 C   0  0  0  0  0  0  0  0  0  0  0  0
    4.5542    8.9057   21.7104 O   0  0  0  0  0  0  0  0  0  0  0  0
    6.9895    3.2085   23.0690 C   0  0  0  0  0  0  0  0  0  0  0  0
    7.8391    2.2253   22.7260 N   0  0  0  0  0  0  0  0  0  0  0  0
    8.6968    9.8373   23.6359 C   0  0  0  0  0  0  0  0  0  0  0  0
   12.5135    6.5957   21.8396 C   0  0  0  0  0  0  0  0  0  0  0  0
   10.9406    8.2330   21.1350 C   0  0  0  0  0  0  0  0  0  0  0  0
    9.6648    8.5956   21.7310 C   0  0  0  0  0  0  0  0  0  0  0  0
   10.8829    1.7153   20.9865 C   0  0  0  0  0  0  0  0  0  0  0  0
    5.7768    2.8533   23.7910 C   0  0  0  0  0  0  0  0  0  0  0  0
    9.7977    1.4791   21.6912 N   0  0  0  0  0  0  0  0  0  0  0  0
    6.5976    9.3401   22.6478 N   0  0  0  0  0  0  0  0  0  0  0  0
   11.2031    3.0042   20.6246 C   0  0  0  0  0  0  0  0  0  0  0  0
   12.8688    7.7370   22.7287 C   0  0  0  0  0  0  0  0  0  0  0  0
    7.4487    9.1361   23.6506 C   0  0  0  0  0  0  0  0  0  0  0  0
    8.9772    2.5025   22.0273 C   0  0  0  0  0  0  0  0  0  0  0  0
   10.4859    4.0901   20.9730 C   0  0  0  0  0  0  0  0  0  0  0  0
   11.0962    9.3293   23.5072 C   0  0  0  0  0  0  0  0  0  0  0  0
    5.1273    7.8529   23.6208 N   0  0  0  0  0  0  0  0  0  0  0  0
    9.7552    9.2338   23.0171 N   0  0  0  0  0  0  0  0  0  0  0  0
   11.1797    6.7591   21.3326 N   0  0  0  0  0  0  0  0  0  0  0  0
   11.7728    8.0337   23.7267 C   0  0  0  0  0  0  0  0  0  0  0  0
    7.1194    8.3344   24.6775 C   0  0  0  0  0  0  0  0  0  0  0  0
    8.4311    4.7963   22.0500 C   0  0  0  0  0  0  0  0  0  0  0  0
    8.7393   10.8706   24.1871 O   0  0  0  0  0  0  0  0  0  0  0  0
    9.3093    3.8166   21.6712 C   0  0  0  0  0  0  0  0  0  0  0  0
  1  5  1  0
  1 15  4  0
  1 22  4  0
  2 20  1  0
  2 24  1  0
  3  6  4  0
  3 27  4  0
  4 22  4  0
  4 26  4  0
  6  7  4  0
  6 13  1  0
  7 19  4  0
  8 18  1  0
  8 23  1  0
  8 28  2  0
  9 17  1  0
  9 24  1  0
 10 11  1  0
 10 24  1  0
 11 23  1  0
 12 14  4  0
 12 16  4  0
 14 19  4  0
 15 18  4  0
 16 20  4  0
 17 25  1  0
 18 26  4  0
 19 29  4  0
 20 29  4  0
 21 23  1  0
 21 25  1  0
 27 29  4  0
M  END
$$$$

 Created by Python create_sdf_string function

 29 32  0  0  0  0  0  0  0  0999 V2000
    5.4450    8.7154   22.6662 C   0  0  0  0  0  0  0  0  0  0  0  0
   10.9154    5.4574   20.5483 C   0  0  0  0  0  0  0  0  0  0  0  0
    7.2709    4.5089   22.7542 C   0  0  0  0  0  0  0  0  0  0  0  0
    5.9698    7.6329   24.6581 C   0  0  0  0  0  0  0  0  0  0  0  0
    4.5542    8.9057   21.7104 O   0  0  0  0  0  0  0  0  0  0  0  0
    6.9895    3.2085   23.0690 C   0  0  0  0  0  0  0  0  0  0  0  0
    7.8391    2.2253   22.7260 N   0  0  0  0  0  0  0  0  0  0  0  0
    8.6968    9.8373   23.6359 C   0  0  0  0  0  0  0  0  0  0  0  0
   12.5135    6.5957   21.8396 C   0  0  0  0  0  0  0  0  0  0  0  0
   10.9406    8.2330   21.1350 C   0  0  0  0  0  0  0  0  0  0  0  0
    9.6648    8.5956   21.7310 C   0  0  0  0  0  0  0  0  0  0  0  0
   10.8829    1.7153   20.9865 C   0  0  0  0  0  0  0  0  0  0  0  0
    5.7768    2.8533   23.7910 C   0  0  0  0  0  0  0  0  0  0  0  0
    9.7977    1.4791   21.6912 N   0  0  0  0  0  0  0  0  0  0  0  0
    6.5976    9.3401   22.6478 N   0  0  0  0  0  0  0  0  0  0  0  0
   11.2031    3.0042   20.6246 C   0  0  0  0  0  0  0  0  0  0  0  0
   12.8688    7.7370   22.7287 C   0  0  0  0  0  0  0  0  0  0  0  0
    7.4487    9.1361   23.6506 C   0  0  0  0  0  0  0  0  0  0  0  0
    8.9772    2.5025   22.0273 C   0  0  0  0  0  0  0  0  0  0  0  0
   10.4859    4.0901   20.9730 C   0  0  0  0  0  0  0  0  0  0  0  0
   11.0962    9.3293   23.5072 C   0  0  0  0  0  0  0  0  0  0  0  0
    5.1273    7.8529   23.6208 N   0  0  0  0  0  0  0  0  0  0  0  0
    9.7552    9.2338   23.0171 N   0  0  0  0  0  0  0  0  0  0  0  0
   11.1797    6.7591   21.3326 N   0  0  0  0  0  0  0  0  0  0  0  0
   11.7728    8.0337   23.7267 C   0  0  0  0  0  0  0  0  0  0  0  0
    7.1194    8.3344   24.6775 C   0  0  0  0  0  0  0  0  0  0  0  0
    8.4311    4.7963   22.0500 C   0  0  0  0  0  0  0  0  0  0  0  0
    8.7393   10.8706   24.1871 O   0  0  0  0  0  0  0  0  0  0  0  0
    9.3093    3.8166   21.6712 C   0  0  0  0  0  0  0  0  0  0  0  0
  1  5  1  0
  1 15  4  0
  1 22  4  0
  2 20  1  0
  2 24  1  0
  3  6  4  0
  3 27  4  0
  4 22  4  0
  4 26  4  0
  6  7  4  0
  6 13  1  0
  7 19  4  0
  8 18  1  0
  8 23  1  0
  8 28  2  0
  9 17  1  0
  9 24  1  0
 10 11  1  0
 10 24  1  0
 11 23  1  0
 12 14  4  0
 12 16  4  0
 14 19  4  0
 15 18  4  0
 16 20  4  0
 17 25  1  0
 18 26  4  0
 19 29  4  0
 20 29  4  0
 21 23  1  0
 21 25  1  0
 27 29  4  0
M  END
$$$$

 Created by Python create_sdf_string function

 29 32  0  0  0  0  0  0  0  0999 V2000
    5.4450    8.7154   22.6662 C   0  0  0  0  0  0  0  0  0  0  0  0
   10.9154    5.4574   20.5483 C   0  0  0  0  0  0  0  0  0  0  0  0
    7.2709    4.5089   22.7542 C   0  0  0  0  0  0  0  0  0  0  0  0
    5.9698    7.6329   24.6581 C   0  0  0  0  0  0  0  0  0  0  0  0
    4.5542    8.9057   21.7104 O   0  0  0  0  0  0  0  0  0  0  0  0
    6.9895    3.2085   23.0690 C   0  0  0  0  0  0  0  0  0  0  0  0
    7.8391    2.2253   22.7260 N   0  0  0  0  0  0  0  0  0  0  0  0
    8.6968    9.8373   23.6359 C   0  0  0  0  0  0  0  0  0  0  0  0
   12.5135    6.5957   21.8396 C   0  0  0  0  0  0  0  0  0  0  0  0
   10.9406    8.2330   21.1350 C   0  0  0  0  0  0  0  0  0  0  0  0
    9.6648    8.5956   21.7310 C   0  0  0  0  0  0  0  0  0  0  0  0
   10.8829    1.7153   20.9865 C   0  0  0  0  0  0  0  0  0  0  0  0
    5.7768    2.8533   23.7910 C   0  0  0  0  0  0  0  0  0  0  0  0
    9.7977    1.4791   21.6912 N   0  0  0  0  0  0  0  0  0  0  0  0
    6.5976    9.3401   22.6478 N   0  0  0  0  0  0  0  0  0  0  0  0
   11.2031    3.0042   20.6246 C   0  0  0  0  0  0  0  0  0  0  0  0
   12.8688    7.7370   22.7287 C   0  0  0  0  0  0  0  0  0  0  0  0
    7.4487    9.1361   23.6506 C   0  0  0  0  0  0  0  0  0  0  0  0
    8.9772    2.5025   22.0273 C   0  0  0  0  0  0  0  0  0  0  0  0
   10.4859    4.0901   20.9730 C   0  0  0  0  0  0  0  0  0  0  0  0
   11.0962    9.3293   23.5072 C   0  0  0  0  0  0  0  0  0  0  0  0
    5.1273    7.8529   23.6208 N   0  0  0  0  0  0  0  0  0  0  0  0
    9.7552    9.2338   23.0171 N   0  0  0  0  0  0  0  0  0  0  0  0
   11.1797    6.7591   21.3326 N   0  0  0  0  0  0  0  0  0  0  0  0
   11.7728    8.0337   23.7267 C   0  0  0  0  0  0  0  0  0  0  0  0
    7.1194    8.3344   24.6775 C   0  0  0  0  0  0  0  0  0  0  0  0
    8.4311    4.7963   22.0500 C   0  0  0  0  0  0  0  0  0  0  0  0
    8.7393   10.8706   24.1871 O   0  0  0  0  0  0  0  0  0  0  0  0
    9.3093    3.8166   21.6712 C   0  0  0  0  0  0  0  0  0  0  0  0
  1  5  1  0
  1 15  4  0
  1 22  4  0
  2 20  1  0
  2 24  1  0
  3  6  4  0
  3 27  4  0
  4 22  4  0
  4 26  4  0
  6  7  4  0
  6 13  1  0
  7 19  4  0
  8 18  1  0
  8 23  1  0
  8 28  2  0
  9 17  1  0
  9 24  1  0
 10 11  1  0
 10 24  1  0
 11 23  1  0
 12 14  4  0
 12 16  4  0
 14 19  4  0
 15 18  4  0
 16 20  4  0
 17 25  1  0
 18 26  4  0
 19 29  4  0
 20 29  4  0
 21 23  1  0
 21 25  1  0
 27 29  4  0
M  END
$$$$

 Created by Python create_sdf_string function

 29 32  0  0  0  0  0  0  0  0999 V2000
    5.4450    8.7154   22.6662 C   0  0  0  0  0  0  0  0  0  0  0  0
   10.9154    5.4574   20.5483 C   0  0  0  0  0  0  0  0  0  0  0  0
    7.2709    4.5089   22.7542 C   0  0  0  0  0  0  0  0  0  0  0  0
    5.9698    7.6329   24.6581 C   0  0  0  0  0  0  0  0  0  0  0  0
    4.5542    8.9057   21.7104 O   0  0  0  0  0  0  0  0  0  0  0  0
    6.9895    3.2085   23.0690 C   0  0  0  0  0  0  0  0  0  0  0  0
    7.8391    2.2253   22.7260 N   0  0  0  0  0  0  0  0  0  0  0  0
    8.6968    9.8373   23.6359 C   0  0  0  0  0  0  0  0  0  0  0  0
   12.5135    6.5957   21.8396 C   0  0  0  0  0  0  0  0  0  0  0  0
   10.9406    8.2330   21.1350 C   0  0  0  0  0  0  0  0  0  0  0  0
    9.6648    8.5956   21.7310 C   0  0  0  0  0  0  0  0  0  0  0  0
   10.8829    1.7153   20.9865 C   0  0  0  0  0  0  0  0  0  0  0  0
    5.7768    2.8533   23.7910 C   0  0  0  0  0  0  0  0  0  0  0  0
    9.7977    1.4791   21.6912 N   0  0  0  0  0  0  0  0  0  0  0  0
    6.5976    9.3401   22.6478 N   0  0  0  0  0  0  0  0  0  0  0  0
   11.2031    3.0042   20.6246 C   0  0  0  0  0  0  0  0  0  0  0  0
   12.8688    7.7370   22.7287 C   0  0  0  0  0  0  0  0  0  0  0  0
    7.4487    9.1361   23.6506 C   0  0  0  0  0  0  0  0  0  0  0  0
    8.9772    2.5025   22.0273 C   0  0  0  0  0  0  0  0  0  0  0  0
   10.4859    4.0901   20.9730 C   0  0  0  0  0  0  0  0  0  0  0  0
   11.0962    9.3293   23.5072 C   0  0  0  0  0  0  0  0  0  0  0  0
    5.1273    7.8529   23.6208 N   0  0  0  0  0  0  0  0  0  0  0  0
    9.7552    9.2338   23.0171 N   0  0  0  0  0  0  0  0  0  0  0  0
   11.1797    6.7591   21.3326 N   0  0  0  0  0  0  0  0  0  0  0  0
   11.7728    8.0337   23.7267 C   0  0  0  0  0  0  0  0  0  0  0  0
    7.1194    8.3344   24.6775 C   0  0  0  0  0  0  0  0  0  0  0  0
    8.4311    4.7963   22.0500 C   0  0  0  0  0  0  0  0  0  0  0  0
    8.7393   10.8706   24.1871 O   0  0  0  0  0  0  0  0  0  0  0  0
    9.3093    3.8166   21.6712 C   0  0  0  0  0  0  0  0  0  0  0  0
  1  5  1  0
  1 15  4  0
  1 22  4  0
  2 20  1  0
  2 24  1  0
  3  6  4  0
  3 27  4  0
  4 22  4  0
  4 26  4  0
  6  7  4  0
  6 13  1  0
  7 19  4  0
  8 18  1  0
  8 23  1  0
  8 28  2  0
  9 17  1  0
  9 24  1  0
 10 11  1  0
 10 24  1  0
 11 23  1  0
 12 14  4  0
 12 16  4  0
 14 19  4  0
 15 18  4  0
 16 20  4  0
 17 25  1  0
 18 26  4  0
 19 29  4  0
 20 29  4  0
 21 23  1  0
 21 25  1  0
 27 29  4  0
M  END
$$$$

 Created by Python create_sdf_string function

 29 32  0  0  0  0  0  0  0  0999 V2000
    5.4450    8.7154   22.6662 C   0  0  0  0  0  0  0  0  0  0  0  0
   10.9154    5.4574   20.5483 C   0  0  0  0  0  0  0  0  0  0  0  0
    7.2709    4.5089   22.7542 C   0  0  0  0  0  0  0  0  0  0  0  0
    5.9698    7.6329   24.6581 C   0  0  0  0  0  0  0  0  0  0  0  0
    4.5542    8.9057   21.7104 O   0  0  0  0  0  0  0  0  0  0  0  0
    6.9895    3.2085   23.0690 C   0  0  0  0  0  0  0  0  0  0  0  0
    7.8391    2.2253   22.7260 N   0  0  0  0  0  0  0  0  0  0  0  0
    8.6968    9.8373   23.6359 C   0  0  0  0  0  0  0  0  0  0  0  0
   12.5135    6.5957   21.8396 C   0  0  0  0  0  0  0  0  0  0  0  0
   10.9406    8.2330   21.1350 C   0  0  0  0  0  0  0  0  0  0  0  0
    9.6648    8.5956   21.7310 C   0  0  0  0  0  0  0  0  0  0  0  0
   10.8829    1.7153   20.9865 C   0  0  0  0  0  0  0  0  0  0  0  0
    5.7768    2.8533   23.7910 C   0  0  0  0  0  0  0  0  0  0  0  0
    9.7977    1.4791   21.6912 N   0  0  0  0  0  0  0  0  0  0  0  0
    6.5976    9.3401   22.6478 N   0  0  0  0  0  0  0  0  0  0  0  0
   11.2031    3.0042   20.6246 C   0  0  0  0  0  0  0  0  0  0  0  0
   12.8688    7.7370   22.7287 C   0  0  0  0  0  0  0  0  0  0  0  0
    7.4487    9.1361   23.6506 C   0  0  0  0  0  0  0  0  0  0  0  0
    8.9772    2.5025   22.0273 C   0  0  0  0  0  0  0  0  0  0  0  0
   10.4859    4.0901   20.9730 C   0  0  0  0  0  0  0  0  0  0  0  0
   11.0962    9.3293   23.5072 C   0  0  0  0  0  0  0  0  0  0  0  0
    5.1273    7.8529   23.6208 N   0  0  0  0  0  0  0  0  0  0  0  0
    9.7552    9.2338   23.0171 N   0  0  0  0  0  0  0  0  0  0  0  0
   11.1797    6.7591   21.3326 N   0  0  0  0  0  0  0  0  0  0  0  0
   11.7728    8.0337   23.7267 C   0  0  0  0  0  0  0  0  0  0  0  0
    7.1194    8.3344   24.6775 C   0  0  0  0  0  0  0  0  0  0  0  0
    8.4311    4.7963   22.0500 C   0  0  0  0  0  0  0  0  0  0  0  0
    8.7393   10.8706   24.1871 O   0  0  0  0  0  0  0  0  0  0  0  0
    9.3093    3.8166   21.6712 C   0  0  0  0  0  0  0  0  0  0  0  0
  1  5  1  0
  1 15  4  0
  1 22  4  0
  2 20  1  0
  2 24  1  0
  3  6  4  0
  3 27  4  0
  4 22  4  0
  4 26  4  0
  6  7  4  0
  6 13  1  0
  7 19  4  0
  8 18  1  0
  8 23  1  0
  8 28  2  0
  9 17  1  0
  9 24  1  0
 10 11  1  0
 10 24  1  0
 11 23  1  0
 12 14  4  0
 12 16  4  0
 14 19  4  0
 15 18  4  0
 16 20  4  0
 17 25  1  0
 18 26  4  0
 19 29  4  0
 20 29  4  0
 21 23  1  0
 21 25  1  0
 27 29  4  0
M  END
$$$$

 Created by Python create_sdf_string function

 29 32  0  0  0  0  0  0  0  0999 V2000
    5.4450    8.7154   22.6662 C   0  0  0  0  0  0  0  0  0  0  0  0
   10.9154    5.4574   20.5483 C   0  0  0  0  0  0  0  0  0  0  0  0
    7.2709    4.5089   22.7542 C   0  0  0  0  0  0  0  0  0  0  0  0
    5.9698    7.6329   24.6581 C   0  0  0  0  0  0  0  0  0  0  0  0
    4.5542    8.9057   21.7104 O   0  0  0  0  0  0  0  0  0  0  0  0
    6.9895    3.2085   23.0690 C   0  0  0  0  0  0  0  0  0  0  0  0
    7.8391    2.2253   22.7260 N   0  0  0  0  0  0  0  0  0  0  0  0
    8.6968    9.8373   23.6359 C   0  0  0  0  0  0  0  0  0  0  0  0
   12.5135    6.5957   21.8396 C   0  0  0  0  0  0  0  0  0  0  0  0
   10.9406    8.2330   21.1350 C   0  0  0  0  0  0  0  0  0  0  0  0
    9.6648    8.5956   21.7310 C   0  0  0  0  0  0  0  0  0  0  0  0
   10.8829    1.7153   20.9865 C   0  0  0  0  0  0  0  0  0  0  0  0
    5.7768    2.8533   23.7910 C   0  0  0  0  0  0  0  0  0  0  0  0
    9.7977    1.4791   21.6912 N   0  0  0  0  0  0  0  0  0  0  0  0
    6.5976    9.3401   22.6478 N   0  0  0  0  0  0  0  0  0  0  0  0
   11.2031    3.0042   20.6246 C   0  0  0  0  0  0  0  0  0  0  0  0
   12.8688    7.7370   22.7287 C   0  0  0  0  0  0  0  0  0  0  0  0
    7.4487    9.1361   23.6506 C   0  0  0  0  0  0  0  0  0  0  0  0
    8.9772    2.5025   22.0273 C   0  0  0  0  0  0  0  0  0  0  0  0
   10.4859    4.0901   20.9730 C   0  0  0  0  0  0  0  0  0  0  0  0
   11.0962    9.3293   23.5072 C   0  0  0  0  0  0  0  0  0  0  0  0
    5.1273    7.8529   23.6208 N   0  0  0  0  0  0  0  0  0  0  0  0
    9.7552    9.2338   23.0171 N   0  0  0  0  0  0  0  0  0  0  0  0
   11.1797    6.7591   21.3326 N   0  0  0  0  0  0  0  0  0  0  0  0
   11.7728    8.0337   23.7267 C   0  0  0  0  0  0  0  0  0  0  0  0
    7.1194    8.3344   24.6775 C   0  0  0  0  0  0  0  0  0  0  0  0
    8.4311    4.7963   22.0500 C   0  0  0  0  0  0  0  0  0  0  0  0
    8.7393   10.8706   24.1871 O   0  0  0  0  0  0  0  0  0  0  0  0
    9.3093    3.8166   21.6712 C   0  0  0  0  0  0  0  0  0  0  0  0
  1  5  1  0
  1 15  4  0
  1 22  4  0
  2 20  1  0
  2 24  1  0
  3  6  4  0
  3 27  4  0
  4 22  4  0
  4 26  4  0
  6  7  4  0
  6 13  1  0
  7 19  4  0
  8 18  1  0
  8 23  1  0
  8 28  2  0
  9 17  1  0
  9 24  1  0
 10 11  1  0
 10 24  1  0
 11 23  1  0
 12 14  4  0
 12 16  4  0
 14 19  4  0
 15 18  4  0
 16 20  4  0
 17 25  1  0
 18 26  4  0
 19 29  4  0
 20 29  4  0
 21 23  1  0
 21 25  1  0
 27 29  4  0
M  END
$$$$

 Created by Python create_sdf_string function

 29 32  0  0  0  0  0  0  0  0999 V2000
    5.4450    8.7154   22.6662 C   0  0  0  0  0  0  0  0  0  0  0  0
   10.9154    5.4574   20.5483 C   0  0  0  0  0  0  0  0  0  0  0  0
    7.2709    4.5089   22.7542 C   0  0  0  0  0  0  0  0  0  0  0  0
    5.9698    7.6329   24.6581 C   0  0  0  0  0  0  0  0  0  0  0  0
    4.5542    8.9057   21.7104 O   0  0  0  0  0  0  0  0  0  0  0  0
    6.9895    3.2085   23.0690 C   0  0  0  0  0  0  0  0  0  0  0  0
    7.8391    2.2253   22.7260 N   0  0  0  0  0  0  0  0  0  0  0  0
    8.6968    9.8373   23.6359 C   0  0  0  0  0  0  0  0  0  0  0  0
   12.5135    6.5957   21.8396 C   0  0  0  0  0  0  0  0  0  0  0  0
   10.9406    8.2330   21.1350 C   0  0  0  0  0  0  0  0  0  0  0  0
    9.6648    8.5956   21.7310 C   0  0  0  0  0  0  0  0  0  0  0  0
   10.8829    1.7153   20.9865 C   0  0  0  0  0  0  0  0  0  0  0  0
    5.7768    2.8533   23.7910 C   0  0  0  0  0  0  0  0  0  0  0  0
    9.7977    1.4791   21.6912 N   0  0  0  0  0  0  0  0  0  0  0  0
    6.5976    9.3401   22.6478 N   0  0  0  0  0  0  0  0  0  0  0  0
   11.2031    3.0042   20.6246 C   0  0  0  0  0  0  0  0  0  0  0  0
   12.8688    7.7370   22.7287 C   0  0  0  0  0  0  0  0  0  0  0  0
    7.4487    9.1361   23.6506 C   0  0  0  0  0  0  0  0  0  0  0  0
    8.9772    2.5025   22.0273 C   0  0  0  0  0  0  0  0  0  0  0  0
   10.4859    4.0901   20.9730 C   0  0  0  0  0  0  0  0  0  0  0  0
   11.0962    9.3293   23.5072 C   0  0  0  0  0  0  0  0  0  0  0  0
    5.1273    7.8529   23.6208 N   0  0  0  0  0  0  0  0  0  0  0  0
    9.7552    9.2338   23.0171 N   0  0  0  0  0  0  0  0  0  0  0  0
   11.1797    6.7591   21.3326 N   0  0  0  0  0  0  0  0  0  0  0  0
   11.7728    8.0337   23.7267 C   0  0  0  0  0  0  0  0  0  0  0  0
    7.1194    8.3344   24.6775 C   0  0  0  0  0  0  0  0  0  0  0  0
    8.4311    4.7963   22.0500 C   0  0  0  0  0  0  0  0  0  0  0  0
    8.7393   10.8706   24.1871 O   0  0  0  0  0  0  0  0  0  0  0  0
    9.3093    3.8166   21.6712 C   0  0  0  0  0  0  0  0  0  0  0  0
  1  5  1  0
  1 15  4  0
  1 22  4  0
  2 20  1  0
  2 24  1  0
  3  6  4  0
  3 27  4  0
  4 22  4  0
  4 26  4  0
  6  7  4  0
  6 13  1  0
  7 19  4  0
  8 18  1  0
  8 23  1  0
  8 28  2  0
  9 17  1  0
  9 24  1  0
 10 11  1  0
 10 24  1  0
 11 23  1  0
 12 14  4  0
 12 16  4  0
 14 19  4  0
 15 18  4  0
 16 20  4  0
 17 25  1  0
 18 26  4  0
 19 29  4  0
 20 29  4  0
 21 23  1  0
 21 25  1  0
 27 29  4  0
M  END
$$$$

 Created by Python create_sdf_string function

 29 32  0  0  0  0  0  0  0  0999 V2000
    5.4450    8.7154   22.6662 C   0  0  0  0  0  0  0  0  0  0  0  0
   10.9154    5.4574   20.5483 C   0  0  0  0  0  0  0  0  0  0  0  0
    7.2709    4.5089   22.7542 C   0  0  0  0  0  0  0  0  0  0  0  0
    5.9698    7.6329   24.6581 C   0  0  0  0  0  0  0  0  0  0  0  0
    4.5542    8.9057   21.7104 O   0  0  0  0  0  0  0  0  0  0  0  0
    6.9895    3.2085   23.0690 C   0  0  0  0  0  0  0  0  0  0  0  0
    7.8391    2.2253   22.7260 N   0  0  0  0  0  0  0  0  0  0  0  0
    8.6968    9.8373   23.6359 C   0  0  0  0  0  0  0  0  0  0  0  0
   12.5135    6.5957   21.8396 C   0  0  0  0  0  0  0  0  0  0  0  0
   10.9406    8.2330   21.1350 C   0  0  0  0  0  0  0  0  0  0  0  0
    9.6648    8.5956   21.7310 C   0  0  0  0  0  0  0  0  0  0  0  0
   10.8829    1.7153   20.9865 C   0  0  0  0  0  0  0  0  0  0  0  0
    5.7768    2.8533   23.7910 C   0  0  0  0  0  0  0  0  0  0  0  0
    9.7977    1.4791   21.6912 N   0  0  0  0  0  0  0  0  0  0  0  0
    6.5976    9.3401   22.6478 N   0  0  0  0  0  0  0  0  0  0  0  0
   11.2031    3.0042   20.6246 C   0  0  0  0  0  0  0  0  0  0  0  0
   12.8688    7.7370   22.7287 C   0  0  0  0  0  0  0  0  0  0  0  0
    7.4487    9.1361   23.6506 C   0  0  0  0  0  0  0  0  0  0  0  0
    8.9772    2.5025   22.0273 C   0  0  0  0  0  0  0  0  0  0  0  0
   10.4859    4.0901   20.9730 C   0  0  0  0  0  0  0  0  0  0  0  0
   11.0962    9.3293   23.5072 C   0  0  0  0  0  0  0  0  0  0  0  0
    5.1273    7.8529   23.6208 N   0  0  0  0  0  0  0  0  0  0  0  0
    9.7552    9.2338   23.0171 N   0  0  0  0  0  0  0  0  0  0  0  0
   11.1797    6.7591   21.3326 N   0  0  0  0  0  0  0  0  0  0  0  0
   11.7728    8.0337   23.7267 C   0  0  0  0  0  0  0  0  0  0  0  0
    7.1194    8.3344   24.6775 C   0  0  0  0  0  0  0  0  0  0  0  0
    8.4311    4.7963   22.0500 C   0  0  0  0  0  0  0  0  0  0  0  0
    8.7393   10.8706   24.1871 O   0  0  0  0  0  0  0  0  0  0  0  0
    9.3093    3.8166   21.6712 C   0  0  0  0  0  0  0  0  0  0  0  0
  1  5  1  0
  1 15  4  0
  1 22  4  0
  2 20  1  0
  2 24  1  0
  3  6  4  0
  3 27  4  0
  4 22  4  0
  4 26  4  0
  6  7  4  0
  6 13  1  0
  7 19  4  0
  8 18  1  0
  8 23  1  0
  8 28  2  0
  9 17  1  0
  9 24  1  0
 10 11  1  0
 10 24  1  0
 11 23  1  0
 12 14  4  0
 12 16  4  0
 14 19  4  0
 15 18  4  0
 16 20  4  0
 17 25  1  0
 18 26  4  0
 19 29  4  0
 20 29  4  0
 21 23  1  0
 21 25  1  0
 27 29  4  0
M  END
$$$$

 Created by Python create_sdf_string function

 29 32  0  0  0  0  0  0  0  0999 V2000
    5.4450    8.7154   22.6662 C   0  0  0  0  0  0  0  0  0  0  0  0
   10.9154    5.4574   20.5483 C   0  0  0  0  0  0  0  0  0  0  0  0
    7.2709    4.5089   22.7542 C   0  0  0  0  0  0  0  0  0  0  0  0
    5.9698    7.6329   24.6581 C   0  0  0  0  0  0  0  0  0  0  0  0
    4.5542    8.9057   21.7104 O   0  0  0  0  0  0  0  0  0  0  0  0
    6.9895    3.2085   23.0690 C   0  0  0  0  0  0  0  0  0  0  0  0
    7.8391    2.2253   22.7260 N   0  0  0  0  0  0  0  0  0  0  0  0
    8.6968    9.8373   23.6359 C   0  0  0  0  0  0  0  0  0  0  0  0
   12.5135    6.5957   21.8396 C   0  0  0  0  0  0  0  0  0  0  0  0
   10.9406    8.2330   21.1350 C   0  0  0  0  0  0  0  0  0  0  0  0
    9.6648    8.5956   21.7310 C   0  0  0  0  0  0  0  0  0  0  0  0
   10.8829    1.7153   20.9865 C   0  0  0  0  0  0  0  0  0  0  0  0
    5.7768    2.8533   23.7910 C   0  0  0  0  0  0  0  0  0  0  0  0
    9.7977    1.4791   21.6912 N   0  0  0  0  0  0  0  0  0  0  0  0
    6.5976    9.3401   22.6478 N   0  0  0  0  0  0  0  0  0  0  0  0
   11.2031    3.0042   20.6246 C   0  0  0  0  0  0  0  0  0  0  0  0
   12.8688    7.7370   22.7287 C   0  0  0  0  0  0  0  0  0  0  0  0
    7.4487    9.1361   23.6506 C   0  0  0  0  0  0  0  0  0  0  0  0
    8.9772    2.5025   22.0273 C   0  0  0  0  0  0  0  0  0  0  0  0
   10.4859    4.0901   20.9730 C   0  0  0  0  0  0  0  0  0  0  0  0
   11.0962    9.3293   23.5072 C   0  0  0  0  0  0  0  0  0  0  0  0
    5.1273    7.8529   23.6208 N   0  0  0  0  0  0  0  0  0  0  0  0
    9.7552    9.2338   23.0171 N   0  0  0  0  0  0  0  0  0  0  0  0
   11.1797    6.7591   21.3326 N   0  0  0  0  0  0  0  0  0  0  0  0
   11.7728    8.0337   23.7267 C   0  0  0  0  0  0  0  0  0  0  0  0
    7.1194    8.3344   24.6775 C   0  0  0  0  0  0  0  0  0  0  0  0
    8.4311    4.7963   22.0500 C   0  0  0  0  0  0  0  0  0  0  0  0
    8.7393   10.8706   24.1871 O   0  0  0  0  0  0  0  0  0  0  0  0
    9.3093    3.8166   21.6712 C   0  0  0  0  0  0  0  0  0  0  0  0
  1  5  1  0
  1 15  4  0
  1 22  4  0
  2 20  1  0
  2 24  1  0
  3  6  4  0
  3 27  4  0
  4 22  4  0
  4 26  4  0
  6  7  4  0
  6 13  1  0
  7 19  4  0
  8 18  1  0
  8 23  1  0
  8 28  2  0
  9 17  1  0
  9 24  1  0
 10 11  1  0
 10 24  1  0
 11 23  1  0
 12 14  4  0
 12 16  4  0
 14 19  4  0
 15 18  4  0
 16 20  4  0
 17 25  1  0
 18 26  4  0
 19 29  4  0
 20 29  4  0
 21 23  1  0
 21 25  1  0
 27 29  4  0
M  END
$$$$

 Created by Python create_sdf_string function

 29 32  0  0  0  0  0  0  0  0999 V2000
    5.4450    8.7154   22.6662 C   0  0  0  0  0  0  0  0  0  0  0  0
   10.9154    5.4574   20.5483 C   0  0  0  0  0  0  0  0  0  0  0  0
    7.2709    4.5089   22.7542 C   0  0  0  0  0  0  0  0  0  0  0  0
    5.9698    7.6329   24.6581 C   0  0  0  0  0  0  0  0  0  0  0  0
    4.5542    8.9057   21.7104 O   0  0  0  0  0  0  0  0  0  0  0  0
    6.9895    3.2085   23.0690 C   0  0  0  0  0  0  0  0  0  0  0  0
    7.8391    2.2253   22.7260 N   0  0  0  0  0  0  0  0  0  0  0  0
    8.6968    9.8373   23.6359 C   0  0  0  0  0  0  0  0  0  0  0  0
   12.5135    6.5957   21.8396 C   0  0  0  0  0  0  0  0  0  0  0  0
   10.9406    8.2330   21.1350 C   0  0  0  0  0  0  0  0  0  0  0  0
    9.6648    8.5956   21.7310 C   0  0  0  0  0  0  0  0  0  0  0  0
   10.8829    1.7153   20.9865 C   0  0  0  0  0  0  0  0  0  0  0  0
    5.7768    2.8533   23.7910 C   0  0  0  0  0  0  0  0  0  0  0  0
    9.7977    1.4791   21.6912 N   0  0  0  0  0  0  0  0  0  0  0  0
    6.5976    9.3401   22.6478 N   0  0  0  0  0  0  0  0  0  0  0  0
   11.2031    3.0042   20.6246 C   0  0  0  0  0  0  0  0  0  0  0  0
   12.8688    7.7370   22.7287 C   0  0  0  0  0  0  0  0  0  0  0  0
    7.4487    9.1361   23.6506 C   0  0  0  0  0  0  0  0  0  0  0  0
    8.9772    2.5025   22.0273 C   0  0  0  0  0  0  0  0  0  0  0  0
   10.4859    4.0901   20.9730 C   0  0  0  0  0  0  0  0  0  0  0  0
   11.0962    9.3293   23.5072 C   0  0  0  0  0  0  0  0  0  0  0  0
    5.1273    7.8529   23.6208 N   0  0  0  0  0  0  0  0  0  0  0  0
    9.7552    9.2338   23.0171 N   0  0  0  0  0  0  0  0  0  0  0  0
   11.1797    6.7591   21.3326 N   0  0  0  0  0  0  0  0  0  0  0  0
   11.7728    8.0337   23.7267 C   0  0  0  0  0  0  0  0  0  0  0  0
    7.1194    8.3344   24.6775 C   0  0  0  0  0  0  0  0  0  0  0  0
    8.4311    4.7963   22.0500 C   0  0  0  0  0  0  0  0  0  0  0  0
    8.7393   10.8706   24.1871 O   0  0  0  0  0  0  0  0  0  0  0  0
    9.3093    3.8166   21.6712 C   0  0  0  0  0  0  0  0  0  0  0  0
  1  5  1  0
  1 15  4  0
  1 22  4  0
  2 20  1  0
  2 24  1  0
  3  6  4  0
  3 27  4  0
  4 22  4  0
  4 26  4  0
  6  7  4  0
  6 13  1  0
  7 19  4  0
  8 18  1  0
  8 23  1  0
  8 28  2  0
  9 17  1  0
  9 24  1  0
 10 11  1  0
 10 24  1  0
 11 23  1  0
 12 14  4  0
 12 16  4  0
 14 19  4  0
 15 18  4  0
 16 20  4  0
 17 25  1  0
 18 26  4  0
 19 29  4  0
 20 29  4  0
 21 23  1  0
 21 25  1  0
 27 29  4  0
M  END
$$$$

 Created by Python create_sdf_string function

 29 32  0  0  0  0  0  0  0  0999 V2000
    5.4450    8.7154   22.6662 C   0  0  0  0  0  0  0  0  0  0  0  0
   10.9154    5.4574   20.5483 C   0  0  0  0  0  0  0  0  0  0  0  0
    7.2709    4.5089   22.7542 C   0  0  0  0  0  0  0  0  0  0  0  0
    5.9698    7.6329   24.6581 C   0  0  0  0  0  0  0  0  0  0  0  0
    4.5542    8.9057   21.7104 O   0  0  0  0  0  0  0  0  0  0  0  0
    6.9895    3.2085   23.0690 C   0  0  0  0  0  0  0  0  0  0  0  0
    7.8391    2.2253   22.7260 N   0  0  0  0  0  0  0  0  0  0  0  0
    8.6968    9.8373   23.6359 C   0  0  0  0  0  0  0  0  0  0  0  0
   12.5135    6.5957   21.8396 C   0  0  0  0  0  0  0  0  0  0  0  0
   10.9406    8.2330   21.1350 C   0  0  0  0  0  0  0  0  0  0  0  0
    9.6648    8.5956   21.7310 C   0  0  0  0  0  0  0  0  0  0  0  0
   10.8829    1.7153   20.9865 C   0  0  0  0  0  0  0  0  0  0  0  0
    5.7768    2.8533   23.7910 C   0  0  0  0  0  0  0  0  0  0  0  0
    9.7977    1.4791   21.6912 N   0  0  0  0  0  0  0  0  0  0  0  0
    6.5976    9.3401   22.6478 N   0  0  0  0  0  0  0  0  0  0  0  0
   11.2031    3.0042   20.6246 C   0  0  0  0  0  0  0  0  0  0  0  0
   12.8688    7.7370   22.7287 C   0  0  0  0  0  0  0  0  0  0  0  0
    7.4487    9.1361   23.6506 C   0  0  0  0  0  0  0  0  0  0  0  0
    8.9772    2.5025   22.0273 C   0  0  0  0  0  0  0  0  0  0  0  0
   10.4859    4.0901   20.9730 C   0  0  0  0  0  0  0  0  0  0  0  0
   11.0962    9.3293   23.5072 C   0  0  0  0  0  0  0  0  0  0  0  0
    5.1273    7.8529   23.6208 N   0  0  0  0  0  0  0  0  0  0  0  0
    9.7552    9.2338   23.0171 N   0  0  0  0  0  0  0  0  0  0  0  0
   11.1797    6.7591   21.3326 N   0  0  0  0  0  0  0  0  0  0  0  0
   11.7728    8.0337   23.7267 C   0  0  0  0  0  0  0  0  0  0  0  0
    7.1194    8.3344   24.6775 C   0  0  0  0  0  0  0  0  0  0  0  0
    8.4311    4.7963   22.0500 C   0  0  0  0  0  0  0  0  0  0  0  0
    8.7393   10.8706   24.1871 O   0  0  0  0  0  0  0  0  0  0  0  0
    9.3093    3.8166   21.6712 C   0  0  0  0  0  0  0  0  0  0  0  0
  1  5  1  0
  1 15  4  0
  1 22  4  0
  2 20  1  0
  2 24  1  0
  3  6  4  0
  3 27  4  0
  4 22  4  0
  4 26  4  0
  6  7  4  0
  6 13  1  0
  7 19  4  0
  8 18  1  0
  8 23  1  0
  8 28  2  0
  9 17  1  0
  9 24  1  0
 10 11  1  0
 10 24  1  0
 11 23  1  0
 12 14  4  0
 12 16  4  0
 14 19  4  0
 15 18  4  0
 16 20  4  0
 17 25  1  0
 18 26  4  0
 19 29  4  0
 20 29  4  0
 21 23  1  0
 21 25  1  0
 27 29  4  0
M  END
$$$$

 Created by Python create_sdf_string function

 29 32  0  0  0  0  0  0  0  0999 V2000
    5.4450    8.7154   22.6662 C   0  0  0  0  0  0  0  0  0  0  0  0
   10.9154    5.4574   20.5483 C   0  0  0  0  0  0  0  0  0  0  0  0
    7.2709    4.5089   22.7542 C   0  0  0  0  0  0  0  0  0  0  0  0
    5.9698    7.6329   24.6581 C   0  0  0  0  0  0  0  0  0  0  0  0
    4.5542    8.9057   21.7104 O   0  0  0  0  0  0  0  0  0  0  0  0
    6.9895    3.2085   23.0690 C   0  0  0  0  0  0  0  0  0  0  0  0
    7.8391    2.2253   22.7260 N   0  0  0  0  0  0  0  0  0  0  0  0
    8.6968    9.8373   23.6359 C   0  0  0  0  0  0  0  0  0  0  0  0
   12.5135    6.5957   21.8396 C   0  0  0  0  0  0  0  0  0  0  0  0
   10.9406    8.2330   21.1350 C   0  0  0  0  0  0  0  0  0  0  0  0
    9.6648    8.5956   21.7310 C   0  0  0  0  0  0  0  0  0  0  0  0
   10.8829    1.7153   20.9865 C   0  0  0  0  0  0  0  0  0  0  0  0
    5.7768    2.8533   23.7910 C   0  0  0  0  0  0  0  0  0  0  0  0
    9.7977    1.4791   21.6912 N   0  0  0  0  0  0  0  0  0  0  0  0
    6.5976    9.3401   22.6478 N   0  0  0  0  0  0  0  0  0  0  0  0
   11.2031    3.0042   20.6246 C   0  0  0  0  0  0  0  0  0  0  0  0
   12.8688    7.7370   22.7287 C   0  0  0  0  0  0  0  0  0  0  0  0
    7.4487    9.1361   23.6506 C   0  0  0  0  0  0  0  0  0  0  0  0
    8.9772    2.5025   22.0273 C   0  0  0  0  0  0  0  0  0  0  0  0
   10.4859    4.0901   20.9730 C   0  0  0  0  0  0  0  0  0  0  0  0
   11.0962    9.3293   23.5072 C   0  0  0  0  0  0  0  0  0  0  0  0
    5.1273    7.8529   23.6208 N   0  0  0  0  0  0  0  0  0  0  0  0
    9.7552    9.2338   23.0171 N   0  0  0  0  0  0  0  0  0  0  0  0
   11.1797    6.7591   21.3326 N   0  0  0  0  0  0  0  0  0  0  0  0
   11.7728    8.0337   23.7267 C   0  0  0  0  0  0  0  0  0  0  0  0
    7.1194    8.3344   24.6775 C   0  0  0  0  0  0  0  0  0  0  0  0
    8.4311    4.7963   22.0500 C   0  0  0  0  0  0  0  0  0  0  0  0
    8.7393   10.8706   24.1871 O   0  0  0  0  0  0  0  0  0  0  0  0
    9.3093    3.8166   21.6712 C   0  0  0  0  0  0  0  0  0  0  0  0
  1  5  1  0
  1 15  4  0
  1 22  4  0
  2 20  1  0
  2 24  1  0
  3  6  4  0
  3 27  4  0
  4 22  4  0
  4 26  4  0
  6  7  4  0
  6 13  1  0
  7 19  4  0
  8 18  1  0
  8 23  1  0
  8 28  2  0
  9 17  1  0
  9 24  1  0
 10 11  1  0
 10 24  1  0
 11 23  1  0
 12 14  4  0
 12 16  4  0
 14 19  4  0
 15 18  4  0
 16 20  4  0
 17 25  1  0
 18 26  4  0
 19 29  4  0
 20 29  4  0
 21 23  1  0
 21 25  1  0
 27 29  4  0
M  END
$$$$

 Created by Python create_sdf_string function

 29 32  0  0  0  0  0  0  0  0999 V2000
    5.4450    8.7154   22.6662 C   0  0  0  0  0  0  0  0  0  0  0  0
   10.9154    5.4574   20.5483 C   0  0  0  0  0  0  0  0  0  0  0  0
    7.2709    4.5089   22.7542 C   0  0  0  0  0  0  0  0  0  0  0  0
    5.9698    7.6329   24.6581 C   0  0  0  0  0  0  0  0  0  0  0  0
    4.5542    8.9057   21.7104 O   0  0  0  0  0  0  0  0  0  0  0  0
    6.9895    3.2085   23.0690 C   0  0  0  0  0  0  0  0  0  0  0  0
    7.8391    2.2253   22.7260 N   0  0  0  0  0  0  0  0  0  0  0  0
    8.6968    9.8373   23.6359 C   0  0  0  0  0  0  0  0  0  0  0  0
   12.5135    6.5957   21.8396 C   0  0  0  0  0  0  0  0  0  0  0  0
   10.9406    8.2330   21.1350 C   0  0  0  0  0  0  0  0  0  0  0  0
    9.6648    8.5956   21.7310 C   0  0  0  0  0  0  0  0  0  0  0  0
   10.8829    1.7153   20.9865 C   0  0  0  0  0  0  0  0  0  0  0  0
    5.7768    2.8533   23.7910 C   0  0  0  0  0  0  0  0  0  0  0  0
    9.7977    1.4791   21.6912 N   0  0  0  0  0  0  0  0  0  0  0  0
    6.5976    9.3401   22.6478 N   0  0  0  0  0  0  0  0  0  0  0  0
   11.2031    3.0042   20.6246 C   0  0  0  0  0  0  0  0  0  0  0  0
   12.8688    7.7370   22.7287 C   0  0  0  0  0  0  0  0  0  0  0  0
    7.4487    9.1361   23.6506 C   0  0  0  0  0  0  0  0  0  0  0  0
    8.9772    2.5025   22.0273 C   0  0  0  0  0  0  0  0  0  0  0  0
   10.4859    4.0901   20.9730 C   0  0  0  0  0  0  0  0  0  0  0  0
   11.0962    9.3293   23.5072 C   0  0  0  0  0  0  0  0  0  0  0  0
    5.1273    7.8529   23.6208 N   0  0  0  0  0  0  0  0  0  0  0  0
    9.7552    9.2338   23.0171 N   0  0  0  0  0  0  0  0  0  0  0  0
   11.1797    6.7591   21.3326 N   0  0  0  0  0  0  0  0  0  0  0  0
   11.7728    8.0337   23.7267 C   0  0  0  0  0  0  0  0  0  0  0  0
    7.1194    8.3344   24.6775 C   0  0  0  0  0  0  0  0  0  0  0  0
    8.4311    4.7963   22.0500 C   0  0  0  0  0  0  0  0  0  0  0  0
    8.7393   10.8706   24.1871 O   0  0  0  0  0  0  0  0  0  0  0  0
    9.3093    3.8166   21.6712 C   0  0  0  0  0  0  0  0  0  0  0  0
  1  5  1  0
  1 15  4  0
  1 22  4  0
  2 20  1  0
  2 24  1  0
  3  6  4  0
  3 27  4  0
  4 22  4  0
  4 26  4  0
  6  7  4  0
  6 13  1  0
  7 19  4  0
  8 18  1  0
  8 23  1  0
  8 28  2  0
  9 17  1  0
  9 24  1  0
 10 11  1  0
 10 24  1  0
 11 23  1  0
 12 14  4  0
 12 16  4  0
 14 19  4  0
 15 18  4  0
 16 20  4  0
 17 25  1  0
 18 26  4  0
 19 29  4  0
 20 29  4  0
 21 23  1  0
 21 25  1  0
 27 29  4  0
M  END
$$$$

 Created by Python create_sdf_string function

 29 32  0  0  0  0  0  0  0  0999 V2000
    5.4450    8.7154   22.6662 C   0  0  0  0  0  0  0  0  0  0  0  0
   10.9154    5.4574   20.5483 C   0  0  0  0  0  0  0  0  0  0  0  0
    7.2709    4.5089   22.7542 C   0  0  0  0  0  0  0  0  0  0  0  0
    5.9698    7.6329   24.6581 C   0  0  0  0  0  0  0  0  0  0  0  0
    4.5542    8.9057   21.7104 O   0  0  0  0  0  0  0  0  0  0  0  0
    6.9895    3.2085   23.0690 C   0  0  0  0  0  0  0  0  0  0  0  0
    7.8391    2.2253   22.7260 N   0  0  0  0  0  0  0  0  0  0  0  0
    8.6968    9.8373   23.6359 C   0  0  0  0  0  0  0  0  0  0  0  0
   12.5135    6.5957   21.8396 C   0  0  0  0  0  0  0  0  0  0  0  0
   10.9406    8.2330   21.1350 C   0  0  0  0  0  0  0  0  0  0  0  0
    9.6648    8.5956   21.7310 C   0  0  0  0  0  0  0  0  0  0  0  0
   10.8829    1.7153   20.9865 C   0  0  0  0  0  0  0  0  0  0  0  0
    5.7768    2.8533   23.7910 C   0  0  0  0  0  0  0  0  0  0  0  0
    9.7977    1.4791   21.6912 N   0  0  0  0  0  0  0  0  0  0  0  0
    6.5976    9.3401   22.6478 N   0  0  0  0  0  0  0  0  0  0  0  0
   11.2031    3.0042   20.6246 C   0  0  0  0  0  0  0  0  0  0  0  0
   12.8688    7.7370   22.7287 C   0  0  0  0  0  0  0  0  0  0  0  0
    7.4487    9.1361   23.6506 C   0  0  0  0  0  0  0  0  0  0  0  0
    8.9772    2.5025   22.0273 C   0  0  0  0  0  0  0  0  0  0  0  0
   10.4859    4.0901   20.9730 C   0  0  0  0  0  0  0  0  0  0  0  0
   11.0962    9.3293   23.5072 C   0  0  0  0  0  0  0  0  0  0  0  0
    5.1273    7.8529   23.6208 N   0  0  0  0  0  0  0  0  0  0  0  0
    9.7552    9.2338   23.0171 N   0  0  0  0  0  0  0  0  0  0  0  0
   11.1797    6.7591   21.3326 N   0  0  0  0  0  0  0  0  0  0  0  0
   11.7728    8.0337   23.7267 C   0  0  0  0  0  0  0  0  0  0  0  0
    7.1194    8.3344   24.6775 C   0  0  0  0  0  0  0  0  0  0  0  0
    8.4311    4.7963   22.0500 C   0  0  0  0  0  0  0  0  0  0  0  0
    8.7393   10.8706   24.1871 O   0  0  0  0  0  0  0  0  0  0  0  0
    9.3093    3.8166   21.6712 C   0  0  0  0  0  0  0  0  0  0  0  0
  1  5  1  0
  1 15  4  0
  1 22  4  0
  2 20  1  0
  2 24  1  0
  3  6  4  0
  3 27  4  0
  4 22  4  0
  4 26  4  0
  6  7  4  0
  6 13  1  0
  7 19  4  0
  8 18  1  0
  8 23  1  0
  8 28  2  0
  9 17  1  0
  9 24  1  0
 10 11  1  0
 10 24  1  0
 11 23  1  0
 12 14  4  0
 12 16  4  0
 14 19  4  0
 15 18  4  0
 16 20  4  0
 17 25  1  0
 18 26  4  0
 19 29  4  0
 20 29  4  0
 21 23  1  0
 21 25  1  0
 27 29  4  0
M  END
$$$$

 Created by Python create_sdf_string function

 29 32  0  0  0  0  0  0  0  0999 V2000
    5.4450    8.7154   22.6662 C   0  0  0  0  0  0  0  0  0  0  0  0
   10.9154    5.4574   20.5483 C   0  0  0  0  0  0  0  0  0  0  0  0
    7.2709    4.5089   22.7542 C   0  0  0  0  0  0  0  0  0  0  0  0
    5.9698    7.6329   24.6581 C   0  0  0  0  0  0  0  0  0  0  0  0
    4.5542    8.9057   21.7104 O   0  0  0  0  0  0  0  0  0  0  0  0
    6.9895    3.2085   23.0690 C   0  0  0  0  0  0  0  0  0  0  0  0
    7.8391    2.2253   22.7260 N   0  0  0  0  0  0  0  0  0  0  0  0
    8.6968    9.8373   23.6359 C   0  0  0  0  0  0  0  0  0  0  0  0
   12.5135    6.5957   21.8396 C   0  0  0  0  0  0  0  0  0  0  0  0
   10.9406    8.2330   21.1350 C   0  0  0  0  0  0  0  0  0  0  0  0
    9.6648    8.5956   21.7310 C   0  0  0  0  0  0  0  0  0  0  0  0
   10.8829    1.7153   20.9865 C   0  0  0  0  0  0  0  0  0  0  0  0
    5.7768    2.8533   23.7910 C   0  0  0  0  0  0  0  0  0  0  0  0
    9.7977    1.4791   21.6912 N   0  0  0  0  0  0  0  0  0  0  0  0
    6.5976    9.3401   22.6478 N   0  0  0  0  0  0  0  0  0  0  0  0
   11.2031    3.0042   20.6246 C   0  0  0  0  0  0  0  0  0  0  0  0
   12.8688    7.7370   22.7287 C   0  0  0  0  0  0  0  0  0  0  0  0
    7.4487    9.1361   23.6506 C   0  0  0  0  0  0  0  0  0  0  0  0
    8.9772    2.5025   22.0273 C   0  0  0  0  0  0  0  0  0  0  0  0
   10.4859    4.0901   20.9730 C   0  0  0  0  0  0  0  0  0  0  0  0
   11.0962    9.3293   23.5072 C   0  0  0  0  0  0  0  0  0  0  0  0
    5.1273    7.8529   23.6208 N   0  0  0  0  0  0  0  0  0  0  0  0
    9.7552    9.2338   23.0171 N   0  0  0  0  0  0  0  0  0  0  0  0
   11.1797    6.7591   21.3326 N   0  0  0  0  0  0  0  0  0  0  0  0
   11.7728    8.0337   23.7267 C   0  0  0  0  0  0  0  0  0  0  0  0
    7.1194    8.3344   24.6775 C   0  0  0  0  0  0  0  0  0  0  0  0
    8.4311    4.7963   22.0500 C   0  0  0  0  0  0  0  0  0  0  0  0
    8.7393   10.8706   24.1871 O   0  0  0  0  0  0  0  0  0  0  0  0
    9.3093    3.8166   21.6712 C   0  0  0  0  0  0  0  0  0  0  0  0
  1  5  1  0
  1 15  4  0
  1 22  4  0
  2 20  1  0
  2 24  1  0
  3  6  4  0
  3 27  4  0
  4 22  4  0
  4 26  4  0
  6  7  4  0
  6 13  1  0
  7 19  4  0
  8 18  1  0
  8 23  1  0
  8 28  2  0
  9 17  1  0
  9 24  1  0
 10 11  1  0
 10 24  1  0
 11 23  1  0
 12 14  4  0
 12 16  4  0
 14 19  4  0
 15 18  4  0
 16 20  4  0
 17 25  1  0
 18 26  4  0
 19 29  4  0
 20 29  4  0
 21 23  1  0
 21 25  1  0
 27 29  4  0
M  END
$$$$

 Created by Python create_sdf_string function

 29 32  0  0  0  0  0  0  0  0999 V2000
    5.4450    8.7154   22.6662 C   0  0  0  0  0  0  0  0  0  0  0  0
   10.9154    5.4574   20.5483 C   0  0  0  0  0  0  0  0  0  0  0  0
    7.2709    4.5089   22.7542 C   0  0  0  0  0  0  0  0  0  0  0  0
    5.9698    7.6329   24.6581 C   0  0  0  0  0  0  0  0  0  0  0  0
    4.5542    8.9057   21.7104 O   0  0  0  0  0  0  0  0  0  0  0  0
    6.9895    3.2085   23.0690 C   0  0  0  0  0  0  0  0  0  0  0  0
    7.8391    2.2253   22.7260 N   0  0  0  0  0  0  0  0  0  0  0  0
    8.6968    9.8373   23.6359 C   0  0  0  0  0  0  0  0  0  0  0  0
   12.5135    6.5957   21.8396 C   0  0  0  0  0  0  0  0  0  0  0  0
   10.9406    8.2330   21.1350 C   0  0  0  0  0  0  0  0  0  0  0  0
    9.6648    8.5956   21.7310 C   0  0  0  0  0  0  0  0  0  0  0  0
   10.8829    1.7153   20.9865 C   0  0  0  0  0  0  0  0  0  0  0  0
    5.7768    2.8533   23.7910 C   0  0  0  0  0  0  0  0  0  0  0  0
    9.7977    1.4791   21.6912 N   0  0  0  0  0  0  0  0  0  0  0  0
    6.5976    9.3401   22.6478 N   0  0  0  0  0  0  0  0  0  0  0  0
   11.2031    3.0042   20.6246 C   0  0  0  0  0  0  0  0  0  0  0  0
   12.8688    7.7370   22.7287 C   0  0  0  0  0  0  0  0  0  0  0  0
    7.4487    9.1361   23.6506 C   0  0  0  0  0  0  0  0  0  0  0  0
    8.9772    2.5025   22.0273 C   0  0  0  0  0  0  0  0  0  0  0  0
   10.4859    4.0901   20.9730 C   0  0  0  0  0  0  0  0  0  0  0  0
   11.0962    9.3293   23.5072 C   0  0  0  0  0  0  0  0  0  0  0  0
    5.1273    7.8529   23.6208 N   0  0  0  0  0  0  0  0  0  0  0  0
    9.7552    9.2338   23.0171 N   0  0  0  0  0  0  0  0  0  0  0  0
   11.1797    6.7591   21.3326 N   0  0  0  0  0  0  0  0  0  0  0  0
   11.7728    8.0337   23.7267 C   0  0  0  0  0  0  0  0  0  0  0  0
    7.1194    8.3344   24.6775 C   0  0  0  0  0  0  0  0  0  0  0  0
    8.4311    4.7963   22.0500 C   0  0  0  0  0  0  0  0  0  0  0  0
    8.7393   10.8706   24.1871 O   0  0  0  0  0  0  0  0  0  0  0  0
    9.3093    3.8166   21.6712 C   0  0  0  0  0  0  0  0  0  0  0  0
  1  5  1  0
  1 15  4  0
  1 22  4  0
  2 20  1  0
  2 24  1  0
  3  6  4  0
  3 27  4  0
  4 22  4  0
  4 26  4  0
  6  7  4  0
  6 13  1  0
  7 19  4  0
  8 18  1  0
  8 23  1  0
  8 28  2  0
  9 17  1  0
  9 24  1  0
 10 11  1  0
 10 24  1  0
 11 23  1  0
 12 14  4  0
 12 16  4  0
 14 19  4  0
 15 18  4  0
 16 20  4  0
 17 25  1  0
 18 26  4  0
 19 29  4  0
 20 29  4  0
 21 23  1  0
 21 25  1  0
 27 29  4  0
M  END
$$$$

 Created by Python create_sdf_string function

 29 32  0  0  0  0  0  0  0  0999 V2000
    5.4450    8.7154   22.6662 C   0  0  0  0  0  0  0  0  0  0  0  0
   10.9154    5.4574   20.5483 C   0  0  0  0  0  0  0  0  0  0  0  0
    7.2709    4.5089   22.7542 C   0  0  0  0  0  0  0  0  0  0  0  0
    5.9698    7.6329   24.6581 C   0  0  0  0  0  0  0  0  0  0  0  0
    4.5542    8.9057   21.7104 O   0  0  0  0  0  0  0  0  0  0  0  0
    6.9895    3.2085   23.0690 C   0  0  0  0  0  0  0  0  0  0  0  0
    7.8391    2.2253   22.7260 N   0  0  0  0  0  0  0  0  0  0  0  0
    8.6968    9.8373   23.6359 C   0  0  0  0  0  0  0  0  0  0  0  0
   12.5135    6.5957   21.8396 C   0  0  0  0  0  0  0  0  0  0  0  0
   10.9406    8.2330   21.1350 C   0  0  0  0  0  0  0  0  0  0  0  0
    9.6648    8.5956   21.7310 C   0  0  0  0  0  0  0  0  0  0  0  0
   10.8829    1.7153   20.9865 C   0  0  0  0  0  0  0  0  0  0  0  0
    5.7768    2.8533   23.7910 C   0  0  0  0  0  0  0  0  0  0  0  0
    9.7977    1.4791   21.6912 N   0  0  0  0  0  0  0  0  0  0  0  0
    6.5976    9.3401   22.6478 N   0  0  0  0  0  0  0  0  0  0  0  0
   11.2031    3.0042   20.6246 C   0  0  0  0  0  0  0  0  0  0  0  0
   12.8688    7.7370   22.7287 C   0  0  0  0  0  0  0  0  0  0  0  0
    7.4487    9.1361   23.6506 C   0  0  0  0  0  0  0  0  0  0  0  0
    8.9772    2.5025   22.0273 C   0  0  0  0  0  0  0  0  0  0  0  0
   10.4859    4.0901   20.9730 C   0  0  0  0  0  0  0  0  0  0  0  0
   11.0962    9.3293   23.5072 C   0  0  0  0  0  0  0  0  0  0  0  0
    5.1273    7.8529   23.6208 N   0  0  0  0  0  0  0  0  0  0  0  0
    9.7552    9.2338   23.0171 N   0  0  0  0  0  0  0  0  0  0  0  0
   11.1797    6.7591   21.3326 N   0  0  0  0  0  0  0  0  0  0  0  0
   11.7728    8.0337   23.7267 C   0  0  0  0  0  0  0  0  0  0  0  0
    7.1194    8.3344   24.6775 C   0  0  0  0  0  0  0  0  0  0  0  0
    8.4311    4.7963   22.0500 C   0  0  0  0  0  0  0  0  0  0  0  0
    8.7393   10.8706   24.1871 O   0  0  0  0  0  0  0  0  0  0  0  0
    9.3093    3.8166   21.6712 C   0  0  0  0  0  0  0  0  0  0  0  0
  1  5  1  0
  1 15  4  0
  1 22  4  0
  2 20  1  0
  2 24  1  0
  3  6  4  0
  3 27  4  0
  4 22  4  0
  4 26  4  0
  6  7  4  0
  6 13  1  0
  7 19  4  0
  8 18  1  0
  8 23  1  0
  8 28  2  0
  9 17  1  0
  9 24  1  0
 10 11  1  0
 10 24  1  0
 11 23  1  0
 12 14  4  0
 12 16  4  0
 14 19  4  0
 15 18  4  0
 16 20  4  0
 17 25  1  0
 18 26  4  0
 19 29  4  0
 20 29  4  0
 21 23  1  0
 21 25  1  0
 27 29  4  0
M  END
$$$$

 Created by Python create_sdf_string function

 29 32  0  0  0  0  0  0  0  0999 V2000
    5.4450    8.7154   22.6662 C   0  0  0  0  0  0  0  0  0  0  0  0
   10.9154    5.4574   20.5483 C   0  0  0  0  0  0  0  0  0  0  0  0
    7.2709    4.5089   22.7542 C   0  0  0  0  0  0  0  0  0  0  0  0
    5.9698    7.6329   24.6581 C   0  0  0  0  0  0  0  0  0  0  0  0
    4.5542    8.9057   21.7104 O   0  0  0  0  0  0  0  0  0  0  0  0
    6.9895    3.2085   23.0690 C   0  0  0  0  0  0  0  0  0  0  0  0
    7.8391    2.2253   22.7260 N   0  0  0  0  0  0  0  0  0  0  0  0
    8.6968    9.8373   23.6359 C   0  0  0  0  0  0  0  0  0  0  0  0
   12.5135    6.5957   21.8396 C   0  0  0  0  0  0  0  0  0  0  0  0
   10.9406    8.2330   21.1350 C   0  0  0  0  0  0  0  0  0  0  0  0
    9.6648    8.5956   21.7310 C   0  0  0  0  0  0  0  0  0  0  0  0
   10.8829    1.7153   20.9865 C   0  0  0  0  0  0  0  0  0  0  0  0
    5.7768    2.8533   23.7910 C   0  0  0  0  0  0  0  0  0  0  0  0
    9.7977    1.4791   21.6912 N   0  0  0  0  0  0  0  0  0  0  0  0
    6.5976    9.3401   22.6478 N   0  0  0  0  0  0  0  0  0  0  0  0
   11.2031    3.0042   20.6246 C   0  0  0  0  0  0  0  0  0  0  0  0
   12.8688    7.7370   22.7287 C   0  0  0  0  0  0  0  0  0  0  0  0
    7.4487    9.1361   23.6506 C   0  0  0  0  0  0  0  0  0  0  0  0
    8.9772    2.5025   22.0273 C   0  0  0  0  0  0  0  0  0  0  0  0
   10.4859    4.0901   20.9730 C   0  0  0  0  0  0  0  0  0  0  0  0
   11.0962    9.3293   23.5072 C   0  0  0  0  0  0  0  0  0  0  0  0
    5.1273    7.8529   23.6208 N   0  0  0  0  0  0  0  0  0  0  0  0
    9.7552    9.2338   23.0171 N   0  0  0  0  0  0  0  0  0  0  0  0
   11.1797    6.7591   21.3326 N   0  0  0  0  0  0  0  0  0  0  0  0
   11.7728    8.0337   23.7267 C   0  0  0  0  0  0  0  0  0  0  0  0
    7.1194    8.3344   24.6775 C   0  0  0  0  0  0  0  0  0  0  0  0
    8.4311    4.7963   22.0500 C   0  0  0  0  0  0  0  0  0  0  0  0
    8.7393   10.8706   24.1871 O   0  0  0  0  0  0  0  0  0  0  0  0
    9.3093    3.8166   21.6712 C   0  0  0  0  0  0  0  0  0  0  0  0
  1  5  1  0
  1 15  4  0
  1 22  4  0
  2 20  1  0
  2 24  1  0
  3  6  4  0
  3 27  4  0
  4 22  4  0
  4 26  4  0
  6  7  4  0
  6 13  1  0
  7 19  4  0
  8 18  1  0
  8 23  1  0
  8 28  2  0
  9 17  1  0
  9 24  1  0
 10 11  1  0
 10 24  1  0
 11 23  1  0
 12 14  4  0
 12 16  4  0
 14 19  4  0
 15 18  4  0
 16 20  4  0
 17 25  1  0
 18 26  4  0
 19 29  4  0
 20 29  4  0
 21 23  1  0
 21 25  1  0
 27 29  4  0
M  END
$$$$

 Created by Python create_sdf_string function

 29 32  0  0  0  0  0  0  0  0999 V2000
    5.4450    8.7154   22.6662 C   0  0  0  0  0  0  0  0  0  0  0  0
   10.9154    5.4574   20.5483 C   0  0  0  0  0  0  0  0  0  0  0  0
    7.2709    4.5089   22.7542 C   0  0  0  0  0  0  0  0  0  0  0  0
    5.9698    7.6329   24.6581 C   0  0  0  0  0  0  0  0  0  0  0  0
    4.5542    8.9057   21.7104 O   0  0  0  0  0  0  0  0  0  0  0  0
    6.9895    3.2085   23.0690 C   0  0  0  0  0  0  0  0  0  0  0  0
    7.8391    2.2253   22.7260 N   0  0  0  0  0  0  0  0  0  0  0  0
    8.6968    9.8373   23.6359 C   0  0  0  0  0  0  0  0  0  0  0  0
   12.5135    6.5957   21.8396 C   0  0  0  0  0  0  0  0  0  0  0  0
   10.9406    8.2330   21.1350 C   0  0  0  0  0  0  0  0  0  0  0  0
    9.6648    8.5956   21.7310 C   0  0  0  0  0  0  0  0  0  0  0  0
   10.8829    1.7153   20.9865 C   0  0  0  0  0  0  0  0  0  0  0  0
    5.7768    2.8533   23.7910 C   0  0  0  0  0  0  0  0  0  0  0  0
    9.7977    1.4791   21.6912 N   0  0  0  0  0  0  0  0  0  0  0  0
    6.5976    9.3401   22.6478 N   0  0  0  0  0  0  0  0  0  0  0  0
   11.2031    3.0042   20.6246 C   0  0  0  0  0  0  0  0  0  0  0  0
   12.8688    7.7370   22.7287 C   0  0  0  0  0  0  0  0  0  0  0  0
    7.4487    9.1361   23.6506 C   0  0  0  0  0  0  0  0  0  0  0  0
    8.9772    2.5025   22.0273 C   0  0  0  0  0  0  0  0  0  0  0  0
   10.4859    4.0901   20.9730 C   0  0  0  0  0  0  0  0  0  0  0  0
   11.0962    9.3293   23.5072 C   0  0  0  0  0  0  0  0  0  0  0  0
    5.1273    7.8529   23.6208 N   0  0  0  0  0  0  0  0  0  0  0  0
    9.7552    9.2338   23.0171 N   0  0  0  0  0  0  0  0  0  0  0  0
   11.1797    6.7591   21.3326 N   0  0  0  0  0  0  0  0  0  0  0  0
   11.7728    8.0337   23.7267 C   0  0  0  0  0  0  0  0  0  0  0  0
    7.1194    8.3344   24.6775 C   0  0  0  0  0  0  0  0  0  0  0  0
    8.4311    4.7963   22.0500 C   0  0  0  0  0  0  0  0  0  0  0  0
    8.7393   10.8706   24.1871 O   0  0  0  0  0  0  0  0  0  0  0  0
    9.3093    3.8166   21.6712 C   0  0  0  0  0  0  0  0  0  0  0  0
  1  5  1  0
  1 15  4  0
  1 22  4  0
  2 20  1  0
  2 24  1  0
  3  6  4  0
  3 27  4  0
  4 22  4  0
  4 26  4  0
  6  7  4  0
  6 13  1  0
  7 19  4  0
  8 18  1  0
  8 23  1  0
  8 28  2  0
  9 17  1  0
  9 24  1  0
 10 11  1  0
 10 24  1  0
 11 23  1  0
 12 14  4  0
 12 16  4  0
 14 19  4  0
 15 18  4  0
 16 20  4  0
 17 25  1  0
 18 26  4  0
 19 29  4  0
 20 29  4  0
 21 23  1  0
 21 25  1  0
 27 29  4  0
M  END
$$$$

 Created by Python create_sdf_string function

 29 32  0  0  0  0  0  0  0  0999 V2000
    5.4450    8.7154   22.6662 C   0  0  0  0  0  0  0  0  0  0  0  0
   10.9154    5.4574   20.5483 C   0  0  0  0  0  0  0  0  0  0  0  0
    7.2709    4.5089   22.7542 C   0  0  0  0  0  0  0  0  0  0  0  0
    5.9698    7.6329   24.6581 C   0  0  0  0  0  0  0  0  0  0  0  0
    4.5542    8.9057   21.7104 O   0  0  0  0  0  0  0  0  0  0  0  0
    6.9895    3.2085   23.0690 C   0  0  0  0  0  0  0  0  0  0  0  0
    7.8391    2.2253   22.7260 N   0  0  0  0  0  0  0  0  0  0  0  0
    8.6968    9.8373   23.6359 C   0  0  0  0  0  0  0  0  0  0  0  0
   12.5135    6.5957   21.8396 C   0  0  0  0  0  0  0  0  0  0  0  0
   10.9406    8.2330   21.1350 C   0  0  0  0  0  0  0  0  0  0  0  0
    9.6648    8.5956   21.7310 C   0  0  0  0  0  0  0  0  0  0  0  0
   10.8829    1.7153   20.9865 C   0  0  0  0  0  0  0  0  0  0  0  0
    5.7768    2.8533   23.7910 C   0  0  0  0  0  0  0  0  0  0  0  0
    9.7977    1.4791   21.6912 N   0  0  0  0  0  0  0  0  0  0  0  0
    6.5976    9.3401   22.6478 N   0  0  0  0  0  0  0  0  0  0  0  0
   11.2031    3.0042   20.6246 C   0  0  0  0  0  0  0  0  0  0  0  0
   12.8688    7.7370   22.7287 C   0  0  0  0  0  0  0  0  0  0  0  0
    7.4487    9.1361   23.6506 C   0  0  0  0  0  0  0  0  0  0  0  0
    8.9772    2.5025   22.0273 C   0  0  0  0  0  0  0  0  0  0  0  0
   10.4859    4.0901   20.9730 C   0  0  0  0  0  0  0  0  0  0  0  0
   11.0962    9.3293   23.5072 C   0  0  0  0  0  0  0  0  0  0  0  0
    5.1273    7.8529   23.6208 N   0  0  0  0  0  0  0  0  0  0  0  0
    9.7552    9.2338   23.0171 N   0  0  0  0  0  0  0  0  0  0  0  0
   11.1797    6.7591   21.3326 N   0  0  0  0  0  0  0  0  0  0  0  0
   11.7728    8.0337   23.7267 C   0  0  0  0  0  0  0  0  0  0  0  0
    7.1194    8.3344   24.6775 C   0  0  0  0  0  0  0  0  0  0  0  0
    8.4311    4.7963   22.0500 C   0  0  0  0  0  0  0  0  0  0  0  0
    8.7393   10.8706   24.1871 O   0  0  0  0  0  0  0  0  0  0  0  0
    9.3093    3.8166   21.6712 C   0  0  0  0  0  0  0  0  0  0  0  0
  1  5  1  0
  1 15  4  0
  1 22  4  0
  2 20  1  0
  2 24  1  0
  3  6  4  0
  3 27  4  0
  4 22  4  0
  4 26  4  0
  6  7  4  0
  6 13  1  0
  7 19  4  0
  8 18  1  0
  8 23  1  0
  8 28  2  0
  9 17  1  0
  9 24  1  0
 10 11  1  0
 10 24  1  0
 11 23  1  0
 12 14  4  0
 12 16  4  0
 14 19  4  0
 15 18  4  0
 16 20  4  0
 17 25  1  0
 18 26  4  0
 19 29  4  0
 20 29  4  0
 21 23  1  0
 21 25  1  0
 27 29  4  0
M  END
$$$$

 Created by Python create_sdf_string function

 29 32  0  0  0  0  0  0  0  0999 V2000
    5.4450    8.7154   22.6662 C   0  0  0  0  0  0  0  0  0  0  0  0
   10.9154    5.4574   20.5483 C   0  0  0  0  0  0  0  0  0  0  0  0
    7.2709    4.5089   22.7542 C   0  0  0  0  0  0  0  0  0  0  0  0
    5.9698    7.6329   24.6581 C   0  0  0  0  0  0  0  0  0  0  0  0
    4.5542    8.9057   21.7104 O   0  0  0  0  0  0  0  0  0  0  0  0
    6.9895    3.2085   23.0690 C   0  0  0  0  0  0  0  0  0  0  0  0
    7.8391    2.2253   22.7260 N   0  0  0  0  0  0  0  0  0  0  0  0
    8.6968    9.8373   23.6359 C   0  0  0  0  0  0  0  0  0  0  0  0
   12.5135    6.5957   21.8396 C   0  0  0  0  0  0  0  0  0  0  0  0
   10.9406    8.2330   21.1350 C   0  0  0  0  0  0  0  0  0  0  0  0
    9.6648    8.5956   21.7310 C   0  0  0  0  0  0  0  0  0  0  0  0
   10.8829    1.7153   20.9865 C   0  0  0  0  0  0  0  0  0  0  0  0
    5.7768    2.8533   23.7910 C   0  0  0  0  0  0  0  0  0  0  0  0
    9.7977    1.4791   21.6912 N   0  0  0  0  0  0  0  0  0  0  0  0
    6.5976    9.3401   22.6478 N   0  0  0  0  0  0  0  0  0  0  0  0
   11.2031    3.0042   20.6246 C   0  0  0  0  0  0  0  0  0  0  0  0
   12.8688    7.7370   22.7287 C   0  0  0  0  0  0  0  0  0  0  0  0
    7.4487    9.1361   23.6506 C   0  0  0  0  0  0  0  0  0  0  0  0
    8.9772    2.5025   22.0273 C   0  0  0  0  0  0  0  0  0  0  0  0
   10.4859    4.0901   20.9730 C   0  0  0  0  0  0  0  0  0  0  0  0
   11.0962    9.3293   23.5072 C   0  0  0  0  0  0  0  0  0  0  0  0
    5.1273    7.8529   23.6208 N   0  0  0  0  0  0  0  0  0  0  0  0
    9.7552    9.2338   23.0171 N   0  0  0  0  0  0  0  0  0  0  0  0
   11.1797    6.7591   21.3326 N   0  0  0  0  0  0  0  0  0  0  0  0
   11.7728    8.0337   23.7267 C   0  0  0  0  0  0  0  0  0  0  0  0
    7.1194    8.3344   24.6775 C   0  0  0  0  0  0  0  0  0  0  0  0
    8.4311    4.7963   22.0500 C   0  0  0  0  0  0  0  0  0  0  0  0
    8.7393   10.8706   24.1871 O   0  0  0  0  0  0  0  0  0  0  0  0
    9.3093    3.8166   21.6712 C   0  0  0  0  0  0  0  0  0  0  0  0
  1  5  1  0
  1 15  4  0
  1 22  4  0
  2 20  1  0
  2 24  1  0
  3  6  4  0
  3 27  4  0
  4 22  4  0
  4 26  4  0
  6  7  4  0
  6 13  1  0
  7 19  4  0
  8 18  1  0
  8 23  1  0
  8 28  2  0
  9 17  1  0
  9 24  1  0
 10 11  1  0
 10 24  1  0
 11 23  1  0
 12 14  4  0
 12 16  4  0
 14 19  4  0
 15 18  4  0
 16 20  4  0
 17 25  1  0
 18 26  4  0
 19 29  4  0
 20 29  4  0
 21 23  1  0
 21 25  1  0
 27 29  4  0
M  END
$$$$

 Created by Python create_sdf_string function

 29 32  0  0  0  0  0  0  0  0999 V2000
    5.4450    8.7154   22.6662 C   0  0  0  0  0  0  0  0  0  0  0  0
   10.9154    5.4574   20.5483 C   0  0  0  0  0  0  0  0  0  0  0  0
    7.2709    4.5089   22.7542 C   0  0  0  0  0  0  0  0  0  0  0  0
    5.9698    7.6329   24.6581 C   0  0  0  0  0  0  0  0  0  0  0  0
    4.5542    8.9057   21.7104 O   0  0  0  0  0  0  0  0  0  0  0  0
    6.9895    3.2085   23.0690 C   0  0  0  0  0  0  0  0  0  0  0  0
    7.8391    2.2253   22.7260 N   0  0  0  0  0  0  0  0  0  0  0  0
    8.6968    9.8373   23.6359 C   0  0  0  0  0  0  0  0  0  0  0  0
   12.5135    6.5957   21.8396 C   0  0  0  0  0  0  0  0  0  0  0  0
   10.9406    8.2330   21.1350 C   0  0  0  0  0  0  0  0  0  0  0  0
    9.6648    8.5956   21.7310 C   0  0  0  0  0  0  0  0  0  0  0  0
   10.8829    1.7153   20.9865 C   0  0  0  0  0  0  0  0  0  0  0  0
    5.7768    2.8533   23.7910 C   0  0  0  0  0  0  0  0  0  0  0  0
    9.7977    1.4791   21.6912 N   0  0  0  0  0  0  0  0  0  0  0  0
    6.5976    9.3401   22.6478 N   0  0  0  0  0  0  0  0  0  0  0  0
   11.2031    3.0042   20.6246 C   0  0  0  0  0  0  0  0  0  0  0  0
   12.8688    7.7370   22.7287 C   0  0  0  0  0  0  0  0  0  0  0  0
    7.4487    9.1361   23.6506 C   0  0  0  0  0  0  0  0  0  0  0  0
    8.9772    2.5025   22.0273 C   0  0  0  0  0  0  0  0  0  0  0  0
   10.4859    4.0901   20.9730 C   0  0  0  0  0  0  0  0  0  0  0  0
   11.0962    9.3293   23.5072 C   0  0  0  0  0  0  0  0  0  0  0  0
    5.1273    7.8529   23.6208 N   0  0  0  0  0  0  0  0  0  0  0  0
    9.7552    9.2338   23.0171 N   0  0  0  0  0  0  0  0  0  0  0  0
   11.1797    6.7591   21.3326 N   0  0  0  0  0  0  0  0  0  0  0  0
   11.7728    8.0337   23.7267 C   0  0  0  0  0  0  0  0  0  0  0  0
    7.1194    8.3344   24.6775 C   0  0  0  0  0  0  0  0  0  0  0  0
    8.4311    4.7963   22.0500 C   0  0  0  0  0  0  0  0  0  0  0  0
    8.7393   10.8706   24.1871 O   0  0  0  0  0  0  0  0  0  0  0  0
    9.3093    3.8166   21.6712 C   0  0  0  0  0  0  0  0  0  0  0  0
  1  5  1  0
  1 15  4  0
  1 22  4  0
  2 20  1  0
  2 24  1  0
  3  6  4  0
  3 27  4  0
  4 22  4  0
  4 26  4  0
  6  7  4  0
  6 13  1  0
  7 19  4  0
  8 18  1  0
  8 23  1  0
  8 28  2  0
  9 17  1  0
  9 24  1  0
 10 11  1  0
 10 24  1  0
 11 23  1  0
 12 14  4  0
 12 16  4  0
 14 19  4  0
 15 18  4  0
 16 20  4  0
 17 25  1  0
 18 26  4  0
 19 29  4  0
 20 29  4  0
 21 23  1  0
 21 25  1  0
 27 29  4  0
M  END
$$$$

 Created by Python create_sdf_string function

 29 32  0  0  0  0  0  0  0  0999 V2000
    5.4450    8.7154   22.6662 C   0  0  0  0  0  0  0  0  0  0  0  0
   10.9154    5.4574   20.5483 C   0  0  0  0  0  0  0  0  0  0  0  0
    7.2709    4.5089   22.7542 C   0  0  0  0  0  0  0  0  0  0  0  0
    5.9698    7.6329   24.6581 C   0  0  0  0  0  0  0  0  0  0  0  0
    4.5542    8.9057   21.7104 O   0  0  0  0  0  0  0  0  0  0  0  0
    6.9895    3.2085   23.0690 C   0  0  0  0  0  0  0  0  0  0  0  0
    7.8391    2.2253   22.7260 N   0  0  0  0  0  0  0  0  0  0  0  0
    8.6968    9.8373   23.6359 C   0  0  0  0  0  0  0  0  0  0  0  0
   12.5135    6.5957   21.8396 C   0  0  0  0  0  0  0  0  0  0  0  0
   10.9406    8.2330   21.1350 C   0  0  0  0  0  0  0  0  0  0  0  0
    9.6648    8.5956   21.7310 C   0  0  0  0  0  0  0  0  0  0  0  0
   10.8829    1.7153   20.9865 C   0  0  0  0  0  0  0  0  0  0  0  0
    5.7768    2.8533   23.7910 C   0  0  0  0  0  0  0  0  0  0  0  0
    9.7977    1.4791   21.6912 N   0  0  0  0  0  0  0  0  0  0  0  0
    6.5976    9.3401   22.6478 N   0  0  0  0  0  0  0  0  0  0  0  0
   11.2031    3.0042   20.6246 C   0  0  0  0  0  0  0  0  0  0  0  0
   12.8688    7.7370   22.7287 C   0  0  0  0  0  0  0  0  0  0  0  0
    7.4487    9.1361   23.6506 C   0  0  0  0  0  0  0  0  0  0  0  0
    8.9772    2.5025   22.0273 C   0  0  0  0  0  0  0  0  0  0  0  0
   10.4859    4.0901   20.9730 C   0  0  0  0  0  0  0  0  0  0  0  0
   11.0962    9.3293   23.5072 C   0  0  0  0  0  0  0  0  0  0  0  0
    5.1273    7.8529   23.6208 N   0  0  0  0  0  0  0  0  0  0  0  0
    9.7552    9.2338   23.0171 N   0  0  0  0  0  0  0  0  0  0  0  0
   11.1797    6.7591   21.3326 N   0  0  0  0  0  0  0  0  0  0  0  0
   11.7728    8.0337   23.7267 C   0  0  0  0  0  0  0  0  0  0  0  0
    7.1194    8.3344   24.6775 C   0  0  0  0  0  0  0  0  0  0  0  0
    8.4311    4.7963   22.0500 C   0  0  0  0  0  0  0  0  0  0  0  0
    8.7393   10.8706   24.1871 O   0  0  0  0  0  0  0  0  0  0  0  0
    9.3093    3.8166   21.6712 C   0  0  0  0  0  0  0  0  0  0  0  0
  1  5  1  0
  1 15  4  0
  1 22  4  0
  2 20  1  0
  2 24  1  0
  3  6  4  0
  3 27  4  0
  4 22  4  0
  4 26  4  0
  6  7  4  0
  6 13  1  0
  7 19  4  0
  8 18  1  0
  8 23  1  0
  8 28  2  0
  9 17  1  0
  9 24  1  0
 10 11  1  0
 10 24  1  0
 11 23  1  0
 12 14  4  0
 12 16  4  0
 14 19  4  0
 15 18  4  0
 16 20  4  0
 17 25  1  0
 18 26  4  0
 19 29  4  0
 20 29  4  0
 21 23  1  0
 21 25  1  0
 27 29  4  0
M  END
$$$$

 Created by Python create_sdf_string function

 29 32  0  0  0  0  0  0  0  0999 V2000
    5.4450    8.7154   22.6662 C   0  0  0  0  0  0  0  0  0  0  0  0
   10.9154    5.4574   20.5483 C   0  0  0  0  0  0  0  0  0  0  0  0
    7.2709    4.5089   22.7542 C   0  0  0  0  0  0  0  0  0  0  0  0
    5.9698    7.6329   24.6581 C   0  0  0  0  0  0  0  0  0  0  0  0
    4.5542    8.9057   21.7104 O   0  0  0  0  0  0  0  0  0  0  0  0
    6.9895    3.2085   23.0690 C   0  0  0  0  0  0  0  0  0  0  0  0
    7.8391    2.2253   22.7260 N   0  0  0  0  0  0  0  0  0  0  0  0
    8.6968    9.8373   23.6359 C   0  0  0  0  0  0  0  0  0  0  0  0
   12.5135    6.5957   21.8396 C   0  0  0  0  0  0  0  0  0  0  0  0
   10.9406    8.2330   21.1350 C   0  0  0  0  0  0  0  0  0  0  0  0
    9.6648    8.5956   21.7310 C   0  0  0  0  0  0  0  0  0  0  0  0
   10.8829    1.7153   20.9865 C   0  0  0  0  0  0  0  0  0  0  0  0
    5.7768    2.8533   23.7910 C   0  0  0  0  0  0  0  0  0  0  0  0
    9.7977    1.4791   21.6912 N   0  0  0  0  0  0  0  0  0  0  0  0
    6.5976    9.3401   22.6478 N   0  0  0  0  0  0  0  0  0  0  0  0
   11.2031    3.0042   20.6246 C   0  0  0  0  0  0  0  0  0  0  0  0
   12.8688    7.7370   22.7287 C   0  0  0  0  0  0  0  0  0  0  0  0
    7.4487    9.1361   23.6506 C   0  0  0  0  0  0  0  0  0  0  0  0
    8.9772    2.5025   22.0273 C   0  0  0  0  0  0  0  0  0  0  0  0
   10.4859    4.0901   20.9730 C   0  0  0  0  0  0  0  0  0  0  0  0
   11.0962    9.3293   23.5072 C   0  0  0  0  0  0  0  0  0  0  0  0
    5.1273    7.8529   23.6208 N   0  0  0  0  0  0  0  0  0  0  0  0
    9.7552    9.2338   23.0171 N   0  0  0  0  0  0  0  0  0  0  0  0
   11.1797    6.7591   21.3326 N   0  0  0  0  0  0  0  0  0  0  0  0
   11.7728    8.0337   23.7267 C   0  0  0  0  0  0  0  0  0  0  0  0
    7.1194    8.3344   24.6775 C   0  0  0  0  0  0  0  0  0  0  0  0
    8.4311    4.7963   22.0500 C   0  0  0  0  0  0  0  0  0  0  0  0
    8.7393   10.8706   24.1871 O   0  0  0  0  0  0  0  0  0  0  0  0
    9.3093    3.8166   21.6712 C   0  0  0  0  0  0  0  0  0  0  0  0
  1  5  1  0
  1 15  4  0
  1 22  4  0
  2 20  1  0
  2 24  1  0
  3  6  4  0
  3 27  4  0
  4 22  4  0
  4 26  4  0
  6  7  4  0
  6 13  1  0
  7 19  4  0
  8 18  1  0
  8 23  1  0
  8 28  2  0
  9 17  1  0
  9 24  1  0
 10 11  1  0
 10 24  1  0
 11 23  1  0
 12 14  4  0
 12 16  4  0
 14 19  4  0
 15 18  4  0
 16 20  4  0
 17 25  1  0
 18 26  4  0
 19 29  4  0
 20 29  4  0
 21 23  1  0
 21 25  1  0
 27 29  4  0
M  END
$$$$

 Created by Python create_sdf_string function

 29 32  0  0  0  0  0  0  0  0999 V2000
    5.4450    8.7154   22.6662 C   0  0  0  0  0  0  0  0  0  0  0  0
   10.9154    5.4574   20.5483 C   0  0  0  0  0  0  0  0  0  0  0  0
    7.2709    4.5089   22.7542 C   0  0  0  0  0  0  0  0  0  0  0  0
    5.9698    7.6329   24.6581 C   0  0  0  0  0  0  0  0  0  0  0  0
    4.5542    8.9057   21.7104 O   0  0  0  0  0  0  0  0  0  0  0  0
    6.9895    3.2085   23.0690 C   0  0  0  0  0  0  0  0  0  0  0  0
    7.8391    2.2253   22.7260 N   0  0  0  0  0  0  0  0  0  0  0  0
    8.6968    9.8373   23.6359 C   0  0  0  0  0  0  0  0  0  0  0  0
   12.5135    6.5957   21.8396 C   0  0  0  0  0  0  0  0  0  0  0  0
   10.9406    8.2330   21.1350 C   0  0  0  0  0  0  0  0  0  0  0  0
    9.6648    8.5956   21.7310 C   0  0  0  0  0  0  0  0  0  0  0  0
   10.8829    1.7153   20.9865 C   0  0  0  0  0  0  0  0  0  0  0  0
    5.7768    2.8533   23.7910 C   0  0  0  0  0  0  0  0  0  0  0  0
    9.7977    1.4791   21.6912 N   0  0  0  0  0  0  0  0  0  0  0  0
    6.5976    9.3401   22.6478 N   0  0  0  0  0  0  0  0  0  0  0  0
   11.2031    3.0042   20.6246 C   0  0  0  0  0  0  0  0  0  0  0  0
   12.8688    7.7370   22.7287 C   0  0  0  0  0  0  0  0  0  0  0  0
    7.4487    9.1361   23.6506 C   0  0  0  0  0  0  0  0  0  0  0  0
    8.9772    2.5025   22.0273 C   0  0  0  0  0  0  0  0  0  0  0  0
   10.4859    4.0901   20.9730 C   0  0  0  0  0  0  0  0  0  0  0  0
   11.0962    9.3293   23.5072 C   0  0  0  0  0  0  0  0  0  0  0  0
    5.1273    7.8529   23.6208 N   0  0  0  0  0  0  0  0  0  0  0  0
    9.7552    9.2338   23.0171 N   0  0  0  0  0  0  0  0  0  0  0  0
   11.1797    6.7591   21.3326 N   0  0  0  0  0  0  0  0  0  0  0  0
   11.7728    8.0337   23.7267 C   0  0  0  0  0  0  0  0  0  0  0  0
    7.1194    8.3344   24.6775 C   0  0  0  0  0  0  0  0  0  0  0  0
    8.4311    4.7963   22.0500 C   0  0  0  0  0  0  0  0  0  0  0  0
    8.7393   10.8706   24.1871 O   0  0  0  0  0  0  0  0  0  0  0  0
    9.3093    3.8166   21.6712 C   0  0  0  0  0  0  0  0  0  0  0  0
  1  5  1  0
  1 15  4  0
  1 22  4  0
  2 20  1  0
  2 24  1  0
  3  6  4  0
  3 27  4  0
  4 22  4  0
  4 26  4  0
  6  7  4  0
  6 13  1  0
  7 19  4  0
  8 18  1  0
  8 23  1  0
  8 28  2  0
  9 17  1  0
  9 24  1  0
 10 11  1  0
 10 24  1  0
 11 23  1  0
 12 14  4  0
 12 16  4  0
 14 19  4  0
 15 18  4  0
 16 20  4  0
 17 25  1  0
 18 26  4  0
 19 29  4  0
 20 29  4  0
 21 23  1  0
 21 25  1  0
 27 29  4  0
M  END
$$$$

 Created by Python create_sdf_string function

 29 32  0  0  0  0  0  0  0  0999 V2000
    5.4450    8.7154   22.6662 C   0  0  0  0  0  0  0  0  0  0  0  0
   10.9154    5.4574   20.5483 C   0  0  0  0  0  0  0  0  0  0  0  0
    7.2709    4.5089   22.7542 C   0  0  0  0  0  0  0  0  0  0  0  0
    5.9698    7.6329   24.6581 C   0  0  0  0  0  0  0  0  0  0  0  0
    4.5542    8.9057   21.7104 O   0  0  0  0  0  0  0  0  0  0  0  0
    6.9895    3.2085   23.0690 C   0  0  0  0  0  0  0  0  0  0  0  0
    7.8391    2.2253   22.7260 N   0  0  0  0  0  0  0  0  0  0  0  0
    8.6968    9.8373   23.6359 C   0  0  0  0  0  0  0  0  0  0  0  0
   12.5135    6.5957   21.8396 C   0  0  0  0  0  0  0  0  0  0  0  0
   10.9406    8.2330   21.1350 C   0  0  0  0  0  0  0  0  0  0  0  0
    9.6648    8.5956   21.7310 C   0  0  0  0  0  0  0  0  0  0  0  0
   10.8829    1.7153   20.9865 C   0  0  0  0  0  0  0  0  0  0  0  0
    5.7768    2.8533   23.7910 C   0  0  0  0  0  0  0  0  0  0  0  0
    9.7977    1.4791   21.6912 N   0  0  0  0  0  0  0  0  0  0  0  0
    6.5976    9.3401   22.6478 N   0  0  0  0  0  0  0  0  0  0  0  0
   11.2031    3.0042   20.6246 C   0  0  0  0  0  0  0  0  0  0  0  0
   12.8688    7.7370   22.7287 C   0  0  0  0  0  0  0  0  0  0  0  0
    7.4487    9.1361   23.6506 C   0  0  0  0  0  0  0  0  0  0  0  0
    8.9772    2.5025   22.0273 C   0  0  0  0  0  0  0  0  0  0  0  0
   10.4859    4.0901   20.9730 C   0  0  0  0  0  0  0  0  0  0  0  0
   11.0962    9.3293   23.5072 C   0  0  0  0  0  0  0  0  0  0  0  0
    5.1273    7.8529   23.6208 N   0  0  0  0  0  0  0  0  0  0  0  0
    9.7552    9.2338   23.0171 N   0  0  0  0  0  0  0  0  0  0  0  0
   11.1797    6.7591   21.3326 N   0  0  0  0  0  0  0  0  0  0  0  0
   11.7728    8.0337   23.7267 C   0  0  0  0  0  0  0  0  0  0  0  0
    7.1194    8.3344   24.6775 C   0  0  0  0  0  0  0  0  0  0  0  0
    8.4311    4.7963   22.0500 C   0  0  0  0  0  0  0  0  0  0  0  0
    8.7393   10.8706   24.1871 O   0  0  0  0  0  0  0  0  0  0  0  0
    9.3093    3.8166   21.6712 C   0  0  0  0  0  0  0  0  0  0  0  0
  1  5  1  0
  1 15  4  0
  1 22  4  0
  2 20  1  0
  2 24  1  0
  3  6  4  0
  3 27  4  0
  4 22  4  0
  4 26  4  0
  6  7  4  0
  6 13  1  0
  7 19  4  0
  8 18  1  0
  8 23  1  0
  8 28  2  0
  9 17  1  0
  9 24  1  0
 10 11  1  0
 10 24  1  0
 11 23  1  0
 12 14  4  0
 12 16  4  0
 14 19  4  0
 15 18  4  0
 16 20  4  0
 17 25  1  0
 18 26  4  0
 19 29  4  0
 20 29  4  0
 21 23  1  0
 21 25  1  0
 27 29  4  0
M  END
$$$$

 Created by Python create_sdf_string function

 29 32  0  0  0  0  0  0  0  0999 V2000
    5.4450    8.7154   22.6662 C   0  0  0  0  0  0  0  0  0  0  0  0
   10.9154    5.4574   20.5483 C   0  0  0  0  0  0  0  0  0  0  0  0
    7.2709    4.5089   22.7542 C   0  0  0  0  0  0  0  0  0  0  0  0
    5.9698    7.6329   24.6581 C   0  0  0  0  0  0  0  0  0  0  0  0
    4.5542    8.9057   21.7104 O   0  0  0  0  0  0  0  0  0  0  0  0
    6.9895    3.2085   23.0690 C   0  0  0  0  0  0  0  0  0  0  0  0
    7.8391    2.2253   22.7260 N   0  0  0  0  0  0  0  0  0  0  0  0
    8.6968    9.8373   23.6359 C   0  0  0  0  0  0  0  0  0  0  0  0
   12.5135    6.5957   21.8396 C   0  0  0  0  0  0  0  0  0  0  0  0
   10.9406    8.2330   21.1350 C   0  0  0  0  0  0  0  0  0  0  0  0
    9.6648    8.5956   21.7310 C   0  0  0  0  0  0  0  0  0  0  0  0
   10.8829    1.7153   20.9865 C   0  0  0  0  0  0  0  0  0  0  0  0
    5.7768    2.8533   23.7910 C   0  0  0  0  0  0  0  0  0  0  0  0
    9.7977    1.4791   21.6912 N   0  0  0  0  0  0  0  0  0  0  0  0
    6.5976    9.3401   22.6478 N   0  0  0  0  0  0  0  0  0  0  0  0
   11.2031    3.0042   20.6246 C   0  0  0  0  0  0  0  0  0  0  0  0
   12.8688    7.7370   22.7287 C   0  0  0  0  0  0  0  0  0  0  0  0
    7.4487    9.1361   23.6506 C   0  0  0  0  0  0  0  0  0  0  0  0
    8.9772    2.5025   22.0273 C   0  0  0  0  0  0  0  0  0  0  0  0
   10.4859    4.0901   20.9730 C   0  0  0  0  0  0  0  0  0  0  0  0
   11.0962    9.3293   23.5072 C   0  0  0  0  0  0  0  0  0  0  0  0
    5.1273    7.8529   23.6208 N   0  0  0  0  0  0  0  0  0  0  0  0
    9.7552    9.2338   23.0171 N   0  0  0  0  0  0  0  0  0  0  0  0
   11.1797    6.7591   21.3326 N   0  0  0  0  0  0  0  0  0  0  0  0
   11.7728    8.0337   23.7267 C   0  0  0  0  0  0  0  0  0  0  0  0
    7.1194    8.3344   24.6775 C   0  0  0  0  0  0  0  0  0  0  0  0
    8.4311    4.7963   22.0500 C   0  0  0  0  0  0  0  0  0  0  0  0
    8.7393   10.8706   24.1871 O   0  0  0  0  0  0  0  0  0  0  0  0
    9.3093    3.8166   21.6712 C   0  0  0  0  0  0  0  0  0  0  0  0
  1  5  1  0
  1 15  4  0
  1 22  4  0
  2 20  1  0
  2 24  1  0
  3  6  4  0
  3 27  4  0
  4 22  4  0
  4 26  4  0
  6  7  4  0
  6 13  1  0
  7 19  4  0
  8 18  1  0
  8 23  1  0
  8 28  2  0
  9 17  1  0
  9 24  1  0
 10 11  1  0
 10 24  1  0
 11 23  1  0
 12 14  4  0
 12 16  4  0
 14 19  4  0
 15 18  4  0
 16 20  4  0
 17 25  1  0
 18 26  4  0
 19 29  4  0
 20 29  4  0
 21 23  1  0
 21 25  1  0
 27 29  4  0
M  END
$$$$

 Created by Python create_sdf_string function

 29 32  0  0  0  0  0  0  0  0999 V2000
    5.4450    8.7154   22.6662 C   0  0  0  0  0  0  0  0  0  0  0  0
   10.9154    5.4574   20.5483 C   0  0  0  0  0  0  0  0  0  0  0  0
    7.2709    4.5089   22.7542 C   0  0  0  0  0  0  0  0  0  0  0  0
    5.9698    7.6329   24.6581 C   0  0  0  0  0  0  0  0  0  0  0  0
    4.5542    8.9057   21.7104 O   0  0  0  0  0  0  0  0  0  0  0  0
    6.9895    3.2085   23.0690 C   0  0  0  0  0  0  0  0  0  0  0  0
    7.8391    2.2253   22.7260 N   0  0  0  0  0  0  0  0  0  0  0  0
    8.6968    9.8373   23.6359 C   0  0  0  0  0  0  0  0  0  0  0  0
   12.5135    6.5957   21.8396 C   0  0  0  0  0  0  0  0  0  0  0  0
   10.9406    8.2330   21.1350 C   0  0  0  0  0  0  0  0  0  0  0  0
    9.6648    8.5956   21.7310 C   0  0  0  0  0  0  0  0  0  0  0  0
   10.8829    1.7153   20.9865 C   0  0  0  0  0  0  0  0  0  0  0  0
    5.7768    2.8533   23.7910 C   0  0  0  0  0  0  0  0  0  0  0  0
    9.7977    1.4791   21.6912 N   0  0  0  0  0  0  0  0  0  0  0  0
    6.5976    9.3401   22.6478 N   0  0  0  0  0  0  0  0  0  0  0  0
   11.2031    3.0042   20.6246 C   0  0  0  0  0  0  0  0  0  0  0  0
   12.8688    7.7370   22.7287 C   0  0  0  0  0  0  0  0  0  0  0  0
    7.4487    9.1361   23.6506 C   0  0  0  0  0  0  0  0  0  0  0  0
    8.9772    2.5025   22.0273 C   0  0  0  0  0  0  0  0  0  0  0  0
   10.4859    4.0901   20.9730 C   0  0  0  0  0  0  0  0  0  0  0  0
   11.0962    9.3293   23.5072 C   0  0  0  0  0  0  0  0  0  0  0  0
    5.1273    7.8529   23.6208 N   0  0  0  0  0  0  0  0  0  0  0  0
    9.7552    9.2338   23.0171 N   0  0  0  0  0  0  0  0  0  0  0  0
   11.1797    6.7591   21.3326 N   0  0  0  0  0  0  0  0  0  0  0  0
   11.7728    8.0337   23.7267 C   0  0  0  0  0  0  0  0  0  0  0  0
    7.1194    8.3344   24.6775 C   0  0  0  0  0  0  0  0  0  0  0  0
    8.4311    4.7963   22.0500 C   0  0  0  0  0  0  0  0  0  0  0  0
    8.7393   10.8706   24.1871 O   0  0  0  0  0  0  0  0  0  0  0  0
    9.3093    3.8166   21.6712 C   0  0  0  0  0  0  0  0  0  0  0  0
  1  5  1  0
  1 15  4  0
  1 22  4  0
  2 20  1  0
  2 24  1  0
  3  6  4  0
  3 27  4  0
  4 22  4  0
  4 26  4  0
  6  7  4  0
  6 13  1  0
  7 19  4  0
  8 18  1  0
  8 23  1  0
  8 28  2  0
  9 17  1  0
  9 24  1  0
 10 11  1  0
 10 24  1  0
 11 23  1  0
 12 14  4  0
 12 16  4  0
 14 19  4  0
 15 18  4  0
 16 20  4  0
 17 25  1  0
 18 26  4  0
 19 29  4  0
 20 29  4  0
 21 23  1  0
 21 25  1  0
 27 29  4  0
M  END
$$$$

 Created by Python create_sdf_string function

 29 32  0  0  0  0  0  0  0  0999 V2000
    5.4450    8.7154   22.6662 C   0  0  0  0  0  0  0  0  0  0  0  0
   10.9154    5.4574   20.5483 C   0  0  0  0  0  0  0  0  0  0  0  0
    7.2709    4.5089   22.7542 C   0  0  0  0  0  0  0  0  0  0  0  0
    5.9698    7.6329   24.6581 C   0  0  0  0  0  0  0  0  0  0  0  0
    4.5542    8.9057   21.7104 O   0  0  0  0  0  0  0  0  0  0  0  0
    6.9895    3.2085   23.0690 C   0  0  0  0  0  0  0  0  0  0  0  0
    7.8391    2.2253   22.7260 N   0  0  0  0  0  0  0  0  0  0  0  0
    8.6968    9.8373   23.6359 C   0  0  0  0  0  0  0  0  0  0  0  0
   12.5135    6.5957   21.8396 C   0  0  0  0  0  0  0  0  0  0  0  0
   10.9406    8.2330   21.1350 C   0  0  0  0  0  0  0  0  0  0  0  0
    9.6648    8.5956   21.7310 C   0  0  0  0  0  0  0  0  0  0  0  0
   10.8829    1.7153   20.9865 C   0  0  0  0  0  0  0  0  0  0  0  0
    5.7768    2.8533   23.7910 C   0  0  0  0  0  0  0  0  0  0  0  0
    9.7977    1.4791   21.6912 N   0  0  0  0  0  0  0  0  0  0  0  0
    6.5976    9.3401   22.6478 N   0  0  0  0  0  0  0  0  0  0  0  0
   11.2031    3.0042   20.6246 C   0  0  0  0  0  0  0  0  0  0  0  0
   12.8688    7.7370   22.7287 C   0  0  0  0  0  0  0  0  0  0  0  0
    7.4487    9.1361   23.6506 C   0  0  0  0  0  0  0  0  0  0  0  0
    8.9772    2.5025   22.0273 C   0  0  0  0  0  0  0  0  0  0  0  0
   10.4859    4.0901   20.9730 C   0  0  0  0  0  0  0  0  0  0  0  0
   11.0962    9.3293   23.5072 C   0  0  0  0  0  0  0  0  0  0  0  0
    5.1273    7.8529   23.6208 N   0  0  0  0  0  0  0  0  0  0  0  0
    9.7552    9.2338   23.0171 N   0  0  0  0  0  0  0  0  0  0  0  0
   11.1797    6.7591   21.3326 N   0  0  0  0  0  0  0  0  0  0  0  0
   11.7728    8.0337   23.7267 C   0  0  0  0  0  0  0  0  0  0  0  0
    7.1194    8.3344   24.6775 C   0  0  0  0  0  0  0  0  0  0  0  0
    8.4311    4.7963   22.0500 C   0  0  0  0  0  0  0  0  0  0  0  0
    8.7393   10.8706   24.1871 O   0  0  0  0  0  0  0  0  0  0  0  0
    9.3093    3.8166   21.6712 C   0  0  0  0  0  0  0  0  0  0  0  0
  1  5  1  0
  1 15  4  0
  1 22  4  0
  2 20  1  0
  2 24  1  0
  3  6  4  0
  3 27  4  0
  4 22  4  0
  4 26  4  0
  6  7  4  0
  6 13  1  0
  7 19  4  0
  8 18  1  0
  8 23  1  0
  8 28  2  0
  9 17  1  0
  9 24  1  0
 10 11  1  0
 10 24  1  0
 11 23  1  0
 12 14  4  0
 12 16  4  0
 14 19  4  0
 15 18  4  0
 16 20  4  0
 17 25  1  0
 18 26  4  0
 19 29  4  0
 20 29  4  0
 21 23  1  0
 21 25  1  0
 27 29  4  0
M  END
$$$$

 Created by Python create_sdf_string function

 29 32  0  0  0  0  0  0  0  0999 V2000
    5.4450    8.7154   22.6662 C   0  0  0  0  0  0  0  0  0  0  0  0
   10.9154    5.4574   20.5483 C   0  0  0  0  0  0  0  0  0  0  0  0
    7.2709    4.5089   22.7542 C   0  0  0  0  0  0  0  0  0  0  0  0
    5.9698    7.6329   24.6581 C   0  0  0  0  0  0  0  0  0  0  0  0
    4.5542    8.9057   21.7104 O   0  0  0  0  0  0  0  0  0  0  0  0
    6.9895    3.2085   23.0690 C   0  0  0  0  0  0  0  0  0  0  0  0
    7.8391    2.2253   22.7260 N   0  0  0  0  0  0  0  0  0  0  0  0
    8.6968    9.8373   23.6359 C   0  0  0  0  0  0  0  0  0  0  0  0
   12.5135    6.5957   21.8396 C   0  0  0  0  0  0  0  0  0  0  0  0
   10.9406    8.2330   21.1350 C   0  0  0  0  0  0  0  0  0  0  0  0
    9.6648    8.5956   21.7310 C   0  0  0  0  0  0  0  0  0  0  0  0
   10.8829    1.7153   20.9865 C   0  0  0  0  0  0  0  0  0  0  0  0
    5.7768    2.8533   23.7910 C   0  0  0  0  0  0  0  0  0  0  0  0
    9.7977    1.4791   21.6912 N   0  0  0  0  0  0  0  0  0  0  0  0
    6.5976    9.3401   22.6478 N   0  0  0  0  0  0  0  0  0  0  0  0
   11.2031    3.0042   20.6246 C   0  0  0  0  0  0  0  0  0  0  0  0
   12.8688    7.7370   22.7287 C   0  0  0  0  0  0  0  0  0  0  0  0
    7.4487    9.1361   23.6506 C   0  0  0  0  0  0  0  0  0  0  0  0
    8.9772    2.5025   22.0273 C   0  0  0  0  0  0  0  0  0  0  0  0
   10.4859    4.0901   20.9730 C   0  0  0  0  0  0  0  0  0  0  0  0
   11.0962    9.3293   23.5072 C   0  0  0  0  0  0  0  0  0  0  0  0
    5.1273    7.8529   23.6208 N   0  0  0  0  0  0  0  0  0  0  0  0
    9.7552    9.2338   23.0171 N   0  0  0  0  0  0  0  0  0  0  0  0
   11.1797    6.7591   21.3326 N   0  0  0  0  0  0  0  0  0  0  0  0
   11.7728    8.0337   23.7267 C   0  0  0  0  0  0  0  0  0  0  0  0
    7.1194    8.3344   24.6775 C   0  0  0  0  0  0  0  0  0  0  0  0
    8.4311    4.7963   22.0500 C   0  0  0  0  0  0  0  0  0  0  0  0
    8.7393   10.8706   24.1871 O   0  0  0  0  0  0  0  0  0  0  0  0
    9.3093    3.8166   21.6712 C   0  0  0  0  0  0  0  0  0  0  0  0
  1  5  1  0
  1 15  4  0
  1 22  4  0
  2 20  1  0
  2 24  1  0
  3  6  4  0
  3 27  4  0
  4 22  4  0
  4 26  4  0
  6  7  4  0
  6 13  1  0
  7 19  4  0
  8 18  1  0
  8 23  1  0
  8 28  2  0
  9 17  1  0
  9 24  1  0
 10 11  1  0
 10 24  1  0
 11 23  1  0
 12 14  4  0
 12 16  4  0
 14 19  4  0
 15 18  4  0
 16 20  4  0
 17 25  1  0
 18 26  4  0
 19 29  4  0
 20 29  4  0
 21 23  1  0
 21 25  1  0
 27 29  4  0
M  END
$$$$

 Created by Python create_sdf_string function

 29 32  0  0  0  0  0  0  0  0999 V2000
    5.4450    8.7154   22.6662 C   0  0  0  0  0  0  0  0  0  0  0  0
   10.9154    5.4574   20.5483 C   0  0  0  0  0  0  0  0  0  0  0  0
    7.2709    4.5089   22.7542 C   0  0  0  0  0  0  0  0  0  0  0  0
    5.9698    7.6329   24.6581 C   0  0  0  0  0  0  0  0  0  0  0  0
    4.5542    8.9057   21.7104 O   0  0  0  0  0  0  0  0  0  0  0  0
    6.9895    3.2085   23.0690 C   0  0  0  0  0  0  0  0  0  0  0  0
    7.8391    2.2253   22.7260 N   0  0  0  0  0  0  0  0  0  0  0  0
    8.6968    9.8373   23.6359 C   0  0  0  0  0  0  0  0  0  0  0  0
   12.5135    6.5957   21.8396 C   0  0  0  0  0  0  0  0  0  0  0  0
   10.9406    8.2330   21.1350 C   0  0  0  0  0  0  0  0  0  0  0  0
    9.6648    8.5956   21.7310 C   0  0  0  0  0  0  0  0  0  0  0  0
   10.8829    1.7153   20.9865 C   0  0  0  0  0  0  0  0  0  0  0  0
    5.7768    2.8533   23.7910 C   0  0  0  0  0  0  0  0  0  0  0  0
    9.7977    1.4791   21.6912 N   0  0  0  0  0  0  0  0  0  0  0  0
    6.5976    9.3401   22.6478 N   0  0  0  0  0  0  0  0  0  0  0  0
   11.2031    3.0042   20.6246 C   0  0  0  0  0  0  0  0  0  0  0  0
   12.8688    7.7370   22.7287 C   0  0  0  0  0  0  0  0  0  0  0  0
    7.4487    9.1361   23.6506 C   0  0  0  0  0  0  0  0  0  0  0  0
    8.9772    2.5025   22.0273 C   0  0  0  0  0  0  0  0  0  0  0  0
   10.4859    4.0901   20.9730 C   0  0  0  0  0  0  0  0  0  0  0  0
   11.0962    9.3293   23.5072 C   0  0  0  0  0  0  0  0  0  0  0  0
    5.1273    7.8529   23.6208 N   0  0  0  0  0  0  0  0  0  0  0  0
    9.7552    9.2338   23.0171 N   0  0  0  0  0  0  0  0  0  0  0  0
   11.1797    6.7591   21.3326 N   0  0  0  0  0  0  0  0  0  0  0  0
   11.7728    8.0337   23.7267 C   0  0  0  0  0  0  0  0  0  0  0  0
    7.1194    8.3344   24.6775 C   0  0  0  0  0  0  0  0  0  0  0  0
    8.4311    4.7963   22.0500 C   0  0  0  0  0  0  0  0  0  0  0  0
    8.7393   10.8706   24.1871 O   0  0  0  0  0  0  0  0  0  0  0  0
    9.3093    3.8166   21.6712 C   0  0  0  0  0  0  0  0  0  0  0  0
  1  5  1  0
  1 15  4  0
  1 22  4  0
  2 20  1  0
  2 24  1  0
  3  6  4  0
  3 27  4  0
  4 22  4  0
  4 26  4  0
  6  7  4  0
  6 13  1  0
  7 19  4  0
  8 18  1  0
  8 23  1  0
  8 28  2  0
  9 17  1  0
  9 24  1  0
 10 11  1  0
 10 24  1  0
 11 23  1  0
 12 14  4  0
 12 16  4  0
 14 19  4  0
 15 18  4  0
 16 20  4  0
 17 25  1  0
 18 26  4  0
 19 29  4  0
 20 29  4  0
 21 23  1  0
 21 25  1  0
 27 29  4  0
M  END
$$$$

 Created by Python create_sdf_string function

 29 32  0  0  0  0  0  0  0  0999 V2000
    5.4450    8.7154   22.6662 C   0  0  0  0  0  0  0  0  0  0  0  0
   10.9154    5.4574   20.5483 C   0  0  0  0  0  0  0  0  0  0  0  0
    7.2709    4.5089   22.7542 C   0  0  0  0  0  0  0  0  0  0  0  0
    5.9698    7.6329   24.6581 C   0  0  0  0  0  0  0  0  0  0  0  0
    4.5542    8.9057   21.7104 O   0  0  0  0  0  0  0  0  0  0  0  0
    6.9895    3.2085   23.0690 C   0  0  0  0  0  0  0  0  0  0  0  0
    7.8391    2.2253   22.7260 N   0  0  0  0  0  0  0  0  0  0  0  0
    8.6968    9.8373   23.6359 C   0  0  0  0  0  0  0  0  0  0  0  0
   12.5135    6.5957   21.8396 C   0  0  0  0  0  0  0  0  0  0  0  0
   10.9406    8.2330   21.1350 C   0  0  0  0  0  0  0  0  0  0  0  0
    9.6648    8.5956   21.7310 C   0  0  0  0  0  0  0  0  0  0  0  0
   10.8829    1.7153   20.9865 C   0  0  0  0  0  0  0  0  0  0  0  0
    5.7768    2.8533   23.7910 C   0  0  0  0  0  0  0  0  0  0  0  0
    9.7977    1.4791   21.6912 N   0  0  0  0  0  0  0  0  0  0  0  0
    6.5976    9.3401   22.6478 N   0  0  0  0  0  0  0  0  0  0  0  0
   11.2031    3.0042   20.6246 C   0  0  0  0  0  0  0  0  0  0  0  0
   12.8688    7.7370   22.7287 C   0  0  0  0  0  0  0  0  0  0  0  0
    7.4487    9.1361   23.6506 C   0  0  0  0  0  0  0  0  0  0  0  0
    8.9772    2.5025   22.0273 C   0  0  0  0  0  0  0  0  0  0  0  0
   10.4859    4.0901   20.9730 C   0  0  0  0  0  0  0  0  0  0  0  0
   11.0962    9.3293   23.5072 C   0  0  0  0  0  0  0  0  0  0  0  0
    5.1273    7.8529   23.6208 N   0  0  0  0  0  0  0  0  0  0  0  0
    9.7552    9.2338   23.0171 N   0  0  0  0  0  0  0  0  0  0  0  0
   11.1797    6.7591   21.3326 N   0  0  0  0  0  0  0  0  0  0  0  0
   11.7728    8.0337   23.7267 C   0  0  0  0  0  0  0  0  0  0  0  0
    7.1194    8.3344   24.6775 C   0  0  0  0  0  0  0  0  0  0  0  0
    8.4311    4.7963   22.0500 C   0  0  0  0  0  0  0  0  0  0  0  0
    8.7393   10.8706   24.1871 O   0  0  0  0  0  0  0  0  0  0  0  0
    9.3093    3.8166   21.6712 C   0  0  0  0  0  0  0  0  0  0  0  0
  1  5  1  0
  1 15  4  0
  1 22  4  0
  2 20  1  0
  2 24  1  0
  3  6  4  0
  3 27  4  0
  4 22  4  0
  4 26  4  0
  6  7  4  0
  6 13  1  0
  7 19  4  0
  8 18  1  0
  8 23  1  0
  8 28  2  0
  9 17  1  0
  9 24  1  0
 10 11  1  0
 10 24  1  0
 11 23  1  0
 12 14  4  0
 12 16  4  0
 14 19  4  0
 15 18  4  0
 16 20  4  0
 17 25  1  0
 18 26  4  0
 19 29  4  0
 20 29  4  0
 21 23  1  0
 21 25  1  0
 27 29  4  0
M  END
$$$$

 Created by Python create_sdf_string function

 29 32  0  0  0  0  0  0  0  0999 V2000
    5.4450    8.7154   22.6662 C   0  0  0  0  0  0  0  0  0  0  0  0
   10.9154    5.4574   20.5483 C   0  0  0  0  0  0  0  0  0  0  0  0
    7.2709    4.5089   22.7542 C   0  0  0  0  0  0  0  0  0  0  0  0
    5.9698    7.6329   24.6581 C   0  0  0  0  0  0  0  0  0  0  0  0
    4.5542    8.9057   21.7104 O   0  0  0  0  0  0  0  0  0  0  0  0
    6.9895    3.2085   23.0690 C   0  0  0  0  0  0  0  0  0  0  0  0
    7.8391    2.2253   22.7260 N   0  0  0  0  0  0  0  0  0  0  0  0
    8.6968    9.8373   23.6359 C   0  0  0  0  0  0  0  0  0  0  0  0
   12.5135    6.5957   21.8396 C   0  0  0  0  0  0  0  0  0  0  0  0
   10.9406    8.2330   21.1350 C   0  0  0  0  0  0  0  0  0  0  0  0
    9.6648    8.5956   21.7310 C   0  0  0  0  0  0  0  0  0  0  0  0
   10.8829    1.7153   20.9865 C   0  0  0  0  0  0  0  0  0  0  0  0
    5.7768    2.8533   23.7910 C   0  0  0  0  0  0  0  0  0  0  0  0
    9.7977    1.4791   21.6912 N   0  0  0  0  0  0  0  0  0  0  0  0
    6.5976    9.3401   22.6478 N   0  0  0  0  0  0  0  0  0  0  0  0
   11.2031    3.0042   20.6246 C   0  0  0  0  0  0  0  0  0  0  0  0
   12.8688    7.7370   22.7287 C   0  0  0  0  0  0  0  0  0  0  0  0
    7.4487    9.1361   23.6506 C   0  0  0  0  0  0  0  0  0  0  0  0
    8.9772    2.5025   22.0273 C   0  0  0  0  0  0  0  0  0  0  0  0
   10.4859    4.0901   20.9730 C   0  0  0  0  0  0  0  0  0  0  0  0
   11.0962    9.3293   23.5072 C   0  0  0  0  0  0  0  0  0  0  0  0
    5.1273    7.8529   23.6208 N   0  0  0  0  0  0  0  0  0  0  0  0
    9.7552    9.2338   23.0171 N   0  0  0  0  0  0  0  0  0  0  0  0
   11.1797    6.7591   21.3326 N   0  0  0  0  0  0  0  0  0  0  0  0
   11.7728    8.0337   23.7267 C   0  0  0  0  0  0  0  0  0  0  0  0
    7.1194    8.3344   24.6775 C   0  0  0  0  0  0  0  0  0  0  0  0
    8.4311    4.7963   22.0500 C   0  0  0  0  0  0  0  0  0  0  0  0
    8.7393   10.8706   24.1871 O   0  0  0  0  0  0  0  0  0  0  0  0
    9.3093    3.8166   21.6712 C   0  0  0  0  0  0  0  0  0  0  0  0
  1  5  1  0
  1 15  4  0
  1 22  4  0
  2 20  1  0
  2 24  1  0
  3  6  4  0
  3 27  4  0
  4 22  4  0
  4 26  4  0
  6  7  4  0
  6 13  1  0
  7 19  4  0
  8 18  1  0
  8 23  1  0
  8 28  2  0
  9 17  1  0
  9 24  1  0
 10 11  1  0
 10 24  1  0
 11 23  1  0
 12 14  4  0
 12 16  4  0
 14 19  4  0
 15 18  4  0
 16 20  4  0
 17 25  1  0
 18 26  4  0
 19 29  4  0
 20 29  4  0
 21 23  1  0
 21 25  1  0
 27 29  4  0
M  END
$$$$

 Created by Python create_sdf_string function

 29 32  0  0  0  0  0  0  0  0999 V2000
    5.4450    8.7154   22.6662 C   0  0  0  0  0  0  0  0  0  0  0  0
   10.9154    5.4574   20.5483 C   0  0  0  0  0  0  0  0  0  0  0  0
    7.2709    4.5089   22.7542 C   0  0  0  0  0  0  0  0  0  0  0  0
    5.9698    7.6329   24.6581 C   0  0  0  0  0  0  0  0  0  0  0  0
    4.5542    8.9057   21.7104 O   0  0  0  0  0  0  0  0  0  0  0  0
    6.9895    3.2085   23.0690 C   0  0  0  0  0  0  0  0  0  0  0  0
    7.8391    2.2253   22.7260 N   0  0  0  0  0  0  0  0  0  0  0  0
    8.6968    9.8373   23.6359 C   0  0  0  0  0  0  0  0  0  0  0  0
   12.5135    6.5957   21.8396 C   0  0  0  0  0  0  0  0  0  0  0  0
   10.9406    8.2330   21.1350 C   0  0  0  0  0  0  0  0  0  0  0  0
    9.6648    8.5956   21.7310 C   0  0  0  0  0  0  0  0  0  0  0  0
   10.8829    1.7153   20.9865 C   0  0  0  0  0  0  0  0  0  0  0  0
    5.7768    2.8533   23.7910 C   0  0  0  0  0  0  0  0  0  0  0  0
    9.7977    1.4791   21.6912 N   0  0  0  0  0  0  0  0  0  0  0  0
    6.5976    9.3401   22.6478 N   0  0  0  0  0  0  0  0  0  0  0  0
   11.2031    3.0042   20.6246 C   0  0  0  0  0  0  0  0  0  0  0  0
   12.8688    7.7370   22.7287 C   0  0  0  0  0  0  0  0  0  0  0  0
    7.4487    9.1361   23.6506 C   0  0  0  0  0  0  0  0  0  0  0  0
    8.9772    2.5025   22.0273 C   0  0  0  0  0  0  0  0  0  0  0  0
   10.4859    4.0901   20.9730 C   0  0  0  0  0  0  0  0  0  0  0  0
   11.0962    9.3293   23.5072 C   0  0  0  0  0  0  0  0  0  0  0  0
    5.1273    7.8529   23.6208 N   0  0  0  0  0  0  0  0  0  0  0  0
    9.7552    9.2338   23.0171 N   0  0  0  0  0  0  0  0  0  0  0  0
   11.1797    6.7591   21.3326 N   0  0  0  0  0  0  0  0  0  0  0  0
   11.7728    8.0337   23.7267 C   0  0  0  0  0  0  0  0  0  0  0  0
    7.1194    8.3344   24.6775 C   0  0  0  0  0  0  0  0  0  0  0  0
    8.4311    4.7963   22.0500 C   0  0  0  0  0  0  0  0  0  0  0  0
    8.7393   10.8706   24.1871 O   0  0  0  0  0  0  0  0  0  0  0  0
    9.3093    3.8166   21.6712 C   0  0  0  0  0  0  0  0  0  0  0  0
  1  5  1  0
  1 15  4  0
  1 22  4  0
  2 20  1  0
  2 24  1  0
  3  6  4  0
  3 27  4  0
  4 22  4  0
  4 26  4  0
  6  7  4  0
  6 13  1  0
  7 19  4  0
  8 18  1  0
  8 23  1  0
  8 28  2  0
  9 17  1  0
  9 24  1  0
 10 11  1  0
 10 24  1  0
 11 23  1  0
 12 14  4  0
 12 16  4  0
 14 19  4  0
 15 18  4  0
 16 20  4  0
 17 25  1  0
 18 26  4  0
 19 29  4  0
 20 29  4  0
 21 23  1  0
 21 25  1  0
 27 29  4  0
M  END
$$$$

 Created by Python create_sdf_string function

 29 32  0  0  0  0  0  0  0  0999 V2000
    5.4450    8.7154   22.6662 C   0  0  0  0  0  0  0  0  0  0  0  0
   10.9154    5.4574   20.5483 C   0  0  0  0  0  0  0  0  0  0  0  0
    7.2709    4.5089   22.7542 C   0  0  0  0  0  0  0  0  0  0  0  0
    5.9698    7.6329   24.6581 C   0  0  0  0  0  0  0  0  0  0  0  0
    4.5542    8.9057   21.7104 O   0  0  0  0  0  0  0  0  0  0  0  0
    6.9895    3.2085   23.0690 C   0  0  0  0  0  0  0  0  0  0  0  0
    7.8391    2.2253   22.7260 N   0  0  0  0  0  0  0  0  0  0  0  0
    8.6968    9.8373   23.6359 C   0  0  0  0  0  0  0  0  0  0  0  0
   12.5135    6.5957   21.8396 C   0  0  0  0  0  0  0  0  0  0  0  0
   10.9406    8.2330   21.1350 C   0  0  0  0  0  0  0  0  0  0  0  0
    9.6648    8.5956   21.7310 C   0  0  0  0  0  0  0  0  0  0  0  0
   10.8829    1.7153   20.9865 C   0  0  0  0  0  0  0  0  0  0  0  0
    5.7768    2.8533   23.7910 C   0  0  0  0  0  0  0  0  0  0  0  0
    9.7977    1.4791   21.6912 N   0  0  0  0  0  0  0  0  0  0  0  0
    6.5976    9.3401   22.6478 N   0  0  0  0  0  0  0  0  0  0  0  0
   11.2031    3.0042   20.6246 C   0  0  0  0  0  0  0  0  0  0  0  0
   12.8688    7.7370   22.7287 C   0  0  0  0  0  0  0  0  0  0  0  0
    7.4487    9.1361   23.6506 C   0  0  0  0  0  0  0  0  0  0  0  0
    8.9772    2.5025   22.0273 C   0  0  0  0  0  0  0  0  0  0  0  0
   10.4859    4.0901   20.9730 C   0  0  0  0  0  0  0  0  0  0  0  0
   11.0962    9.3293   23.5072 C   0  0  0  0  0  0  0  0  0  0  0  0
    5.1273    7.8529   23.6208 N   0  0  0  0  0  0  0  0  0  0  0  0
    9.7552    9.2338   23.0171 N   0  0  0  0  0  0  0  0  0  0  0  0
   11.1797    6.7591   21.3326 N   0  0  0  0  0  0  0  0  0  0  0  0
   11.7728    8.0337   23.7267 C   0  0  0  0  0  0  0  0  0  0  0  0
    7.1194    8.3344   24.6775 C   0  0  0  0  0  0  0  0  0  0  0  0
    8.4311    4.7963   22.0500 C   0  0  0  0  0  0  0  0  0  0  0  0
    8.7393   10.8706   24.1871 O   0  0  0  0  0  0  0  0  0  0  0  0
    9.3093    3.8166   21.6712 C   0  0  0  0  0  0  0  0  0  0  0  0
  1  5  1  0
  1 15  4  0
  1 22  4  0
  2 20  1  0
  2 24  1  0
  3  6  4  0
  3 27  4  0
  4 22  4  0
  4 26  4  0
  6  7  4  0
  6 13  1  0
  7 19  4  0
  8 18  1  0
  8 23  1  0
  8 28  2  0
  9 17  1  0
  9 24  1  0
 10 11  1  0
 10 24  1  0
 11 23  1  0
 12 14  4  0
 12 16  4  0
 14 19  4  0
 15 18  4  0
 16 20  4  0
 17 25  1  0
 18 26  4  0
 19 29  4  0
 20 29  4  0
 21 23  1  0
 21 25  1  0
 27 29  4  0
M  END
$$$$

 Created by Python create_sdf_string function

 29 32  0  0  0  0  0  0  0  0999 V2000
    5.4450    8.7154   22.6662 C   0  0  0  0  0  0  0  0  0  0  0  0
   10.9154    5.4574   20.5483 C   0  0  0  0  0  0  0  0  0  0  0  0
    7.2709    4.5089   22.7542 C   0  0  0  0  0  0  0  0  0  0  0  0
    5.9698    7.6329   24.6581 C   0  0  0  0  0  0  0  0  0  0  0  0
    4.5542    8.9057   21.7104 O   0  0  0  0  0  0  0  0  0  0  0  0
    6.9895    3.2085   23.0690 C   0  0  0  0  0  0  0  0  0  0  0  0
    7.8391    2.2253   22.7260 N   0  0  0  0  0  0  0  0  0  0  0  0
    8.6968    9.8373   23.6359 C   0  0  0  0  0  0  0  0  0  0  0  0
   12.5135    6.5957   21.8396 C   0  0  0  0  0  0  0  0  0  0  0  0
   10.9406    8.2330   21.1350 C   0  0  0  0  0  0  0  0  0  0  0  0
    9.6648    8.5956   21.7310 C   0  0  0  0  0  0  0  0  0  0  0  0
   10.8829    1.7153   20.9865 C   0  0  0  0  0  0  0  0  0  0  0  0
    5.7768    2.8533   23.7910 C   0  0  0  0  0  0  0  0  0  0  0  0
    9.7977    1.4791   21.6912 N   0  0  0  0  0  0  0  0  0  0  0  0
    6.5976    9.3401   22.6478 N   0  0  0  0  0  0  0  0  0  0  0  0
   11.2031    3.0042   20.6246 C   0  0  0  0  0  0  0  0  0  0  0  0
   12.8688    7.7370   22.7287 C   0  0  0  0  0  0  0  0  0  0  0  0
    7.4487    9.1361   23.6506 C   0  0  0  0  0  0  0  0  0  0  0  0
    8.9772    2.5025   22.0273 C   0  0  0  0  0  0  0  0  0  0  0  0
   10.4859    4.0901   20.9730 C   0  0  0  0  0  0  0  0  0  0  0  0
   11.0962    9.3293   23.5072 C   0  0  0  0  0  0  0  0  0  0  0  0
    5.1273    7.8529   23.6208 N   0  0  0  0  0  0  0  0  0  0  0  0
    9.7552    9.2338   23.0171 N   0  0  0  0  0  0  0  0  0  0  0  0
   11.1797    6.7591   21.3326 N   0  0  0  0  0  0  0  0  0  0  0  0
   11.7728    8.0337   23.7267 C   0  0  0  0  0  0  0  0  0  0  0  0
    7.1194    8.3344   24.6775 C   0  0  0  0  0  0  0  0  0  0  0  0
    8.4311    4.7963   22.0500 C   0  0  0  0  0  0  0  0  0  0  0  0
    8.7393   10.8706   24.1871 O   0  0  0  0  0  0  0  0  0  0  0  0
    9.3093    3.8166   21.6712 C   0  0  0  0  0  0  0  0  0  0  0  0
  1  5  1  0
  1 15  4  0
  1 22  4  0
  2 20  1  0
  2 24  1  0
  3  6  4  0
  3 27  4  0
  4 22  4  0
  4 26  4  0
  6  7  4  0
  6 13  1  0
  7 19  4  0
  8 18  1  0
  8 23  1  0
  8 28  2  0
  9 17  1  0
  9 24  1  0
 10 11  1  0
 10 24  1  0
 11 23  1  0
 12 14  4  0
 12 16  4  0
 14 19  4  0
 15 18  4  0
 16 20  4  0
 17 25  1  0
 18 26  4  0
 19 29  4  0
 20 29  4  0
 21 23  1  0
 21 25  1  0
 27 29  4  0
M  END
$$$$

 Created by Python create_sdf_string function

 29 32  0  0  0  0  0  0  0  0999 V2000
    5.4450    8.7154   22.6662 C   0  0  0  0  0  0  0  0  0  0  0  0
   10.9154    5.4574   20.5483 C   0  0  0  0  0  0  0  0  0  0  0  0
    7.2709    4.5089   22.7542 C   0  0  0  0  0  0  0  0  0  0  0  0
    5.9698    7.6329   24.6581 C   0  0  0  0  0  0  0  0  0  0  0  0
    4.5542    8.9057   21.7104 O   0  0  0  0  0  0  0  0  0  0  0  0
    6.9895    3.2085   23.0690 C   0  0  0  0  0  0  0  0  0  0  0  0
    7.8391    2.2253   22.7260 N   0  0  0  0  0  0  0  0  0  0  0  0
    8.6968    9.8373   23.6359 C   0  0  0  0  0  0  0  0  0  0  0  0
   12.5135    6.5957   21.8396 C   0  0  0  0  0  0  0  0  0  0  0  0
   10.9406    8.2330   21.1350 C   0  0  0  0  0  0  0  0  0  0  0  0
    9.6648    8.5956   21.7310 C   0  0  0  0  0  0  0  0  0  0  0  0
   10.8829    1.7153   20.9865 C   0  0  0  0  0  0  0  0  0  0  0  0
    5.7768    2.8533   23.7910 C   0  0  0  0  0  0  0  0  0  0  0  0
    9.7977    1.4791   21.6912 N   0  0  0  0  0  0  0  0  0  0  0  0
    6.5976    9.3401   22.6478 N   0  0  0  0  0  0  0  0  0  0  0  0
   11.2031    3.0042   20.6246 C   0  0  0  0  0  0  0  0  0  0  0  0
   12.8688    7.7370   22.7287 C   0  0  0  0  0  0  0  0  0  0  0  0
    7.4487    9.1361   23.6506 C   0  0  0  0  0  0  0  0  0  0  0  0
    8.9772    2.5025   22.0273 C   0  0  0  0  0  0  0  0  0  0  0  0
   10.4859    4.0901   20.9730 C   0  0  0  0  0  0  0  0  0  0  0  0
   11.0962    9.3293   23.5072 C   0  0  0  0  0  0  0  0  0  0  0  0
    5.1273    7.8529   23.6208 N   0  0  0  0  0  0  0  0  0  0  0  0
    9.7552    9.2338   23.0171 N   0  0  0  0  0  0  0  0  0  0  0  0
   11.1797    6.7591   21.3326 N   0  0  0  0  0  0  0  0  0  0  0  0
   11.7728    8.0337   23.7267 C   0  0  0  0  0  0  0  0  0  0  0  0
    7.1194    8.3344   24.6775 C   0  0  0  0  0  0  0  0  0  0  0  0
    8.4311    4.7963   22.0500 C   0  0  0  0  0  0  0  0  0  0  0  0
    8.7393   10.8706   24.1871 O   0  0  0  0  0  0  0  0  0  0  0  0
    9.3093    3.8166   21.6712 C   0  0  0  0  0  0  0  0  0  0  0  0
  1  5  1  0
  1 15  4  0
  1 22  4  0
  2 20  1  0
  2 24  1  0
  3  6  4  0
  3 27  4  0
  4 22  4  0
  4 26  4  0
  6  7  4  0
  6 13  1  0
  7 19  4  0
  8 18  1  0
  8 23  1  0
  8 28  2  0
  9 17  1  0
  9 24  1  0
 10 11  1  0
 10 24  1  0
 11 23  1  0
 12 14  4  0
 12 16  4  0
 14 19  4  0
 15 18  4  0
 16 20  4  0
 17 25  1  0
 18 26  4  0
 19 29  4  0
 20 29  4  0
 21 23  1  0
 21 25  1  0
 27 29  4  0
M  END
$$$$

 Created by Python create_sdf_string function

 29 32  0  0  0  0  0  0  0  0999 V2000
    5.4450    8.7154   22.6662 C   0  0  0  0  0  0  0  0  0  0  0  0
   10.9154    5.4574   20.5483 C   0  0  0  0  0  0  0  0  0  0  0  0
    7.2709    4.5089   22.7542 C   0  0  0  0  0  0  0  0  0  0  0  0
    5.9698    7.6329   24.6581 C   0  0  0  0  0  0  0  0  0  0  0  0
    4.5542    8.9057   21.7104 O   0  0  0  0  0  0  0  0  0  0  0  0
    6.9895    3.2085   23.0690 C   0  0  0  0  0  0  0  0  0  0  0  0
    7.8391    2.2253   22.7260 N   0  0  0  0  0  0  0  0  0  0  0  0
    8.6968    9.8373   23.6359 C   0  0  0  0  0  0  0  0  0  0  0  0
   12.5135    6.5957   21.8396 C   0  0  0  0  0  0  0  0  0  0  0  0
   10.9406    8.2330   21.1350 C   0  0  0  0  0  0  0  0  0  0  0  0
    9.6648    8.5956   21.7310 C   0  0  0  0  0  0  0  0  0  0  0  0
   10.8829    1.7153   20.9865 C   0  0  0  0  0  0  0  0  0  0  0  0
    5.7768    2.8533   23.7910 C   0  0  0  0  0  0  0  0  0  0  0  0
    9.7977    1.4791   21.6912 N   0  0  0  0  0  0  0  0  0  0  0  0
    6.5976    9.3401   22.6478 N   0  0  0  0  0  0  0  0  0  0  0  0
   11.2031    3.0042   20.6246 C   0  0  0  0  0  0  0  0  0  0  0  0
   12.8688    7.7370   22.7287 C   0  0  0  0  0  0  0  0  0  0  0  0
    7.4487    9.1361   23.6506 C   0  0  0  0  0  0  0  0  0  0  0  0
    8.9772    2.5025   22.0273 C   0  0  0  0  0  0  0  0  0  0  0  0
   10.4859    4.0901   20.9730 C   0  0  0  0  0  0  0  0  0  0  0  0
   11.0962    9.3293   23.5072 C   0  0  0  0  0  0  0  0  0  0  0  0
    5.1273    7.8529   23.6208 N   0  0  0  0  0  0  0  0  0  0  0  0
    9.7552    9.2338   23.0171 N   0  0  0  0  0  0  0  0  0  0  0  0
   11.1797    6.7591   21.3326 N   0  0  0  0  0  0  0  0  0  0  0  0
   11.7728    8.0337   23.7267 C   0  0  0  0  0  0  0  0  0  0  0  0
    7.1194    8.3344   24.6775 C   0  0  0  0  0  0  0  0  0  0  0  0
    8.4311    4.7963   22.0500 C   0  0  0  0  0  0  0  0  0  0  0  0
    8.7393   10.8706   24.1871 O   0  0  0  0  0  0  0  0  0  0  0  0
    9.3093    3.8166   21.6712 C   0  0  0  0  0  0  0  0  0  0  0  0
  1  5  1  0
  1 15  4  0
  1 22  4  0
  2 20  1  0
  2 24  1  0
  3  6  4  0
  3 27  4  0
  4 22  4  0
  4 26  4  0
  6  7  4  0
  6 13  1  0
  7 19  4  0
  8 18  1  0
  8 23  1  0
  8 28  2  0
  9 17  1  0
  9 24  1  0
 10 11  1  0
 10 24  1  0
 11 23  1  0
 12 14  4  0
 12 16  4  0
 14 19  4  0
 15 18  4  0
 16 20  4  0
 17 25  1  0
 18 26  4  0
 19 29  4  0
 20 29  4  0
 21 23  1  0
 21 25  1  0
 27 29  4  0
M  END
$$$$

 Created by Python create_sdf_string function

 29 32  0  0  0  0  0  0  0  0999 V2000
    5.4450    8.7154   22.6662 C   0  0  0  0  0  0  0  0  0  0  0  0
   10.9154    5.4574   20.5483 C   0  0  0  0  0  0  0  0  0  0  0  0
    7.2709    4.5089   22.7542 C   0  0  0  0  0  0  0  0  0  0  0  0
    5.9698    7.6329   24.6581 C   0  0  0  0  0  0  0  0  0  0  0  0
    4.5542    8.9057   21.7104 O   0  0  0  0  0  0  0  0  0  0  0  0
    6.9895    3.2085   23.0690 C   0  0  0  0  0  0  0  0  0  0  0  0
    7.8391    2.2253   22.7260 N   0  0  0  0  0  0  0  0  0  0  0  0
    8.6968    9.8373   23.6359 C   0  0  0  0  0  0  0  0  0  0  0  0
   12.5135    6.5957   21.8396 C   0  0  0  0  0  0  0  0  0  0  0  0
   10.9406    8.2330   21.1350 C   0  0  0  0  0  0  0  0  0  0  0  0
    9.6648    8.5956   21.7310 C   0  0  0  0  0  0  0  0  0  0  0  0
   10.8829    1.7153   20.9865 C   0  0  0  0  0  0  0  0  0  0  0  0
    5.7768    2.8533   23.7910 C   0  0  0  0  0  0  0  0  0  0  0  0
    9.7977    1.4791   21.6912 N   0  0  0  0  0  0  0  0  0  0  0  0
    6.5976    9.3401   22.6478 N   0  0  0  0  0  0  0  0  0  0  0  0
   11.2031    3.0042   20.6246 C   0  0  0  0  0  0  0  0  0  0  0  0
   12.8688    7.7370   22.7287 C   0  0  0  0  0  0  0  0  0  0  0  0
    7.4487    9.1361   23.6506 C   0  0  0  0  0  0  0  0  0  0  0  0
    8.9772    2.5025   22.0273 C   0  0  0  0  0  0  0  0  0  0  0  0
   10.4859    4.0901   20.9730 C   0  0  0  0  0  0  0  0  0  0  0  0
   11.0962    9.3293   23.5072 C   0  0  0  0  0  0  0  0  0  0  0  0
    5.1273    7.8529   23.6208 N   0  0  0  0  0  0  0  0  0  0  0  0
    9.7552    9.2338   23.0171 N   0  0  0  0  0  0  0  0  0  0  0  0
   11.1797    6.7591   21.3326 N   0  0  0  0  0  0  0  0  0  0  0  0
   11.7728    8.0337   23.7267 C   0  0  0  0  0  0  0  0  0  0  0  0
    7.1194    8.3344   24.6775 C   0  0  0  0  0  0  0  0  0  0  0  0
    8.4311    4.7963   22.0500 C   0  0  0  0  0  0  0  0  0  0  0  0
    8.7393   10.8706   24.1871 O   0  0  0  0  0  0  0  0  0  0  0  0
    9.3093    3.8166   21.6712 C   0  0  0  0  0  0  0  0  0  0  0  0
  1  5  1  0
  1 15  4  0
  1 22  4  0
  2 20  1  0
  2 24  1  0
  3  6  4  0
  3 27  4  0
  4 22  4  0
  4 26  4  0
  6  7  4  0
  6 13  1  0
  7 19  4  0
  8 18  1  0
  8 23  1  0
  8 28  2  0
  9 17  1  0
  9 24  1  0
 10 11  1  0
 10 24  1  0
 11 23  1  0
 12 14  4  0
 12 16  4  0
 14 19  4  0
 15 18  4  0
 16 20  4  0
 17 25  1  0
 18 26  4  0
 19 29  4  0
 20 29  4  0
 21 23  1  0
 21 25  1  0
 27 29  4  0
M  END
$$$$

 Created by Python create_sdf_string function

 29 32  0  0  0  0  0  0  0  0999 V2000
    5.4450    8.7154   22.6662 C   0  0  0  0  0  0  0  0  0  0  0  0
   10.9154    5.4574   20.5483 C   0  0  0  0  0  0  0  0  0  0  0  0
    7.2709    4.5089   22.7542 C   0  0  0  0  0  0  0  0  0  0  0  0
    5.9698    7.6329   24.6581 C   0  0  0  0  0  0  0  0  0  0  0  0
    4.5542    8.9057   21.7104 O   0  0  0  0  0  0  0  0  0  0  0  0
    6.9895    3.2085   23.0690 C   0  0  0  0  0  0  0  0  0  0  0  0
    7.8391    2.2253   22.7260 N   0  0  0  0  0  0  0  0  0  0  0  0
    8.6968    9.8373   23.6359 C   0  0  0  0  0  0  0  0  0  0  0  0
   12.5135    6.5957   21.8396 C   0  0  0  0  0  0  0  0  0  0  0  0
   10.9406    8.2330   21.1350 C   0  0  0  0  0  0  0  0  0  0  0  0
    9.6648    8.5956   21.7310 C   0  0  0  0  0  0  0  0  0  0  0  0
   10.8829    1.7153   20.9865 C   0  0  0  0  0  0  0  0  0  0  0  0
    5.7768    2.8533   23.7910 C   0  0  0  0  0  0  0  0  0  0  0  0
    9.7977    1.4791   21.6912 N   0  0  0  0  0  0  0  0  0  0  0  0
    6.5976    9.3401   22.6478 N   0  0  0  0  0  0  0  0  0  0  0  0
   11.2031    3.0042   20.6246 C   0  0  0  0  0  0  0  0  0  0  0  0
   12.8688    7.7370   22.7287 C   0  0  0  0  0  0  0  0  0  0  0  0
    7.4487    9.1361   23.6506 C   0  0  0  0  0  0  0  0  0  0  0  0
    8.9772    2.5025   22.0273 C   0  0  0  0  0  0  0  0  0  0  0  0
   10.4859    4.0901   20.9730 C   0  0  0  0  0  0  0  0  0  0  0  0
   11.0962    9.3293   23.5072 C   0  0  0  0  0  0  0  0  0  0  0  0
    5.1273    7.8529   23.6208 N   0  0  0  0  0  0  0  0  0  0  0  0
    9.7552    9.2338   23.0171 N   0  0  0  0  0  0  0  0  0  0  0  0
   11.1797    6.7591   21.3326 N   0  0  0  0  0  0  0  0  0  0  0  0
   11.7728    8.0337   23.7267 C   0  0  0  0  0  0  0  0  0  0  0  0
    7.1194    8.3344   24.6775 C   0  0  0  0  0  0  0  0  0  0  0  0
    8.4311    4.7963   22.0500 C   0  0  0  0  0  0  0  0  0  0  0  0
    8.7393   10.8706   24.1871 O   0  0  0  0  0  0  0  0  0  0  0  0
    9.3093    3.8166   21.6712 C   0  0  0  0  0  0  0  0  0  0  0  0
  1  5  1  0
  1 15  4  0
  1 22  4  0
  2 20  1  0
  2 24  1  0
  3  6  4  0
  3 27  4  0
  4 22  4  0
  4 26  4  0
  6  7  4  0
  6 13  1  0
  7 19  4  0
  8 18  1  0
  8 23  1  0
  8 28  2  0
  9 17  1  0
  9 24  1  0
 10 11  1  0
 10 24  1  0
 11 23  1  0
 12 14  4  0
 12 16  4  0
 14 19  4  0
 15 18  4  0
 16 20  4  0
 17 25  1  0
 18 26  4  0
 19 29  4  0
 20 29  4  0
 21 23  1  0
 21 25  1  0
 27 29  4  0
M  END
$$$$

 Created by Python create_sdf_string function

 29 32  0  0  0  0  0  0  0  0999 V2000
    5.4450    8.7154   22.6662 C   0  0  0  0  0  0  0  0  0  0  0  0
   10.9154    5.4574   20.5483 C   0  0  0  0  0  0  0  0  0  0  0  0
    7.2709    4.5089   22.7542 C   0  0  0  0  0  0  0  0  0  0  0  0
    5.9698    7.6329   24.6581 C   0  0  0  0  0  0  0  0  0  0  0  0
    4.5542    8.9057   21.7104 O   0  0  0  0  0  0  0  0  0  0  0  0
    6.9895    3.2085   23.0690 C   0  0  0  0  0  0  0  0  0  0  0  0
    7.8391    2.2253   22.7260 N   0  0  0  0  0  0  0  0  0  0  0  0
    8.6968    9.8373   23.6359 C   0  0  0  0  0  0  0  0  0  0  0  0
   12.5135    6.5957   21.8396 C   0  0  0  0  0  0  0  0  0  0  0  0
   10.9406    8.2330   21.1350 C   0  0  0  0  0  0  0  0  0  0  0  0
    9.6648    8.5956   21.7310 C   0  0  0  0  0  0  0  0  0  0  0  0
   10.8829    1.7153   20.9865 C   0  0  0  0  0  0  0  0  0  0  0  0
    5.7768    2.8533   23.7910 C   0  0  0  0  0  0  0  0  0  0  0  0
    9.7977    1.4791   21.6912 N   0  0  0  0  0  0  0  0  0  0  0  0
    6.5976    9.3401   22.6478 N   0  0  0  0  0  0  0  0  0  0  0  0
   11.2031    3.0042   20.6246 C   0  0  0  0  0  0  0  0  0  0  0  0
   12.8688    7.7370   22.7287 C   0  0  0  0  0  0  0  0  0  0  0  0
    7.4487    9.1361   23.6506 C   0  0  0  0  0  0  0  0  0  0  0  0
    8.9772    2.5025   22.0273 C   0  0  0  0  0  0  0  0  0  0  0  0
   10.4859    4.0901   20.9730 C   0  0  0  0  0  0  0  0  0  0  0  0
   11.0962    9.3293   23.5072 C   0  0  0  0  0  0  0  0  0  0  0  0
    5.1273    7.8529   23.6208 N   0  0  0  0  0  0  0  0  0  0  0  0
    9.7552    9.2338   23.0171 N   0  0  0  0  0  0  0  0  0  0  0  0
   11.1797    6.7591   21.3326 N   0  0  0  0  0  0  0  0  0  0  0  0
   11.7728    8.0337   23.7267 C   0  0  0  0  0  0  0  0  0  0  0  0
    7.1194    8.3344   24.6775 C   0  0  0  0  0  0  0  0  0  0  0  0
    8.4311    4.7963   22.0500 C   0  0  0  0  0  0  0  0  0  0  0  0
    8.7393   10.8706   24.1871 O   0  0  0  0  0  0  0  0  0  0  0  0
    9.3093    3.8166   21.6712 C   0  0  0  0  0  0  0  0  0  0  0  0
  1  5  1  0
  1 15  4  0
  1 22  4  0
  2 20  1  0
  2 24  1  0
  3  6  4  0
  3 27  4  0
  4 22  4  0
  4 26  4  0
  6  7  4  0
  6 13  1  0
  7 19  4  0
  8 18  1  0
  8 23  1  0
  8 28  2  0
  9 17  1  0
  9 24  1  0
 10 11  1  0
 10 24  1  0
 11 23  1  0
 12 14  4  0
 12 16  4  0
 14 19  4  0
 15 18  4  0
 16 20  4  0
 17 25  1  0
 18 26  4  0
 19 29  4  0
 20 29  4  0
 21 23  1  0
 21 25  1  0
 27 29  4  0
M  END
$$$$

 Created by Python create_sdf_string function

 29 32  0  0  0  0  0  0  0  0999 V2000
    5.4450    8.7154   22.6662 C   0  0  0  0  0  0  0  0  0  0  0  0
   10.9154    5.4574   20.5483 C   0  0  0  0  0  0  0  0  0  0  0  0
    7.2709    4.5089   22.7542 C   0  0  0  0  0  0  0  0  0  0  0  0
    5.9698    7.6329   24.6581 C   0  0  0  0  0  0  0  0  0  0  0  0
    4.5542    8.9057   21.7104 O   0  0  0  0  0  0  0  0  0  0  0  0
    6.9895    3.2085   23.0690 C   0  0  0  0  0  0  0  0  0  0  0  0
    7.8391    2.2253   22.7260 N   0  0  0  0  0  0  0  0  0  0  0  0
    8.6968    9.8373   23.6359 C   0  0  0  0  0  0  0  0  0  0  0  0
   12.5135    6.5957   21.8396 C   0  0  0  0  0  0  0  0  0  0  0  0
   10.9406    8.2330   21.1350 C   0  0  0  0  0  0  0  0  0  0  0  0
    9.6648    8.5956   21.7310 C   0  0  0  0  0  0  0  0  0  0  0  0
   10.8829    1.7153   20.9865 C   0  0  0  0  0  0  0  0  0  0  0  0
    5.7768    2.8533   23.7910 C   0  0  0  0  0  0  0  0  0  0  0  0
    9.7977    1.4791   21.6912 N   0  0  0  0  0  0  0  0  0  0  0  0
    6.5976    9.3401   22.6478 N   0  0  0  0  0  0  0  0  0  0  0  0
   11.2031    3.0042   20.6246 C   0  0  0  0  0  0  0  0  0  0  0  0
   12.8688    7.7370   22.7287 C   0  0  0  0  0  0  0  0  0  0  0  0
    7.4487    9.1361   23.6506 C   0  0  0  0  0  0  0  0  0  0  0  0
    8.9772    2.5025   22.0273 C   0  0  0  0  0  0  0  0  0  0  0  0
   10.4859    4.0901   20.9730 C   0  0  0  0  0  0  0  0  0  0  0  0
   11.0962    9.3293   23.5072 C   0  0  0  0  0  0  0  0  0  0  0  0
    5.1273    7.8529   23.6208 N   0  0  0  0  0  0  0  0  0  0  0  0
    9.7552    9.2338   23.0171 N   0  0  0  0  0  0  0  0  0  0  0  0
   11.1797    6.7591   21.3326 N   0  0  0  0  0  0  0  0  0  0  0  0
   11.7728    8.0337   23.7267 C   0  0  0  0  0  0  0  0  0  0  0  0
    7.1194    8.3344   24.6775 C   0  0  0  0  0  0  0  0  0  0  0  0
    8.4311    4.7963   22.0500 C   0  0  0  0  0  0  0  0  0  0  0  0
    8.7393   10.8706   24.1871 O   0  0  0  0  0  0  0  0  0  0  0  0
    9.3093    3.8166   21.6712 C   0  0  0  0  0  0  0  0  0  0  0  0
  1  5  1  0
  1 15  4  0
  1 22  4  0
  2 20  1  0
  2 24  1  0
  3  6  4  0
  3 27  4  0
  4 22  4  0
  4 26  4  0
  6  7  4  0
  6 13  1  0
  7 19  4  0
  8 18  1  0
  8 23  1  0
  8 28  2  0
  9 17  1  0
  9 24  1  0
 10 11  1  0
 10 24  1  0
 11 23  1  0
 12 14  4  0
 12 16  4  0
 14 19  4  0
 15 18  4  0
 16 20  4  0
 17 25  1  0
 18 26  4  0
 19 29  4  0
 20 29  4  0
 21 23  1  0
 21 25  1  0
 27 29  4  0
M  END
$$$$

 Created by Python create_sdf_string function

 29 32  0  0  0  0  0  0  0  0999 V2000
    5.4450    8.7154   22.6662 C   0  0  0  0  0  0  0  0  0  0  0  0
   10.9154    5.4574   20.5483 C   0  0  0  0  0  0  0  0  0  0  0  0
    7.2709    4.5089   22.7542 C   0  0  0  0  0  0  0  0  0  0  0  0
    5.9698    7.6329   24.6581 C   0  0  0  0  0  0  0  0  0  0  0  0
    4.5542    8.9057   21.7104 O   0  0  0  0  0  0  0  0  0  0  0  0
    6.9895    3.2085   23.0690 C   0  0  0  0  0  0  0  0  0  0  0  0
    7.8391    2.2253   22.7260 N   0  0  0  0  0  0  0  0  0  0  0  0
    8.6968    9.8373   23.6359 C   0  0  0  0  0  0  0  0  0  0  0  0
   12.5135    6.5957   21.8396 C   0  0  0  0  0  0  0  0  0  0  0  0
   10.9406    8.2330   21.1350 C   0  0  0  0  0  0  0  0  0  0  0  0
    9.6648    8.5956   21.7310 C   0  0  0  0  0  0  0  0  0  0  0  0
   10.8829    1.7153   20.9865 C   0  0  0  0  0  0  0  0  0  0  0  0
    5.7768    2.8533   23.7910 C   0  0  0  0  0  0  0  0  0  0  0  0
    9.7977    1.4791   21.6912 N   0  0  0  0  0  0  0  0  0  0  0  0
    6.5976    9.3401   22.6478 N   0  0  0  0  0  0  0  0  0  0  0  0
   11.2031    3.0042   20.6246 C   0  0  0  0  0  0  0  0  0  0  0  0
   12.8688    7.7370   22.7287 C   0  0  0  0  0  0  0  0  0  0  0  0
    7.4487    9.1361   23.6506 C   0  0  0  0  0  0  0  0  0  0  0  0
    8.9772    2.5025   22.0273 C   0  0  0  0  0  0  0  0  0  0  0  0
   10.4859    4.0901   20.9730 C   0  0  0  0  0  0  0  0  0  0  0  0
   11.0962    9.3293   23.5072 C   0  0  0  0  0  0  0  0  0  0  0  0
    5.1273    7.8529   23.6208 N   0  0  0  0  0  0  0  0  0  0  0  0
    9.7552    9.2338   23.0171 N   0  0  0  0  0  0  0  0  0  0  0  0
   11.1797    6.7591   21.3326 N   0  0  0  0  0  0  0  0  0  0  0  0
   11.7728    8.0337   23.7267 C   0  0  0  0  0  0  0  0  0  0  0  0
    7.1194    8.3344   24.6775 C   0  0  0  0  0  0  0  0  0  0  0  0
    8.4311    4.7963   22.0500 C   0  0  0  0  0  0  0  0  0  0  0  0
    8.7393   10.8706   24.1871 O   0  0  0  0  0  0  0  0  0  0  0  0
    9.3093    3.8166   21.6712 C   0  0  0  0  0  0  0  0  0  0  0  0
  1  5  1  0
  1 15  4  0
  1 22  4  0
  2 20  1  0
  2 24  1  0
  3  6  4  0
  3 27  4  0
  4 22  4  0
  4 26  4  0
  6  7  4  0
  6 13  1  0
  7 19  4  0
  8 18  1  0
  8 23  1  0
  8 28  2  0
  9 17  1  0
  9 24  1  0
 10 11  1  0
 10 24  1  0
 11 23  1  0
 12 14  4  0
 12 16  4  0
 14 19  4  0
 15 18  4  0
 16 20  4  0
 17 25  1  0
 18 26  4  0
 19 29  4  0
 20 29  4  0
 21 23  1  0
 21 25  1  0
 27 29  4  0
M  END
$$$$

 Created by Python create_sdf_string function

 29 32  0  0  0  0  0  0  0  0999 V2000
    5.4450    8.7154   22.6662 C   0  0  0  0  0  0  0  0  0  0  0  0
   10.9154    5.4574   20.5483 C   0  0  0  0  0  0  0  0  0  0  0  0
    7.2709    4.5089   22.7542 C   0  0  0  0  0  0  0  0  0  0  0  0
    5.9698    7.6329   24.6581 C   0  0  0  0  0  0  0  0  0  0  0  0
    4.5542    8.9057   21.7104 O   0  0  0  0  0  0  0  0  0  0  0  0
    6.9895    3.2085   23.0690 C   0  0  0  0  0  0  0  0  0  0  0  0
    7.8391    2.2253   22.7260 N   0  0  0  0  0  0  0  0  0  0  0  0
    8.6968    9.8373   23.6359 C   0  0  0  0  0  0  0  0  0  0  0  0
   12.5135    6.5957   21.8396 C   0  0  0  0  0  0  0  0  0  0  0  0
   10.9406    8.2330   21.1350 C   0  0  0  0  0  0  0  0  0  0  0  0
    9.6648    8.5956   21.7310 C   0  0  0  0  0  0  0  0  0  0  0  0
   10.8829    1.7153   20.9865 C   0  0  0  0  0  0  0  0  0  0  0  0
    5.7768    2.8533   23.7910 C   0  0  0  0  0  0  0  0  0  0  0  0
    9.7977    1.4791   21.6912 N   0  0  0  0  0  0  0  0  0  0  0  0
    6.5976    9.3401   22.6478 N   0  0  0  0  0  0  0  0  0  0  0  0
   11.2031    3.0042   20.6246 C   0  0  0  0  0  0  0  0  0  0  0  0
   12.8688    7.7370   22.7287 C   0  0  0  0  0  0  0  0  0  0  0  0
    7.4487    9.1361   23.6506 C   0  0  0  0  0  0  0  0  0  0  0  0
    8.9772    2.5025   22.0273 C   0  0  0  0  0  0  0  0  0  0  0  0
   10.4859    4.0901   20.9730 C   0  0  0  0  0  0  0  0  0  0  0  0
   11.0962    9.3293   23.5072 C   0  0  0  0  0  0  0  0  0  0  0  0
    5.1273    7.8529   23.6208 N   0  0  0  0  0  0  0  0  0  0  0  0
    9.7552    9.2338   23.0171 N   0  0  0  0  0  0  0  0  0  0  0  0
   11.1797    6.7591   21.3326 N   0  0  0  0  0  0  0  0  0  0  0  0
   11.7728    8.0337   23.7267 C   0  0  0  0  0  0  0  0  0  0  0  0
    7.1194    8.3344   24.6775 C   0  0  0  0  0  0  0  0  0  0  0  0
    8.4311    4.7963   22.0500 C   0  0  0  0  0  0  0  0  0  0  0  0
    8.7393   10.8706   24.1871 O   0  0  0  0  0  0  0  0  0  0  0  0
    9.3093    3.8166   21.6712 C   0  0  0  0  0  0  0  0  0  0  0  0
  1  5  1  0
  1 15  4  0
  1 22  4  0
  2 20  1  0
  2 24  1  0
  3  6  4  0
  3 27  4  0
  4 22  4  0
  4 26  4  0
  6  7  4  0
  6 13  1  0
  7 19  4  0
  8 18  1  0
  8 23  1  0
  8 28  2  0
  9 17  1  0
  9 24  1  0
 10 11  1  0
 10 24  1  0
 11 23  1  0
 12 14  4  0
 12 16  4  0
 14 19  4  0
 15 18  4  0
 16 20  4  0
 17 25  1  0
 18 26  4  0
 19 29  4  0
 20 29  4  0
 21 23  1  0
 21 25  1  0
 27 29  4  0
M  END
$$$$

 Created by Python create_sdf_string function

 29 32  0  0  0  0  0  0  0  0999 V2000
    5.4450    8.7154   22.6662 C   0  0  0  0  0  0  0  0  0  0  0  0
   10.9154    5.4574   20.5483 C   0  0  0  0  0  0  0  0  0  0  0  0
    7.2709    4.5089   22.7542 C   0  0  0  0  0  0  0  0  0  0  0  0
    5.9698    7.6329   24.6581 C   0  0  0  0  0  0  0  0  0  0  0  0
    4.5542    8.9057   21.7104 O   0  0  0  0  0  0  0  0  0  0  0  0
    6.9895    3.2085   23.0690 C   0  0  0  0  0  0  0  0  0  0  0  0
    7.8391    2.2253   22.7260 N   0  0  0  0  0  0  0  0  0  0  0  0
    8.6968    9.8373   23.6359 C   0  0  0  0  0  0  0  0  0  0  0  0
   12.5135    6.5957   21.8396 C   0  0  0  0  0  0  0  0  0  0  0  0
   10.9406    8.2330   21.1350 C   0  0  0  0  0  0  0  0  0  0  0  0
    9.6648    8.5956   21.7310 C   0  0  0  0  0  0  0  0  0  0  0  0
   10.8829    1.7153   20.9865 C   0  0  0  0  0  0  0  0  0  0  0  0
    5.7768    2.8533   23.7910 C   0  0  0  0  0  0  0  0  0  0  0  0
    9.7977    1.4791   21.6912 N   0  0  0  0  0  0  0  0  0  0  0  0
    6.5976    9.3401   22.6478 N   0  0  0  0  0  0  0  0  0  0  0  0
   11.2031    3.0042   20.6246 C   0  0  0  0  0  0  0  0  0  0  0  0
   12.8688    7.7370   22.7287 C   0  0  0  0  0  0  0  0  0  0  0  0
    7.4487    9.1361   23.6506 C   0  0  0  0  0  0  0  0  0  0  0  0
    8.9772    2.5025   22.0273 C   0  0  0  0  0  0  0  0  0  0  0  0
   10.4859    4.0901   20.9730 C   0  0  0  0  0  0  0  0  0  0  0  0
   11.0962    9.3293   23.5072 C   0  0  0  0  0  0  0  0  0  0  0  0
    5.1273    7.8529   23.6208 N   0  0  0  0  0  0  0  0  0  0  0  0
    9.7552    9.2338   23.0171 N   0  0  0  0  0  0  0  0  0  0  0  0
   11.1797    6.7591   21.3326 N   0  0  0  0  0  0  0  0  0  0  0  0
   11.7728    8.0337   23.7267 C   0  0  0  0  0  0  0  0  0  0  0  0
    7.1194    8.3344   24.6775 C   0  0  0  0  0  0  0  0  0  0  0  0
    8.4311    4.7963   22.0500 C   0  0  0  0  0  0  0  0  0  0  0  0
    8.7393   10.8706   24.1871 O   0  0  0  0  0  0  0  0  0  0  0  0
    9.3093    3.8166   21.6712 C   0  0  0  0  0  0  0  0  0  0  0  0
  1  5  1  0
  1 15  4  0
  1 22  4  0
  2 20  1  0
  2 24  1  0
  3  6  4  0
  3 27  4  0
  4 22  4  0
  4 26  4  0
  6  7  4  0
  6 13  1  0
  7 19  4  0
  8 18  1  0
  8 23  1  0
  8 28  2  0
  9 17  1  0
  9 24  1  0
 10 11  1  0
 10 24  1  0
 11 23  1  0
 12 14  4  0
 12 16  4  0
 14 19  4  0
 15 18  4  0
 16 20  4  0
 17 25  1  0
 18 26  4  0
 19 29  4  0
 20 29  4  0
 21 23  1  0
 21 25  1  0
 27 29  4  0
M  END
$$$$

 Created by Python create_sdf_string function

 29 32  0  0  0  0  0  0  0  0999 V2000
    5.4450    8.7154   22.6662 C   0  0  0  0  0  0  0  0  0  0  0  0
   10.9154    5.4574   20.5483 C   0  0  0  0  0  0  0  0  0  0  0  0
    7.2709    4.5089   22.7542 C   0  0  0  0  0  0  0  0  0  0  0  0
    5.9698    7.6329   24.6581 C   0  0  0  0  0  0  0  0  0  0  0  0
    4.5542    8.9057   21.7104 O   0  0  0  0  0  0  0  0  0  0  0  0
    6.9895    3.2085   23.0690 C   0  0  0  0  0  0  0  0  0  0  0  0
    7.8391    2.2253   22.7260 N   0  0  0  0  0  0  0  0  0  0  0  0
    8.6968    9.8373   23.6359 C   0  0  0  0  0  0  0  0  0  0  0  0
   12.5135    6.5957   21.8396 C   0  0  0  0  0  0  0  0  0  0  0  0
   10.9406    8.2330   21.1350 C   0  0  0  0  0  0  0  0  0  0  0  0
    9.6648    8.5956   21.7310 C   0  0  0  0  0  0  0  0  0  0  0  0
   10.8829    1.7153   20.9865 C   0  0  0  0  0  0  0  0  0  0  0  0
    5.7768    2.8533   23.7910 C   0  0  0  0  0  0  0  0  0  0  0  0
    9.7977    1.4791   21.6912 N   0  0  0  0  0  0  0  0  0  0  0  0
    6.5976    9.3401   22.6478 N   0  0  0  0  0  0  0  0  0  0  0  0
   11.2031    3.0042   20.6246 C   0  0  0  0  0  0  0  0  0  0  0  0
   12.8688    7.7370   22.7287 C   0  0  0  0  0  0  0  0  0  0  0  0
    7.4487    9.1361   23.6506 C   0  0  0  0  0  0  0  0  0  0  0  0
    8.9772    2.5025   22.0273 C   0  0  0  0  0  0  0  0  0  0  0  0
   10.4859    4.0901   20.9730 C   0  0  0  0  0  0  0  0  0  0  0  0
   11.0962    9.3293   23.5072 C   0  0  0  0  0  0  0  0  0  0  0  0
    5.1273    7.8529   23.6208 N   0  0  0  0  0  0  0  0  0  0  0  0
    9.7552    9.2338   23.0171 N   0  0  0  0  0  0  0  0  0  0  0  0
   11.1797    6.7591   21.3326 N   0  0  0  0  0  0  0  0  0  0  0  0
   11.7728    8.0337   23.7267 C   0  0  0  0  0  0  0  0  0  0  0  0
    7.1194    8.3344   24.6775 C   0  0  0  0  0  0  0  0  0  0  0  0
    8.4311    4.7963   22.0500 C   0  0  0  0  0  0  0  0  0  0  0  0
    8.7393   10.8706   24.1871 O   0  0  0  0  0  0  0  0  0  0  0  0
    9.3093    3.8166   21.6712 C   0  0  0  0  0  0  0  0  0  0  0  0
  1  5  1  0
  1 15  4  0
  1 22  4  0
  2 20  1  0
  2 24  1  0
  3  6  4  0
  3 27  4  0
  4 22  4  0
  4 26  4  0
  6  7  4  0
  6 13  1  0
  7 19  4  0
  8 18  1  0
  8 23  1  0
  8 28  2  0
  9 17  1  0
  9 24  1  0
 10 11  1  0
 10 24  1  0
 11 23  1  0
 12 14  4  0
 12 16  4  0
 14 19  4  0
 15 18  4  0
 16 20  4  0
 17 25  1  0
 18 26  4  0
 19 29  4  0
 20 29  4  0
 21 23  1  0
 21 25  1  0
 27 29  4  0
M  END
$$$$

 Created by Python create_sdf_string function

 29 32  0  0  0  0  0  0  0  0999 V2000
    5.4450    8.7154   22.6662 C   0  0  0  0  0  0  0  0  0  0  0  0
   10.9154    5.4574   20.5483 C   0  0  0  0  0  0  0  0  0  0  0  0
    7.2709    4.5089   22.7542 C   0  0  0  0  0  0  0  0  0  0  0  0
    5.9698    7.6329   24.6581 C   0  0  0  0  0  0  0  0  0  0  0  0
    4.5542    8.9057   21.7104 O   0  0  0  0  0  0  0  0  0  0  0  0
    6.9895    3.2085   23.0690 C   0  0  0  0  0  0  0  0  0  0  0  0
    7.8391    2.2253   22.7260 N   0  0  0  0  0  0  0  0  0  0  0  0
    8.6968    9.8373   23.6359 C   0  0  0  0  0  0  0  0  0  0  0  0
   12.5135    6.5957   21.8396 C   0  0  0  0  0  0  0  0  0  0  0  0
   10.9406    8.2330   21.1350 C   0  0  0  0  0  0  0  0  0  0  0  0
    9.6648    8.5956   21.7310 C   0  0  0  0  0  0  0  0  0  0  0  0
   10.8829    1.7153   20.9865 C   0  0  0  0  0  0  0  0  0  0  0  0
    5.7768    2.8533   23.7910 C   0  0  0  0  0  0  0  0  0  0  0  0
    9.7977    1.4791   21.6912 N   0  0  0  0  0  0  0  0  0  0  0  0
    6.5976    9.3401   22.6478 N   0  0  0  0  0  0  0  0  0  0  0  0
   11.2031    3.0042   20.6246 C   0  0  0  0  0  0  0  0  0  0  0  0
   12.8688    7.7370   22.7287 C   0  0  0  0  0  0  0  0  0  0  0  0
    7.4487    9.1361   23.6506 C   0  0  0  0  0  0  0  0  0  0  0  0
    8.9772    2.5025   22.0273 C   0  0  0  0  0  0  0  0  0  0  0  0
   10.4859    4.0901   20.9730 C   0  0  0  0  0  0  0  0  0  0  0  0
   11.0962    9.3293   23.5072 C   0  0  0  0  0  0  0  0  0  0  0  0
    5.1273    7.8529   23.6208 N   0  0  0  0  0  0  0  0  0  0  0  0
    9.7552    9.2338   23.0171 N   0  0  0  0  0  0  0  0  0  0  0  0
   11.1797    6.7591   21.3326 N   0  0  0  0  0  0  0  0  0  0  0  0
   11.7728    8.0337   23.7267 C   0  0  0  0  0  0  0  0  0  0  0  0
    7.1194    8.3344   24.6775 C   0  0  0  0  0  0  0  0  0  0  0  0
    8.4311    4.7963   22.0500 C   0  0  0  0  0  0  0  0  0  0  0  0
    8.7393   10.8706   24.1871 O   0  0  0  0  0  0  0  0  0  0  0  0
    9.3093    3.8166   21.6712 C   0  0  0  0  0  0  0  0  0  0  0  0
  1  5  1  0
  1 15  4  0
  1 22  4  0
  2 20  1  0
  2 24  1  0
  3  6  4  0
  3 27  4  0
  4 22  4  0
  4 26  4  0
  6  7  4  0
  6 13  1  0
  7 19  4  0
  8 18  1  0
  8 23  1  0
  8 28  2  0
  9 17  1  0
  9 24  1  0
 10 11  1  0
 10 24  1  0
 11 23  1  0
 12 14  4  0
 12 16  4  0
 14 19  4  0
 15 18  4  0
 16 20  4  0
 17 25  1  0
 18 26  4  0
 19 29  4  0
 20 29  4  0
 21 23  1  0
 21 25  1  0
 27 29  4  0
M  END
$$$$

 Created by Python create_sdf_string function

 29 32  0  0  0  0  0  0  0  0999 V2000
    5.4450    8.7154   22.6662 C   0  0  0  0  0  0  0  0  0  0  0  0
   10.9154    5.4574   20.5483 C   0  0  0  0  0  0  0  0  0  0  0  0
    7.2709    4.5089   22.7542 C   0  0  0  0  0  0  0  0  0  0  0  0
    5.9698    7.6329   24.6581 C   0  0  0  0  0  0  0  0  0  0  0  0
    4.5542    8.9057   21.7104 O   0  0  0  0  0  0  0  0  0  0  0  0
    6.9895    3.2085   23.0690 C   0  0  0  0  0  0  0  0  0  0  0  0
    7.8391    2.2253   22.7260 N   0  0  0  0  0  0  0  0  0  0  0  0
    8.6968    9.8373   23.6359 C   0  0  0  0  0  0  0  0  0  0  0  0
   12.5135    6.5957   21.8396 C   0  0  0  0  0  0  0  0  0  0  0  0
   10.9406    8.2330   21.1350 C   0  0  0  0  0  0  0  0  0  0  0  0
    9.6648    8.5956   21.7310 C   0  0  0  0  0  0  0  0  0  0  0  0
   10.8829    1.7153   20.9865 C   0  0  0  0  0  0  0  0  0  0  0  0
    5.7768    2.8533   23.7910 C   0  0  0  0  0  0  0  0  0  0  0  0
    9.7977    1.4791   21.6912 N   0  0  0  0  0  0  0  0  0  0  0  0
    6.5976    9.3401   22.6478 N   0  0  0  0  0  0  0  0  0  0  0  0
   11.2031    3.0042   20.6246 C   0  0  0  0  0  0  0  0  0  0  0  0
   12.8688    7.7370   22.7287 C   0  0  0  0  0  0  0  0  0  0  0  0
    7.4487    9.1361   23.6506 C   0  0  0  0  0  0  0  0  0  0  0  0
    8.9772    2.5025   22.0273 C   0  0  0  0  0  0  0  0  0  0  0  0
   10.4859    4.0901   20.9730 C   0  0  0  0  0  0  0  0  0  0  0  0
   11.0962    9.3293   23.5072 C   0  0  0  0  0  0  0  0  0  0  0  0
    5.1273    7.8529   23.6208 N   0  0  0  0  0  0  0  0  0  0  0  0
    9.7552    9.2338   23.0171 N   0  0  0  0  0  0  0  0  0  0  0  0
   11.1797    6.7591   21.3326 N   0  0  0  0  0  0  0  0  0  0  0  0
   11.7728    8.0337   23.7267 C   0  0  0  0  0  0  0  0  0  0  0  0
    7.1194    8.3344   24.6775 C   0  0  0  0  0  0  0  0  0  0  0  0
    8.4311    4.7963   22.0500 C   0  0  0  0  0  0  0  0  0  0  0  0
    8.7393   10.8706   24.1871 O   0  0  0  0  0  0  0  0  0  0  0  0
    9.3093    3.8166   21.6712 C   0  0  0  0  0  0  0  0  0  0  0  0
  1  5  1  0
  1 15  4  0
  1 22  4  0
  2 20  1  0
  2 24  1  0
  3  6  4  0
  3 27  4  0
  4 22  4  0
  4 26  4  0
  6  7  4  0
  6 13  1  0
  7 19  4  0
  8 18  1  0
  8 23  1  0
  8 28  2  0
  9 17  1  0
  9 24  1  0
 10 11  1  0
 10 24  1  0
 11 23  1  0
 12 14  4  0
 12 16  4  0
 14 19  4  0
 15 18  4  0
 16 20  4  0
 17 25  1  0
 18 26  4  0
 19 29  4  0
 20 29  4  0
 21 23  1  0
 21 25  1  0
 27 29  4  0
M  END
$$$$

 Created by Python create_sdf_string function

 29 32  0  0  0  0  0  0  0  0999 V2000
    5.4450    8.7154   22.6662 C   0  0  0  0  0  0  0  0  0  0  0  0
   10.9154    5.4574   20.5483 C   0  0  0  0  0  0  0  0  0  0  0  0
    7.2709    4.5089   22.7542 C   0  0  0  0  0  0  0  0  0  0  0  0
    5.9698    7.6329   24.6581 C   0  0  0  0  0  0  0  0  0  0  0  0
    4.5542    8.9057   21.7104 O   0  0  0  0  0  0  0  0  0  0  0  0
    6.9895    3.2085   23.0690 C   0  0  0  0  0  0  0  0  0  0  0  0
    7.8391    2.2253   22.7260 N   0  0  0  0  0  0  0  0  0  0  0  0
    8.6968    9.8373   23.6359 C   0  0  0  0  0  0  0  0  0  0  0  0
   12.5135    6.5957   21.8396 C   0  0  0  0  0  0  0  0  0  0  0  0
   10.9406    8.2330   21.1350 C   0  0  0  0  0  0  0  0  0  0  0  0
    9.6648    8.5956   21.7310 C   0  0  0  0  0  0  0  0  0  0  0  0
   10.8829    1.7153   20.9865 C   0  0  0  0  0  0  0  0  0  0  0  0
    5.7768    2.8533   23.7910 C   0  0  0  0  0  0  0  0  0  0  0  0
    9.7977    1.4791   21.6912 N   0  0  0  0  0  0  0  0  0  0  0  0
    6.5976    9.3401   22.6478 N   0  0  0  0  0  0  0  0  0  0  0  0
   11.2031    3.0042   20.6246 C   0  0  0  0  0  0  0  0  0  0  0  0
   12.8688    7.7370   22.7287 C   0  0  0  0  0  0  0  0  0  0  0  0
    7.4487    9.1361   23.6506 C   0  0  0  0  0  0  0  0  0  0  0  0
    8.9772    2.5025   22.0273 C   0  0  0  0  0  0  0  0  0  0  0  0
   10.4859    4.0901   20.9730 C   0  0  0  0  0  0  0  0  0  0  0  0
   11.0962    9.3293   23.5072 C   0  0  0  0  0  0  0  0  0  0  0  0
    5.1273    7.8529   23.6208 N   0  0  0  0  0  0  0  0  0  0  0  0
    9.7552    9.2338   23.0171 N   0  0  0  0  0  0  0  0  0  0  0  0
   11.1797    6.7591   21.3326 N   0  0  0  0  0  0  0  0  0  0  0  0
   11.7728    8.0337   23.7267 C   0  0  0  0  0  0  0  0  0  0  0  0
    7.1194    8.3344   24.6775 C   0  0  0  0  0  0  0  0  0  0  0  0
    8.4311    4.7963   22.0500 C   0  0  0  0  0  0  0  0  0  0  0  0
    8.7393   10.8706   24.1871 O   0  0  0  0  0  0  0  0  0  0  0  0
    9.3093    3.8166   21.6712 C   0  0  0  0  0  0  0  0  0  0  0  0
  1  5  1  0
  1 15  4  0
  1 22  4  0
  2 20  1  0
  2 24  1  0
  3  6  4  0
  3 27  4  0
  4 22  4  0
  4 26  4  0
  6  7  4  0
  6 13  1  0
  7 19  4  0
  8 18  1  0
  8 23  1  0
  8 28  2  0
  9 17  1  0
  9 24  1  0
 10 11  1  0
 10 24  1  0
 11 23  1  0
 12 14  4  0
 12 16  4  0
 14 19  4  0
 15 18  4  0
 16 20  4  0
 17 25  1  0
 18 26  4  0
 19 29  4  0
 20 29  4  0
 21 23  1  0
 21 25  1  0
 27 29  4  0
M  END
$$$$

 Created by Python create_sdf_string function

 29 32  0  0  0  0  0  0  0  0999 V2000
    5.4450    8.7154   22.6662 C   0  0  0  0  0  0  0  0  0  0  0  0
   10.9154    5.4574   20.5483 C   0  0  0  0  0  0  0  0  0  0  0  0
    7.2709    4.5089   22.7542 C   0  0  0  0  0  0  0  0  0  0  0  0
    5.9698    7.6329   24.6581 C   0  0  0  0  0  0  0  0  0  0  0  0
    4.5542    8.9057   21.7104 O   0  0  0  0  0  0  0  0  0  0  0  0
    6.9895    3.2085   23.0690 C   0  0  0  0  0  0  0  0  0  0  0  0
    7.8391    2.2253   22.7260 N   0  0  0  0  0  0  0  0  0  0  0  0
    8.6968    9.8373   23.6359 C   0  0  0  0  0  0  0  0  0  0  0  0
   12.5135    6.5957   21.8396 C   0  0  0  0  0  0  0  0  0  0  0  0
   10.9406    8.2330   21.1350 C   0  0  0  0  0  0  0  0  0  0  0  0
    9.6648    8.5956   21.7310 C   0  0  0  0  0  0  0  0  0  0  0  0
   10.8829    1.7153   20.9865 C   0  0  0  0  0  0  0  0  0  0  0  0
    5.7768    2.8533   23.7910 C   0  0  0  0  0  0  0  0  0  0  0  0
    9.7977    1.4791   21.6912 N   0  0  0  0  0  0  0  0  0  0  0  0
    6.5976    9.3401   22.6478 N   0  0  0  0  0  0  0  0  0  0  0  0
   11.2031    3.0042   20.6246 C   0  0  0  0  0  0  0  0  0  0  0  0
   12.8688    7.7370   22.7287 C   0  0  0  0  0  0  0  0  0  0  0  0
    7.4487    9.1361   23.6506 C   0  0  0  0  0  0  0  0  0  0  0  0
    8.9772    2.5025   22.0273 C   0  0  0  0  0  0  0  0  0  0  0  0
   10.4859    4.0901   20.9730 C   0  0  0  0  0  0  0  0  0  0  0  0
   11.0962    9.3293   23.5072 C   0  0  0  0  0  0  0  0  0  0  0  0
    5.1273    7.8529   23.6208 N   0  0  0  0  0  0  0  0  0  0  0  0
    9.7552    9.2338   23.0171 N   0  0  0  0  0  0  0  0  0  0  0  0
   11.1797    6.7591   21.3326 N   0  0  0  0  0  0  0  0  0  0  0  0
   11.7728    8.0337   23.7267 C   0  0  0  0  0  0  0  0  0  0  0  0
    7.1194    8.3344   24.6775 C   0  0  0  0  0  0  0  0  0  0  0  0
    8.4311    4.7963   22.0500 C   0  0  0  0  0  0  0  0  0  0  0  0
    8.7393   10.8706   24.1871 O   0  0  0  0  0  0  0  0  0  0  0  0
    9.3093    3.8166   21.6712 C   0  0  0  0  0  0  0  0  0  0  0  0
  1  5  1  0
  1 15  4  0
  1 22  4  0
  2 20  1  0
  2 24  1  0
  3  6  4  0
  3 27  4  0
  4 22  4  0
  4 26  4  0
  6  7  4  0
  6 13  1  0
  7 19  4  0
  8 18  1  0
  8 23  1  0
  8 28  2  0
  9 17  1  0
  9 24  1  0
 10 11  1  0
 10 24  1  0
 11 23  1  0
 12 14  4  0
 12 16  4  0
 14 19  4  0
 15 18  4  0
 16 20  4  0
 17 25  1  0
 18 26  4  0
 19 29  4  0
 20 29  4  0
 21 23  1  0
 21 25  1  0
 27 29  4  0
M  END
$$$$

 Created by Python create_sdf_string function

 29 32  0  0  0  0  0  0  0  0999 V2000
    5.4450    8.7154   22.6662 C   0  0  0  0  0  0  0  0  0  0  0  0
   10.9154    5.4574   20.5483 C   0  0  0  0  0  0  0  0  0  0  0  0
    7.2709    4.5089   22.7542 C   0  0  0  0  0  0  0  0  0  0  0  0
    5.9698    7.6329   24.6581 C   0  0  0  0  0  0  0  0  0  0  0  0
    4.5542    8.9057   21.7104 O   0  0  0  0  0  0  0  0  0  0  0  0
    6.9895    3.2085   23.0690 C   0  0  0  0  0  0  0  0  0  0  0  0
    7.8391    2.2253   22.7260 N   0  0  0  0  0  0  0  0  0  0  0  0
    8.6968    9.8373   23.6359 C   0  0  0  0  0  0  0  0  0  0  0  0
   12.5135    6.5957   21.8396 C   0  0  0  0  0  0  0  0  0  0  0  0
   10.9406    8.2330   21.1350 C   0  0  0  0  0  0  0  0  0  0  0  0
    9.6648    8.5956   21.7310 C   0  0  0  0  0  0  0  0  0  0  0  0
   10.8829    1.7153   20.9865 C   0  0  0  0  0  0  0  0  0  0  0  0
    5.7768    2.8533   23.7910 C   0  0  0  0  0  0  0  0  0  0  0  0
    9.7977    1.4791   21.6912 N   0  0  0  0  0  0  0  0  0  0  0  0
    6.5976    9.3401   22.6478 N   0  0  0  0  0  0  0  0  0  0  0  0
   11.2031    3.0042   20.6246 C   0  0  0  0  0  0  0  0  0  0  0  0
   12.8688    7.7370   22.7287 C   0  0  0  0  0  0  0  0  0  0  0  0
    7.4487    9.1361   23.6506 C   0  0  0  0  0  0  0  0  0  0  0  0
    8.9772    2.5025   22.0273 C   0  0  0  0  0  0  0  0  0  0  0  0
   10.4859    4.0901   20.9730 C   0  0  0  0  0  0  0  0  0  0  0  0
   11.0962    9.3293   23.5072 C   0  0  0  0  0  0  0  0  0  0  0  0
    5.1273    7.8529   23.6208 N   0  0  0  0  0  0  0  0  0  0  0  0
    9.7552    9.2338   23.0171 N   0  0  0  0  0  0  0  0  0  0  0  0
   11.1797    6.7591   21.3326 N   0  0  0  0  0  0  0  0  0  0  0  0
   11.7728    8.0337   23.7267 C   0  0  0  0  0  0  0  0  0  0  0  0
    7.1194    8.3344   24.6775 C   0  0  0  0  0  0  0  0  0  0  0  0
    8.4311    4.7963   22.0500 C   0  0  0  0  0  0  0  0  0  0  0  0
    8.7393   10.8706   24.1871 O   0  0  0  0  0  0  0  0  0  0  0  0
    9.3093    3.8166   21.6712 C   0  0  0  0  0  0  0  0  0  0  0  0
  1  5  1  0
  1 15  4  0
  1 22  4  0
  2 20  1  0
  2 24  1  0
  3  6  4  0
  3 27  4  0
  4 22  4  0
  4 26  4  0
  6  7  4  0
  6 13  1  0
  7 19  4  0
  8 18  1  0
  8 23  1  0
  8 28  2  0
  9 17  1  0
  9 24  1  0
 10 11  1  0
 10 24  1  0
 11 23  1  0
 12 14  4  0
 12 16  4  0
 14 19  4  0
 15 18  4  0
 16 20  4  0
 17 25  1  0
 18 26  4  0
 19 29  4  0
 20 29  4  0
 21 23  1  0
 21 25  1  0
 27 29  4  0
M  END
$$$$

 Created by Python create_sdf_string function

 29 32  0  0  0  0  0  0  0  0999 V2000
    5.4450    8.7154   22.6662 C   0  0  0  0  0  0  0  0  0  0  0  0
   10.9154    5.4574   20.5483 C   0  0  0  0  0  0  0  0  0  0  0  0
    7.2709    4.5089   22.7542 C   0  0  0  0  0  0  0  0  0  0  0  0
    5.9698    7.6329   24.6581 C   0  0  0  0  0  0  0  0  0  0  0  0
    4.5542    8.9057   21.7104 O   0  0  0  0  0  0  0  0  0  0  0  0
    6.9895    3.2085   23.0690 C   0  0  0  0  0  0  0  0  0  0  0  0
    7.8391    2.2253   22.7260 N   0  0  0  0  0  0  0  0  0  0  0  0
    8.6968    9.8373   23.6359 C   0  0  0  0  0  0  0  0  0  0  0  0
   12.5135    6.5957   21.8396 C   0  0  0  0  0  0  0  0  0  0  0  0
   10.9406    8.2330   21.1350 C   0  0  0  0  0  0  0  0  0  0  0  0
    9.6648    8.5956   21.7310 C   0  0  0  0  0  0  0  0  0  0  0  0
   10.8829    1.7153   20.9865 C   0  0  0  0  0  0  0  0  0  0  0  0
    5.7768    2.8533   23.7910 C   0  0  0  0  0  0  0  0  0  0  0  0
    9.7977    1.4791   21.6912 N   0  0  0  0  0  0  0  0  0  0  0  0
    6.5976    9.3401   22.6478 N   0  0  0  0  0  0  0  0  0  0  0  0
   11.2031    3.0042   20.6246 C   0  0  0  0  0  0  0  0  0  0  0  0
   12.8688    7.7370   22.7287 C   0  0  0  0  0  0  0  0  0  0  0  0
    7.4487    9.1361   23.6506 C   0  0  0  0  0  0  0  0  0  0  0  0
    8.9772    2.5025   22.0273 C   0  0  0  0  0  0  0  0  0  0  0  0
   10.4859    4.0901   20.9730 C   0  0  0  0  0  0  0  0  0  0  0  0
   11.0962    9.3293   23.5072 C   0  0  0  0  0  0  0  0  0  0  0  0
    5.1273    7.8529   23.6208 N   0  0  0  0  0  0  0  0  0  0  0  0
    9.7552    9.2338   23.0171 N   0  0  0  0  0  0  0  0  0  0  0  0
   11.1797    6.7591   21.3326 N   0  0  0  0  0  0  0  0  0  0  0  0
   11.7728    8.0337   23.7267 C   0  0  0  0  0  0  0  0  0  0  0  0
    7.1194    8.3344   24.6775 C   0  0  0  0  0  0  0  0  0  0  0  0
    8.4311    4.7963   22.0500 C   0  0  0  0  0  0  0  0  0  0  0  0
    8.7393   10.8706   24.1871 O   0  0  0  0  0  0  0  0  0  0  0  0
    9.3093    3.8166   21.6712 C   0  0  0  0  0  0  0  0  0  0  0  0
  1  5  1  0
  1 15  4  0
  1 22  4  0
  2 20  1  0
  2 24  1  0
  3  6  4  0
  3 27  4  0
  4 22  4  0
  4 26  4  0
  6  7  4  0
  6 13  1  0
  7 19  4  0
  8 18  1  0
  8 23  1  0
  8 28  2  0
  9 17  1  0
  9 24  1  0
 10 11  1  0
 10 24  1  0
 11 23  1  0
 12 14  4  0
 12 16  4  0
 14 19  4  0
 15 18  4  0
 16 20  4  0
 17 25  1  0
 18 26  4  0
 19 29  4  0
 20 29  4  0
 21 23  1  0
 21 25  1  0
 27 29  4  0
M  END
$$$$

 Created by Python create_sdf_string function

 29 32  0  0  0  0  0  0  0  0999 V2000
    5.4450    8.7154   22.6662 C   0  0  0  0  0  0  0  0  0  0  0  0
   10.9154    5.4574   20.5483 C   0  0  0  0  0  0  0  0  0  0  0  0
    7.2709    4.5089   22.7542 C   0  0  0  0  0  0  0  0  0  0  0  0
    5.9698    7.6329   24.6581 C   0  0  0  0  0  0  0  0  0  0  0  0
    4.5542    8.9057   21.7104 O   0  0  0  0  0  0  0  0  0  0  0  0
    6.9895    3.2085   23.0690 C   0  0  0  0  0  0  0  0  0  0  0  0
    7.8391    2.2253   22.7260 N   0  0  0  0  0  0  0  0  0  0  0  0
    8.6968    9.8373   23.6359 C   0  0  0  0  0  0  0  0  0  0  0  0
   12.5135    6.5957   21.8396 C   0  0  0  0  0  0  0  0  0  0  0  0
   10.9406    8.2330   21.1350 C   0  0  0  0  0  0  0  0  0  0  0  0
    9.6648    8.5956   21.7310 C   0  0  0  0  0  0  0  0  0  0  0  0
   10.8829    1.7153   20.9865 C   0  0  0  0  0  0  0  0  0  0  0  0
    5.7768    2.8533   23.7910 C   0  0  0  0  0  0  0  0  0  0  0  0
    9.7977    1.4791   21.6912 N   0  0  0  0  0  0  0  0  0  0  0  0
    6.5976    9.3401   22.6478 N   0  0  0  0  0  0  0  0  0  0  0  0
   11.2031    3.0042   20.6246 C   0  0  0  0  0  0  0  0  0  0  0  0
   12.8688    7.7370   22.7287 C   0  0  0  0  0  0  0  0  0  0  0  0
    7.4487    9.1361   23.6506 C   0  0  0  0  0  0  0  0  0  0  0  0
    8.9772    2.5025   22.0273 C   0  0  0  0  0  0  0  0  0  0  0  0
   10.4859    4.0901   20.9730 C   0  0  0  0  0  0  0  0  0  0  0  0
   11.0962    9.3293   23.5072 C   0  0  0  0  0  0  0  0  0  0  0  0
    5.1273    7.8529   23.6208 N   0  0  0  0  0  0  0  0  0  0  0  0
    9.7552    9.2338   23.0171 N   0  0  0  0  0  0  0  0  0  0  0  0
   11.1797    6.7591   21.3326 N   0  0  0  0  0  0  0  0  0  0  0  0
   11.7728    8.0337   23.7267 C   0  0  0  0  0  0  0  0  0  0  0  0
    7.1194    8.3344   24.6775 C   0  0  0  0  0  0  0  0  0  0  0  0
    8.4311    4.7963   22.0500 C   0  0  0  0  0  0  0  0  0  0  0  0
    8.7393   10.8706   24.1871 O   0  0  0  0  0  0  0  0  0  0  0  0
    9.3093    3.8166   21.6712 C   0  0  0  0  0  0  0  0  0  0  0  0
  1  5  1  0
  1 15  4  0
  1 22  4  0
  2 20  1  0
  2 24  1  0
  3  6  4  0
  3 27  4  0
  4 22  4  0
  4 26  4  0
  6  7  4  0
  6 13  1  0
  7 19  4  0
  8 18  1  0
  8 23  1  0
  8 28  2  0
  9 17  1  0
  9 24  1  0
 10 11  1  0
 10 24  1  0
 11 23  1  0
 12 14  4  0
 12 16  4  0
 14 19  4  0
 15 18  4  0
 16 20  4  0
 17 25  1  0
 18 26  4  0
 19 29  4  0
 20 29  4  0
 21 23  1  0
 21 25  1  0
 27 29  4  0
M  END
$$$$

 Created by Python create_sdf_string function

 29 32  0  0  0  0  0  0  0  0999 V2000
    5.4450    8.7154   22.6662 C   0  0  0  0  0  0  0  0  0  0  0  0
   10.9154    5.4574   20.5483 C   0  0  0  0  0  0  0  0  0  0  0  0
    7.2709    4.5089   22.7542 C   0  0  0  0  0  0  0  0  0  0  0  0
    5.9698    7.6329   24.6581 C   0  0  0  0  0  0  0  0  0  0  0  0
    4.5542    8.9057   21.7104 O   0  0  0  0  0  0  0  0  0  0  0  0
    6.9895    3.2085   23.0690 C   0  0  0  0  0  0  0  0  0  0  0  0
    7.8391    2.2253   22.7260 N   0  0  0  0  0  0  0  0  0  0  0  0
    8.6968    9.8373   23.6359 C   0  0  0  0  0  0  0  0  0  0  0  0
   12.5135    6.5957   21.8396 C   0  0  0  0  0  0  0  0  0  0  0  0
   10.9406    8.2330   21.1350 C   0  0  0  0  0  0  0  0  0  0  0  0
    9.6648    8.5956   21.7310 C   0  0  0  0  0  0  0  0  0  0  0  0
   10.8829    1.7153   20.9865 C   0  0  0  0  0  0  0  0  0  0  0  0
    5.7768    2.8533   23.7910 C   0  0  0  0  0  0  0  0  0  0  0  0
    9.7977    1.4791   21.6912 N   0  0  0  0  0  0  0  0  0  0  0  0
    6.5976    9.3401   22.6478 N   0  0  0  0  0  0  0  0  0  0  0  0
   11.2031    3.0042   20.6246 C   0  0  0  0  0  0  0  0  0  0  0  0
   12.8688    7.7370   22.7287 C   0  0  0  0  0  0  0  0  0  0  0  0
    7.4487    9.1361   23.6506 C   0  0  0  0  0  0  0  0  0  0  0  0
    8.9772    2.5025   22.0273 C   0  0  0  0  0  0  0  0  0  0  0  0
   10.4859    4.0901   20.9730 C   0  0  0  0  0  0  0  0  0  0  0  0
   11.0962    9.3293   23.5072 C   0  0  0  0  0  0  0  0  0  0  0  0
    5.1273    7.8529   23.6208 N   0  0  0  0  0  0  0  0  0  0  0  0
    9.7552    9.2338   23.0171 N   0  0  0  0  0  0  0  0  0  0  0  0
   11.1797    6.7591   21.3326 N   0  0  0  0  0  0  0  0  0  0  0  0
   11.7728    8.0337   23.7267 C   0  0  0  0  0  0  0  0  0  0  0  0
    7.1194    8.3344   24.6775 C   0  0  0  0  0  0  0  0  0  0  0  0
    8.4311    4.7963   22.0500 C   0  0  0  0  0  0  0  0  0  0  0  0
    8.7393   10.8706   24.1871 O   0  0  0  0  0  0  0  0  0  0  0  0
    9.3093    3.8166   21.6712 C   0  0  0  0  0  0  0  0  0  0  0  0
  1  5  1  0
  1 15  4  0
  1 22  4  0
  2 20  1  0
  2 24  1  0
  3  6  4  0
  3 27  4  0
  4 22  4  0
  4 26  4  0
  6  7  4  0
  6 13  1  0
  7 19  4  0
  8 18  1  0
  8 23  1  0
  8 28  2  0
  9 17  1  0
  9 24  1  0
 10 11  1  0
 10 24  1  0
 11 23  1  0
 12 14  4  0
 12 16  4  0
 14 19  4  0
 15 18  4  0
 16 20  4  0
 17 25  1  0
 18 26  4  0
 19 29  4  0
 20 29  4  0
 21 23  1  0
 21 25  1  0
 27 29  4  0
M  END
$$$$

 Created by Python create_sdf_string function

 29 32  0  0  0  0  0  0  0  0999 V2000
    5.4450    8.7154   22.6662 C   0  0  0  0  0  0  0  0  0  0  0  0
   10.9154    5.4574   20.5483 C   0  0  0  0  0  0  0  0  0  0  0  0
    7.2709    4.5089   22.7542 C   0  0  0  0  0  0  0  0  0  0  0  0
    5.9698    7.6329   24.6581 C   0  0  0  0  0  0  0  0  0  0  0  0
    4.5542    8.9057   21.7104 O   0  0  0  0  0  0  0  0  0  0  0  0
    6.9895    3.2085   23.0690 C   0  0  0  0  0  0  0  0  0  0  0  0
    7.8391    2.2253   22.7260 N   0  0  0  0  0  0  0  0  0  0  0  0
    8.6968    9.8373   23.6359 C   0  0  0  0  0  0  0  0  0  0  0  0
   12.5135    6.5957   21.8396 C   0  0  0  0  0  0  0  0  0  0  0  0
   10.9406    8.2330   21.1350 C   0  0  0  0  0  0  0  0  0  0  0  0
    9.6648    8.5956   21.7310 C   0  0  0  0  0  0  0  0  0  0  0  0
   10.8829    1.7153   20.9865 C   0  0  0  0  0  0  0  0  0  0  0  0
    5.7768    2.8533   23.7910 C   0  0  0  0  0  0  0  0  0  0  0  0
    9.7977    1.4791   21.6912 N   0  0  0  0  0  0  0  0  0  0  0  0
    6.5976    9.3401   22.6478 N   0  0  0  0  0  0  0  0  0  0  0  0
   11.2031    3.0042   20.6246 C   0  0  0  0  0  0  0  0  0  0  0  0
   12.8688    7.7370   22.7287 C   0  0  0  0  0  0  0  0  0  0  0  0
    7.4487    9.1361   23.6506 C   0  0  0  0  0  0  0  0  0  0  0  0
    8.9772    2.5025   22.0273 C   0  0  0  0  0  0  0  0  0  0  0  0
   10.4859    4.0901   20.9730 C   0  0  0  0  0  0  0  0  0  0  0  0
   11.0962    9.3293   23.5072 C   0  0  0  0  0  0  0  0  0  0  0  0
    5.1273    7.8529   23.6208 N   0  0  0  0  0  0  0  0  0  0  0  0
    9.7552    9.2338   23.0171 N   0  0  0  0  0  0  0  0  0  0  0  0
   11.1797    6.7591   21.3326 N   0  0  0  0  0  0  0  0  0  0  0  0
   11.7728    8.0337   23.7267 C   0  0  0  0  0  0  0  0  0  0  0  0
    7.1194    8.3344   24.6775 C   0  0  0  0  0  0  0  0  0  0  0  0
    8.4311    4.7963   22.0500 C   0  0  0  0  0  0  0  0  0  0  0  0
    8.7393   10.8706   24.1871 O   0  0  0  0  0  0  0  0  0  0  0  0
    9.3093    3.8166   21.6712 C   0  0  0  0  0  0  0  0  0  0  0  0
  1  5  1  0
  1 15  4  0
  1 22  4  0
  2 20  1  0
  2 24  1  0
  3  6  4  0
  3 27  4  0
  4 22  4  0
  4 26  4  0
  6  7  4  0
  6 13  1  0
  7 19  4  0
  8 18  1  0
  8 23  1  0
  8 28  2  0
  9 17  1  0
  9 24  1  0
 10 11  1  0
 10 24  1  0
 11 23  1  0
 12 14  4  0
 12 16  4  0
 14 19  4  0
 15 18  4  0
 16 20  4  0
 17 25  1  0
 18 26  4  0
 19 29  4  0
 20 29  4  0
 21 23  1  0
 21 25  1  0
 27 29  4  0
M  END
$$$$

 Created by Python create_sdf_string function

 29 32  0  0  0  0  0  0  0  0999 V2000
    5.4450    8.7154   22.6662 C   0  0  0  0  0  0  0  0  0  0  0  0
   10.9154    5.4574   20.5483 C   0  0  0  0  0  0  0  0  0  0  0  0
    7.2709    4.5089   22.7542 C   0  0  0  0  0  0  0  0  0  0  0  0
    5.9698    7.6329   24.6581 C   0  0  0  0  0  0  0  0  0  0  0  0
    4.5542    8.9057   21.7104 O   0  0  0  0  0  0  0  0  0  0  0  0
    6.9895    3.2085   23.0690 C   0  0  0  0  0  0  0  0  0  0  0  0
    7.8391    2.2253   22.7260 N   0  0  0  0  0  0  0  0  0  0  0  0
    8.6968    9.8373   23.6359 C   0  0  0  0  0  0  0  0  0  0  0  0
   12.5135    6.5957   21.8396 C   0  0  0  0  0  0  0  0  0  0  0  0
   10.9406    8.2330   21.1350 C   0  0  0  0  0  0  0  0  0  0  0  0
    9.6648    8.5956   21.7310 C   0  0  0  0  0  0  0  0  0  0  0  0
   10.8829    1.7153   20.9865 C   0  0  0  0  0  0  0  0  0  0  0  0
    5.7768    2.8533   23.7910 C   0  0  0  0  0  0  0  0  0  0  0  0
    9.7977    1.4791   21.6912 N   0  0  0  0  0  0  0  0  0  0  0  0
    6.5976    9.3401   22.6478 N   0  0  0  0  0  0  0  0  0  0  0  0
   11.2031    3.0042   20.6246 C   0  0  0  0  0  0  0  0  0  0  0  0
   12.8688    7.7370   22.7287 C   0  0  0  0  0  0  0  0  0  0  0  0
    7.4487    9.1361   23.6506 C   0  0  0  0  0  0  0  0  0  0  0  0
    8.9772    2.5025   22.0273 C   0  0  0  0  0  0  0  0  0  0  0  0
   10.4859    4.0901   20.9730 C   0  0  0  0  0  0  0  0  0  0  0  0
   11.0962    9.3293   23.5072 C   0  0  0  0  0  0  0  0  0  0  0  0
    5.1273    7.8529   23.6208 N   0  0  0  0  0  0  0  0  0  0  0  0
    9.7552    9.2338   23.0171 N   0  0  0  0  0  0  0  0  0  0  0  0
   11.1797    6.7591   21.3326 N   0  0  0  0  0  0  0  0  0  0  0  0
   11.7728    8.0337   23.7267 C   0  0  0  0  0  0  0  0  0  0  0  0
    7.1194    8.3344   24.6775 C   0  0  0  0  0  0  0  0  0  0  0  0
    8.4311    4.7963   22.0500 C   0  0  0  0  0  0  0  0  0  0  0  0
    8.7393   10.8706   24.1871 O   0  0  0  0  0  0  0  0  0  0  0  0
    9.3093    3.8166   21.6712 C   0  0  0  0  0  0  0  0  0  0  0  0
  1  5  1  0
  1 15  4  0
  1 22  4  0
  2 20  1  0
  2 24  1  0
  3  6  4  0
  3 27  4  0
  4 22  4  0
  4 26  4  0
  6  7  4  0
  6 13  1  0
  7 19  4  0
  8 18  1  0
  8 23  1  0
  8 28  2  0
  9 17  1  0
  9 24  1  0
 10 11  1  0
 10 24  1  0
 11 23  1  0
 12 14  4  0
 12 16  4  0
 14 19  4  0
 15 18  4  0
 16 20  4  0
 17 25  1  0
 18 26  4  0
 19 29  4  0
 20 29  4  0
 21 23  1  0
 21 25  1  0
 27 29  4  0
M  END
$$$$

 Created by Python create_sdf_string function

 29 32  0  0  0  0  0  0  0  0999 V2000
    5.4450    8.7154   22.6662 C   0  0  0  0  0  0  0  0  0  0  0  0
   10.9154    5.4574   20.5483 C   0  0  0  0  0  0  0  0  0  0  0  0
    7.2709    4.5089   22.7542 C   0  0  0  0  0  0  0  0  0  0  0  0
    5.9698    7.6329   24.6581 C   0  0  0  0  0  0  0  0  0  0  0  0
    4.5542    8.9057   21.7104 O   0  0  0  0  0  0  0  0  0  0  0  0
    6.9895    3.2085   23.0690 C   0  0  0  0  0  0  0  0  0  0  0  0
    7.8391    2.2253   22.7260 N   0  0  0  0  0  0  0  0  0  0  0  0
    8.6968    9.8373   23.6359 C   0  0  0  0  0  0  0  0  0  0  0  0
   12.5135    6.5957   21.8396 C   0  0  0  0  0  0  0  0  0  0  0  0
   10.9406    8.2330   21.1350 C   0  0  0  0  0  0  0  0  0  0  0  0
    9.6648    8.5956   21.7310 C   0  0  0  0  0  0  0  0  0  0  0  0
   10.8829    1.7153   20.9865 C   0  0  0  0  0  0  0  0  0  0  0  0
    5.7768    2.8533   23.7910 C   0  0  0  0  0  0  0  0  0  0  0  0
    9.7977    1.4791   21.6912 N   0  0  0  0  0  0  0  0  0  0  0  0
    6.5976    9.3401   22.6478 N   0  0  0  0  0  0  0  0  0  0  0  0
   11.2031    3.0042   20.6246 C   0  0  0  0  0  0  0  0  0  0  0  0
   12.8688    7.7370   22.7287 C   0  0  0  0  0  0  0  0  0  0  0  0
    7.4487    9.1361   23.6506 C   0  0  0  0  0  0  0  0  0  0  0  0
    8.9772    2.5025   22.0273 C   0  0  0  0  0  0  0  0  0  0  0  0
   10.4859    4.0901   20.9730 C   0  0  0  0  0  0  0  0  0  0  0  0
   11.0962    9.3293   23.5072 C   0  0  0  0  0  0  0  0  0  0  0  0
    5.1273    7.8529   23.6208 N   0  0  0  0  0  0  0  0  0  0  0  0
    9.7552    9.2338   23.0171 N   0  0  0  0  0  0  0  0  0  0  0  0
   11.1797    6.7591   21.3326 N   0  0  0  0  0  0  0  0  0  0  0  0
   11.7728    8.0337   23.7267 C   0  0  0  0  0  0  0  0  0  0  0  0
    7.1194    8.3344   24.6775 C   0  0  0  0  0  0  0  0  0  0  0  0
    8.4311    4.7963   22.0500 C   0  0  0  0  0  0  0  0  0  0  0  0
    8.7393   10.8706   24.1871 O   0  0  0  0  0  0  0  0  0  0  0  0
    9.3093    3.8166   21.6712 C   0  0  0  0  0  0  0  0  0  0  0  0
  1  5  1  0
  1 15  4  0
  1 22  4  0
  2 20  1  0
  2 24  1  0
  3  6  4  0
  3 27  4  0
  4 22  4  0
  4 26  4  0
  6  7  4  0
  6 13  1  0
  7 19  4  0
  8 18  1  0
  8 23  1  0
  8 28  2  0
  9 17  1  0
  9 24  1  0
 10 11  1  0
 10 24  1  0
 11 23  1  0
 12 14  4  0
 12 16  4  0
 14 19  4  0
 15 18  4  0
 16 20  4  0
 17 25  1  0
 18 26  4  0
 19 29  4  0
 20 29  4  0
 21 23  1  0
 21 25  1  0
 27 29  4  0
M  END
$$$$

 Created by Python create_sdf_string function

 29 32  0  0  0  0  0  0  0  0999 V2000
    5.4450    8.7154   22.6662 C   0  0  0  0  0  0  0  0  0  0  0  0
   10.9154    5.4574   20.5483 C   0  0  0  0  0  0  0  0  0  0  0  0
    7.2709    4.5089   22.7542 C   0  0  0  0  0  0  0  0  0  0  0  0
    5.9698    7.6329   24.6581 C   0  0  0  0  0  0  0  0  0  0  0  0
    4.5542    8.9057   21.7104 O   0  0  0  0  0  0  0  0  0  0  0  0
    6.9895    3.2085   23.0690 C   0  0  0  0  0  0  0  0  0  0  0  0
    7.8391    2.2253   22.7260 N   0  0  0  0  0  0  0  0  0  0  0  0
    8.6968    9.8373   23.6359 C   0  0  0  0  0  0  0  0  0  0  0  0
   12.5135    6.5957   21.8396 C   0  0  0  0  0  0  0  0  0  0  0  0
   10.9406    8.2330   21.1350 C   0  0  0  0  0  0  0  0  0  0  0  0
    9.6648    8.5956   21.7310 C   0  0  0  0  0  0  0  0  0  0  0  0
   10.8829    1.7153   20.9865 C   0  0  0  0  0  0  0  0  0  0  0  0
    5.7768    2.8533   23.7910 C   0  0  0  0  0  0  0  0  0  0  0  0
    9.7977    1.4791   21.6912 N   0  0  0  0  0  0  0  0  0  0  0  0
    6.5976    9.3401   22.6478 N   0  0  0  0  0  0  0  0  0  0  0  0
   11.2031    3.0042   20.6246 C   0  0  0  0  0  0  0  0  0  0  0  0
   12.8688    7.7370   22.7287 C   0  0  0  0  0  0  0  0  0  0  0  0
    7.4487    9.1361   23.6506 C   0  0  0  0  0  0  0  0  0  0  0  0
    8.9772    2.5025   22.0273 C   0  0  0  0  0  0  0  0  0  0  0  0
   10.4859    4.0901   20.9730 C   0  0  0  0  0  0  0  0  0  0  0  0
   11.0962    9.3293   23.5072 C   0  0  0  0  0  0  0  0  0  0  0  0
    5.1273    7.8529   23.6208 N   0  0  0  0  0  0  0  0  0  0  0  0
    9.7552    9.2338   23.0171 N   0  0  0  0  0  0  0  0  0  0  0  0
   11.1797    6.7591   21.3326 N   0  0  0  0  0  0  0  0  0  0  0  0
   11.7728    8.0337   23.7267 C   0  0  0  0  0  0  0  0  0  0  0  0
    7.1194    8.3344   24.6775 C   0  0  0  0  0  0  0  0  0  0  0  0
    8.4311    4.7963   22.0500 C   0  0  0  0  0  0  0  0  0  0  0  0
    8.7393   10.8706   24.1871 O   0  0  0  0  0  0  0  0  0  0  0  0
    9.3093    3.8166   21.6712 C   0  0  0  0  0  0  0  0  0  0  0  0
  1  5  1  0
  1 15  4  0
  1 22  4  0
  2 20  1  0
  2 24  1  0
  3  6  4  0
  3 27  4  0
  4 22  4  0
  4 26  4  0
  6  7  4  0
  6 13  1  0
  7 19  4  0
  8 18  1  0
  8 23  1  0
  8 28  2  0
  9 17  1  0
  9 24  1  0
 10 11  1  0
 10 24  1  0
 11 23  1  0
 12 14  4  0
 12 16  4  0
 14 19  4  0
 15 18  4  0
 16 20  4  0
 17 25  1  0
 18 26  4  0
 19 29  4  0
 20 29  4  0
 21 23  1  0
 21 25  1  0
 27 29  4  0
M  END
$$$$

 Created by Python create_sdf_string function

 29 32  0  0  0  0  0  0  0  0999 V2000
    5.4450    8.7154   22.6662 C   0  0  0  0  0  0  0  0  0  0  0  0
   10.9154    5.4574   20.5483 C   0  0  0  0  0  0  0  0  0  0  0  0
    7.2709    4.5089   22.7542 C   0  0  0  0  0  0  0  0  0  0  0  0
    5.9698    7.6329   24.6581 C   0  0  0  0  0  0  0  0  0  0  0  0
    4.5542    8.9057   21.7104 O   0  0  0  0  0  0  0  0  0  0  0  0
    6.9895    3.2085   23.0690 C   0  0  0  0  0  0  0  0  0  0  0  0
    7.8391    2.2253   22.7260 N   0  0  0  0  0  0  0  0  0  0  0  0
    8.6968    9.8373   23.6359 C   0  0  0  0  0  0  0  0  0  0  0  0
   12.5135    6.5957   21.8396 C   0  0  0  0  0  0  0  0  0  0  0  0
   10.9406    8.2330   21.1350 C   0  0  0  0  0  0  0  0  0  0  0  0
    9.6648    8.5956   21.7310 C   0  0  0  0  0  0  0  0  0  0  0  0
   10.8829    1.7153   20.9865 C   0  0  0  0  0  0  0  0  0  0  0  0
    5.7768    2.8533   23.7910 C   0  0  0  0  0  0  0  0  0  0  0  0
    9.7977    1.4791   21.6912 N   0  0  0  0  0  0  0  0  0  0  0  0
    6.5976    9.3401   22.6478 N   0  0  0  0  0  0  0  0  0  0  0  0
   11.2031    3.0042   20.6246 C   0  0  0  0  0  0  0  0  0  0  0  0
   12.8688    7.7370   22.7287 C   0  0  0  0  0  0  0  0  0  0  0  0
    7.4487    9.1361   23.6506 C   0  0  0  0  0  0  0  0  0  0  0  0
    8.9772    2.5025   22.0273 C   0  0  0  0  0  0  0  0  0  0  0  0
   10.4859    4.0901   20.9730 C   0  0  0  0  0  0  0  0  0  0  0  0
   11.0962    9.3293   23.5072 C   0  0  0  0  0  0  0  0  0  0  0  0
    5.1273    7.8529   23.6208 N   0  0  0  0  0  0  0  0  0  0  0  0
    9.7552    9.2338   23.0171 N   0  0  0  0  0  0  0  0  0  0  0  0
   11.1797    6.7591   21.3326 N   0  0  0  0  0  0  0  0  0  0  0  0
   11.7728    8.0337   23.7267 C   0  0  0  0  0  0  0  0  0  0  0  0
    7.1194    8.3344   24.6775 C   0  0  0  0  0  0  0  0  0  0  0  0
    8.4311    4.7963   22.0500 C   0  0  0  0  0  0  0  0  0  0  0  0
    8.7393   10.8706   24.1871 O   0  0  0  0  0  0  0  0  0  0  0  0
    9.3093    3.8166   21.6712 C   0  0  0  0  0  0  0  0  0  0  0  0
  1  5  1  0
  1 15  4  0
  1 22  4  0
  2 20  1  0
  2 24  1  0
  3  6  4  0
  3 27  4  0
  4 22  4  0
  4 26  4  0
  6  7  4  0
  6 13  1  0
  7 19  4  0
  8 18  1  0
  8 23  1  0
  8 28  2  0
  9 17  1  0
  9 24  1  0
 10 11  1  0
 10 24  1  0
 11 23  1  0
 12 14  4  0
 12 16  4  0
 14 19  4  0
 15 18  4  0
 16 20  4  0
 17 25  1  0
 18 26  4  0
 19 29  4  0
 20 29  4  0
 21 23  1  0
 21 25  1  0
 27 29  4  0
M  END
$$$$

 Created by Python create_sdf_string function

 29 32  0  0  0  0  0  0  0  0999 V2000
    5.4450    8.7154   22.6662 C   0  0  0  0  0  0  0  0  0  0  0  0
   10.9154    5.4574   20.5483 C   0  0  0  0  0  0  0  0  0  0  0  0
    7.2709    4.5089   22.7542 C   0  0  0  0  0  0  0  0  0  0  0  0
    5.9698    7.6329   24.6581 C   0  0  0  0  0  0  0  0  0  0  0  0
    4.5542    8.9057   21.7104 O   0  0  0  0  0  0  0  0  0  0  0  0
    6.9895    3.2085   23.0690 C   0  0  0  0  0  0  0  0  0  0  0  0
    7.8391    2.2253   22.7260 N   0  0  0  0  0  0  0  0  0  0  0  0
    8.6968    9.8373   23.6359 C   0  0  0  0  0  0  0  0  0  0  0  0
   12.5135    6.5957   21.8396 C   0  0  0  0  0  0  0  0  0  0  0  0
   10.9406    8.2330   21.1350 C   0  0  0  0  0  0  0  0  0  0  0  0
    9.6648    8.5956   21.7310 C   0  0  0  0  0  0  0  0  0  0  0  0
   10.8829    1.7153   20.9865 C   0  0  0  0  0  0  0  0  0  0  0  0
    5.7768    2.8533   23.7910 C   0  0  0  0  0  0  0  0  0  0  0  0
    9.7977    1.4791   21.6912 N   0  0  0  0  0  0  0  0  0  0  0  0
    6.5976    9.3401   22.6478 N   0  0  0  0  0  0  0  0  0  0  0  0
   11.2031    3.0042   20.6246 C   0  0  0  0  0  0  0  0  0  0  0  0
   12.8688    7.7370   22.7287 C   0  0  0  0  0  0  0  0  0  0  0  0
    7.4487    9.1361   23.6506 C   0  0  0  0  0  0  0  0  0  0  0  0
    8.9772    2.5025   22.0273 C   0  0  0  0  0  0  0  0  0  0  0  0
   10.4859    4.0901   20.9730 C   0  0  0  0  0  0  0  0  0  0  0  0
   11.0962    9.3293   23.5072 C   0  0  0  0  0  0  0  0  0  0  0  0
    5.1273    7.8529   23.6208 N   0  0  0  0  0  0  0  0  0  0  0  0
    9.7552    9.2338   23.0171 N   0  0  0  0  0  0  0  0  0  0  0  0
   11.1797    6.7591   21.3326 N   0  0  0  0  0  0  0  0  0  0  0  0
   11.7728    8.0337   23.7267 C   0  0  0  0  0  0  0  0  0  0  0  0
    7.1194    8.3344   24.6775 C   0  0  0  0  0  0  0  0  0  0  0  0
    8.4311    4.7963   22.0500 C   0  0  0  0  0  0  0  0  0  0  0  0
    8.7393   10.8706   24.1871 O   0  0  0  0  0  0  0  0  0  0  0  0
    9.3093    3.8166   21.6712 C   0  0  0  0  0  0  0  0  0  0  0  0
  1  5  1  0
  1 15  4  0
  1 22  4  0
  2 20  1  0
  2 24  1  0
  3  6  4  0
  3 27  4  0
  4 22  4  0
  4 26  4  0
  6  7  4  0
  6 13  1  0
  7 19  4  0
  8 18  1  0
  8 23  1  0
  8 28  2  0
  9 17  1  0
  9 24  1  0
 10 11  1  0
 10 24  1  0
 11 23  1  0
 12 14  4  0
 12 16  4  0
 14 19  4  0
 15 18  4  0
 16 20  4  0
 17 25  1  0
 18 26  4  0
 19 29  4  0
 20 29  4  0
 21 23  1  0
 21 25  1  0
 27 29  4  0
M  END
$$$$

 Created by Python create_sdf_string function

 29 32  0  0  0  0  0  0  0  0999 V2000
    5.4450    8.7154   22.6662 C   0  0  0  0  0  0  0  0  0  0  0  0
   10.9154    5.4574   20.5483 C   0  0  0  0  0  0  0  0  0  0  0  0
    7.2709    4.5089   22.7542 C   0  0  0  0  0  0  0  0  0  0  0  0
    5.9698    7.6329   24.6581 C   0  0  0  0  0  0  0  0  0  0  0  0
    4.5542    8.9057   21.7104 O   0  0  0  0  0  0  0  0  0  0  0  0
    6.9895    3.2085   23.0690 C   0  0  0  0  0  0  0  0  0  0  0  0
    7.8391    2.2253   22.7260 N   0  0  0  0  0  0  0  0  0  0  0  0
    8.6968    9.8373   23.6359 C   0  0  0  0  0  0  0  0  0  0  0  0
   12.5135    6.5957   21.8396 C   0  0  0  0  0  0  0  0  0  0  0  0
   10.9406    8.2330   21.1350 C   0  0  0  0  0  0  0  0  0  0  0  0
    9.6648    8.5956   21.7310 C   0  0  0  0  0  0  0  0  0  0  0  0
   10.8829    1.7153   20.9865 C   0  0  0  0  0  0  0  0  0  0  0  0
    5.7768    2.8533   23.7910 C   0  0  0  0  0  0  0  0  0  0  0  0
    9.7977    1.4791   21.6912 N   0  0  0  0  0  0  0  0  0  0  0  0
    6.5976    9.3401   22.6478 N   0  0  0  0  0  0  0  0  0  0  0  0
   11.2031    3.0042   20.6246 C   0  0  0  0  0  0  0  0  0  0  0  0
   12.8688    7.7370   22.7287 C   0  0  0  0  0  0  0  0  0  0  0  0
    7.4487    9.1361   23.6506 C   0  0  0  0  0  0  0  0  0  0  0  0
    8.9772    2.5025   22.0273 C   0  0  0  0  0  0  0  0  0  0  0  0
   10.4859    4.0901   20.9730 C   0  0  0  0  0  0  0  0  0  0  0  0
   11.0962    9.3293   23.5072 C   0  0  0  0  0  0  0  0  0  0  0  0
    5.1273    7.8529   23.6208 N   0  0  0  0  0  0  0  0  0  0  0  0
    9.7552    9.2338   23.0171 N   0  0  0  0  0  0  0  0  0  0  0  0
   11.1797    6.7591   21.3326 N   0  0  0  0  0  0  0  0  0  0  0  0
   11.7728    8.0337   23.7267 C   0  0  0  0  0  0  0  0  0  0  0  0
    7.1194    8.3344   24.6775 C   0  0  0  0  0  0  0  0  0  0  0  0
    8.4311    4.7963   22.0500 C   0  0  0  0  0  0  0  0  0  0  0  0
    8.7393   10.8706   24.1871 O   0  0  0  0  0  0  0  0  0  0  0  0
    9.3093    3.8166   21.6712 C   0  0  0  0  0  0  0  0  0  0  0  0
  1  5  1  0
  1 15  4  0
  1 22  4  0
  2 20  1  0
  2 24  1  0
  3  6  4  0
  3 27  4  0
  4 22  4  0
  4 26  4  0
  6  7  4  0
  6 13  1  0
  7 19  4  0
  8 18  1  0
  8 23  1  0
  8 28  2  0
  9 17  1  0
  9 24  1  0
 10 11  1  0
 10 24  1  0
 11 23  1  0
 12 14  4  0
 12 16  4  0
 14 19  4  0
 15 18  4  0
 16 20  4  0
 17 25  1  0
 18 26  4  0
 19 29  4  0
 20 29  4  0
 21 23  1  0
 21 25  1  0
 27 29  4  0
M  END
$$$$

 Created by Python create_sdf_string function

 29 32  0  0  0  0  0  0  0  0999 V2000
    5.4450    8.7154   22.6662 C   0  0  0  0  0  0  0  0  0  0  0  0
   10.9154    5.4574   20.5483 C   0  0  0  0  0  0  0  0  0  0  0  0
    7.2709    4.5089   22.7542 C   0  0  0  0  0  0  0  0  0  0  0  0
    5.9698    7.6329   24.6581 C   0  0  0  0  0  0  0  0  0  0  0  0
    4.5542    8.9057   21.7104 O   0  0  0  0  0  0  0  0  0  0  0  0
    6.9895    3.2085   23.0690 C   0  0  0  0  0  0  0  0  0  0  0  0
    7.8391    2.2253   22.7260 N   0  0  0  0  0  0  0  0  0  0  0  0
    8.6968    9.8373   23.6359 C   0  0  0  0  0  0  0  0  0  0  0  0
   12.5135    6.5957   21.8396 C   0  0  0  0  0  0  0  0  0  0  0  0
   10.9406    8.2330   21.1350 C   0  0  0  0  0  0  0  0  0  0  0  0
    9.6648    8.5956   21.7310 C   0  0  0  0  0  0  0  0  0  0  0  0
   10.8829    1.7153   20.9865 C   0  0  0  0  0  0  0  0  0  0  0  0
    5.7768    2.8533   23.7910 C   0  0  0  0  0  0  0  0  0  0  0  0
    9.7977    1.4791   21.6912 N   0  0  0  0  0  0  0  0  0  0  0  0
    6.5976    9.3401   22.6478 N   0  0  0  0  0  0  0  0  0  0  0  0
   11.2031    3.0042   20.6246 C   0  0  0  0  0  0  0  0  0  0  0  0
   12.8688    7.7370   22.7287 C   0  0  0  0  0  0  0  0  0  0  0  0
    7.4487    9.1361   23.6506 C   0  0  0  0  0  0  0  0  0  0  0  0
    8.9772    2.5025   22.0273 C   0  0  0  0  0  0  0  0  0  0  0  0
   10.4859    4.0901   20.9730 C   0  0  0  0  0  0  0  0  0  0  0  0
   11.0962    9.3293   23.5072 C   0  0  0  0  0  0  0  0  0  0  0  0
    5.1273    7.8529   23.6208 N   0  0  0  0  0  0  0  0  0  0  0  0
    9.7552    9.2338   23.0171 N   0  0  0  0  0  0  0  0  0  0  0  0
   11.1797    6.7591   21.3326 N   0  0  0  0  0  0  0  0  0  0  0  0
   11.7728    8.0337   23.7267 C   0  0  0  0  0  0  0  0  0  0  0  0
    7.1194    8.3344   24.6775 C   0  0  0  0  0  0  0  0  0  0  0  0
    8.4311    4.7963   22.0500 C   0  0  0  0  0  0  0  0  0  0  0  0
    8.7393   10.8706   24.1871 O   0  0  0  0  0  0  0  0  0  0  0  0
    9.3093    3.8166   21.6712 C   0  0  0  0  0  0  0  0  0  0  0  0
  1  5  1  0
  1 15  4  0
  1 22  4  0
  2 20  1  0
  2 24  1  0
  3  6  4  0
  3 27  4  0
  4 22  4  0
  4 26  4  0
  6  7  4  0
  6 13  1  0
  7 19  4  0
  8 18  1  0
  8 23  1  0
  8 28  2  0
  9 17  1  0
  9 24  1  0
 10 11  1  0
 10 24  1  0
 11 23  1  0
 12 14  4  0
 12 16  4  0
 14 19  4  0
 15 18  4  0
 16 20  4  0
 17 25  1  0
 18 26  4  0
 19 29  4  0
 20 29  4  0
 21 23  1  0
 21 25  1  0
 27 29  4  0
M  END
$$$$

 Created by Python create_sdf_string function

 29 32  0  0  0  0  0  0  0  0999 V2000
    5.4450    8.7154   22.6662 C   0  0  0  0  0  0  0  0  0  0  0  0
   10.9154    5.4574   20.5483 C   0  0  0  0  0  0  0  0  0  0  0  0
    7.2709    4.5089   22.7542 C   0  0  0  0  0  0  0  0  0  0  0  0
    5.9698    7.6329   24.6581 C   0  0  0  0  0  0  0  0  0  0  0  0
    4.5542    8.9057   21.7104 O   0  0  0  0  0  0  0  0  0  0  0  0
    6.9895    3.2085   23.0690 C   0  0  0  0  0  0  0  0  0  0  0  0
    7.8391    2.2253   22.7260 N   0  0  0  0  0  0  0  0  0  0  0  0
    8.6968    9.8373   23.6359 C   0  0  0  0  0  0  0  0  0  0  0  0
   12.5135    6.5957   21.8396 C   0  0  0  0  0  0  0  0  0  0  0  0
   10.9406    8.2330   21.1350 C   0  0  0  0  0  0  0  0  0  0  0  0
    9.6648    8.5956   21.7310 C   0  0  0  0  0  0  0  0  0  0  0  0
   10.8829    1.7153   20.9865 C   0  0  0  0  0  0  0  0  0  0  0  0
    5.7768    2.8533   23.7910 C   0  0  0  0  0  0  0  0  0  0  0  0
    9.7977    1.4791   21.6912 N   0  0  0  0  0  0  0  0  0  0  0  0
    6.5976    9.3401   22.6478 N   0  0  0  0  0  0  0  0  0  0  0  0
   11.2031    3.0042   20.6246 C   0  0  0  0  0  0  0  0  0  0  0  0
   12.8688    7.7370   22.7287 C   0  0  0  0  0  0  0  0  0  0  0  0
    7.4487    9.1361   23.6506 C   0  0  0  0  0  0  0  0  0  0  0  0
    8.9772    2.5025   22.0273 C   0  0  0  0  0  0  0  0  0  0  0  0
   10.4859    4.0901   20.9730 C   0  0  0  0  0  0  0  0  0  0  0  0
   11.0962    9.3293   23.5072 C   0  0  0  0  0  0  0  0  0  0  0  0
    5.1273    7.8529   23.6208 N   0  0  0  0  0  0  0  0  0  0  0  0
    9.7552    9.2338   23.0171 N   0  0  0  0  0  0  0  0  0  0  0  0
   11.1797    6.7591   21.3326 N   0  0  0  0  0  0  0  0  0  0  0  0
   11.7728    8.0337   23.7267 C   0  0  0  0  0  0  0  0  0  0  0  0
    7.1194    8.3344   24.6775 C   0  0  0  0  0  0  0  0  0  0  0  0
    8.4311    4.7963   22.0500 C   0  0  0  0  0  0  0  0  0  0  0  0
    8.7393   10.8706   24.1871 O   0  0  0  0  0  0  0  0  0  0  0  0
    9.3093    3.8166   21.6712 C   0  0  0  0  0  0  0  0  0  0  0  0
  1  5  1  0
  1 15  4  0
  1 22  4  0
  2 20  1  0
  2 24  1  0
  3  6  4  0
  3 27  4  0
  4 22  4  0
  4 26  4  0
  6  7  4  0
  6 13  1  0
  7 19  4  0
  8 18  1  0
  8 23  1  0
  8 28  2  0
  9 17  1  0
  9 24  1  0
 10 11  1  0
 10 24  1  0
 11 23  1  0
 12 14  4  0
 12 16  4  0
 14 19  4  0
 15 18  4  0
 16 20  4  0
 17 25  1  0
 18 26  4  0
 19 29  4  0
 20 29  4  0
 21 23  1  0
 21 25  1  0
 27 29  4  0
M  END
$$$$

 Created by Python create_sdf_string function

 29 32  0  0  0  0  0  0  0  0999 V2000
    5.4450    8.7154   22.6662 C   0  0  0  0  0  0  0  0  0  0  0  0
   10.9154    5.4574   20.5483 C   0  0  0  0  0  0  0  0  0  0  0  0
    7.2709    4.5089   22.7542 C   0  0  0  0  0  0  0  0  0  0  0  0
    5.9698    7.6329   24.6581 C   0  0  0  0  0  0  0  0  0  0  0  0
    4.5542    8.9057   21.7104 O   0  0  0  0  0  0  0  0  0  0  0  0
    6.9895    3.2085   23.0690 C   0  0  0  0  0  0  0  0  0  0  0  0
    7.8391    2.2253   22.7260 N   0  0  0  0  0  0  0  0  0  0  0  0
    8.6968    9.8373   23.6359 C   0  0  0  0  0  0  0  0  0  0  0  0
   12.5135    6.5957   21.8396 C   0  0  0  0  0  0  0  0  0  0  0  0
   10.9406    8.2330   21.1350 C   0  0  0  0  0  0  0  0  0  0  0  0
    9.6648    8.5956   21.7310 C   0  0  0  0  0  0  0  0  0  0  0  0
   10.8829    1.7153   20.9865 C   0  0  0  0  0  0  0  0  0  0  0  0
    5.7768    2.8533   23.7910 C   0  0  0  0  0  0  0  0  0  0  0  0
    9.7977    1.4791   21.6912 N   0  0  0  0  0  0  0  0  0  0  0  0
    6.5976    9.3401   22.6478 N   0  0  0  0  0  0  0  0  0  0  0  0
   11.2031    3.0042   20.6246 C   0  0  0  0  0  0  0  0  0  0  0  0
   12.8688    7.7370   22.7287 C   0  0  0  0  0  0  0  0  0  0  0  0
    7.4487    9.1361   23.6506 C   0  0  0  0  0  0  0  0  0  0  0  0
    8.9772    2.5025   22.0273 C   0  0  0  0  0  0  0  0  0  0  0  0
   10.4859    4.0901   20.9730 C   0  0  0  0  0  0  0  0  0  0  0  0
   11.0962    9.3293   23.5072 C   0  0  0  0  0  0  0  0  0  0  0  0
    5.1273    7.8529   23.6208 N   0  0  0  0  0  0  0  0  0  0  0  0
    9.7552    9.2338   23.0171 N   0  0  0  0  0  0  0  0  0  0  0  0
   11.1797    6.7591   21.3326 N   0  0  0  0  0  0  0  0  0  0  0  0
   11.7728    8.0337   23.7267 C   0  0  0  0  0  0  0  0  0  0  0  0
    7.1194    8.3344   24.6775 C   0  0  0  0  0  0  0  0  0  0  0  0
    8.4311    4.7963   22.0500 C   0  0  0  0  0  0  0  0  0  0  0  0
    8.7393   10.8706   24.1871 O   0  0  0  0  0  0  0  0  0  0  0  0
    9.3093    3.8166   21.6712 C   0  0  0  0  0  0  0  0  0  0  0  0
  1  5  1  0
  1 15  4  0
  1 22  4  0
  2 20  1  0
  2 24  1  0
  3  6  4  0
  3 27  4  0
  4 22  4  0
  4 26  4  0
  6  7  4  0
  6 13  1  0
  7 19  4  0
  8 18  1  0
  8 23  1  0
  8 28  2  0
  9 17  1  0
  9 24  1  0
 10 11  1  0
 10 24  1  0
 11 23  1  0
 12 14  4  0
 12 16  4  0
 14 19  4  0
 15 18  4  0
 16 20  4  0
 17 25  1  0
 18 26  4  0
 19 29  4  0
 20 29  4  0
 21 23  1  0
 21 25  1  0
 27 29  4  0
M  END
$$$$

 Created by Python create_sdf_string function

 29 32  0  0  0  0  0  0  0  0999 V2000
    5.4450    8.7154   22.6662 C   0  0  0  0  0  0  0  0  0  0  0  0
   10.9154    5.4574   20.5483 C   0  0  0  0  0  0  0  0  0  0  0  0
    7.2709    4.5089   22.7542 C   0  0  0  0  0  0  0  0  0  0  0  0
    5.9698    7.6329   24.6581 C   0  0  0  0  0  0  0  0  0  0  0  0
    4.5542    8.9057   21.7104 O   0  0  0  0  0  0  0  0  0  0  0  0
    6.9895    3.2085   23.0690 C   0  0  0  0  0  0  0  0  0  0  0  0
    7.8391    2.2253   22.7260 N   0  0  0  0  0  0  0  0  0  0  0  0
    8.6968    9.8373   23.6359 C   0  0  0  0  0  0  0  0  0  0  0  0
   12.5135    6.5957   21.8396 C   0  0  0  0  0  0  0  0  0  0  0  0
   10.9406    8.2330   21.1350 C   0  0  0  0  0  0  0  0  0  0  0  0
    9.6648    8.5956   21.7310 C   0  0  0  0  0  0  0  0  0  0  0  0
   10.8829    1.7153   20.9865 C   0  0  0  0  0  0  0  0  0  0  0  0
    5.7768    2.8533   23.7910 C   0  0  0  0  0  0  0  0  0  0  0  0
    9.7977    1.4791   21.6912 N   0  0  0  0  0  0  0  0  0  0  0  0
    6.5976    9.3401   22.6478 N   0  0  0  0  0  0  0  0  0  0  0  0
   11.2031    3.0042   20.6246 C   0  0  0  0  0  0  0  0  0  0  0  0
   12.8688    7.7370   22.7287 C   0  0  0  0  0  0  0  0  0  0  0  0
    7.4487    9.1361   23.6506 C   0  0  0  0  0  0  0  0  0  0  0  0
    8.9772    2.5025   22.0273 C   0  0  0  0  0  0  0  0  0  0  0  0
   10.4859    4.0901   20.9730 C   0  0  0  0  0  0  0  0  0  0  0  0
   11.0962    9.3293   23.5072 C   0  0  0  0  0  0  0  0  0  0  0  0
    5.1273    7.8529   23.6208 N   0  0  0  0  0  0  0  0  0  0  0  0
    9.7552    9.2338   23.0171 N   0  0  0  0  0  0  0  0  0  0  0  0
   11.1797    6.7591   21.3326 N   0  0  0  0  0  0  0  0  0  0  0  0
   11.7728    8.0337   23.7267 C   0  0  0  0  0  0  0  0  0  0  0  0
    7.1194    8.3344   24.6775 C   0  0  0  0  0  0  0  0  0  0  0  0
    8.4311    4.7963   22.0500 C   0  0  0  0  0  0  0  0  0  0  0  0
    8.7393   10.8706   24.1871 O   0  0  0  0  0  0  0  0  0  0  0  0
    9.3093    3.8166   21.6712 C   0  0  0  0  0  0  0  0  0  0  0  0
  1  5  1  0
  1 15  4  0
  1 22  4  0
  2 20  1  0
  2 24  1  0
  3  6  4  0
  3 27  4  0
  4 22  4  0
  4 26  4  0
  6  7  4  0
  6 13  1  0
  7 19  4  0
  8 18  1  0
  8 23  1  0
  8 28  2  0
  9 17  1  0
  9 24  1  0
 10 11  1  0
 10 24  1  0
 11 23  1  0
 12 14  4  0
 12 16  4  0
 14 19  4  0
 15 18  4  0
 16 20  4  0
 17 25  1  0
 18 26  4  0
 19 29  4  0
 20 29  4  0
 21 23  1  0
 21 25  1  0
 27 29  4  0
M  END
$$$$

 Created by Python create_sdf_string function

 29 32  0  0  0  0  0  0  0  0999 V2000
    5.4450    8.7154   22.6662 C   0  0  0  0  0  0  0  0  0  0  0  0
   10.9154    5.4574   20.5483 C   0  0  0  0  0  0  0  0  0  0  0  0
    7.2709    4.5089   22.7542 C   0  0  0  0  0  0  0  0  0  0  0  0
    5.9698    7.6329   24.6581 C   0  0  0  0  0  0  0  0  0  0  0  0
    4.5542    8.9057   21.7104 O   0  0  0  0  0  0  0  0  0  0  0  0
    6.9895    3.2085   23.0690 C   0  0  0  0  0  0  0  0  0  0  0  0
    7.8391    2.2253   22.7260 N   0  0  0  0  0  0  0  0  0  0  0  0
    8.6968    9.8373   23.6359 C   0  0  0  0  0  0  0  0  0  0  0  0
   12.5135    6.5957   21.8396 C   0  0  0  0  0  0  0  0  0  0  0  0
   10.9406    8.2330   21.1350 C   0  0  0  0  0  0  0  0  0  0  0  0
    9.6648    8.5956   21.7310 C   0  0  0  0  0  0  0  0  0  0  0  0
   10.8829    1.7153   20.9865 C   0  0  0  0  0  0  0  0  0  0  0  0
    5.7768    2.8533   23.7910 C   0  0  0  0  0  0  0  0  0  0  0  0
    9.7977    1.4791   21.6912 N   0  0  0  0  0  0  0  0  0  0  0  0
    6.5976    9.3401   22.6478 N   0  0  0  0  0  0  0  0  0  0  0  0
   11.2031    3.0042   20.6246 C   0  0  0  0  0  0  0  0  0  0  0  0
   12.8688    7.7370   22.7287 C   0  0  0  0  0  0  0  0  0  0  0  0
    7.4487    9.1361   23.6506 C   0  0  0  0  0  0  0  0  0  0  0  0
    8.9772    2.5025   22.0273 C   0  0  0  0  0  0  0  0  0  0  0  0
   10.4859    4.0901   20.9730 C   0  0  0  0  0  0  0  0  0  0  0  0
   11.0962    9.3293   23.5072 C   0  0  0  0  0  0  0  0  0  0  0  0
    5.1273    7.8529   23.6208 N   0  0  0  0  0  0  0  0  0  0  0  0
    9.7552    9.2338   23.0171 N   0  0  0  0  0  0  0  0  0  0  0  0
   11.1797    6.7591   21.3326 N   0  0  0  0  0  0  0  0  0  0  0  0
   11.7728    8.0337   23.7267 C   0  0  0  0  0  0  0  0  0  0  0  0
    7.1194    8.3344   24.6775 C   0  0  0  0  0  0  0  0  0  0  0  0
    8.4311    4.7963   22.0500 C   0  0  0  0  0  0  0  0  0  0  0  0
    8.7393   10.8706   24.1871 O   0  0  0  0  0  0  0  0  0  0  0  0
    9.3093    3.8166   21.6712 C   0  0  0  0  0  0  0  0  0  0  0  0
  1  5  1  0
  1 15  4  0
  1 22  4  0
  2 20  1  0
  2 24  1  0
  3  6  4  0
  3 27  4  0
  4 22  4  0
  4 26  4  0
  6  7  4  0
  6 13  1  0
  7 19  4  0
  8 18  1  0
  8 23  1  0
  8 28  2  0
  9 17  1  0
  9 24  1  0
 10 11  1  0
 10 24  1  0
 11 23  1  0
 12 14  4  0
 12 16  4  0
 14 19  4  0
 15 18  4  0
 16 20  4  0
 17 25  1  0
 18 26  4  0
 19 29  4  0
 20 29  4  0
 21 23  1  0
 21 25  1  0
 27 29  4  0
M  END
$$$$

 Created by Python create_sdf_string function

 29 32  0  0  0  0  0  0  0  0999 V2000
    5.4450    8.7154   22.6662 C   0  0  0  0  0  0  0  0  0  0  0  0
   10.9154    5.4574   20.5483 C   0  0  0  0  0  0  0  0  0  0  0  0
    7.2709    4.5089   22.7542 C   0  0  0  0  0  0  0  0  0  0  0  0
    5.9698    7.6329   24.6581 C   0  0  0  0  0  0  0  0  0  0  0  0
    4.5542    8.9057   21.7104 O   0  0  0  0  0  0  0  0  0  0  0  0
    6.9895    3.2085   23.0690 C   0  0  0  0  0  0  0  0  0  0  0  0
    7.8391    2.2253   22.7260 N   0  0  0  0  0  0  0  0  0  0  0  0
    8.6968    9.8373   23.6359 C   0  0  0  0  0  0  0  0  0  0  0  0
   12.5135    6.5957   21.8396 C   0  0  0  0  0  0  0  0  0  0  0  0
   10.9406    8.2330   21.1350 C   0  0  0  0  0  0  0  0  0  0  0  0
    9.6648    8.5956   21.7310 C   0  0  0  0  0  0  0  0  0  0  0  0
   10.8829    1.7153   20.9865 C   0  0  0  0  0  0  0  0  0  0  0  0
    5.7768    2.8533   23.7910 C   0  0  0  0  0  0  0  0  0  0  0  0
    9.7977    1.4791   21.6912 N   0  0  0  0  0  0  0  0  0  0  0  0
    6.5976    9.3401   22.6478 N   0  0  0  0  0  0  0  0  0  0  0  0
   11.2031    3.0042   20.6246 C   0  0  0  0  0  0  0  0  0  0  0  0
   12.8688    7.7370   22.7287 C   0  0  0  0  0  0  0  0  0  0  0  0
    7.4487    9.1361   23.6506 C   0  0  0  0  0  0  0  0  0  0  0  0
    8.9772    2.5025   22.0273 C   0  0  0  0  0  0  0  0  0  0  0  0
   10.4859    4.0901   20.9730 C   0  0  0  0  0  0  0  0  0  0  0  0
   11.0962    9.3293   23.5072 C   0  0  0  0  0  0  0  0  0  0  0  0
    5.1273    7.8529   23.6208 N   0  0  0  0  0  0  0  0  0  0  0  0
    9.7552    9.2338   23.0171 N   0  0  0  0  0  0  0  0  0  0  0  0
   11.1797    6.7591   21.3326 N   0  0  0  0  0  0  0  0  0  0  0  0
   11.7728    8.0337   23.7267 C   0  0  0  0  0  0  0  0  0  0  0  0
    7.1194    8.3344   24.6775 C   0  0  0  0  0  0  0  0  0  0  0  0
    8.4311    4.7963   22.0500 C   0  0  0  0  0  0  0  0  0  0  0  0
    8.7393   10.8706   24.1871 O   0  0  0  0  0  0  0  0  0  0  0  0
    9.3093    3.8166   21.6712 C   0  0  0  0  0  0  0  0  0  0  0  0
  1  5  1  0
  1 15  4  0
  1 22  4  0
  2 20  1  0
  2 24  1  0
  3  6  4  0
  3 27  4  0
  4 22  4  0
  4 26  4  0
  6  7  4  0
  6 13  1  0
  7 19  4  0
  8 18  1  0
  8 23  1  0
  8 28  2  0
  9 17  1  0
  9 24  1  0
 10 11  1  0
 10 24  1  0
 11 23  1  0
 12 14  4  0
 12 16  4  0
 14 19  4  0
 15 18  4  0
 16 20  4  0
 17 25  1  0
 18 26  4  0
 19 29  4  0
 20 29  4  0
 21 23  1  0
 21 25  1  0
 27 29  4  0
M  END
$$$$

 Created by Python create_sdf_string function

 29 32  0  0  0  0  0  0  0  0999 V2000
    5.4450    8.7154   22.6662 C   0  0  0  0  0  0  0  0  0  0  0  0
   10.9154    5.4574   20.5483 C   0  0  0  0  0  0  0  0  0  0  0  0
    7.2709    4.5089   22.7542 C   0  0  0  0  0  0  0  0  0  0  0  0
    5.9698    7.6329   24.6581 C   0  0  0  0  0  0  0  0  0  0  0  0
    4.5542    8.9057   21.7104 O   0  0  0  0  0  0  0  0  0  0  0  0
    6.9895    3.2085   23.0690 C   0  0  0  0  0  0  0  0  0  0  0  0
    7.8391    2.2253   22.7260 N   0  0  0  0  0  0  0  0  0  0  0  0
    8.6968    9.8373   23.6359 C   0  0  0  0  0  0  0  0  0  0  0  0
   12.5135    6.5957   21.8396 C   0  0  0  0  0  0  0  0  0  0  0  0
   10.9406    8.2330   21.1350 C   0  0  0  0  0  0  0  0  0  0  0  0
    9.6648    8.5956   21.7310 C   0  0  0  0  0  0  0  0  0  0  0  0
   10.8829    1.7153   20.9865 C   0  0  0  0  0  0  0  0  0  0  0  0
    5.7768    2.8533   23.7910 C   0  0  0  0  0  0  0  0  0  0  0  0
    9.7977    1.4791   21.6912 N   0  0  0  0  0  0  0  0  0  0  0  0
    6.5976    9.3401   22.6478 N   0  0  0  0  0  0  0  0  0  0  0  0
   11.2031    3.0042   20.6246 C   0  0  0  0  0  0  0  0  0  0  0  0
   12.8688    7.7370   22.7287 C   0  0  0  0  0  0  0  0  0  0  0  0
    7.4487    9.1361   23.6506 C   0  0  0  0  0  0  0  0  0  0  0  0
    8.9772    2.5025   22.0273 C   0  0  0  0  0  0  0  0  0  0  0  0
   10.4859    4.0901   20.9730 C   0  0  0  0  0  0  0  0  0  0  0  0
   11.0962    9.3293   23.5072 C   0  0  0  0  0  0  0  0  0  0  0  0
    5.1273    7.8529   23.6208 N   0  0  0  0  0  0  0  0  0  0  0  0
    9.7552    9.2338   23.0171 N   0  0  0  0  0  0  0  0  0  0  0  0
   11.1797    6.7591   21.3326 N   0  0  0  0  0  0  0  0  0  0  0  0
   11.7728    8.0337   23.7267 C   0  0  0  0  0  0  0  0  0  0  0  0
    7.1194    8.3344   24.6775 C   0  0  0  0  0  0  0  0  0  0  0  0
    8.4311    4.7963   22.0500 C   0  0  0  0  0  0  0  0  0  0  0  0
    8.7393   10.8706   24.1871 O   0  0  0  0  0  0  0  0  0  0  0  0
    9.3093    3.8166   21.6712 C   0  0  0  0  0  0  0  0  0  0  0  0
  1  5  1  0
  1 15  4  0
  1 22  4  0
  2 20  1  0
  2 24  1  0
  3  6  4  0
  3 27  4  0
  4 22  4  0
  4 26  4  0
  6  7  4  0
  6 13  1  0
  7 19  4  0
  8 18  1  0
  8 23  1  0
  8 28  2  0
  9 17  1  0
  9 24  1  0
 10 11  1  0
 10 24  1  0
 11 23  1  0
 12 14  4  0
 12 16  4  0
 14 19  4  0
 15 18  4  0
 16 20  4  0
 17 25  1  0
 18 26  4  0
 19 29  4  0
 20 29  4  0
 21 23  1  0
 21 25  1  0
 27 29  4  0
M  END
$$$$

 Created by Python create_sdf_string function

 29 32  0  0  0  0  0  0  0  0999 V2000
    5.4450    8.7154   22.6662 C   0  0  0  0  0  0  0  0  0  0  0  0
   10.9154    5.4574   20.5483 C   0  0  0  0  0  0  0  0  0  0  0  0
    7.2709    4.5089   22.7542 C   0  0  0  0  0  0  0  0  0  0  0  0
    5.9698    7.6329   24.6581 C   0  0  0  0  0  0  0  0  0  0  0  0
    4.5542    8.9057   21.7104 O   0  0  0  0  0  0  0  0  0  0  0  0
    6.9895    3.2085   23.0690 C   0  0  0  0  0  0  0  0  0  0  0  0
    7.8391    2.2253   22.7260 N   0  0  0  0  0  0  0  0  0  0  0  0
    8.6968    9.8373   23.6359 C   0  0  0  0  0  0  0  0  0  0  0  0
   12.5135    6.5957   21.8396 C   0  0  0  0  0  0  0  0  0  0  0  0
   10.9406    8.2330   21.1350 C   0  0  0  0  0  0  0  0  0  0  0  0
    9.6648    8.5956   21.7310 C   0  0  0  0  0  0  0  0  0  0  0  0
   10.8829    1.7153   20.9865 C   0  0  0  0  0  0  0  0  0  0  0  0
    5.7768    2.8533   23.7910 C   0  0  0  0  0  0  0  0  0  0  0  0
    9.7977    1.4791   21.6912 N   0  0  0  0  0  0  0  0  0  0  0  0
    6.5976    9.3401   22.6478 N   0  0  0  0  0  0  0  0  0  0  0  0
   11.2031    3.0042   20.6246 C   0  0  0  0  0  0  0  0  0  0  0  0
   12.8688    7.7370   22.7287 C   0  0  0  0  0  0  0  0  0  0  0  0
    7.4487    9.1361   23.6506 C   0  0  0  0  0  0  0  0  0  0  0  0
    8.9772    2.5025   22.0273 C   0  0  0  0  0  0  0  0  0  0  0  0
   10.4859    4.0901   20.9730 C   0  0  0  0  0  0  0  0  0  0  0  0
   11.0962    9.3293   23.5072 C   0  0  0  0  0  0  0  0  0  0  0  0
    5.1273    7.8529   23.6208 N   0  0  0  0  0  0  0  0  0  0  0  0
    9.7552    9.2338   23.0171 N   0  0  0  0  0  0  0  0  0  0  0  0
   11.1797    6.7591   21.3326 N   0  0  0  0  0  0  0  0  0  0  0  0
   11.7728    8.0337   23.7267 C   0  0  0  0  0  0  0  0  0  0  0  0
    7.1194    8.3344   24.6775 C   0  0  0  0  0  0  0  0  0  0  0  0
    8.4311    4.7963   22.0500 C   0  0  0  0  0  0  0  0  0  0  0  0
    8.7393   10.8706   24.1871 O   0  0  0  0  0  0  0  0  0  0  0  0
    9.3093    3.8166   21.6712 C   0  0  0  0  0  0  0  0  0  0  0  0
  1  5  1  0
  1 15  4  0
  1 22  4  0
  2 20  1  0
  2 24  1  0
  3  6  4  0
  3 27  4  0
  4 22  4  0
  4 26  4  0
  6  7  4  0
  6 13  1  0
  7 19  4  0
  8 18  1  0
  8 23  1  0
  8 28  2  0
  9 17  1  0
  9 24  1  0
 10 11  1  0
 10 24  1  0
 11 23  1  0
 12 14  4  0
 12 16  4  0
 14 19  4  0
 15 18  4  0
 16 20  4  0
 17 25  1  0
 18 26  4  0
 19 29  4  0
 20 29  4  0
 21 23  1  0
 21 25  1  0
 27 29  4  0
M  END
$$$$

 Created by Python create_sdf_string function

 29 32  0  0  0  0  0  0  0  0999 V2000
    5.4450    8.7154   22.6662 C   0  0  0  0  0  0  0  0  0  0  0  0
   10.9154    5.4574   20.5483 C   0  0  0  0  0  0  0  0  0  0  0  0
    7.2709    4.5089   22.7542 C   0  0  0  0  0  0  0  0  0  0  0  0
    5.9698    7.6329   24.6581 C   0  0  0  0  0  0  0  0  0  0  0  0
    4.5542    8.9057   21.7104 O   0  0  0  0  0  0  0  0  0  0  0  0
    6.9895    3.2085   23.0690 C   0  0  0  0  0  0  0  0  0  0  0  0
    7.8391    2.2253   22.7260 N   0  0  0  0  0  0  0  0  0  0  0  0
    8.6968    9.8373   23.6359 C   0  0  0  0  0  0  0  0  0  0  0  0
   12.5135    6.5957   21.8396 C   0  0  0  0  0  0  0  0  0  0  0  0
   10.9406    8.2330   21.1350 C   0  0  0  0  0  0  0  0  0  0  0  0
    9.6648    8.5956   21.7310 C   0  0  0  0  0  0  0  0  0  0  0  0
   10.8829    1.7153   20.9865 C   0  0  0  0  0  0  0  0  0  0  0  0
    5.7768    2.8533   23.7910 C   0  0  0  0  0  0  0  0  0  0  0  0
    9.7977    1.4791   21.6912 N   0  0  0  0  0  0  0  0  0  0  0  0
    6.5976    9.3401   22.6478 N   0  0  0  0  0  0  0  0  0  0  0  0
   11.2031    3.0042   20.6246 C   0  0  0  0  0  0  0  0  0  0  0  0
   12.8688    7.7370   22.7287 C   0  0  0  0  0  0  0  0  0  0  0  0
    7.4487    9.1361   23.6506 C   0  0  0  0  0  0  0  0  0  0  0  0
    8.9772    2.5025   22.0273 C   0  0  0  0  0  0  0  0  0  0  0  0
   10.4859    4.0901   20.9730 C   0  0  0  0  0  0  0  0  0  0  0  0
   11.0962    9.3293   23.5072 C   0  0  0  0  0  0  0  0  0  0  0  0
    5.1273    7.8529   23.6208 N   0  0  0  0  0  0  0  0  0  0  0  0
    9.7552    9.2338   23.0171 N   0  0  0  0  0  0  0  0  0  0  0  0
   11.1797    6.7591   21.3326 N   0  0  0  0  0  0  0  0  0  0  0  0
   11.7728    8.0337   23.7267 C   0  0  0  0  0  0  0  0  0  0  0  0
    7.1194    8.3344   24.6775 C   0  0  0  0  0  0  0  0  0  0  0  0
    8.4311    4.7963   22.0500 C   0  0  0  0  0  0  0  0  0  0  0  0
    8.7393   10.8706   24.1871 O   0  0  0  0  0  0  0  0  0  0  0  0
    9.3093    3.8166   21.6712 C   0  0  0  0  0  0  0  0  0  0  0  0
  1  5  1  0
  1 15  4  0
  1 22  4  0
  2 20  1  0
  2 24  1  0
  3  6  4  0
  3 27  4  0
  4 22  4  0
  4 26  4  0
  6  7  4  0
  6 13  1  0
  7 19  4  0
  8 18  1  0
  8 23  1  0
  8 28  2  0
  9 17  1  0
  9 24  1  0
 10 11  1  0
 10 24  1  0
 11 23  1  0
 12 14  4  0
 12 16  4  0
 14 19  4  0
 15 18  4  0
 16 20  4  0
 17 25  1  0
 18 26  4  0
 19 29  4  0
 20 29  4  0
 21 23  1  0
 21 25  1  0
 27 29  4  0
M  END
$$$$

 Created by Python create_sdf_string function

 29 32  0  0  0  0  0  0  0  0999 V2000
    5.4450    8.7154   22.6662 C   0  0  0  0  0  0  0  0  0  0  0  0
   10.9154    5.4574   20.5483 C   0  0  0  0  0  0  0  0  0  0  0  0
    7.2709    4.5089   22.7542 C   0  0  0  0  0  0  0  0  0  0  0  0
    5.9698    7.6329   24.6581 C   0  0  0  0  0  0  0  0  0  0  0  0
    4.5542    8.9057   21.7104 O   0  0  0  0  0  0  0  0  0  0  0  0
    6.9895    3.2085   23.0690 C   0  0  0  0  0  0  0  0  0  0  0  0
    7.8391    2.2253   22.7260 N   0  0  0  0  0  0  0  0  0  0  0  0
    8.6968    9.8373   23.6359 C   0  0  0  0  0  0  0  0  0  0  0  0
   12.5135    6.5957   21.8396 C   0  0  0  0  0  0  0  0  0  0  0  0
   10.9406    8.2330   21.1350 C   0  0  0  0  0  0  0  0  0  0  0  0
    9.6648    8.5956   21.7310 C   0  0  0  0  0  0  0  0  0  0  0  0
   10.8829    1.7153   20.9865 C   0  0  0  0  0  0  0  0  0  0  0  0
    5.7768    2.8533   23.7910 C   0  0  0  0  0  0  0  0  0  0  0  0
    9.7977    1.4791   21.6912 N   0  0  0  0  0  0  0  0  0  0  0  0
    6.5976    9.3401   22.6478 N   0  0  0  0  0  0  0  0  0  0  0  0
   11.2031    3.0042   20.6246 C   0  0  0  0  0  0  0  0  0  0  0  0
   12.8688    7.7370   22.7287 C   0  0  0  0  0  0  0  0  0  0  0  0
    7.4487    9.1361   23.6506 C   0  0  0  0  0  0  0  0  0  0  0  0
    8.9772    2.5025   22.0273 C   0  0  0  0  0  0  0  0  0  0  0  0
   10.4859    4.0901   20.9730 C   0  0  0  0  0  0  0  0  0  0  0  0
   11.0962    9.3293   23.5072 C   0  0  0  0  0  0  0  0  0  0  0  0
    5.1273    7.8529   23.6208 N   0  0  0  0  0  0  0  0  0  0  0  0
    9.7552    9.2338   23.0171 N   0  0  0  0  0  0  0  0  0  0  0  0
   11.1797    6.7591   21.3326 N   0  0  0  0  0  0  0  0  0  0  0  0
   11.7728    8.0337   23.7267 C   0  0  0  0  0  0  0  0  0  0  0  0
    7.1194    8.3344   24.6775 C   0  0  0  0  0  0  0  0  0  0  0  0
    8.4311    4.7963   22.0500 C   0  0  0  0  0  0  0  0  0  0  0  0
    8.7393   10.8706   24.1871 O   0  0  0  0  0  0  0  0  0  0  0  0
    9.3093    3.8166   21.6712 C   0  0  0  0  0  0  0  0  0  0  0  0
  1  5  1  0
  1 15  4  0
  1 22  4  0
  2 20  1  0
  2 24  1  0
  3  6  4  0
  3 27  4  0
  4 22  4  0
  4 26  4  0
  6  7  4  0
  6 13  1  0
  7 19  4  0
  8 18  1  0
  8 23  1  0
  8 28  2  0
  9 17  1  0
  9 24  1  0
 10 11  1  0
 10 24  1  0
 11 23  1  0
 12 14  4  0
 12 16  4  0
 14 19  4  0
 15 18  4  0
 16 20  4  0
 17 25  1  0
 18 26  4  0
 19 29  4  0
 20 29  4  0
 21 23  1  0
 21 25  1  0
 27 29  4  0
M  END
$$$$

 Created by Python create_sdf_string function

 29 32  0  0  0  0  0  0  0  0999 V2000
    5.4450    8.7154   22.6662 C   0  0  0  0  0  0  0  0  0  0  0  0
   10.9154    5.4574   20.5483 C   0  0  0  0  0  0  0  0  0  0  0  0
    7.2709    4.5089   22.7542 C   0  0  0  0  0  0  0  0  0  0  0  0
    5.9698    7.6329   24.6581 C   0  0  0  0  0  0  0  0  0  0  0  0
    4.5542    8.9057   21.7104 O   0  0  0  0  0  0  0  0  0  0  0  0
    6.9895    3.2085   23.0690 C   0  0  0  0  0  0  0  0  0  0  0  0
    7.8391    2.2253   22.7260 N   0  0  0  0  0  0  0  0  0  0  0  0
    8.6968    9.8373   23.6359 C   0  0  0  0  0  0  0  0  0  0  0  0
   12.5135    6.5957   21.8396 C   0  0  0  0  0  0  0  0  0  0  0  0
   10.9406    8.2330   21.1350 C   0  0  0  0  0  0  0  0  0  0  0  0
    9.6648    8.5956   21.7310 C   0  0  0  0  0  0  0  0  0  0  0  0
   10.8829    1.7153   20.9865 C   0  0  0  0  0  0  0  0  0  0  0  0
    5.7768    2.8533   23.7910 C   0  0  0  0  0  0  0  0  0  0  0  0
    9.7977    1.4791   21.6912 N   0  0  0  0  0  0  0  0  0  0  0  0
    6.5976    9.3401   22.6478 N   0  0  0  0  0  0  0  0  0  0  0  0
   11.2031    3.0042   20.6246 C   0  0  0  0  0  0  0  0  0  0  0  0
   12.8688    7.7370   22.7287 C   0  0  0  0  0  0  0  0  0  0  0  0
    7.4487    9.1361   23.6506 C   0  0  0  0  0  0  0  0  0  0  0  0
    8.9772    2.5025   22.0273 C   0  0  0  0  0  0  0  0  0  0  0  0
   10.4859    4.0901   20.9730 C   0  0  0  0  0  0  0  0  0  0  0  0
   11.0962    9.3293   23.5072 C   0  0  0  0  0  0  0  0  0  0  0  0
    5.1273    7.8529   23.6208 N   0  0  0  0  0  0  0  0  0  0  0  0
    9.7552    9.2338   23.0171 N   0  0  0  0  0  0  0  0  0  0  0  0
   11.1797    6.7591   21.3326 N   0  0  0  0  0  0  0  0  0  0  0  0
   11.7728    8.0337   23.7267 C   0  0  0  0  0  0  0  0  0  0  0  0
    7.1194    8.3344   24.6775 C   0  0  0  0  0  0  0  0  0  0  0  0
    8.4311    4.7963   22.0500 C   0  0  0  0  0  0  0  0  0  0  0  0
    8.7393   10.8706   24.1871 O   0  0  0  0  0  0  0  0  0  0  0  0
    9.3093    3.8166   21.6712 C   0  0  0  0  0  0  0  0  0  0  0  0
  1  5  1  0
  1 15  4  0
  1 22  4  0
  2 20  1  0
  2 24  1  0
  3  6  4  0
  3 27  4  0
  4 22  4  0
  4 26  4  0
  6  7  4  0
  6 13  1  0
  7 19  4  0
  8 18  1  0
  8 23  1  0
  8 28  2  0
  9 17  1  0
  9 24  1  0
 10 11  1  0
 10 24  1  0
 11 23  1  0
 12 14  4  0
 12 16  4  0
 14 19  4  0
 15 18  4  0
 16 20  4  0
 17 25  1  0
 18 26  4  0
 19 29  4  0
 20 29  4  0
 21 23  1  0
 21 25  1  0
 27 29  4  0
M  END
$$$$

 Created by Python create_sdf_string function

 29 32  0  0  0  0  0  0  0  0999 V2000
    5.4450    8.7154   22.6662 C   0  0  0  0  0  0  0  0  0  0  0  0
   10.9154    5.4574   20.5483 C   0  0  0  0  0  0  0  0  0  0  0  0
    7.2709    4.5089   22.7542 C   0  0  0  0  0  0  0  0  0  0  0  0
    5.9698    7.6329   24.6581 C   0  0  0  0  0  0  0  0  0  0  0  0
    4.5542    8.9057   21.7104 O   0  0  0  0  0  0  0  0  0  0  0  0
    6.9895    3.2085   23.0690 C   0  0  0  0  0  0  0  0  0  0  0  0
    7.8391    2.2253   22.7260 N   0  0  0  0  0  0  0  0  0  0  0  0
    8.6968    9.8373   23.6359 C   0  0  0  0  0  0  0  0  0  0  0  0
   12.5135    6.5957   21.8396 C   0  0  0  0  0  0  0  0  0  0  0  0
   10.9406    8.2330   21.1350 C   0  0  0  0  0  0  0  0  0  0  0  0
    9.6648    8.5956   21.7310 C   0  0  0  0  0  0  0  0  0  0  0  0
   10.8829    1.7153   20.9865 C   0  0  0  0  0  0  0  0  0  0  0  0
    5.7768    2.8533   23.7910 C   0  0  0  0  0  0  0  0  0  0  0  0
    9.7977    1.4791   21.6912 N   0  0  0  0  0  0  0  0  0  0  0  0
    6.5976    9.3401   22.6478 N   0  0  0  0  0  0  0  0  0  0  0  0
   11.2031    3.0042   20.6246 C   0  0  0  0  0  0  0  0  0  0  0  0
   12.8688    7.7370   22.7287 C   0  0  0  0  0  0  0  0  0  0  0  0
    7.4487    9.1361   23.6506 C   0  0  0  0  0  0  0  0  0  0  0  0
    8.9772    2.5025   22.0273 C   0  0  0  0  0  0  0  0  0  0  0  0
   10.4859    4.0901   20.9730 C   0  0  0  0  0  0  0  0  0  0  0  0
   11.0962    9.3293   23.5072 C   0  0  0  0  0  0  0  0  0  0  0  0
    5.1273    7.8529   23.6208 N   0  0  0  0  0  0  0  0  0  0  0  0
    9.7552    9.2338   23.0171 N   0  0  0  0  0  0  0  0  0  0  0  0
   11.1797    6.7591   21.3326 N   0  0  0  0  0  0  0  0  0  0  0  0
   11.7728    8.0337   23.7267 C   0  0  0  0  0  0  0  0  0  0  0  0
    7.1194    8.3344   24.6775 C   0  0  0  0  0  0  0  0  0  0  0  0
    8.4311    4.7963   22.0500 C   0  0  0  0  0  0  0  0  0  0  0  0
    8.7393   10.8706   24.1871 O   0  0  0  0  0  0  0  0  0  0  0  0
    9.3093    3.8166   21.6712 C   0  0  0  0  0  0  0  0  0  0  0  0
  1  5  1  0
  1 15  4  0
  1 22  4  0
  2 20  1  0
  2 24  1  0
  3  6  4  0
  3 27  4  0
  4 22  4  0
  4 26  4  0
  6  7  4  0
  6 13  1  0
  7 19  4  0
  8 18  1  0
  8 23  1  0
  8 28  2  0
  9 17  1  0
  9 24  1  0
 10 11  1  0
 10 24  1  0
 11 23  1  0
 12 14  4  0
 12 16  4  0
 14 19  4  0
 15 18  4  0
 16 20  4  0
 17 25  1  0
 18 26  4  0
 19 29  4  0
 20 29  4  0
 21 23  1  0
 21 25  1  0
 27 29  4  0
M  END
$$$$

 Created by Python create_sdf_string function

 29 32  0  0  0  0  0  0  0  0999 V2000
    5.4450    8.7154   22.6662 C   0  0  0  0  0  0  0  0  0  0  0  0
   10.9154    5.4574   20.5483 C   0  0  0  0  0  0  0  0  0  0  0  0
    7.2709    4.5089   22.7542 C   0  0  0  0  0  0  0  0  0  0  0  0
    5.9698    7.6329   24.6581 C   0  0  0  0  0  0  0  0  0  0  0  0
    4.5542    8.9057   21.7104 O   0  0  0  0  0  0  0  0  0  0  0  0
    6.9895    3.2085   23.0690 C   0  0  0  0  0  0  0  0  0  0  0  0
    7.8391    2.2253   22.7260 N   0  0  0  0  0  0  0  0  0  0  0  0
    8.6968    9.8373   23.6359 C   0  0  0  0  0  0  0  0  0  0  0  0
   12.5135    6.5957   21.8396 C   0  0  0  0  0  0  0  0  0  0  0  0
   10.9406    8.2330   21.1350 C   0  0  0  0  0  0  0  0  0  0  0  0
    9.6648    8.5956   21.7310 C   0  0  0  0  0  0  0  0  0  0  0  0
   10.8829    1.7153   20.9865 C   0  0  0  0  0  0  0  0  0  0  0  0
    5.7768    2.8533   23.7910 C   0  0  0  0  0  0  0  0  0  0  0  0
    9.7977    1.4791   21.6912 N   0  0  0  0  0  0  0  0  0  0  0  0
    6.5976    9.3401   22.6478 N   0  0  0  0  0  0  0  0  0  0  0  0
   11.2031    3.0042   20.6246 C   0  0  0  0  0  0  0  0  0  0  0  0
   12.8688    7.7370   22.7287 C   0  0  0  0  0  0  0  0  0  0  0  0
    7.4487    9.1361   23.6506 C   0  0  0  0  0  0  0  0  0  0  0  0
    8.9772    2.5025   22.0273 C   0  0  0  0  0  0  0  0  0  0  0  0
   10.4859    4.0901   20.9730 C   0  0  0  0  0  0  0  0  0  0  0  0
   11.0962    9.3293   23.5072 C   0  0  0  0  0  0  0  0  0  0  0  0
    5.1273    7.8529   23.6208 N   0  0  0  0  0  0  0  0  0  0  0  0
    9.7552    9.2338   23.0171 N   0  0  0  0  0  0  0  0  0  0  0  0
   11.1797    6.7591   21.3326 N   0  0  0  0  0  0  0  0  0  0  0  0
   11.7728    8.0337   23.7267 C   0  0  0  0  0  0  0  0  0  0  0  0
    7.1194    8.3344   24.6775 C   0  0  0  0  0  0  0  0  0  0  0  0
    8.4311    4.7963   22.0500 C   0  0  0  0  0  0  0  0  0  0  0  0
    8.7393   10.8706   24.1871 O   0  0  0  0  0  0  0  0  0  0  0  0
    9.3093    3.8166   21.6712 C   0  0  0  0  0  0  0  0  0  0  0  0
  1  5  1  0
  1 15  4  0
  1 22  4  0
  2 20  1  0
  2 24  1  0
  3  6  4  0
  3 27  4  0
  4 22  4  0
  4 26  4  0
  6  7  4  0
  6 13  1  0
  7 19  4  0
  8 18  1  0
  8 23  1  0
  8 28  2  0
  9 17  1  0
  9 24  1  0
 10 11  1  0
 10 24  1  0
 11 23  1  0
 12 14  4  0
 12 16  4  0
 14 19  4  0
 15 18  4  0
 16 20  4  0
 17 25  1  0
 18 26  4  0
 19 29  4  0
 20 29  4  0
 21 23  1  0
 21 25  1  0
 27 29  4  0
M  END
$$$$

 Created by Python create_sdf_string function

 29 32  0  0  0  0  0  0  0  0999 V2000
    5.4450    8.7154   22.6662 C   0  0  0  0  0  0  0  0  0  0  0  0
   10.9154    5.4574   20.5483 C   0  0  0  0  0  0  0  0  0  0  0  0
    7.2709    4.5089   22.7542 C   0  0  0  0  0  0  0  0  0  0  0  0
    5.9698    7.6329   24.6581 C   0  0  0  0  0  0  0  0  0  0  0  0
    4.5542    8.9057   21.7104 O   0  0  0  0  0  0  0  0  0  0  0  0
    6.9895    3.2085   23.0690 C   0  0  0  0  0  0  0  0  0  0  0  0
    7.8391    2.2253   22.7260 N   0  0  0  0  0  0  0  0  0  0  0  0
    8.6968    9.8373   23.6359 C   0  0  0  0  0  0  0  0  0  0  0  0
   12.5135    6.5957   21.8396 C   0  0  0  0  0  0  0  0  0  0  0  0
   10.9406    8.2330   21.1350 C   0  0  0  0  0  0  0  0  0  0  0  0
    9.6648    8.5956   21.7310 C   0  0  0  0  0  0  0  0  0  0  0  0
   10.8829    1.7153   20.9865 C   0  0  0  0  0  0  0  0  0  0  0  0
    5.7768    2.8533   23.7910 C   0  0  0  0  0  0  0  0  0  0  0  0
    9.7977    1.4791   21.6912 N   0  0  0  0  0  0  0  0  0  0  0  0
    6.5976    9.3401   22.6478 N   0  0  0  0  0  0  0  0  0  0  0  0
   11.2031    3.0042   20.6246 C   0  0  0  0  0  0  0  0  0  0  0  0
   12.8688    7.7370   22.7287 C   0  0  0  0  0  0  0  0  0  0  0  0
    7.4487    9.1361   23.6506 C   0  0  0  0  0  0  0  0  0  0  0  0
    8.9772    2.5025   22.0273 C   0  0  0  0  0  0  0  0  0  0  0  0
   10.4859    4.0901   20.9730 C   0  0  0  0  0  0  0  0  0  0  0  0
   11.0962    9.3293   23.5072 C   0  0  0  0  0  0  0  0  0  0  0  0
    5.1273    7.8529   23.6208 N   0  0  0  0  0  0  0  0  0  0  0  0
    9.7552    9.2338   23.0171 N   0  0  0  0  0  0  0  0  0  0  0  0
   11.1797    6.7591   21.3326 N   0  0  0  0  0  0  0  0  0  0  0  0
   11.7728    8.0337   23.7267 C   0  0  0  0  0  0  0  0  0  0  0  0
    7.1194    8.3344   24.6775 C   0  0  0  0  0  0  0  0  0  0  0  0
    8.4311    4.7963   22.0500 C   0  0  0  0  0  0  0  0  0  0  0  0
    8.7393   10.8706   24.1871 O   0  0  0  0  0  0  0  0  0  0  0  0
    9.3093    3.8166   21.6712 C   0  0  0  0  0  0  0  0  0  0  0  0
  1  5  1  0
  1 15  4  0
  1 22  4  0
  2 20  1  0
  2 24  1  0
  3  6  4  0
  3 27  4  0
  4 22  4  0
  4 26  4  0
  6  7  4  0
  6 13  1  0
  7 19  4  0
  8 18  1  0
  8 23  1  0
  8 28  2  0
  9 17  1  0
  9 24  1  0
 10 11  1  0
 10 24  1  0
 11 23  1  0
 12 14  4  0
 12 16  4  0
 14 19  4  0
 15 18  4  0
 16 20  4  0
 17 25  1  0
 18 26  4  0
 19 29  4  0
 20 29  4  0
 21 23  1  0
 21 25  1  0
 27 29  4  0
M  END
$$$$

 Created by Python create_sdf_string function

 29 32  0  0  0  0  0  0  0  0999 V2000
    5.4450    8.7154   22.6662 C   0  0  0  0  0  0  0  0  0  0  0  0
   10.9154    5.4574   20.5483 C   0  0  0  0  0  0  0  0  0  0  0  0
    7.2709    4.5089   22.7542 C   0  0  0  0  0  0  0  0  0  0  0  0
    5.9698    7.6329   24.6581 C   0  0  0  0  0  0  0  0  0  0  0  0
    4.5542    8.9057   21.7104 O   0  0  0  0  0  0  0  0  0  0  0  0
    6.9895    3.2085   23.0690 C   0  0  0  0  0  0  0  0  0  0  0  0
    7.8391    2.2253   22.7260 N   0  0  0  0  0  0  0  0  0  0  0  0
    8.6968    9.8373   23.6359 C   0  0  0  0  0  0  0  0  0  0  0  0
   12.5135    6.5957   21.8396 C   0  0  0  0  0  0  0  0  0  0  0  0
   10.9406    8.2330   21.1350 C   0  0  0  0  0  0  0  0  0  0  0  0
    9.6648    8.5956   21.7310 C   0  0  0  0  0  0  0  0  0  0  0  0
   10.8829    1.7153   20.9865 C   0  0  0  0  0  0  0  0  0  0  0  0
    5.7768    2.8533   23.7910 C   0  0  0  0  0  0  0  0  0  0  0  0
    9.7977    1.4791   21.6912 N   0  0  0  0  0  0  0  0  0  0  0  0
    6.5976    9.3401   22.6478 N   0  0  0  0  0  0  0  0  0  0  0  0
   11.2031    3.0042   20.6246 C   0  0  0  0  0  0  0  0  0  0  0  0
   12.8688    7.7370   22.7287 C   0  0  0  0  0  0  0  0  0  0  0  0
    7.4487    9.1361   23.6506 C   0  0  0  0  0  0  0  0  0  0  0  0
    8.9772    2.5025   22.0273 C   0  0  0  0  0  0  0  0  0  0  0  0
   10.4859    4.0901   20.9730 C   0  0  0  0  0  0  0  0  0  0  0  0
   11.0962    9.3293   23.5072 C   0  0  0  0  0  0  0  0  0  0  0  0
    5.1273    7.8529   23.6208 N   0  0  0  0  0  0  0  0  0  0  0  0
    9.7552    9.2338   23.0171 N   0  0  0  0  0  0  0  0  0  0  0  0
   11.1797    6.7591   21.3326 N   0  0  0  0  0  0  0  0  0  0  0  0
   11.7728    8.0337   23.7267 C   0  0  0  0  0  0  0  0  0  0  0  0
    7.1194    8.3344   24.6775 C   0  0  0  0  0  0  0  0  0  0  0  0
    8.4311    4.7963   22.0500 C   0  0  0  0  0  0  0  0  0  0  0  0
    8.7393   10.8706   24.1871 O   0  0  0  0  0  0  0  0  0  0  0  0
    9.3093    3.8166   21.6712 C   0  0  0  0  0  0  0  0  0  0  0  0
  1  5  1  0
  1 15  4  0
  1 22  4  0
  2 20  1  0
  2 24  1  0
  3  6  4  0
  3 27  4  0
  4 22  4  0
  4 26  4  0
  6  7  4  0
  6 13  1  0
  7 19  4  0
  8 18  1  0
  8 23  1  0
  8 28  2  0
  9 17  1  0
  9 24  1  0
 10 11  1  0
 10 24  1  0
 11 23  1  0
 12 14  4  0
 12 16  4  0
 14 19  4  0
 15 18  4  0
 16 20  4  0
 17 25  1  0
 18 26  4  0
 19 29  4  0
 20 29  4  0
 21 23  1  0
 21 25  1  0
 27 29  4  0
M  END
$$$$

 Created by Python create_sdf_string function

 29 32  0  0  0  0  0  0  0  0999 V2000
    5.4450    8.7154   22.6662 C   0  0  0  0  0  0  0  0  0  0  0  0
   10.9154    5.4574   20.5483 C   0  0  0  0  0  0  0  0  0  0  0  0
    7.2709    4.5089   22.7542 C   0  0  0  0  0  0  0  0  0  0  0  0
    5.9698    7.6329   24.6581 C   0  0  0  0  0  0  0  0  0  0  0  0
    4.5542    8.9057   21.7104 O   0  0  0  0  0  0  0  0  0  0  0  0
    6.9895    3.2085   23.0690 C   0  0  0  0  0  0  0  0  0  0  0  0
    7.8391    2.2253   22.7260 N   0  0  0  0  0  0  0  0  0  0  0  0
    8.6968    9.8373   23.6359 C   0  0  0  0  0  0  0  0  0  0  0  0
   12.5135    6.5957   21.8396 C   0  0  0  0  0  0  0  0  0  0  0  0
   10.9406    8.2330   21.1350 C   0  0  0  0  0  0  0  0  0  0  0  0
    9.6648    8.5956   21.7310 C   0  0  0  0  0  0  0  0  0  0  0  0
   10.8829    1.7153   20.9865 C   0  0  0  0  0  0  0  0  0  0  0  0
    5.7768    2.8533   23.7910 C   0  0  0  0  0  0  0  0  0  0  0  0
    9.7977    1.4791   21.6912 N   0  0  0  0  0  0  0  0  0  0  0  0
    6.5976    9.3401   22.6478 N   0  0  0  0  0  0  0  0  0  0  0  0
   11.2031    3.0042   20.6246 C   0  0  0  0  0  0  0  0  0  0  0  0
   12.8688    7.7370   22.7287 C   0  0  0  0  0  0  0  0  0  0  0  0
    7.4487    9.1361   23.6506 C   0  0  0  0  0  0  0  0  0  0  0  0
    8.9772    2.5025   22.0273 C   0  0  0  0  0  0  0  0  0  0  0  0
   10.4859    4.0901   20.9730 C   0  0  0  0  0  0  0  0  0  0  0  0
   11.0962    9.3293   23.5072 C   0  0  0  0  0  0  0  0  0  0  0  0
    5.1273    7.8529   23.6208 N   0  0  0  0  0  0  0  0  0  0  0  0
    9.7552    9.2338   23.0171 N   0  0  0  0  0  0  0  0  0  0  0  0
   11.1797    6.7591   21.3326 N   0  0  0  0  0  0  0  0  0  0  0  0
   11.7728    8.0337   23.7267 C   0  0  0  0  0  0  0  0  0  0  0  0
    7.1194    8.3344   24.6775 C   0  0  0  0  0  0  0  0  0  0  0  0
    8.4311    4.7963   22.0500 C   0  0  0  0  0  0  0  0  0  0  0  0
    8.7393   10.8706   24.1871 O   0  0  0  0  0  0  0  0  0  0  0  0
    9.3093    3.8166   21.6712 C   0  0  0  0  0  0  0  0  0  0  0  0
  1  5  1  0
  1 15  4  0
  1 22  4  0
  2 20  1  0
  2 24  1  0
  3  6  4  0
  3 27  4  0
  4 22  4  0
  4 26  4  0
  6  7  4  0
  6 13  1  0
  7 19  4  0
  8 18  1  0
  8 23  1  0
  8 28  2  0
  9 17  1  0
  9 24  1  0
 10 11  1  0
 10 24  1  0
 11 23  1  0
 12 14  4  0
 12 16  4  0
 14 19  4  0
 15 18  4  0
 16 20  4  0
 17 25  1  0
 18 26  4  0
 19 29  4  0
 20 29  4  0
 21 23  1  0
 21 25  1  0
 27 29  4  0
M  END
$$$$

 Created by Python create_sdf_string function

 29 32  0  0  0  0  0  0  0  0999 V2000
    5.4450    8.7154   22.6662 C   0  0  0  0  0  0  0  0  0  0  0  0
   10.9154    5.4574   20.5483 C   0  0  0  0  0  0  0  0  0  0  0  0
    7.2709    4.5089   22.7542 C   0  0  0  0  0  0  0  0  0  0  0  0
    5.9698    7.6329   24.6581 C   0  0  0  0  0  0  0  0  0  0  0  0
    4.5542    8.9057   21.7104 O   0  0  0  0  0  0  0  0  0  0  0  0
    6.9895    3.2085   23.0690 C   0  0  0  0  0  0  0  0  0  0  0  0
    7.8391    2.2253   22.7260 N   0  0  0  0  0  0  0  0  0  0  0  0
    8.6968    9.8373   23.6359 C   0  0  0  0  0  0  0  0  0  0  0  0
   12.5135    6.5957   21.8396 C   0  0  0  0  0  0  0  0  0  0  0  0
   10.9406    8.2330   21.1350 C   0  0  0  0  0  0  0  0  0  0  0  0
    9.6648    8.5956   21.7310 C   0  0  0  0  0  0  0  0  0  0  0  0
   10.8829    1.7153   20.9865 C   0  0  0  0  0  0  0  0  0  0  0  0
    5.7768    2.8533   23.7910 C   0  0  0  0  0  0  0  0  0  0  0  0
    9.7977    1.4791   21.6912 N   0  0  0  0  0  0  0  0  0  0  0  0
    6.5976    9.3401   22.6478 N   0  0  0  0  0  0  0  0  0  0  0  0
   11.2031    3.0042   20.6246 C   0  0  0  0  0  0  0  0  0  0  0  0
   12.8688    7.7370   22.7287 C   0  0  0  0  0  0  0  0  0  0  0  0
    7.4487    9.1361   23.6506 C   0  0  0  0  0  0  0  0  0  0  0  0
    8.9772    2.5025   22.0273 C   0  0  0  0  0  0  0  0  0  0  0  0
   10.4859    4.0901   20.9730 C   0  0  0  0  0  0  0  0  0  0  0  0
   11.0962    9.3293   23.5072 C   0  0  0  0  0  0  0  0  0  0  0  0
    5.1273    7.8529   23.6208 N   0  0  0  0  0  0  0  0  0  0  0  0
    9.7552    9.2338   23.0171 N   0  0  0  0  0  0  0  0  0  0  0  0
   11.1797    6.7591   21.3326 N   0  0  0  0  0  0  0  0  0  0  0  0
   11.7728    8.0337   23.7267 C   0  0  0  0  0  0  0  0  0  0  0  0
    7.1194    8.3344   24.6775 C   0  0  0  0  0  0  0  0  0  0  0  0
    8.4311    4.7963   22.0500 C   0  0  0  0  0  0  0  0  0  0  0  0
    8.7393   10.8706   24.1871 O   0  0  0  0  0  0  0  0  0  0  0  0
    9.3093    3.8166   21.6712 C   0  0  0  0  0  0  0  0  0  0  0  0
  1  5  1  0
  1 15  4  0
  1 22  4  0
  2 20  1  0
  2 24  1  0
  3  6  4  0
  3 27  4  0
  4 22  4  0
  4 26  4  0
  6  7  4  0
  6 13  1  0
  7 19  4  0
  8 18  1  0
  8 23  1  0
  8 28  2  0
  9 17  1  0
  9 24  1  0
 10 11  1  0
 10 24  1  0
 11 23  1  0
 12 14  4  0
 12 16  4  0
 14 19  4  0
 15 18  4  0
 16 20  4  0
 17 25  1  0
 18 26  4  0
 19 29  4  0
 20 29  4  0
 21 23  1  0
 21 25  1  0
 27 29  4  0
M  END
$$$$

 Created by Python create_sdf_string function

 29 32  0  0  0  0  0  0  0  0999 V2000
    5.4450    8.7154   22.6662 C   0  0  0  0  0  0  0  0  0  0  0  0
   10.9154    5.4574   20.5483 C   0  0  0  0  0  0  0  0  0  0  0  0
    7.2709    4.5089   22.7542 C   0  0  0  0  0  0  0  0  0  0  0  0
    5.9698    7.6329   24.6581 C   0  0  0  0  0  0  0  0  0  0  0  0
    4.5542    8.9057   21.7104 O   0  0  0  0  0  0  0  0  0  0  0  0
    6.9895    3.2085   23.0690 C   0  0  0  0  0  0  0  0  0  0  0  0
    7.8391    2.2253   22.7260 N   0  0  0  0  0  0  0  0  0  0  0  0
    8.6968    9.8373   23.6359 C   0  0  0  0  0  0  0  0  0  0  0  0
   12.5135    6.5957   21.8396 C   0  0  0  0  0  0  0  0  0  0  0  0
   10.9406    8.2330   21.1350 C   0  0  0  0  0  0  0  0  0  0  0  0
    9.6648    8.5956   21.7310 C   0  0  0  0  0  0  0  0  0  0  0  0
   10.8829    1.7153   20.9865 C   0  0  0  0  0  0  0  0  0  0  0  0
    5.7768    2.8533   23.7910 C   0  0  0  0  0  0  0  0  0  0  0  0
    9.7977    1.4791   21.6912 N   0  0  0  0  0  0  0  0  0  0  0  0
    6.5976    9.3401   22.6478 N   0  0  0  0  0  0  0  0  0  0  0  0
   11.2031    3.0042   20.6246 C   0  0  0  0  0  0  0  0  0  0  0  0
   12.8688    7.7370   22.7287 C   0  0  0  0  0  0  0  0  0  0  0  0
    7.4487    9.1361   23.6506 C   0  0  0  0  0  0  0  0  0  0  0  0
    8.9772    2.5025   22.0273 C   0  0  0  0  0  0  0  0  0  0  0  0
   10.4859    4.0901   20.9730 C   0  0  0  0  0  0  0  0  0  0  0  0
   11.0962    9.3293   23.5072 C   0  0  0  0  0  0  0  0  0  0  0  0
    5.1273    7.8529   23.6208 N   0  0  0  0  0  0  0  0  0  0  0  0
    9.7552    9.2338   23.0171 N   0  0  0  0  0  0  0  0  0  0  0  0
   11.1797    6.7591   21.3326 N   0  0  0  0  0  0  0  0  0  0  0  0
   11.7728    8.0337   23.7267 C   0  0  0  0  0  0  0  0  0  0  0  0
    7.1194    8.3344   24.6775 C   0  0  0  0  0  0  0  0  0  0  0  0
    8.4311    4.7963   22.0500 C   0  0  0  0  0  0  0  0  0  0  0  0
    8.7393   10.8706   24.1871 O   0  0  0  0  0  0  0  0  0  0  0  0
    9.3093    3.8166   21.6712 C   0  0  0  0  0  0  0  0  0  0  0  0
  1  5  1  0
  1 15  4  0
  1 22  4  0
  2 20  1  0
  2 24  1  0
  3  6  4  0
  3 27  4  0
  4 22  4  0
  4 26  4  0
  6  7  4  0
  6 13  1  0
  7 19  4  0
  8 18  1  0
  8 23  1  0
  8 28  2  0
  9 17  1  0
  9 24  1  0
 10 11  1  0
 10 24  1  0
 11 23  1  0
 12 14  4  0
 12 16  4  0
 14 19  4  0
 15 18  4  0
 16 20  4  0
 17 25  1  0
 18 26  4  0
 19 29  4  0
 20 29  4  0
 21 23  1  0
 21 25  1  0
 27 29  4  0
M  END
$$$$

 Created by Python create_sdf_string function

 29 32  0  0  0  0  0  0  0  0999 V2000
    5.4450    8.7154   22.6662 C   0  0  0  0  0  0  0  0  0  0  0  0
   10.9154    5.4574   20.5483 C   0  0  0  0  0  0  0  0  0  0  0  0
    7.2709    4.5089   22.7542 C   0  0  0  0  0  0  0  0  0  0  0  0
    5.9698    7.6329   24.6581 C   0  0  0  0  0  0  0  0  0  0  0  0
    4.5542    8.9057   21.7104 O   0  0  0  0  0  0  0  0  0  0  0  0
    6.9895    3.2085   23.0690 C   0  0  0  0  0  0  0  0  0  0  0  0
    7.8391    2.2253   22.7260 N   0  0  0  0  0  0  0  0  0  0  0  0
    8.6968    9.8373   23.6359 C   0  0  0  0  0  0  0  0  0  0  0  0
   12.5135    6.5957   21.8396 C   0  0  0  0  0  0  0  0  0  0  0  0
   10.9406    8.2330   21.1350 C   0  0  0  0  0  0  0  0  0  0  0  0
    9.6648    8.5956   21.7310 C   0  0  0  0  0  0  0  0  0  0  0  0
   10.8829    1.7153   20.9865 C   0  0  0  0  0  0  0  0  0  0  0  0
    5.7768    2.8533   23.7910 C   0  0  0  0  0  0  0  0  0  0  0  0
    9.7977    1.4791   21.6912 N   0  0  0  0  0  0  0  0  0  0  0  0
    6.5976    9.3401   22.6478 N   0  0  0  0  0  0  0  0  0  0  0  0
   11.2031    3.0042   20.6246 C   0  0  0  0  0  0  0  0  0  0  0  0
   12.8688    7.7370   22.7287 C   0  0  0  0  0  0  0  0  0  0  0  0
    7.4487    9.1361   23.6506 C   0  0  0  0  0  0  0  0  0  0  0  0
    8.9772    2.5025   22.0273 C   0  0  0  0  0  0  0  0  0  0  0  0
   10.4859    4.0901   20.9730 C   0  0  0  0  0  0  0  0  0  0  0  0
   11.0962    9.3293   23.5072 C   0  0  0  0  0  0  0  0  0  0  0  0
    5.1273    7.8529   23.6208 N   0  0  0  0  0  0  0  0  0  0  0  0
    9.7552    9.2338   23.0171 N   0  0  0  0  0  0  0  0  0  0  0  0
   11.1797    6.7591   21.3326 N   0  0  0  0  0  0  0  0  0  0  0  0
   11.7728    8.0337   23.7267 C   0  0  0  0  0  0  0  0  0  0  0  0
    7.1194    8.3344   24.6775 C   0  0  0  0  0  0  0  0  0  0  0  0
    8.4311    4.7963   22.0500 C   0  0  0  0  0  0  0  0  0  0  0  0
    8.7393   10.8706   24.1871 O   0  0  0  0  0  0  0  0  0  0  0  0
    9.3093    3.8166   21.6712 C   0  0  0  0  0  0  0  0  0  0  0  0
  1  5  1  0
  1 15  4  0
  1 22  4  0
  2 20  1  0
  2 24  1  0
  3  6  4  0
  3 27  4  0
  4 22  4  0
  4 26  4  0
  6  7  4  0
  6 13  1  0
  7 19  4  0
  8 18  1  0
  8 23  1  0
  8 28  2  0
  9 17  1  0
  9 24  1  0
 10 11  1  0
 10 24  1  0
 11 23  1  0
 12 14  4  0
 12 16  4  0
 14 19  4  0
 15 18  4  0
 16 20  4  0
 17 25  1  0
 18 26  4  0
 19 29  4  0
 20 29  4  0
 21 23  1  0
 21 25  1  0
 27 29  4  0
M  END
$$$$

 Created by Python create_sdf_string function

 29 32  0  0  0  0  0  0  0  0999 V2000
    5.4450    8.7154   22.6662 C   0  0  0  0  0  0  0  0  0  0  0  0
   10.9154    5.4574   20.5483 C   0  0  0  0  0  0  0  0  0  0  0  0
    7.2709    4.5089   22.7542 C   0  0  0  0  0  0  0  0  0  0  0  0
    5.9698    7.6329   24.6581 C   0  0  0  0  0  0  0  0  0  0  0  0
    4.5542    8.9057   21.7104 O   0  0  0  0  0  0  0  0  0  0  0  0
    6.9895    3.2085   23.0690 C   0  0  0  0  0  0  0  0  0  0  0  0
    7.8391    2.2253   22.7260 N   0  0  0  0  0  0  0  0  0  0  0  0
    8.6968    9.8373   23.6359 C   0  0  0  0  0  0  0  0  0  0  0  0
   12.5135    6.5957   21.8396 C   0  0  0  0  0  0  0  0  0  0  0  0
   10.9406    8.2330   21.1350 C   0  0  0  0  0  0  0  0  0  0  0  0
    9.6648    8.5956   21.7310 C   0  0  0  0  0  0  0  0  0  0  0  0
   10.8829    1.7153   20.9865 C   0  0  0  0  0  0  0  0  0  0  0  0
    5.7768    2.8533   23.7910 C   0  0  0  0  0  0  0  0  0  0  0  0
    9.7977    1.4791   21.6912 N   0  0  0  0  0  0  0  0  0  0  0  0
    6.5976    9.3401   22.6478 N   0  0  0  0  0  0  0  0  0  0  0  0
   11.2031    3.0042   20.6246 C   0  0  0  0  0  0  0  0  0  0  0  0
   12.8688    7.7370   22.7287 C   0  0  0  0  0  0  0  0  0  0  0  0
    7.4487    9.1361   23.6506 C   0  0  0  0  0  0  0  0  0  0  0  0
    8.9772    2.5025   22.0273 C   0  0  0  0  0  0  0  0  0  0  0  0
   10.4859    4.0901   20.9730 C   0  0  0  0  0  0  0  0  0  0  0  0
   11.0962    9.3293   23.5072 C   0  0  0  0  0  0  0  0  0  0  0  0
    5.1273    7.8529   23.6208 N   0  0  0  0  0  0  0  0  0  0  0  0
    9.7552    9.2338   23.0171 N   0  0  0  0  0  0  0  0  0  0  0  0
   11.1797    6.7591   21.3326 N   0  0  0  0  0  0  0  0  0  0  0  0
   11.7728    8.0337   23.7267 C   0  0  0  0  0  0  0  0  0  0  0  0
    7.1194    8.3344   24.6775 C   0  0  0  0  0  0  0  0  0  0  0  0
    8.4311    4.7963   22.0500 C   0  0  0  0  0  0  0  0  0  0  0  0
    8.7393   10.8706   24.1871 O   0  0  0  0  0  0  0  0  0  0  0  0
    9.3093    3.8166   21.6712 C   0  0  0  0  0  0  0  0  0  0  0  0
  1  5  1  0
  1 15  4  0
  1 22  4  0
  2 20  1  0
  2 24  1  0
  3  6  4  0
  3 27  4  0
  4 22  4  0
  4 26  4  0
  6  7  4  0
  6 13  1  0
  7 19  4  0
  8 18  1  0
  8 23  1  0
  8 28  2  0
  9 17  1  0
  9 24  1  0
 10 11  1  0
 10 24  1  0
 11 23  1  0
 12 14  4  0
 12 16  4  0
 14 19  4  0
 15 18  4  0
 16 20  4  0
 17 25  1  0
 18 26  4  0
 19 29  4  0
 20 29  4  0
 21 23  1  0
 21 25  1  0
 27 29  4  0
M  END
$$$$

 Created by Python create_sdf_string function

 29 32  0  0  0  0  0  0  0  0999 V2000
    5.4450    8.7154   22.6662 C   0  0  0  0  0  0  0  0  0  0  0  0
   10.9154    5.4574   20.5483 C   0  0  0  0  0  0  0  0  0  0  0  0
    7.2709    4.5089   22.7542 C   0  0  0  0  0  0  0  0  0  0  0  0
    5.9698    7.6329   24.6581 C   0  0  0  0  0  0  0  0  0  0  0  0
    4.5542    8.9057   21.7104 O   0  0  0  0  0  0  0  0  0  0  0  0
    6.9895    3.2085   23.0690 C   0  0  0  0  0  0  0  0  0  0  0  0
    7.8391    2.2253   22.7260 N   0  0  0  0  0  0  0  0  0  0  0  0
    8.6968    9.8373   23.6359 C   0  0  0  0  0  0  0  0  0  0  0  0
   12.5135    6.5957   21.8396 C   0  0  0  0  0  0  0  0  0  0  0  0
   10.9406    8.2330   21.1350 C   0  0  0  0  0  0  0  0  0  0  0  0
    9.6648    8.5956   21.7310 C   0  0  0  0  0  0  0  0  0  0  0  0
   10.8829    1.7153   20.9865 C   0  0  0  0  0  0  0  0  0  0  0  0
    5.7768    2.8533   23.7910 C   0  0  0  0  0  0  0  0  0  0  0  0
    9.7977    1.4791   21.6912 N   0  0  0  0  0  0  0  0  0  0  0  0
    6.5976    9.3401   22.6478 N   0  0  0  0  0  0  0  0  0  0  0  0
   11.2031    3.0042   20.6246 C   0  0  0  0  0  0  0  0  0  0  0  0
   12.8688    7.7370   22.7287 C   0  0  0  0  0  0  0  0  0  0  0  0
    7.4487    9.1361   23.6506 C   0  0  0  0  0  0  0  0  0  0  0  0
    8.9772    2.5025   22.0273 C   0  0  0  0  0  0  0  0  0  0  0  0
   10.4859    4.0901   20.9730 C   0  0  0  0  0  0  0  0  0  0  0  0
   11.0962    9.3293   23.5072 C   0  0  0  0  0  0  0  0  0  0  0  0
    5.1273    7.8529   23.6208 N   0  0  0  0  0  0  0  0  0  0  0  0
    9.7552    9.2338   23.0171 N   0  0  0  0  0  0  0  0  0  0  0  0
   11.1797    6.7591   21.3326 N   0  0  0  0  0  0  0  0  0  0  0  0
   11.7728    8.0337   23.7267 C   0  0  0  0  0  0  0  0  0  0  0  0
    7.1194    8.3344   24.6775 C   0  0  0  0  0  0  0  0  0  0  0  0
    8.4311    4.7963   22.0500 C   0  0  0  0  0  0  0  0  0  0  0  0
    8.7393   10.8706   24.1871 O   0  0  0  0  0  0  0  0  0  0  0  0
    9.3093    3.8166   21.6712 C   0  0  0  0  0  0  0  0  0  0  0  0
  1  5  1  0
  1 15  4  0
  1 22  4  0
  2 20  1  0
  2 24  1  0
  3  6  4  0
  3 27  4  0
  4 22  4  0
  4 26  4  0
  6  7  4  0
  6 13  1  0
  7 19  4  0
  8 18  1  0
  8 23  1  0
  8 28  2  0
  9 17  1  0
  9 24  1  0
 10 11  1  0
 10 24  1  0
 11 23  1  0
 12 14  4  0
 12 16  4  0
 14 19  4  0
 15 18  4  0
 16 20  4  0
 17 25  1  0
 18 26  4  0
 19 29  4  0
 20 29  4  0
 21 23  1  0
 21 25  1  0
 27 29  4  0
M  END
$$$$

 Created by Python create_sdf_string function

 29 32  0  0  0  0  0  0  0  0999 V2000
    5.4450    8.7154   22.6662 C   0  0  0  0  0  0  0  0  0  0  0  0
   10.9154    5.4574   20.5483 C   0  0  0  0  0  0  0  0  0  0  0  0
    7.2709    4.5089   22.7542 C   0  0  0  0  0  0  0  0  0  0  0  0
    5.9698    7.6329   24.6581 C   0  0  0  0  0  0  0  0  0  0  0  0
    4.5542    8.9057   21.7104 O   0  0  0  0  0  0  0  0  0  0  0  0
    6.9895    3.2085   23.0690 C   0  0  0  0  0  0  0  0  0  0  0  0
    7.8391    2.2253   22.7260 N   0  0  0  0  0  0  0  0  0  0  0  0
    8.6968    9.8373   23.6359 C   0  0  0  0  0  0  0  0  0  0  0  0
   12.5135    6.5957   21.8396 C   0  0  0  0  0  0  0  0  0  0  0  0
   10.9406    8.2330   21.1350 C   0  0  0  0  0  0  0  0  0  0  0  0
    9.6648    8.5956   21.7310 C   0  0  0  0  0  0  0  0  0  0  0  0
   10.8829    1.7153   20.9865 C   0  0  0  0  0  0  0  0  0  0  0  0
    5.7768    2.8533   23.7910 C   0  0  0  0  0  0  0  0  0  0  0  0
    9.7977    1.4791   21.6912 N   0  0  0  0  0  0  0  0  0  0  0  0
    6.5976    9.3401   22.6478 N   0  0  0  0  0  0  0  0  0  0  0  0
   11.2031    3.0042   20.6246 C   0  0  0  0  0  0  0  0  0  0  0  0
   12.8688    7.7370   22.7287 C   0  0  0  0  0  0  0  0  0  0  0  0
    7.4487    9.1361   23.6506 C   0  0  0  0  0  0  0  0  0  0  0  0
    8.9772    2.5025   22.0273 C   0  0  0  0  0  0  0  0  0  0  0  0
   10.4859    4.0901   20.9730 C   0  0  0  0  0  0  0  0  0  0  0  0
   11.0962    9.3293   23.5072 C   0  0  0  0  0  0  0  0  0  0  0  0
    5.1273    7.8529   23.6208 N   0  0  0  0  0  0  0  0  0  0  0  0
    9.7552    9.2338   23.0171 N   0  0  0  0  0  0  0  0  0  0  0  0
   11.1797    6.7591   21.3326 N   0  0  0  0  0  0  0  0  0  0  0  0
   11.7728    8.0337   23.7267 C   0  0  0  0  0  0  0  0  0  0  0  0
    7.1194    8.3344   24.6775 C   0  0  0  0  0  0  0  0  0  0  0  0
    8.4311    4.7963   22.0500 C   0  0  0  0  0  0  0  0  0  0  0  0
    8.7393   10.8706   24.1871 O   0  0  0  0  0  0  0  0  0  0  0  0
    9.3093    3.8166   21.6712 C   0  0  0  0  0  0  0  0  0  0  0  0
  1  5  1  0
  1 15  4  0
  1 22  4  0
  2 20  1  0
  2 24  1  0
  3  6  4  0
  3 27  4  0
  4 22  4  0
  4 26  4  0
  6  7  4  0
  6 13  1  0
  7 19  4  0
  8 18  1  0
  8 23  1  0
  8 28  2  0
  9 17  1  0
  9 24  1  0
 10 11  1  0
 10 24  1  0
 11 23  1  0
 12 14  4  0
 12 16  4  0
 14 19  4  0
 15 18  4  0
 16 20  4  0
 17 25  1  0
 18 26  4  0
 19 29  4  0
 20 29  4  0
 21 23  1  0
 21 25  1  0
 27 29  4  0
M  END
$$$$

 Created by Python create_sdf_string function

 29 32  0  0  0  0  0  0  0  0999 V2000
    5.4450    8.7154   22.6662 C   0  0  0  0  0  0  0  0  0  0  0  0
   10.9154    5.4574   20.5483 C   0  0  0  0  0  0  0  0  0  0  0  0
    7.2709    4.5089   22.7542 C   0  0  0  0  0  0  0  0  0  0  0  0
    5.9698    7.6329   24.6581 C   0  0  0  0  0  0  0  0  0  0  0  0
    4.5542    8.9057   21.7104 O   0  0  0  0  0  0  0  0  0  0  0  0
    6.9895    3.2085   23.0690 C   0  0  0  0  0  0  0  0  0  0  0  0
    7.8391    2.2253   22.7260 N   0  0  0  0  0  0  0  0  0  0  0  0
    8.6968    9.8373   23.6359 C   0  0  0  0  0  0  0  0  0  0  0  0
   12.5135    6.5957   21.8396 C   0  0  0  0  0  0  0  0  0  0  0  0
   10.9406    8.2330   21.1350 C   0  0  0  0  0  0  0  0  0  0  0  0
    9.6648    8.5956   21.7310 C   0  0  0  0  0  0  0  0  0  0  0  0
   10.8829    1.7153   20.9865 C   0  0  0  0  0  0  0  0  0  0  0  0
    5.7768    2.8533   23.7910 C   0  0  0  0  0  0  0  0  0  0  0  0
    9.7977    1.4791   21.6912 N   0  0  0  0  0  0  0  0  0  0  0  0
    6.5976    9.3401   22.6478 N   0  0  0  0  0  0  0  0  0  0  0  0
   11.2031    3.0042   20.6246 C   0  0  0  0  0  0  0  0  0  0  0  0
   12.8688    7.7370   22.7287 C   0  0  0  0  0  0  0  0  0  0  0  0
    7.4487    9.1361   23.6506 C   0  0  0  0  0  0  0  0  0  0  0  0
    8.9772    2.5025   22.0273 C   0  0  0  0  0  0  0  0  0  0  0  0
   10.4859    4.0901   20.9730 C   0  0  0  0  0  0  0  0  0  0  0  0
   11.0962    9.3293   23.5072 C   0  0  0  0  0  0  0  0  0  0  0  0
    5.1273    7.8529   23.6208 N   0  0  0  0  0  0  0  0  0  0  0  0
    9.7552    9.2338   23.0171 N   0  0  0  0  0  0  0  0  0  0  0  0
   11.1797    6.7591   21.3326 N   0  0  0  0  0  0  0  0  0  0  0  0
   11.7728    8.0337   23.7267 C   0  0  0  0  0  0  0  0  0  0  0  0
    7.1194    8.3344   24.6775 C   0  0  0  0  0  0  0  0  0  0  0  0
    8.4311    4.7963   22.0500 C   0  0  0  0  0  0  0  0  0  0  0  0
    8.7393   10.8706   24.1871 O   0  0  0  0  0  0  0  0  0  0  0  0
    9.3093    3.8166   21.6712 C   0  0  0  0  0  0  0  0  0  0  0  0
  1  5  1  0
  1 15  4  0
  1 22  4  0
  2 20  1  0
  2 24  1  0
  3  6  4  0
  3 27  4  0
  4 22  4  0
  4 26  4  0
  6  7  4  0
  6 13  1  0
  7 19  4  0
  8 18  1  0
  8 23  1  0
  8 28  2  0
  9 17  1  0
  9 24  1  0
 10 11  1  0
 10 24  1  0
 11 23  1  0
 12 14  4  0
 12 16  4  0
 14 19  4  0
 15 18  4  0
 16 20  4  0
 17 25  1  0
 18 26  4  0
 19 29  4  0
 20 29  4  0
 21 23  1  0
 21 25  1  0
 27 29  4  0
M  END
$$$$

 Created by Python create_sdf_string function

 29 32  0  0  0  0  0  0  0  0999 V2000
    5.4450    8.7154   22.6662 C   0  0  0  0  0  0  0  0  0  0  0  0
   10.9154    5.4574   20.5483 C   0  0  0  0  0  0  0  0  0  0  0  0
    7.2709    4.5089   22.7542 C   0  0  0  0  0  0  0  0  0  0  0  0
    5.9698    7.6329   24.6581 C   0  0  0  0  0  0  0  0  0  0  0  0
    4.5542    8.9057   21.7104 O   0  0  0  0  0  0  0  0  0  0  0  0
    6.9895    3.2085   23.0690 C   0  0  0  0  0  0  0  0  0  0  0  0
    7.8391    2.2253   22.7260 N   0  0  0  0  0  0  0  0  0  0  0  0
    8.6968    9.8373   23.6359 C   0  0  0  0  0  0  0  0  0  0  0  0
   12.5135    6.5957   21.8396 C   0  0  0  0  0  0  0  0  0  0  0  0
   10.9406    8.2330   21.1350 C   0  0  0  0  0  0  0  0  0  0  0  0
    9.6648    8.5956   21.7310 C   0  0  0  0  0  0  0  0  0  0  0  0
   10.8829    1.7153   20.9865 C   0  0  0  0  0  0  0  0  0  0  0  0
    5.7768    2.8533   23.7910 C   0  0  0  0  0  0  0  0  0  0  0  0
    9.7977    1.4791   21.6912 N   0  0  0  0  0  0  0  0  0  0  0  0
    6.5976    9.3401   22.6478 N   0  0  0  0  0  0  0  0  0  0  0  0
   11.2031    3.0042   20.6246 C   0  0  0  0  0  0  0  0  0  0  0  0
   12.8688    7.7370   22.7287 C   0  0  0  0  0  0  0  0  0  0  0  0
    7.4487    9.1361   23.6506 C   0  0  0  0  0  0  0  0  0  0  0  0
    8.9772    2.5025   22.0273 C   0  0  0  0  0  0  0  0  0  0  0  0
   10.4859    4.0901   20.9730 C   0  0  0  0  0  0  0  0  0  0  0  0
   11.0962    9.3293   23.5072 C   0  0  0  0  0  0  0  0  0  0  0  0
    5.1273    7.8529   23.6208 N   0  0  0  0  0  0  0  0  0  0  0  0
    9.7552    9.2338   23.0171 N   0  0  0  0  0  0  0  0  0  0  0  0
   11.1797    6.7591   21.3326 N   0  0  0  0  0  0  0  0  0  0  0  0
   11.7728    8.0337   23.7267 C   0  0  0  0  0  0  0  0  0  0  0  0
    7.1194    8.3344   24.6775 C   0  0  0  0  0  0  0  0  0  0  0  0
    8.4311    4.7963   22.0500 C   0  0  0  0  0  0  0  0  0  0  0  0
    8.7393   10.8706   24.1871 O   0  0  0  0  0  0  0  0  0  0  0  0
    9.3093    3.8166   21.6712 C   0  0  0  0  0  0  0  0  0  0  0  0
  1  5  1  0
  1 15  4  0
  1 22  4  0
  2 20  1  0
  2 24  1  0
  3  6  4  0
  3 27  4  0
  4 22  4  0
  4 26  4  0
  6  7  4  0
  6 13  1  0
  7 19  4  0
  8 18  1  0
  8 23  1  0
  8 28  2  0
  9 17  1  0
  9 24  1  0
 10 11  1  0
 10 24  1  0
 11 23  1  0
 12 14  4  0
 12 16  4  0
 14 19  4  0
 15 18  4  0
 16 20  4  0
 17 25  1  0
 18 26  4  0
 19 29  4  0
 20 29  4  0
 21 23  1  0
 21 25  1  0
 27 29  4  0
M  END
$$$$

 Created by Python create_sdf_string function

 29 32  0  0  0  0  0  0  0  0999 V2000
    5.4450    8.7154   22.6662 C   0  0  0  0  0  0  0  0  0  0  0  0
   10.9154    5.4574   20.5483 C   0  0  0  0  0  0  0  0  0  0  0  0
    7.2709    4.5089   22.7542 C   0  0  0  0  0  0  0  0  0  0  0  0
    5.9698    7.6329   24.6581 C   0  0  0  0  0  0  0  0  0  0  0  0
    4.5542    8.9057   21.7104 O   0  0  0  0  0  0  0  0  0  0  0  0
    6.9895    3.2085   23.0690 C   0  0  0  0  0  0  0  0  0  0  0  0
    7.8391    2.2253   22.7260 N   0  0  0  0  0  0  0  0  0  0  0  0
    8.6968    9.8373   23.6359 C   0  0  0  0  0  0  0  0  0  0  0  0
   12.5135    6.5957   21.8396 C   0  0  0  0  0  0  0  0  0  0  0  0
   10.9406    8.2330   21.1350 C   0  0  0  0  0  0  0  0  0  0  0  0
    9.6648    8.5956   21.7310 C   0  0  0  0  0  0  0  0  0  0  0  0
   10.8829    1.7153   20.9865 C   0  0  0  0  0  0  0  0  0  0  0  0
    5.7768    2.8533   23.7910 C   0  0  0  0  0  0  0  0  0  0  0  0
    9.7977    1.4791   21.6912 N   0  0  0  0  0  0  0  0  0  0  0  0
    6.5976    9.3401   22.6478 N   0  0  0  0  0  0  0  0  0  0  0  0
   11.2031    3.0042   20.6246 C   0  0  0  0  0  0  0  0  0  0  0  0
   12.8688    7.7370   22.7287 C   0  0  0  0  0  0  0  0  0  0  0  0
    7.4487    9.1361   23.6506 C   0  0  0  0  0  0  0  0  0  0  0  0
    8.9772    2.5025   22.0273 C   0  0  0  0  0  0  0  0  0  0  0  0
   10.4859    4.0901   20.9730 C   0  0  0  0  0  0  0  0  0  0  0  0
   11.0962    9.3293   23.5072 C   0  0  0  0  0  0  0  0  0  0  0  0
    5.1273    7.8529   23.6208 N   0  0  0  0  0  0  0  0  0  0  0  0
    9.7552    9.2338   23.0171 N   0  0  0  0  0  0  0  0  0  0  0  0
   11.1797    6.7591   21.3326 N   0  0  0  0  0  0  0  0  0  0  0  0
   11.7728    8.0337   23.7267 C   0  0  0  0  0  0  0  0  0  0  0  0
    7.1194    8.3344   24.6775 C   0  0  0  0  0  0  0  0  0  0  0  0
    8.4311    4.7963   22.0500 C   0  0  0  0  0  0  0  0  0  0  0  0
    8.7393   10.8706   24.1871 O   0  0  0  0  0  0  0  0  0  0  0  0
    9.3093    3.8166   21.6712 C   0  0  0  0  0  0  0  0  0  0  0  0
  1  5  1  0
  1 15  4  0
  1 22  4  0
  2 20  1  0
  2 24  1  0
  3  6  4  0
  3 27  4  0
  4 22  4  0
  4 26  4  0
  6  7  4  0
  6 13  1  0
  7 19  4  0
  8 18  1  0
  8 23  1  0
  8 28  2  0
  9 17  1  0
  9 24  1  0
 10 11  1  0
 10 24  1  0
 11 23  1  0
 12 14  4  0
 12 16  4  0
 14 19  4  0
 15 18  4  0
 16 20  4  0
 17 25  1  0
 18 26  4  0
 19 29  4  0
 20 29  4  0
 21 23  1  0
 21 25  1  0
 27 29  4  0
M  END
$$$$

 Created by Python create_sdf_string function

 29 32  0  0  0  0  0  0  0  0999 V2000
    5.4450    8.7154   22.6662 C   0  0  0  0  0  0  0  0  0  0  0  0
   10.9154    5.4574   20.5483 C   0  0  0  0  0  0  0  0  0  0  0  0
    7.2709    4.5089   22.7542 C   0  0  0  0  0  0  0  0  0  0  0  0
    5.9698    7.6329   24.6581 C   0  0  0  0  0  0  0  0  0  0  0  0
    4.5542    8.9057   21.7104 O   0  0  0  0  0  0  0  0  0  0  0  0
    6.9895    3.2085   23.0690 C   0  0  0  0  0  0  0  0  0  0  0  0
    7.8391    2.2253   22.7260 N   0  0  0  0  0  0  0  0  0  0  0  0
    8.6968    9.8373   23.6359 C   0  0  0  0  0  0  0  0  0  0  0  0
   12.5135    6.5957   21.8396 C   0  0  0  0  0  0  0  0  0  0  0  0
   10.9406    8.2330   21.1350 C   0  0  0  0  0  0  0  0  0  0  0  0
    9.6648    8.5956   21.7310 C   0  0  0  0  0  0  0  0  0  0  0  0
   10.8829    1.7153   20.9865 C   0  0  0  0  0  0  0  0  0  0  0  0
    5.7768    2.8533   23.7910 C   0  0  0  0  0  0  0  0  0  0  0  0
    9.7977    1.4791   21.6912 N   0  0  0  0  0  0  0  0  0  0  0  0
    6.5976    9.3401   22.6478 N   0  0  0  0  0  0  0  0  0  0  0  0
   11.2031    3.0042   20.6246 C   0  0  0  0  0  0  0  0  0  0  0  0
   12.8688    7.7370   22.7287 C   0  0  0  0  0  0  0  0  0  0  0  0
    7.4487    9.1361   23.6506 C   0  0  0  0  0  0  0  0  0  0  0  0
    8.9772    2.5025   22.0273 C   0  0  0  0  0  0  0  0  0  0  0  0
   10.4859    4.0901   20.9730 C   0  0  0  0  0  0  0  0  0  0  0  0
   11.0962    9.3293   23.5072 C   0  0  0  0  0  0  0  0  0  0  0  0
    5.1273    7.8529   23.6208 N   0  0  0  0  0  0  0  0  0  0  0  0
    9.7552    9.2338   23.0171 N   0  0  0  0  0  0  0  0  0  0  0  0
   11.1797    6.7591   21.3326 N   0  0  0  0  0  0  0  0  0  0  0  0
   11.7728    8.0337   23.7267 C   0  0  0  0  0  0  0  0  0  0  0  0
    7.1194    8.3344   24.6775 C   0  0  0  0  0  0  0  0  0  0  0  0
    8.4311    4.7963   22.0500 C   0  0  0  0  0  0  0  0  0  0  0  0
    8.7393   10.8706   24.1871 O   0  0  0  0  0  0  0  0  0  0  0  0
    9.3093    3.8166   21.6712 C   0  0  0  0  0  0  0  0  0  0  0  0
  1  5  1  0
  1 15  4  0
  1 22  4  0
  2 20  1  0
  2 24  1  0
  3  6  4  0
  3 27  4  0
  4 22  4  0
  4 26  4  0
  6  7  4  0
  6 13  1  0
  7 19  4  0
  8 18  1  0
  8 23  1  0
  8 28  2  0
  9 17  1  0
  9 24  1  0
 10 11  1  0
 10 24  1  0
 11 23  1  0
 12 14  4  0
 12 16  4  0
 14 19  4  0
 15 18  4  0
 16 20  4  0
 17 25  1  0
 18 26  4  0
 19 29  4  0
 20 29  4  0
 21 23  1  0
 21 25  1  0
 27 29  4  0
M  END
$$$$

 Created by Python create_sdf_string function

 29 32  0  0  0  0  0  0  0  0999 V2000
    5.4450    8.7154   22.6662 C   0  0  0  0  0  0  0  0  0  0  0  0
   10.9154    5.4574   20.5483 C   0  0  0  0  0  0  0  0  0  0  0  0
    7.2709    4.5089   22.7542 C   0  0  0  0  0  0  0  0  0  0  0  0
    5.9698    7.6329   24.6581 C   0  0  0  0  0  0  0  0  0  0  0  0
    4.5542    8.9057   21.7104 O   0  0  0  0  0  0  0  0  0  0  0  0
    6.9895    3.2085   23.0690 C   0  0  0  0  0  0  0  0  0  0  0  0
    7.8391    2.2253   22.7260 N   0  0  0  0  0  0  0  0  0  0  0  0
    8.6968    9.8373   23.6359 C   0  0  0  0  0  0  0  0  0  0  0  0
   12.5135    6.5957   21.8396 C   0  0  0  0  0  0  0  0  0  0  0  0
   10.9406    8.2330   21.1350 C   0  0  0  0  0  0  0  0  0  0  0  0
    9.6648    8.5956   21.7310 C   0  0  0  0  0  0  0  0  0  0  0  0
   10.8829    1.7153   20.9865 C   0  0  0  0  0  0  0  0  0  0  0  0
    5.7768    2.8533   23.7910 C   0  0  0  0  0  0  0  0  0  0  0  0
    9.7977    1.4791   21.6912 N   0  0  0  0  0  0  0  0  0  0  0  0
    6.5976    9.3401   22.6478 N   0  0  0  0  0  0  0  0  0  0  0  0
   11.2031    3.0042   20.6246 C   0  0  0  0  0  0  0  0  0  0  0  0
   12.8688    7.7370   22.7287 C   0  0  0  0  0  0  0  0  0  0  0  0
    7.4487    9.1361   23.6506 C   0  0  0  0  0  0  0  0  0  0  0  0
    8.9772    2.5025   22.0273 C   0  0  0  0  0  0  0  0  0  0  0  0
   10.4859    4.0901   20.9730 C   0  0  0  0  0  0  0  0  0  0  0  0
   11.0962    9.3293   23.5072 C   0  0  0  0  0  0  0  0  0  0  0  0
    5.1273    7.8529   23.6208 N   0  0  0  0  0  0  0  0  0  0  0  0
    9.7552    9.2338   23.0171 N   0  0  0  0  0  0  0  0  0  0  0  0
   11.1797    6.7591   21.3326 N   0  0  0  0  0  0  0  0  0  0  0  0
   11.7728    8.0337   23.7267 C   0  0  0  0  0  0  0  0  0  0  0  0
    7.1194    8.3344   24.6775 C   0  0  0  0  0  0  0  0  0  0  0  0
    8.4311    4.7963   22.0500 C   0  0  0  0  0  0  0  0  0  0  0  0
    8.7393   10.8706   24.1871 O   0  0  0  0  0  0  0  0  0  0  0  0
    9.3093    3.8166   21.6712 C   0  0  0  0  0  0  0  0  0  0  0  0
  1  5  1  0
  1 15  4  0
  1 22  4  0
  2 20  1  0
  2 24  1  0
  3  6  4  0
  3 27  4  0
  4 22  4  0
  4 26  4  0
  6  7  4  0
  6 13  1  0
  7 19  4  0
  8 18  1  0
  8 23  1  0
  8 28  2  0
  9 17  1  0
  9 24  1  0
 10 11  1  0
 10 24  1  0
 11 23  1  0
 12 14  4  0
 12 16  4  0
 14 19  4  0
 15 18  4  0
 16 20  4  0
 17 25  1  0
 18 26  4  0
 19 29  4  0
 20 29  4  0
 21 23  1  0
 21 25  1  0
 27 29  4  0
M  END
$$$$

 Created by Python create_sdf_string function

 29 32  0  0  0  0  0  0  0  0999 V2000
    5.4450    8.7154   22.6662 C   0  0  0  0  0  0  0  0  0  0  0  0
   10.9154    5.4574   20.5483 C   0  0  0  0  0  0  0  0  0  0  0  0
    7.2709    4.5089   22.7542 C   0  0  0  0  0  0  0  0  0  0  0  0
    5.9698    7.6329   24.6581 C   0  0  0  0  0  0  0  0  0  0  0  0
    4.5542    8.9057   21.7104 O   0  0  0  0  0  0  0  0  0  0  0  0
    6.9895    3.2085   23.0690 C   0  0  0  0  0  0  0  0  0  0  0  0
    7.8391    2.2253   22.7260 N   0  0  0  0  0  0  0  0  0  0  0  0
    8.6968    9.8373   23.6359 C   0  0  0  0  0  0  0  0  0  0  0  0
   12.5135    6.5957   21.8396 C   0  0  0  0  0  0  0  0  0  0  0  0
   10.9406    8.2330   21.1350 C   0  0  0  0  0  0  0  0  0  0  0  0
    9.6648    8.5956   21.7310 C   0  0  0  0  0  0  0  0  0  0  0  0
   10.8829    1.7153   20.9865 C   0  0  0  0  0  0  0  0  0  0  0  0
    5.7768    2.8533   23.7910 C   0  0  0  0  0  0  0  0  0  0  0  0
    9.7977    1.4791   21.6912 N   0  0  0  0  0  0  0  0  0  0  0  0
    6.5976    9.3401   22.6478 N   0  0  0  0  0  0  0  0  0  0  0  0
   11.2031    3.0042   20.6246 C   0  0  0  0  0  0  0  0  0  0  0  0
   12.8688    7.7370   22.7287 C   0  0  0  0  0  0  0  0  0  0  0  0
    7.4487    9.1361   23.6506 C   0  0  0  0  0  0  0  0  0  0  0  0
    8.9772    2.5025   22.0273 C   0  0  0  0  0  0  0  0  0  0  0  0
   10.4859    4.0901   20.9730 C   0  0  0  0  0  0  0  0  0  0  0  0
   11.0962    9.3293   23.5072 C   0  0  0  0  0  0  0  0  0  0  0  0
    5.1273    7.8529   23.6208 N   0  0  0  0  0  0  0  0  0  0  0  0
    9.7552    9.2338   23.0171 N   0  0  0  0  0  0  0  0  0  0  0  0
   11.1797    6.7591   21.3326 N   0  0  0  0  0  0  0  0  0  0  0  0
   11.7728    8.0337   23.7267 C   0  0  0  0  0  0  0  0  0  0  0  0
    7.1194    8.3344   24.6775 C   0  0  0  0  0  0  0  0  0  0  0  0
    8.4311    4.7963   22.0500 C   0  0  0  0  0  0  0  0  0  0  0  0
    8.7393   10.8706   24.1871 O   0  0  0  0  0  0  0  0  0  0  0  0
    9.3093    3.8166   21.6712 C   0  0  0  0  0  0  0  0  0  0  0  0
  1  5  1  0
  1 15  4  0
  1 22  4  0
  2 20  1  0
  2 24  1  0
  3  6  4  0
  3 27  4  0
  4 22  4  0
  4 26  4  0
  6  7  4  0
  6 13  1  0
  7 19  4  0
  8 18  1  0
  8 23  1  0
  8 28  2  0
  9 17  1  0
  9 24  1  0
 10 11  1  0
 10 24  1  0
 11 23  1  0
 12 14  4  0
 12 16  4  0
 14 19  4  0
 15 18  4  0
 16 20  4  0
 17 25  1  0
 18 26  4  0
 19 29  4  0
 20 29  4  0
 21 23  1  0
 21 25  1  0
 27 29  4  0
M  END
$$$$

 Created by Python create_sdf_string function

 29 32  0  0  0  0  0  0  0  0999 V2000
    5.4450    8.7154   22.6662 C   0  0  0  0  0  0  0  0  0  0  0  0
   10.9154    5.4574   20.5483 C   0  0  0  0  0  0  0  0  0  0  0  0
    7.2709    4.5089   22.7542 C   0  0  0  0  0  0  0  0  0  0  0  0
    5.9698    7.6329   24.6581 C   0  0  0  0  0  0  0  0  0  0  0  0
    4.5542    8.9057   21.7104 O   0  0  0  0  0  0  0  0  0  0  0  0
    6.9895    3.2085   23.0690 C   0  0  0  0  0  0  0  0  0  0  0  0
    7.8391    2.2253   22.7260 N   0  0  0  0  0  0  0  0  0  0  0  0
    8.6968    9.8373   23.6359 C   0  0  0  0  0  0  0  0  0  0  0  0
   12.5135    6.5957   21.8396 C   0  0  0  0  0  0  0  0  0  0  0  0
   10.9406    8.2330   21.1350 C   0  0  0  0  0  0  0  0  0  0  0  0
    9.6648    8.5956   21.7310 C   0  0  0  0  0  0  0  0  0  0  0  0
   10.8829    1.7153   20.9865 C   0  0  0  0  0  0  0  0  0  0  0  0
    5.7768    2.8533   23.7910 C   0  0  0  0  0  0  0  0  0  0  0  0
    9.7977    1.4791   21.6912 N   0  0  0  0  0  0  0  0  0  0  0  0
    6.5976    9.3401   22.6478 N   0  0  0  0  0  0  0  0  0  0  0  0
   11.2031    3.0042   20.6246 C   0  0  0  0  0  0  0  0  0  0  0  0
   12.8688    7.7370   22.7287 C   0  0  0  0  0  0  0  0  0  0  0  0
    7.4487    9.1361   23.6506 C   0  0  0  0  0  0  0  0  0  0  0  0
    8.9772    2.5025   22.0273 C   0  0  0  0  0  0  0  0  0  0  0  0
   10.4859    4.0901   20.9730 C   0  0  0  0  0  0  0  0  0  0  0  0
   11.0962    9.3293   23.5072 C   0  0  0  0  0  0  0  0  0  0  0  0
    5.1273    7.8529   23.6208 N   0  0  0  0  0  0  0  0  0  0  0  0
    9.7552    9.2338   23.0171 N   0  0  0  0  0  0  0  0  0  0  0  0
   11.1797    6.7591   21.3326 N   0  0  0  0  0  0  0  0  0  0  0  0
   11.7728    8.0337   23.7267 C   0  0  0  0  0  0  0  0  0  0  0  0
    7.1194    8.3344   24.6775 C   0  0  0  0  0  0  0  0  0  0  0  0
    8.4311    4.7963   22.0500 C   0  0  0  0  0  0  0  0  0  0  0  0
    8.7393   10.8706   24.1871 O   0  0  0  0  0  0  0  0  0  0  0  0
    9.3093    3.8166   21.6712 C   0  0  0  0  0  0  0  0  0  0  0  0
  1  5  1  0
  1 15  4  0
  1 22  4  0
  2 20  1  0
  2 24  1  0
  3  6  4  0
  3 27  4  0
  4 22  4  0
  4 26  4  0
  6  7  4  0
  6 13  1  0
  7 19  4  0
  8 18  1  0
  8 23  1  0
  8 28  2  0
  9 17  1  0
  9 24  1  0
 10 11  1  0
 10 24  1  0
 11 23  1  0
 12 14  4  0
 12 16  4  0
 14 19  4  0
 15 18  4  0
 16 20  4  0
 17 25  1  0
 18 26  4  0
 19 29  4  0
 20 29  4  0
 21 23  1  0
 21 25  1  0
 27 29  4  0
M  END
$$$$

 Created by Python create_sdf_string function

 29 32  0  0  0  0  0  0  0  0999 V2000
    5.4450    8.7154   22.6662 C   0  0  0  0  0  0  0  0  0  0  0  0
   10.9154    5.4574   20.5483 C   0  0  0  0  0  0  0  0  0  0  0  0
    7.2709    4.5089   22.7542 C   0  0  0  0  0  0  0  0  0  0  0  0
    5.9698    7.6329   24.6581 C   0  0  0  0  0  0  0  0  0  0  0  0
    4.5542    8.9057   21.7104 O   0  0  0  0  0  0  0  0  0  0  0  0
    6.9895    3.2085   23.0690 C   0  0  0  0  0  0  0  0  0  0  0  0
    7.8391    2.2253   22.7260 N   0  0  0  0  0  0  0  0  0  0  0  0
    8.6968    9.8373   23.6359 C   0  0  0  0  0  0  0  0  0  0  0  0
   12.5135    6.5957   21.8396 C   0  0  0  0  0  0  0  0  0  0  0  0
   10.9406    8.2330   21.1350 C   0  0  0  0  0  0  0  0  0  0  0  0
    9.6648    8.5956   21.7310 C   0  0  0  0  0  0  0  0  0  0  0  0
   10.8829    1.7153   20.9865 C   0  0  0  0  0  0  0  0  0  0  0  0
    5.7768    2.8533   23.7910 C   0  0  0  0  0  0  0  0  0  0  0  0
    9.7977    1.4791   21.6912 N   0  0  0  0  0  0  0  0  0  0  0  0
    6.5976    9.3401   22.6478 N   0  0  0  0  0  0  0  0  0  0  0  0
   11.2031    3.0042   20.6246 C   0  0  0  0  0  0  0  0  0  0  0  0
   12.8688    7.7370   22.7287 C   0  0  0  0  0  0  0  0  0  0  0  0
    7.4487    9.1361   23.6506 C   0  0  0  0  0  0  0  0  0  0  0  0
    8.9772    2.5025   22.0273 C   0  0  0  0  0  0  0  0  0  0  0  0
   10.4859    4.0901   20.9730 C   0  0  0  0  0  0  0  0  0  0  0  0
   11.0962    9.3293   23.5072 C   0  0  0  0  0  0  0  0  0  0  0  0
    5.1273    7.8529   23.6208 N   0  0  0  0  0  0  0  0  0  0  0  0
    9.7552    9.2338   23.0171 N   0  0  0  0  0  0  0  0  0  0  0  0
   11.1797    6.7591   21.3326 N   0  0  0  0  0  0  0  0  0  0  0  0
   11.7728    8.0337   23.7267 C   0  0  0  0  0  0  0  0  0  0  0  0
    7.1194    8.3344   24.6775 C   0  0  0  0  0  0  0  0  0  0  0  0
    8.4311    4.7963   22.0500 C   0  0  0  0  0  0  0  0  0  0  0  0
    8.7393   10.8706   24.1871 O   0  0  0  0  0  0  0  0  0  0  0  0
    9.3093    3.8166   21.6712 C   0  0  0  0  0  0  0  0  0  0  0  0
  1  5  1  0
  1 15  4  0
  1 22  4  0
  2 20  1  0
  2 24  1  0
  3  6  4  0
  3 27  4  0
  4 22  4  0
  4 26  4  0
  6  7  4  0
  6 13  1  0
  7 19  4  0
  8 18  1  0
  8 23  1  0
  8 28  2  0
  9 17  1  0
  9 24  1  0
 10 11  1  0
 10 24  1  0
 11 23  1  0
 12 14  4  0
 12 16  4  0
 14 19  4  0
 15 18  4  0
 16 20  4  0
 17 25  1  0
 18 26  4  0
 19 29  4  0
 20 29  4  0
 21 23  1  0
 21 25  1  0
 27 29  4  0
M  END
$$$$

 Created by Python create_sdf_string function

 29 32  0  0  0  0  0  0  0  0999 V2000
    5.4450    8.7154   22.6662 C   0  0  0  0  0  0  0  0  0  0  0  0
   10.9154    5.4574   20.5483 C   0  0  0  0  0  0  0  0  0  0  0  0
    7.2709    4.5089   22.7542 C   0  0  0  0  0  0  0  0  0  0  0  0
    5.9698    7.6329   24.6581 C   0  0  0  0  0  0  0  0  0  0  0  0
    4.5542    8.9057   21.7104 O   0  0  0  0  0  0  0  0  0  0  0  0
    6.9895    3.2085   23.0690 C   0  0  0  0  0  0  0  0  0  0  0  0
    7.8391    2.2253   22.7260 N   0  0  0  0  0  0  0  0  0  0  0  0
    8.6968    9.8373   23.6359 C   0  0  0  0  0  0  0  0  0  0  0  0
   12.5135    6.5957   21.8396 C   0  0  0  0  0  0  0  0  0  0  0  0
   10.9406    8.2330   21.1350 C   0  0  0  0  0  0  0  0  0  0  0  0
    9.6648    8.5956   21.7310 C   0  0  0  0  0  0  0  0  0  0  0  0
   10.8829    1.7153   20.9865 C   0  0  0  0  0  0  0  0  0  0  0  0
    5.7768    2.8533   23.7910 C   0  0  0  0  0  0  0  0  0  0  0  0
    9.7977    1.4791   21.6912 N   0  0  0  0  0  0  0  0  0  0  0  0
    6.5976    9.3401   22.6478 N   0  0  0  0  0  0  0  0  0  0  0  0
   11.2031    3.0042   20.6246 C   0  0  0  0  0  0  0  0  0  0  0  0
   12.8688    7.7370   22.7287 C   0  0  0  0  0  0  0  0  0  0  0  0
    7.4487    9.1361   23.6506 C   0  0  0  0  0  0  0  0  0  0  0  0
    8.9772    2.5025   22.0273 C   0  0  0  0  0  0  0  0  0  0  0  0
   10.4859    4.0901   20.9730 C   0  0  0  0  0  0  0  0  0  0  0  0
   11.0962    9.3293   23.5072 C   0  0  0  0  0  0  0  0  0  0  0  0
    5.1273    7.8529   23.6208 N   0  0  0  0  0  0  0  0  0  0  0  0
    9.7552    9.2338   23.0171 N   0  0  0  0  0  0  0  0  0  0  0  0
   11.1797    6.7591   21.3326 N   0  0  0  0  0  0  0  0  0  0  0  0
   11.7728    8.0337   23.7267 C   0  0  0  0  0  0  0  0  0  0  0  0
    7.1194    8.3344   24.6775 C   0  0  0  0  0  0  0  0  0  0  0  0
    8.4311    4.7963   22.0500 C   0  0  0  0  0  0  0  0  0  0  0  0
    8.7393   10.8706   24.1871 O   0  0  0  0  0  0  0  0  0  0  0  0
    9.3093    3.8166   21.6712 C   0  0  0  0  0  0  0  0  0  0  0  0
  1  5  1  0
  1 15  4  0
  1 22  4  0
  2 20  1  0
  2 24  1  0
  3  6  4  0
  3 27  4  0
  4 22  4  0
  4 26  4  0
  6  7  4  0
  6 13  1  0
  7 19  4  0
  8 18  1  0
  8 23  1  0
  8 28  2  0
  9 17  1  0
  9 24  1  0
 10 11  1  0
 10 24  1  0
 11 23  1  0
 12 14  4  0
 12 16  4  0
 14 19  4  0
 15 18  4  0
 16 20  4  0
 17 25  1  0
 18 26  4  0
 19 29  4  0
 20 29  4  0
 21 23  1  0
 21 25  1  0
 27 29  4  0
M  END
$$$$

 Created by Python create_sdf_string function

 29 32  0  0  0  0  0  0  0  0999 V2000
    5.4450    8.7154   22.6662 C   0  0  0  0  0  0  0  0  0  0  0  0
   10.9154    5.4574   20.5483 C   0  0  0  0  0  0  0  0  0  0  0  0
    7.2709    4.5089   22.7542 C   0  0  0  0  0  0  0  0  0  0  0  0
    5.9698    7.6329   24.6581 C   0  0  0  0  0  0  0  0  0  0  0  0
    4.5542    8.9057   21.7104 O   0  0  0  0  0  0  0  0  0  0  0  0
    6.9895    3.2085   23.0690 C   0  0  0  0  0  0  0  0  0  0  0  0
    7.8391    2.2253   22.7260 N   0  0  0  0  0  0  0  0  0  0  0  0
    8.6968    9.8373   23.6359 C   0  0  0  0  0  0  0  0  0  0  0  0
   12.5135    6.5957   21.8396 C   0  0  0  0  0  0  0  0  0  0  0  0
   10.9406    8.2330   21.1350 C   0  0  0  0  0  0  0  0  0  0  0  0
    9.6648    8.5956   21.7310 C   0  0  0  0  0  0  0  0  0  0  0  0
   10.8829    1.7153   20.9865 C   0  0  0  0  0  0  0  0  0  0  0  0
    5.7768    2.8533   23.7910 C   0  0  0  0  0  0  0  0  0  0  0  0
    9.7977    1.4791   21.6912 N   0  0  0  0  0  0  0  0  0  0  0  0
    6.5976    9.3401   22.6478 N   0  0  0  0  0  0  0  0  0  0  0  0
   11.2031    3.0042   20.6246 C   0  0  0  0  0  0  0  0  0  0  0  0
   12.8688    7.7370   22.7287 C   0  0  0  0  0  0  0  0  0  0  0  0
    7.4487    9.1361   23.6506 C   0  0  0  0  0  0  0  0  0  0  0  0
    8.9772    2.5025   22.0273 C   0  0  0  0  0  0  0  0  0  0  0  0
   10.4859    4.0901   20.9730 C   0  0  0  0  0  0  0  0  0  0  0  0
   11.0962    9.3293   23.5072 C   0  0  0  0  0  0  0  0  0  0  0  0
    5.1273    7.8529   23.6208 N   0  0  0  0  0  0  0  0  0  0  0  0
    9.7552    9.2338   23.0171 N   0  0  0  0  0  0  0  0  0  0  0  0
   11.1797    6.7591   21.3326 N   0  0  0  0  0  0  0  0  0  0  0  0
   11.7728    8.0337   23.7267 C   0  0  0  0  0  0  0  0  0  0  0  0
    7.1194    8.3344   24.6775 C   0  0  0  0  0  0  0  0  0  0  0  0
    8.4311    4.7963   22.0500 C   0  0  0  0  0  0  0  0  0  0  0  0
    8.7393   10.8706   24.1871 O   0  0  0  0  0  0  0  0  0  0  0  0
    9.3093    3.8166   21.6712 C   0  0  0  0  0  0  0  0  0  0  0  0
  1  5  1  0
  1 15  4  0
  1 22  4  0
  2 20  1  0
  2 24  1  0
  3  6  4  0
  3 27  4  0
  4 22  4  0
  4 26  4  0
  6  7  4  0
  6 13  1  0
  7 19  4  0
  8 18  1  0
  8 23  1  0
  8 28  2  0
  9 17  1  0
  9 24  1  0
 10 11  1  0
 10 24  1  0
 11 23  1  0
 12 14  4  0
 12 16  4  0
 14 19  4  0
 15 18  4  0
 16 20  4  0
 17 25  1  0
 18 26  4  0
 19 29  4  0
 20 29  4  0
 21 23  1  0
 21 25  1  0
 27 29  4  0
M  END
$$$$

 Created by Python create_sdf_string function

 29 32  0  0  0  0  0  0  0  0999 V2000
    5.4450    8.7154   22.6662 C   0  0  0  0  0  0  0  0  0  0  0  0
   10.9154    5.4574   20.5483 C   0  0  0  0  0  0  0  0  0  0  0  0
    7.2709    4.5089   22.7542 C   0  0  0  0  0  0  0  0  0  0  0  0
    5.9698    7.6329   24.6581 C   0  0  0  0  0  0  0  0  0  0  0  0
    4.5542    8.9057   21.7104 O   0  0  0  0  0  0  0  0  0  0  0  0
    6.9895    3.2085   23.0690 C   0  0  0  0  0  0  0  0  0  0  0  0
    7.8391    2.2253   22.7260 N   0  0  0  0  0  0  0  0  0  0  0  0
    8.6968    9.8373   23.6359 C   0  0  0  0  0  0  0  0  0  0  0  0
   12.5135    6.5957   21.8396 C   0  0  0  0  0  0  0  0  0  0  0  0
   10.9406    8.2330   21.1350 C   0  0  0  0  0  0  0  0  0  0  0  0
    9.6648    8.5956   21.7310 C   0  0  0  0  0  0  0  0  0  0  0  0
   10.8829    1.7153   20.9865 C   0  0  0  0  0  0  0  0  0  0  0  0
    5.7768    2.8533   23.7910 C   0  0  0  0  0  0  0  0  0  0  0  0
    9.7977    1.4791   21.6912 N   0  0  0  0  0  0  0  0  0  0  0  0
    6.5976    9.3401   22.6478 N   0  0  0  0  0  0  0  0  0  0  0  0
   11.2031    3.0042   20.6246 C   0  0  0  0  0  0  0  0  0  0  0  0
   12.8688    7.7370   22.7287 C   0  0  0  0  0  0  0  0  0  0  0  0
    7.4487    9.1361   23.6506 C   0  0  0  0  0  0  0  0  0  0  0  0
    8.9772    2.5025   22.0273 C   0  0  0  0  0  0  0  0  0  0  0  0
   10.4859    4.0901   20.9730 C   0  0  0  0  0  0  0  0  0  0  0  0
   11.0962    9.3293   23.5072 C   0  0  0  0  0  0  0  0  0  0  0  0
    5.1273    7.8529   23.6208 N   0  0  0  0  0  0  0  0  0  0  0  0
    9.7552    9.2338   23.0171 N   0  0  0  0  0  0  0  0  0  0  0  0
   11.1797    6.7591   21.3326 N   0  0  0  0  0  0  0  0  0  0  0  0
   11.7728    8.0337   23.7267 C   0  0  0  0  0  0  0  0  0  0  0  0
    7.1194    8.3344   24.6775 C   0  0  0  0  0  0  0  0  0  0  0  0
    8.4311    4.7963   22.0500 C   0  0  0  0  0  0  0  0  0  0  0  0
    8.7393   10.8706   24.1871 O   0  0  0  0  0  0  0  0  0  0  0  0
    9.3093    3.8166   21.6712 C   0  0  0  0  0  0  0  0  0  0  0  0
  1  5  1  0
  1 15  4  0
  1 22  4  0
  2 20  1  0
  2 24  1  0
  3  6  4  0
  3 27  4  0
  4 22  4  0
  4 26  4  0
  6  7  4  0
  6 13  1  0
  7 19  4  0
  8 18  1  0
  8 23  1  0
  8 28  2  0
  9 17  1  0
  9 24  1  0
 10 11  1  0
 10 24  1  0
 11 23  1  0
 12 14  4  0
 12 16  4  0
 14 19  4  0
 15 18  4  0
 16 20  4  0
 17 25  1  0
 18 26  4  0
 19 29  4  0
 20 29  4  0
 21 23  1  0
 21 25  1  0
 27 29  4  0
M  END
$$$$

 Created by Python create_sdf_string function

 29 32  0  0  0  0  0  0  0  0999 V2000
    5.4450    8.7154   22.6662 C   0  0  0  0  0  0  0  0  0  0  0  0
   10.9154    5.4574   20.5483 C   0  0  0  0  0  0  0  0  0  0  0  0
    7.2709    4.5089   22.7542 C   0  0  0  0  0  0  0  0  0  0  0  0
    5.9698    7.6329   24.6581 C   0  0  0  0  0  0  0  0  0  0  0  0
    4.5542    8.9057   21.7104 O   0  0  0  0  0  0  0  0  0  0  0  0
    6.9895    3.2085   23.0690 C   0  0  0  0  0  0  0  0  0  0  0  0
    7.8391    2.2253   22.7260 N   0  0  0  0  0  0  0  0  0  0  0  0
    8.6968    9.8373   23.6359 C   0  0  0  0  0  0  0  0  0  0  0  0
   12.5135    6.5957   21.8396 C   0  0  0  0  0  0  0  0  0  0  0  0
   10.9406    8.2330   21.1350 C   0  0  0  0  0  0  0  0  0  0  0  0
    9.6648    8.5956   21.7310 C   0  0  0  0  0  0  0  0  0  0  0  0
   10.8829    1.7153   20.9865 C   0  0  0  0  0  0  0  0  0  0  0  0
    5.7768    2.8533   23.7910 C   0  0  0  0  0  0  0  0  0  0  0  0
    9.7977    1.4791   21.6912 N   0  0  0  0  0  0  0  0  0  0  0  0
    6.5976    9.3401   22.6478 N   0  0  0  0  0  0  0  0  0  0  0  0
   11.2031    3.0042   20.6246 C   0  0  0  0  0  0  0  0  0  0  0  0
   12.8688    7.7370   22.7287 C   0  0  0  0  0  0  0  0  0  0  0  0
    7.4487    9.1361   23.6506 C   0  0  0  0  0  0  0  0  0  0  0  0
    8.9772    2.5025   22.0273 C   0  0  0  0  0  0  0  0  0  0  0  0
   10.4859    4.0901   20.9730 C   0  0  0  0  0  0  0  0  0  0  0  0
   11.0962    9.3293   23.5072 C   0  0  0  0  0  0  0  0  0  0  0  0
    5.1273    7.8529   23.6208 N   0  0  0  0  0  0  0  0  0  0  0  0
    9.7552    9.2338   23.0171 N   0  0  0  0  0  0  0  0  0  0  0  0
   11.1797    6.7591   21.3326 N   0  0  0  0  0  0  0  0  0  0  0  0
   11.7728    8.0337   23.7267 C   0  0  0  0  0  0  0  0  0  0  0  0
    7.1194    8.3344   24.6775 C   0  0  0  0  0  0  0  0  0  0  0  0
    8.4311    4.7963   22.0500 C   0  0  0  0  0  0  0  0  0  0  0  0
    8.7393   10.8706   24.1871 O   0  0  0  0  0  0  0  0  0  0  0  0
    9.3093    3.8166   21.6712 C   0  0  0  0  0  0  0  0  0  0  0  0
  1  5  1  0
  1 15  4  0
  1 22  4  0
  2 20  1  0
  2 24  1  0
  3  6  4  0
  3 27  4  0
  4 22  4  0
  4 26  4  0
  6  7  4  0
  6 13  1  0
  7 19  4  0
  8 18  1  0
  8 23  1  0
  8 28  2  0
  9 17  1  0
  9 24  1  0
 10 11  1  0
 10 24  1  0
 11 23  1  0
 12 14  4  0
 12 16  4  0
 14 19  4  0
 15 18  4  0
 16 20  4  0
 17 25  1  0
 18 26  4  0
 19 29  4  0
 20 29  4  0
 21 23  1  0
 21 25  1  0
 27 29  4  0
M  END
$$$$

 Created by Python create_sdf_string function

 29 32  0  0  0  0  0  0  0  0999 V2000
    5.4450    8.7154   22.6662 C   0  0  0  0  0  0  0  0  0  0  0  0
   10.9154    5.4574   20.5483 C   0  0  0  0  0  0  0  0  0  0  0  0
    7.2709    4.5089   22.7542 C   0  0  0  0  0  0  0  0  0  0  0  0
    5.9698    7.6329   24.6581 C   0  0  0  0  0  0  0  0  0  0  0  0
    4.5542    8.9057   21.7104 O   0  0  0  0  0  0  0  0  0  0  0  0
    6.9895    3.2085   23.0690 C   0  0  0  0  0  0  0  0  0  0  0  0
    7.8391    2.2253   22.7260 N   0  0  0  0  0  0  0  0  0  0  0  0
    8.6968    9.8373   23.6359 C   0  0  0  0  0  0  0  0  0  0  0  0
   12.5135    6.5957   21.8396 C   0  0  0  0  0  0  0  0  0  0  0  0
   10.9406    8.2330   21.1350 C   0  0  0  0  0  0  0  0  0  0  0  0
    9.6648    8.5956   21.7310 C   0  0  0  0  0  0  0  0  0  0  0  0
   10.8829    1.7153   20.9865 C   0  0  0  0  0  0  0  0  0  0  0  0
    5.7768    2.8533   23.7910 C   0  0  0  0  0  0  0  0  0  0  0  0
    9.7977    1.4791   21.6912 N   0  0  0  0  0  0  0  0  0  0  0  0
    6.5976    9.3401   22.6478 N   0  0  0  0  0  0  0  0  0  0  0  0
   11.2031    3.0042   20.6246 C   0  0  0  0  0  0  0  0  0  0  0  0
   12.8688    7.7370   22.7287 C   0  0  0  0  0  0  0  0  0  0  0  0
    7.4487    9.1361   23.6506 C   0  0  0  0  0  0  0  0  0  0  0  0
    8.9772    2.5025   22.0273 C   0  0  0  0  0  0  0  0  0  0  0  0
   10.4859    4.0901   20.9730 C   0  0  0  0  0  0  0  0  0  0  0  0
   11.0962    9.3293   23.5072 C   0  0  0  0  0  0  0  0  0  0  0  0
    5.1273    7.8529   23.6208 N   0  0  0  0  0  0  0  0  0  0  0  0
    9.7552    9.2338   23.0171 N   0  0  0  0  0  0  0  0  0  0  0  0
   11.1797    6.7591   21.3326 N   0  0  0  0  0  0  0  0  0  0  0  0
   11.7728    8.0337   23.7267 C   0  0  0  0  0  0  0  0  0  0  0  0
    7.1194    8.3344   24.6775 C   0  0  0  0  0  0  0  0  0  0  0  0
    8.4311    4.7963   22.0500 C   0  0  0  0  0  0  0  0  0  0  0  0
    8.7393   10.8706   24.1871 O   0  0  0  0  0  0  0  0  0  0  0  0
    9.3093    3.8166   21.6712 C   0  0  0  0  0  0  0  0  0  0  0  0
  1  5  1  0
  1 15  4  0
  1 22  4  0
  2 20  1  0
  2 24  1  0
  3  6  4  0
  3 27  4  0
  4 22  4  0
  4 26  4  0
  6  7  4  0
  6 13  1  0
  7 19  4  0
  8 18  1  0
  8 23  1  0
  8 28  2  0
  9 17  1  0
  9 24  1  0
 10 11  1  0
 10 24  1  0
 11 23  1  0
 12 14  4  0
 12 16  4  0
 14 19  4  0
 15 18  4  0
 16 20  4  0
 17 25  1  0
 18 26  4  0
 19 29  4  0
 20 29  4  0
 21 23  1  0
 21 25  1  0
 27 29  4  0
M  END
$$$$

 Created by Python create_sdf_string function

 29 32  0  0  0  0  0  0  0  0999 V2000
    5.4450    8.7154   22.6662 C   0  0  0  0  0  0  0  0  0  0  0  0
   10.9154    5.4574   20.5483 C   0  0  0  0  0  0  0  0  0  0  0  0
    7.2709    4.5089   22.7542 C   0  0  0  0  0  0  0  0  0  0  0  0
    5.9698    7.6329   24.6581 C   0  0  0  0  0  0  0  0  0  0  0  0
    4.5542    8.9057   21.7104 O   0  0  0  0  0  0  0  0  0  0  0  0
    6.9895    3.2085   23.0690 C   0  0  0  0  0  0  0  0  0  0  0  0
    7.8391    2.2253   22.7260 N   0  0  0  0  0  0  0  0  0  0  0  0
    8.6968    9.8373   23.6359 C   0  0  0  0  0  0  0  0  0  0  0  0
   12.5135    6.5957   21.8396 C   0  0  0  0  0  0  0  0  0  0  0  0
   10.9406    8.2330   21.1350 C   0  0  0  0  0  0  0  0  0  0  0  0
    9.6648    8.5956   21.7310 C   0  0  0  0  0  0  0  0  0  0  0  0
   10.8829    1.7153   20.9865 C   0  0  0  0  0  0  0  0  0  0  0  0
    5.7768    2.8533   23.7910 C   0  0  0  0  0  0  0  0  0  0  0  0
    9.7977    1.4791   21.6912 N   0  0  0  0  0  0  0  0  0  0  0  0
    6.5976    9.3401   22.6478 N   0  0  0  0  0  0  0  0  0  0  0  0
   11.2031    3.0042   20.6246 C   0  0  0  0  0  0  0  0  0  0  0  0
   12.8688    7.7370   22.7287 C   0  0  0  0  0  0  0  0  0  0  0  0
    7.4487    9.1361   23.6506 C   0  0  0  0  0  0  0  0  0  0  0  0
    8.9772    2.5025   22.0273 C   0  0  0  0  0  0  0  0  0  0  0  0
   10.4859    4.0901   20.9730 C   0  0  0  0  0  0  0  0  0  0  0  0
   11.0962    9.3293   23.5072 C   0  0  0  0  0  0  0  0  0  0  0  0
    5.1273    7.8529   23.6208 N   0  0  0  0  0  0  0  0  0  0  0  0
    9.7552    9.2338   23.0171 N   0  0  0  0  0  0  0  0  0  0  0  0
   11.1797    6.7591   21.3326 N   0  0  0  0  0  0  0  0  0  0  0  0
   11.7728    8.0337   23.7267 C   0  0  0  0  0  0  0  0  0  0  0  0
    7.1194    8.3344   24.6775 C   0  0  0  0  0  0  0  0  0  0  0  0
    8.4311    4.7963   22.0500 C   0  0  0  0  0  0  0  0  0  0  0  0
    8.7393   10.8706   24.1871 O   0  0  0  0  0  0  0  0  0  0  0  0
    9.3093    3.8166   21.6712 C   0  0  0  0  0  0  0  0  0  0  0  0
  1  5  1  0
  1 15  4  0
  1 22  4  0
  2 20  1  0
  2 24  1  0
  3  6  4  0
  3 27  4  0
  4 22  4  0
  4 26  4  0
  6  7  4  0
  6 13  1  0
  7 19  4  0
  8 18  1  0
  8 23  1  0
  8 28  2  0
  9 17  1  0
  9 24  1  0
 10 11  1  0
 10 24  1  0
 11 23  1  0
 12 14  4  0
 12 16  4  0
 14 19  4  0
 15 18  4  0
 16 20  4  0
 17 25  1  0
 18 26  4  0
 19 29  4  0
 20 29  4  0
 21 23  1  0
 21 25  1  0
 27 29  4  0
M  END
$$$$

 Created by Python create_sdf_string function

 29 32  0  0  0  0  0  0  0  0999 V2000
    5.4450    8.7154   22.6662 C   0  0  0  0  0  0  0  0  0  0  0  0
   10.9154    5.4574   20.5483 C   0  0  0  0  0  0  0  0  0  0  0  0
    7.2709    4.5089   22.7542 C   0  0  0  0  0  0  0  0  0  0  0  0
    5.9698    7.6329   24.6581 C   0  0  0  0  0  0  0  0  0  0  0  0
    4.5542    8.9057   21.7104 O   0  0  0  0  0  0  0  0  0  0  0  0
    6.9895    3.2085   23.0690 C   0  0  0  0  0  0  0  0  0  0  0  0
    7.8391    2.2253   22.7260 N   0  0  0  0  0  0  0  0  0  0  0  0
    8.6968    9.8373   23.6359 C   0  0  0  0  0  0  0  0  0  0  0  0
   12.5135    6.5957   21.8396 C   0  0  0  0  0  0  0  0  0  0  0  0
   10.9406    8.2330   21.1350 C   0  0  0  0  0  0  0  0  0  0  0  0
    9.6648    8.5956   21.7310 C   0  0  0  0  0  0  0  0  0  0  0  0
   10.8829    1.7153   20.9865 C   0  0  0  0  0  0  0  0  0  0  0  0
    5.7768    2.8533   23.7910 C   0  0  0  0  0  0  0  0  0  0  0  0
    9.7977    1.4791   21.6912 N   0  0  0  0  0  0  0  0  0  0  0  0
    6.5976    9.3401   22.6478 N   0  0  0  0  0  0  0  0  0  0  0  0
   11.2031    3.0042   20.6246 C   0  0  0  0  0  0  0  0  0  0  0  0
   12.8688    7.7370   22.7287 C   0  0  0  0  0  0  0  0  0  0  0  0
    7.4487    9.1361   23.6506 C   0  0  0  0  0  0  0  0  0  0  0  0
    8.9772    2.5025   22.0273 C   0  0  0  0  0  0  0  0  0  0  0  0
   10.4859    4.0901   20.9730 C   0  0  0  0  0  0  0  0  0  0  0  0
   11.0962    9.3293   23.5072 C   0  0  0  0  0  0  0  0  0  0  0  0
    5.1273    7.8529   23.6208 N   0  0  0  0  0  0  0  0  0  0  0  0
    9.7552    9.2338   23.0171 N   0  0  0  0  0  0  0  0  0  0  0  0
   11.1797    6.7591   21.3326 N   0  0  0  0  0  0  0  0  0  0  0  0
   11.7728    8.0337   23.7267 C   0  0  0  0  0  0  0  0  0  0  0  0
    7.1194    8.3344   24.6775 C   0  0  0  0  0  0  0  0  0  0  0  0
    8.4311    4.7963   22.0500 C   0  0  0  0  0  0  0  0  0  0  0  0
    8.7393   10.8706   24.1871 O   0  0  0  0  0  0  0  0  0  0  0  0
    9.3093    3.8166   21.6712 C   0  0  0  0  0  0  0  0  0  0  0  0
  1  5  1  0
  1 15  4  0
  1 22  4  0
  2 20  1  0
  2 24  1  0
  3  6  4  0
  3 27  4  0
  4 22  4  0
  4 26  4  0
  6  7  4  0
  6 13  1  0
  7 19  4  0
  8 18  1  0
  8 23  1  0
  8 28  2  0
  9 17  1  0
  9 24  1  0
 10 11  1  0
 10 24  1  0
 11 23  1  0
 12 14  4  0
 12 16  4  0
 14 19  4  0
 15 18  4  0
 16 20  4  0
 17 25  1  0
 18 26  4  0
 19 29  4  0
 20 29  4  0
 21 23  1  0
 21 25  1  0
 27 29  4  0
M  END
$$$$

 Created by Python create_sdf_string function

 29 32  0  0  0  0  0  0  0  0999 V2000
    5.4450    8.7154   22.6662 C   0  0  0  0  0  0  0  0  0  0  0  0
   10.9154    5.4574   20.5483 C   0  0  0  0  0  0  0  0  0  0  0  0
    7.2709    4.5089   22.7542 C   0  0  0  0  0  0  0  0  0  0  0  0
    5.9698    7.6329   24.6581 C   0  0  0  0  0  0  0  0  0  0  0  0
    4.5542    8.9057   21.7104 O   0  0  0  0  0  0  0  0  0  0  0  0
    6.9895    3.2085   23.0690 C   0  0  0  0  0  0  0  0  0  0  0  0
    7.8391    2.2253   22.7260 N   0  0  0  0  0  0  0  0  0  0  0  0
    8.6968    9.8373   23.6359 C   0  0  0  0  0  0  0  0  0  0  0  0
   12.5135    6.5957   21.8396 C   0  0  0  0  0  0  0  0  0  0  0  0
   10.9406    8.2330   21.1350 C   0  0  0  0  0  0  0  0  0  0  0  0
    9.6648    8.5956   21.7310 C   0  0  0  0  0  0  0  0  0  0  0  0
   10.8829    1.7153   20.9865 C   0  0  0  0  0  0  0  0  0  0  0  0
    5.7768    2.8533   23.7910 C   0  0  0  0  0  0  0  0  0  0  0  0
    9.7977    1.4791   21.6912 N   0  0  0  0  0  0  0  0  0  0  0  0
    6.5976    9.3401   22.6478 N   0  0  0  0  0  0  0  0  0  0  0  0
   11.2031    3.0042   20.6246 C   0  0  0  0  0  0  0  0  0  0  0  0
   12.8688    7.7370   22.7287 C   0  0  0  0  0  0  0  0  0  0  0  0
    7.4487    9.1361   23.6506 C   0  0  0  0  0  0  0  0  0  0  0  0
    8.9772    2.5025   22.0273 C   0  0  0  0  0  0  0  0  0  0  0  0
   10.4859    4.0901   20.9730 C   0  0  0  0  0  0  0  0  0  0  0  0
   11.0962    9.3293   23.5072 C   0  0  0  0  0  0  0  0  0  0  0  0
    5.1273    7.8529   23.6208 N   0  0  0  0  0  0  0  0  0  0  0  0
    9.7552    9.2338   23.0171 N   0  0  0  0  0  0  0  0  0  0  0  0
   11.1797    6.7591   21.3326 N   0  0  0  0  0  0  0  0  0  0  0  0
   11.7728    8.0337   23.7267 C   0  0  0  0  0  0  0  0  0  0  0  0
    7.1194    8.3344   24.6775 C   0  0  0  0  0  0  0  0  0  0  0  0
    8.4311    4.7963   22.0500 C   0  0  0  0  0  0  0  0  0  0  0  0
    8.7393   10.8706   24.1871 O   0  0  0  0  0  0  0  0  0  0  0  0
    9.3093    3.8166   21.6712 C   0  0  0  0  0  0  0  0  0  0  0  0
  1  5  1  0
  1 15  4  0
  1 22  4  0
  2 20  1  0
  2 24  1  0
  3  6  4  0
  3 27  4  0
  4 22  4  0
  4 26  4  0
  6  7  4  0
  6 13  1  0
  7 19  4  0
  8 18  1  0
  8 23  1  0
  8 28  2  0
  9 17  1  0
  9 24  1  0
 10 11  1  0
 10 24  1  0
 11 23  1  0
 12 14  4  0
 12 16  4  0
 14 19  4  0
 15 18  4  0
 16 20  4  0
 17 25  1  0
 18 26  4  0
 19 29  4  0
 20 29  4  0
 21 23  1  0
 21 25  1  0
 27 29  4  0
M  END
$$$$

 Created by Python create_sdf_string function

 29 32  0  0  0  0  0  0  0  0999 V2000
    5.4450    8.7154   22.6662 C   0  0  0  0  0  0  0  0  0  0  0  0
   10.9154    5.4574   20.5483 C   0  0  0  0  0  0  0  0  0  0  0  0
    7.2709    4.5089   22.7542 C   0  0  0  0  0  0  0  0  0  0  0  0
    5.9698    7.6329   24.6581 C   0  0  0  0  0  0  0  0  0  0  0  0
    4.5542    8.9057   21.7104 O   0  0  0  0  0  0  0  0  0  0  0  0
    6.9895    3.2085   23.0690 C   0  0  0  0  0  0  0  0  0  0  0  0
    7.8391    2.2253   22.7260 N   0  0  0  0  0  0  0  0  0  0  0  0
    8.6968    9.8373   23.6359 C   0  0  0  0  0  0  0  0  0  0  0  0
   12.5135    6.5957   21.8396 C   0  0  0  0  0  0  0  0  0  0  0  0
   10.9406    8.2330   21.1350 C   0  0  0  0  0  0  0  0  0  0  0  0
    9.6648    8.5956   21.7310 C   0  0  0  0  0  0  0  0  0  0  0  0
   10.8829    1.7153   20.9865 C   0  0  0  0  0  0  0  0  0  0  0  0
    5.7768    2.8533   23.7910 C   0  0  0  0  0  0  0  0  0  0  0  0
    9.7977    1.4791   21.6912 N   0  0  0  0  0  0  0  0  0  0  0  0
    6.5976    9.3401   22.6478 N   0  0  0  0  0  0  0  0  0  0  0  0
   11.2031    3.0042   20.6246 C   0  0  0  0  0  0  0  0  0  0  0  0
   12.8688    7.7370   22.7287 C   0  0  0  0  0  0  0  0  0  0  0  0
    7.4487    9.1361   23.6506 C   0  0  0  0  0  0  0  0  0  0  0  0
    8.9772    2.5025   22.0273 C   0  0  0  0  0  0  0  0  0  0  0  0
   10.4859    4.0901   20.9730 C   0  0  0  0  0  0  0  0  0  0  0  0
   11.0962    9.3293   23.5072 C   0  0  0  0  0  0  0  0  0  0  0  0
    5.1273    7.8529   23.6208 N   0  0  0  0  0  0  0  0  0  0  0  0
    9.7552    9.2338   23.0171 N   0  0  0  0  0  0  0  0  0  0  0  0
   11.1797    6.7591   21.3326 N   0  0  0  0  0  0  0  0  0  0  0  0
   11.7728    8.0337   23.7267 C   0  0  0  0  0  0  0  0  0  0  0  0
    7.1194    8.3344   24.6775 C   0  0  0  0  0  0  0  0  0  0  0  0
    8.4311    4.7963   22.0500 C   0  0  0  0  0  0  0  0  0  0  0  0
    8.7393   10.8706   24.1871 O   0  0  0  0  0  0  0  0  0  0  0  0
    9.3093    3.8166   21.6712 C   0  0  0  0  0  0  0  0  0  0  0  0
  1  5  1  0
  1 15  4  0
  1 22  4  0
  2 20  1  0
  2 24  1  0
  3  6  4  0
  3 27  4  0
  4 22  4  0
  4 26  4  0
  6  7  4  0
  6 13  1  0
  7 19  4  0
  8 18  1  0
  8 23  1  0
  8 28  2  0
  9 17  1  0
  9 24  1  0
 10 11  1  0
 10 24  1  0
 11 23  1  0
 12 14  4  0
 12 16  4  0
 14 19  4  0
 15 18  4  0
 16 20  4  0
 17 25  1  0
 18 26  4  0
 19 29  4  0
 20 29  4  0
 21 23  1  0
 21 25  1  0
 27 29  4  0
M  END
$$$$

 Created by Python create_sdf_string function

 29 32  0  0  0  0  0  0  0  0999 V2000
    5.4450    8.7154   22.6662 C   0  0  0  0  0  0  0  0  0  0  0  0
   10.9154    5.4574   20.5483 C   0  0  0  0  0  0  0  0  0  0  0  0
    7.2709    4.5089   22.7542 C   0  0  0  0  0  0  0  0  0  0  0  0
    5.9698    7.6329   24.6581 C   0  0  0  0  0  0  0  0  0  0  0  0
    4.5542    8.9057   21.7104 O   0  0  0  0  0  0  0  0  0  0  0  0
    6.9895    3.2085   23.0690 C   0  0  0  0  0  0  0  0  0  0  0  0
    7.8391    2.2253   22.7260 N   0  0  0  0  0  0  0  0  0  0  0  0
    8.6968    9.8373   23.6359 C   0  0  0  0  0  0  0  0  0  0  0  0
   12.5135    6.5957   21.8396 C   0  0  0  0  0  0  0  0  0  0  0  0
   10.9406    8.2330   21.1350 C   0  0  0  0  0  0  0  0  0  0  0  0
    9.6648    8.5956   21.7310 C   0  0  0  0  0  0  0  0  0  0  0  0
   10.8829    1.7153   20.9865 C   0  0  0  0  0  0  0  0  0  0  0  0
    5.7768    2.8533   23.7910 C   0  0  0  0  0  0  0  0  0  0  0  0
    9.7977    1.4791   21.6912 N   0  0  0  0  0  0  0  0  0  0  0  0
    6.5976    9.3401   22.6478 N   0  0  0  0  0  0  0  0  0  0  0  0
   11.2031    3.0042   20.6246 C   0  0  0  0  0  0  0  0  0  0  0  0
   12.8688    7.7370   22.7287 C   0  0  0  0  0  0  0  0  0  0  0  0
    7.4487    9.1361   23.6506 C   0  0  0  0  0  0  0  0  0  0  0  0
    8.9772    2.5025   22.0273 C   0  0  0  0  0  0  0  0  0  0  0  0
   10.4859    4.0901   20.9730 C   0  0  0  0  0  0  0  0  0  0  0  0
   11.0962    9.3293   23.5072 C   0  0  0  0  0  0  0  0  0  0  0  0
    5.1273    7.8529   23.6208 N   0  0  0  0  0  0  0  0  0  0  0  0
    9.7552    9.2338   23.0171 N   0  0  0  0  0  0  0  0  0  0  0  0
   11.1797    6.7591   21.3326 N   0  0  0  0  0  0  0  0  0  0  0  0
   11.7728    8.0337   23.7267 C   0  0  0  0  0  0  0  0  0  0  0  0
    7.1194    8.3344   24.6775 C   0  0  0  0  0  0  0  0  0  0  0  0
    8.4311    4.7963   22.0500 C   0  0  0  0  0  0  0  0  0  0  0  0
    8.7393   10.8706   24.1871 O   0  0  0  0  0  0  0  0  0  0  0  0
    9.3093    3.8166   21.6712 C   0  0  0  0  0  0  0  0  0  0  0  0
  1  5  1  0
  1 15  4  0
  1 22  4  0
  2 20  1  0
  2 24  1  0
  3  6  4  0
  3 27  4  0
  4 22  4  0
  4 26  4  0
  6  7  4  0
  6 13  1  0
  7 19  4  0
  8 18  1  0
  8 23  1  0
  8 28  2  0
  9 17  1  0
  9 24  1  0
 10 11  1  0
 10 24  1  0
 11 23  1  0
 12 14  4  0
 12 16  4  0
 14 19  4  0
 15 18  4  0
 16 20  4  0
 17 25  1  0
 18 26  4  0
 19 29  4  0
 20 29  4  0
 21 23  1  0
 21 25  1  0
 27 29  4  0
M  END
$$$$

 Created by Python create_sdf_string function

 29 32  0  0  0  0  0  0  0  0999 V2000
    5.4450    8.7154   22.6662 C   0  0  0  0  0  0  0  0  0  0  0  0
   10.9154    5.4574   20.5483 C   0  0  0  0  0  0  0  0  0  0  0  0
    7.2709    4.5089   22.7542 C   0  0  0  0  0  0  0  0  0  0  0  0
    5.9698    7.6329   24.6581 C   0  0  0  0  0  0  0  0  0  0  0  0
    4.5542    8.9057   21.7104 O   0  0  0  0  0  0  0  0  0  0  0  0
    6.9895    3.2085   23.0690 C   0  0  0  0  0  0  0  0  0  0  0  0
    7.8391    2.2253   22.7260 N   0  0  0  0  0  0  0  0  0  0  0  0
    8.6968    9.8373   23.6359 C   0  0  0  0  0  0  0  0  0  0  0  0
   12.5135    6.5957   21.8396 C   0  0  0  0  0  0  0  0  0  0  0  0
   10.9406    8.2330   21.1350 C   0  0  0  0  0  0  0  0  0  0  0  0
    9.6648    8.5956   21.7310 C   0  0  0  0  0  0  0  0  0  0  0  0
   10.8829    1.7153   20.9865 C   0  0  0  0  0  0  0  0  0  0  0  0
    5.7768    2.8533   23.7910 C   0  0  0  0  0  0  0  0  0  0  0  0
    9.7977    1.4791   21.6912 N   0  0  0  0  0  0  0  0  0  0  0  0
    6.5976    9.3401   22.6478 N   0  0  0  0  0  0  0  0  0  0  0  0
   11.2031    3.0042   20.6246 C   0  0  0  0  0  0  0  0  0  0  0  0
   12.8688    7.7370   22.7287 C   0  0  0  0  0  0  0  0  0  0  0  0
    7.4487    9.1361   23.6506 C   0  0  0  0  0  0  0  0  0  0  0  0
    8.9772    2.5025   22.0273 C   0  0  0  0  0  0  0  0  0  0  0  0
   10.4859    4.0901   20.9730 C   0  0  0  0  0  0  0  0  0  0  0  0
   11.0962    9.3293   23.5072 C   0  0  0  0  0  0  0  0  0  0  0  0
    5.1273    7.8529   23.6208 N   0  0  0  0  0  0  0  0  0  0  0  0
    9.7552    9.2338   23.0171 N   0  0  0  0  0  0  0  0  0  0  0  0
   11.1797    6.7591   21.3326 N   0  0  0  0  0  0  0  0  0  0  0  0
   11.7728    8.0337   23.7267 C   0  0  0  0  0  0  0  0  0  0  0  0
    7.1194    8.3344   24.6775 C   0  0  0  0  0  0  0  0  0  0  0  0
    8.4311    4.7963   22.0500 C   0  0  0  0  0  0  0  0  0  0  0  0
    8.7393   10.8706   24.1871 O   0  0  0  0  0  0  0  0  0  0  0  0
    9.3093    3.8166   21.6712 C   0  0  0  0  0  0  0  0  0  0  0  0
  1  5  1  0
  1 15  4  0
  1 22  4  0
  2 20  1  0
  2 24  1  0
  3  6  4  0
  3 27  4  0
  4 22  4  0
  4 26  4  0
  6  7  4  0
  6 13  1  0
  7 19  4  0
  8 18  1  0
  8 23  1  0
  8 28  2  0
  9 17  1  0
  9 24  1  0
 10 11  1  0
 10 24  1  0
 11 23  1  0
 12 14  4  0
 12 16  4  0
 14 19  4  0
 15 18  4  0
 16 20  4  0
 17 25  1  0
 18 26  4  0
 19 29  4  0
 20 29  4  0
 21 23  1  0
 21 25  1  0
 27 29  4  0
M  END
$$$$

 Created by Python create_sdf_string function

 29 32  0  0  0  0  0  0  0  0999 V2000
    5.4450    8.7154   22.6662 C   0  0  0  0  0  0  0  0  0  0  0  0
   10.9154    5.4574   20.5483 C   0  0  0  0  0  0  0  0  0  0  0  0
    7.2709    4.5089   22.7542 C   0  0  0  0  0  0  0  0  0  0  0  0
    5.9698    7.6329   24.6581 C   0  0  0  0  0  0  0  0  0  0  0  0
    4.5542    8.9057   21.7104 O   0  0  0  0  0  0  0  0  0  0  0  0
    6.9895    3.2085   23.0690 C   0  0  0  0  0  0  0  0  0  0  0  0
    7.8391    2.2253   22.7260 N   0  0  0  0  0  0  0  0  0  0  0  0
    8.6968    9.8373   23.6359 C   0  0  0  0  0  0  0  0  0  0  0  0
   12.5135    6.5957   21.8396 C   0  0  0  0  0  0  0  0  0  0  0  0
   10.9406    8.2330   21.1350 C   0  0  0  0  0  0  0  0  0  0  0  0
    9.6648    8.5956   21.7310 C   0  0  0  0  0  0  0  0  0  0  0  0
   10.8829    1.7153   20.9865 C   0  0  0  0  0  0  0  0  0  0  0  0
    5.7768    2.8533   23.7910 C   0  0  0  0  0  0  0  0  0  0  0  0
    9.7977    1.4791   21.6912 N   0  0  0  0  0  0  0  0  0  0  0  0
    6.5976    9.3401   22.6478 N   0  0  0  0  0  0  0  0  0  0  0  0
   11.2031    3.0042   20.6246 C   0  0  0  0  0  0  0  0  0  0  0  0
   12.8688    7.7370   22.7287 C   0  0  0  0  0  0  0  0  0  0  0  0
    7.4487    9.1361   23.6506 C   0  0  0  0  0  0  0  0  0  0  0  0
    8.9772    2.5025   22.0273 C   0  0  0  0  0  0  0  0  0  0  0  0
   10.4859    4.0901   20.9730 C   0  0  0  0  0  0  0  0  0  0  0  0
   11.0962    9.3293   23.5072 C   0  0  0  0  0  0  0  0  0  0  0  0
    5.1273    7.8529   23.6208 N   0  0  0  0  0  0  0  0  0  0  0  0
    9.7552    9.2338   23.0171 N   0  0  0  0  0  0  0  0  0  0  0  0
   11.1797    6.7591   21.3326 N   0  0  0  0  0  0  0  0  0  0  0  0
   11.7728    8.0337   23.7267 C   0  0  0  0  0  0  0  0  0  0  0  0
    7.1194    8.3344   24.6775 C   0  0  0  0  0  0  0  0  0  0  0  0
    8.4311    4.7963   22.0500 C   0  0  0  0  0  0  0  0  0  0  0  0
    8.7393   10.8706   24.1871 O   0  0  0  0  0  0  0  0  0  0  0  0
    9.3093    3.8166   21.6712 C   0  0  0  0  0  0  0  0  0  0  0  0
  1  5  1  0
  1 15  4  0
  1 22  4  0
  2 20  1  0
  2 24  1  0
  3  6  4  0
  3 27  4  0
  4 22  4  0
  4 26  4  0
  6  7  4  0
  6 13  1  0
  7 19  4  0
  8 18  1  0
  8 23  1  0
  8 28  2  0
  9 17  1  0
  9 24  1  0
 10 11  1  0
 10 24  1  0
 11 23  1  0
 12 14  4  0
 12 16  4  0
 14 19  4  0
 15 18  4  0
 16 20  4  0
 17 25  1  0
 18 26  4  0
 19 29  4  0
 20 29  4  0
 21 23  1  0
 21 25  1  0
 27 29  4  0
M  END
$$$$

 Created by Python create_sdf_string function

 29 32  0  0  0  0  0  0  0  0999 V2000
    5.4450    8.7154   22.6662 C   0  0  0  0  0  0  0  0  0  0  0  0
   10.9154    5.4574   20.5483 C   0  0  0  0  0  0  0  0  0  0  0  0
    7.2709    4.5089   22.7542 C   0  0  0  0  0  0  0  0  0  0  0  0
    5.9698    7.6329   24.6581 C   0  0  0  0  0  0  0  0  0  0  0  0
    4.5542    8.9057   21.7104 O   0  0  0  0  0  0  0  0  0  0  0  0
    6.9895    3.2085   23.0690 C   0  0  0  0  0  0  0  0  0  0  0  0
    7.8391    2.2253   22.7260 N   0  0  0  0  0  0  0  0  0  0  0  0
    8.6968    9.8373   23.6359 C   0  0  0  0  0  0  0  0  0  0  0  0
   12.5135    6.5957   21.8396 C   0  0  0  0  0  0  0  0  0  0  0  0
   10.9406    8.2330   21.1350 C   0  0  0  0  0  0  0  0  0  0  0  0
    9.6648    8.5956   21.7310 C   0  0  0  0  0  0  0  0  0  0  0  0
   10.8829    1.7153   20.9865 C   0  0  0  0  0  0  0  0  0  0  0  0
    5.7768    2.8533   23.7910 C   0  0  0  0  0  0  0  0  0  0  0  0
    9.7977    1.4791   21.6912 N   0  0  0  0  0  0  0  0  0  0  0  0
    6.5976    9.3401   22.6478 N   0  0  0  0  0  0  0  0  0  0  0  0
   11.2031    3.0042   20.6246 C   0  0  0  0  0  0  0  0  0  0  0  0
   12.8688    7.7370   22.7287 C   0  0  0  0  0  0  0  0  0  0  0  0
    7.4487    9.1361   23.6506 C   0  0  0  0  0  0  0  0  0  0  0  0
    8.9772    2.5025   22.0273 C   0  0  0  0  0  0  0  0  0  0  0  0
   10.4859    4.0901   20.9730 C   0  0  0  0  0  0  0  0  0  0  0  0
   11.0962    9.3293   23.5072 C   0  0  0  0  0  0  0  0  0  0  0  0
    5.1273    7.8529   23.6208 N   0  0  0  0  0  0  0  0  0  0  0  0
    9.7552    9.2338   23.0171 N   0  0  0  0  0  0  0  0  0  0  0  0
   11.1797    6.7591   21.3326 N   0  0  0  0  0  0  0  0  0  0  0  0
   11.7728    8.0337   23.7267 C   0  0  0  0  0  0  0  0  0  0  0  0
    7.1194    8.3344   24.6775 C   0  0  0  0  0  0  0  0  0  0  0  0
    8.4311    4.7963   22.0500 C   0  0  0  0  0  0  0  0  0  0  0  0
    8.7393   10.8706   24.1871 O   0  0  0  0  0  0  0  0  0  0  0  0
    9.3093    3.8166   21.6712 C   0  0  0  0  0  0  0  0  0  0  0  0
  1  5  1  0
  1 15  4  0
  1 22  4  0
  2 20  1  0
  2 24  1  0
  3  6  4  0
  3 27  4  0
  4 22  4  0
  4 26  4  0
  6  7  4  0
  6 13  1  0
  7 19  4  0
  8 18  1  0
  8 23  1  0
  8 28  2  0
  9 17  1  0
  9 24  1  0
 10 11  1  0
 10 24  1  0
 11 23  1  0
 12 14  4  0
 12 16  4  0
 14 19  4  0
 15 18  4  0
 16 20  4  0
 17 25  1  0
 18 26  4  0
 19 29  4  0
 20 29  4  0
 21 23  1  0
 21 25  1  0
 27 29  4  0
M  END
$$$$

 Created by Python create_sdf_string function

 29 32  0  0  0  0  0  0  0  0999 V2000
    5.4450    8.7154   22.6662 C   0  0  0  0  0  0  0  0  0  0  0  0
   10.9154    5.4574   20.5483 C   0  0  0  0  0  0  0  0  0  0  0  0
    7.2709    4.5089   22.7542 C   0  0  0  0  0  0  0  0  0  0  0  0
    5.9698    7.6329   24.6581 C   0  0  0  0  0  0  0  0  0  0  0  0
    4.5542    8.9057   21.7104 O   0  0  0  0  0  0  0  0  0  0  0  0
    6.9895    3.2085   23.0690 C   0  0  0  0  0  0  0  0  0  0  0  0
    7.8391    2.2253   22.7260 N   0  0  0  0  0  0  0  0  0  0  0  0
    8.6968    9.8373   23.6359 C   0  0  0  0  0  0  0  0  0  0  0  0
   12.5135    6.5957   21.8396 C   0  0  0  0  0  0  0  0  0  0  0  0
   10.9406    8.2330   21.1350 C   0  0  0  0  0  0  0  0  0  0  0  0
    9.6648    8.5956   21.7310 C   0  0  0  0  0  0  0  0  0  0  0  0
   10.8829    1.7153   20.9865 C   0  0  0  0  0  0  0  0  0  0  0  0
    5.7768    2.8533   23.7910 C   0  0  0  0  0  0  0  0  0  0  0  0
    9.7977    1.4791   21.6912 N   0  0  0  0  0  0  0  0  0  0  0  0
    6.5976    9.3401   22.6478 N   0  0  0  0  0  0  0  0  0  0  0  0
   11.2031    3.0042   20.6246 C   0  0  0  0  0  0  0  0  0  0  0  0
   12.8688    7.7370   22.7287 C   0  0  0  0  0  0  0  0  0  0  0  0
    7.4487    9.1361   23.6506 C   0  0  0  0  0  0  0  0  0  0  0  0
    8.9772    2.5025   22.0273 C   0  0  0  0  0  0  0  0  0  0  0  0
   10.4859    4.0901   20.9730 C   0  0  0  0  0  0  0  0  0  0  0  0
   11.0962    9.3293   23.5072 C   0  0  0  0  0  0  0  0  0  0  0  0
    5.1273    7.8529   23.6208 N   0  0  0  0  0  0  0  0  0  0  0  0
    9.7552    9.2338   23.0171 N   0  0  0  0  0  0  0  0  0  0  0  0
   11.1797    6.7591   21.3326 N   0  0  0  0  0  0  0  0  0  0  0  0
   11.7728    8.0337   23.7267 C   0  0  0  0  0  0  0  0  0  0  0  0
    7.1194    8.3344   24.6775 C   0  0  0  0  0  0  0  0  0  0  0  0
    8.4311    4.7963   22.0500 C   0  0  0  0  0  0  0  0  0  0  0  0
    8.7393   10.8706   24.1871 O   0  0  0  0  0  0  0  0  0  0  0  0
    9.3093    3.8166   21.6712 C   0  0  0  0  0  0  0  0  0  0  0  0
  1  5  1  0
  1 15  4  0
  1 22  4  0
  2 20  1  0
  2 24  1  0
  3  6  4  0
  3 27  4  0
  4 22  4  0
  4 26  4  0
  6  7  4  0
  6 13  1  0
  7 19  4  0
  8 18  1  0
  8 23  1  0
  8 28  2  0
  9 17  1  0
  9 24  1  0
 10 11  1  0
 10 24  1  0
 11 23  1  0
 12 14  4  0
 12 16  4  0
 14 19  4  0
 15 18  4  0
 16 20  4  0
 17 25  1  0
 18 26  4  0
 19 29  4  0
 20 29  4  0
 21 23  1  0
 21 25  1  0
 27 29  4  0
M  END
$$$$

 Created by Python create_sdf_string function

 29 32  0  0  0  0  0  0  0  0999 V2000
    5.4450    8.7154   22.6662 C   0  0  0  0  0  0  0  0  0  0  0  0
   10.9154    5.4574   20.5483 C   0  0  0  0  0  0  0  0  0  0  0  0
    7.2709    4.5089   22.7542 C   0  0  0  0  0  0  0  0  0  0  0  0
    5.9698    7.6329   24.6581 C   0  0  0  0  0  0  0  0  0  0  0  0
    4.5542    8.9057   21.7104 O   0  0  0  0  0  0  0  0  0  0  0  0
    6.9895    3.2085   23.0690 C   0  0  0  0  0  0  0  0  0  0  0  0
    7.8391    2.2253   22.7260 N   0  0  0  0  0  0  0  0  0  0  0  0
    8.6968    9.8373   23.6359 C   0  0  0  0  0  0  0  0  0  0  0  0
   12.5135    6.5957   21.8396 C   0  0  0  0  0  0  0  0  0  0  0  0
   10.9406    8.2330   21.1350 C   0  0  0  0  0  0  0  0  0  0  0  0
    9.6648    8.5956   21.7310 C   0  0  0  0  0  0  0  0  0  0  0  0
   10.8829    1.7153   20.9865 C   0  0  0  0  0  0  0  0  0  0  0  0
    5.7768    2.8533   23.7910 C   0  0  0  0  0  0  0  0  0  0  0  0
    9.7977    1.4791   21.6912 N   0  0  0  0  0  0  0  0  0  0  0  0
    6.5976    9.3401   22.6478 N   0  0  0  0  0  0  0  0  0  0  0  0
   11.2031    3.0042   20.6246 C   0  0  0  0  0  0  0  0  0  0  0  0
   12.8688    7.7370   22.7287 C   0  0  0  0  0  0  0  0  0  0  0  0
    7.4487    9.1361   23.6506 C   0  0  0  0  0  0  0  0  0  0  0  0
    8.9772    2.5025   22.0273 C   0  0  0  0  0  0  0  0  0  0  0  0
   10.4859    4.0901   20.9730 C   0  0  0  0  0  0  0  0  0  0  0  0
   11.0962    9.3293   23.5072 C   0  0  0  0  0  0  0  0  0  0  0  0
    5.1273    7.8529   23.6208 N   0  0  0  0  0  0  0  0  0  0  0  0
    9.7552    9.2338   23.0171 N   0  0  0  0  0  0  0  0  0  0  0  0
   11.1797    6.7591   21.3326 N   0  0  0  0  0  0  0  0  0  0  0  0
   11.7728    8.0337   23.7267 C   0  0  0  0  0  0  0  0  0  0  0  0
    7.1194    8.3344   24.6775 C   0  0  0  0  0  0  0  0  0  0  0  0
    8.4311    4.7963   22.0500 C   0  0  0  0  0  0  0  0  0  0  0  0
    8.7393   10.8706   24.1871 O   0  0  0  0  0  0  0  0  0  0  0  0
    9.3093    3.8166   21.6712 C   0  0  0  0  0  0  0  0  0  0  0  0
  1  5  1  0
  1 15  4  0
  1 22  4  0
  2 20  1  0
  2 24  1  0
  3  6  4  0
  3 27  4  0
  4 22  4  0
  4 26  4  0
  6  7  4  0
  6 13  1  0
  7 19  4  0
  8 18  1  0
  8 23  1  0
  8 28  2  0
  9 17  1  0
  9 24  1  0
 10 11  1  0
 10 24  1  0
 11 23  1  0
 12 14  4  0
 12 16  4  0
 14 19  4  0
 15 18  4  0
 16 20  4  0
 17 25  1  0
 18 26  4  0
 19 29  4  0
 20 29  4  0
 21 23  1  0
 21 25  1  0
 27 29  4  0
M  END
$$$$

 Created by Python create_sdf_string function

 29 32  0  0  0  0  0  0  0  0999 V2000
    5.4450    8.7154   22.6662 C   0  0  0  0  0  0  0  0  0  0  0  0
   10.9154    5.4574   20.5483 C   0  0  0  0  0  0  0  0  0  0  0  0
    7.2709    4.5089   22.7542 C   0  0  0  0  0  0  0  0  0  0  0  0
    5.9698    7.6329   24.6581 C   0  0  0  0  0  0  0  0  0  0  0  0
    4.5542    8.9057   21.7104 O   0  0  0  0  0  0  0  0  0  0  0  0
    6.9895    3.2085   23.0690 C   0  0  0  0  0  0  0  0  0  0  0  0
    7.8391    2.2253   22.7260 N   0  0  0  0  0  0  0  0  0  0  0  0
    8.6968    9.8373   23.6359 C   0  0  0  0  0  0  0  0  0  0  0  0
   12.5135    6.5957   21.8396 C   0  0  0  0  0  0  0  0  0  0  0  0
   10.9406    8.2330   21.1350 C   0  0  0  0  0  0  0  0  0  0  0  0
    9.6648    8.5956   21.7310 C   0  0  0  0  0  0  0  0  0  0  0  0
   10.8829    1.7153   20.9865 C   0  0  0  0  0  0  0  0  0  0  0  0
    5.7768    2.8533   23.7910 C   0  0  0  0  0  0  0  0  0  0  0  0
    9.7977    1.4791   21.6912 N   0  0  0  0  0  0  0  0  0  0  0  0
    6.5976    9.3401   22.6478 N   0  0  0  0  0  0  0  0  0  0  0  0
   11.2031    3.0042   20.6246 C   0  0  0  0  0  0  0  0  0  0  0  0
   12.8688    7.7370   22.7287 C   0  0  0  0  0  0  0  0  0  0  0  0
    7.4487    9.1361   23.6506 C   0  0  0  0  0  0  0  0  0  0  0  0
    8.9772    2.5025   22.0273 C   0  0  0  0  0  0  0  0  0  0  0  0
   10.4859    4.0901   20.9730 C   0  0  0  0  0  0  0  0  0  0  0  0
   11.0962    9.3293   23.5072 C   0  0  0  0  0  0  0  0  0  0  0  0
    5.1273    7.8529   23.6208 N   0  0  0  0  0  0  0  0  0  0  0  0
    9.7552    9.2338   23.0171 N   0  0  0  0  0  0  0  0  0  0  0  0
   11.1797    6.7591   21.3326 N   0  0  0  0  0  0  0  0  0  0  0  0
   11.7728    8.0337   23.7267 C   0  0  0  0  0  0  0  0  0  0  0  0
    7.1194    8.3344   24.6775 C   0  0  0  0  0  0  0  0  0  0  0  0
    8.4311    4.7963   22.0500 C   0  0  0  0  0  0  0  0  0  0  0  0
    8.7393   10.8706   24.1871 O   0  0  0  0  0  0  0  0  0  0  0  0
    9.3093    3.8166   21.6712 C   0  0  0  0  0  0  0  0  0  0  0  0
  1  5  1  0
  1 15  4  0
  1 22  4  0
  2 20  1  0
  2 24  1  0
  3  6  4  0
  3 27  4  0
  4 22  4  0
  4 26  4  0
  6  7  4  0
  6 13  1  0
  7 19  4  0
  8 18  1  0
  8 23  1  0
  8 28  2  0
  9 17  1  0
  9 24  1  0
 10 11  1  0
 10 24  1  0
 11 23  1  0
 12 14  4  0
 12 16  4  0
 14 19  4  0
 15 18  4  0
 16 20  4  0
 17 25  1  0
 18 26  4  0
 19 29  4  0
 20 29  4  0
 21 23  1  0
 21 25  1  0
 27 29  4  0
M  END
$$$$

 Created by Python create_sdf_string function

 29 32  0  0  0  0  0  0  0  0999 V2000
    5.4450    8.7154   22.6662 C   0  0  0  0  0  0  0  0  0  0  0  0
   10.9154    5.4574   20.5483 C   0  0  0  0  0  0  0  0  0  0  0  0
    7.2709    4.5089   22.7542 C   0  0  0  0  0  0  0  0  0  0  0  0
    5.9698    7.6329   24.6581 C   0  0  0  0  0  0  0  0  0  0  0  0
    4.5542    8.9057   21.7104 O   0  0  0  0  0  0  0  0  0  0  0  0
    6.9895    3.2085   23.0690 C   0  0  0  0  0  0  0  0  0  0  0  0
    7.8391    2.2253   22.7260 N   0  0  0  0  0  0  0  0  0  0  0  0
    8.6968    9.8373   23.6359 C   0  0  0  0  0  0  0  0  0  0  0  0
   12.5135    6.5957   21.8396 C   0  0  0  0  0  0  0  0  0  0  0  0
   10.9406    8.2330   21.1350 C   0  0  0  0  0  0  0  0  0  0  0  0
    9.6648    8.5956   21.7310 C   0  0  0  0  0  0  0  0  0  0  0  0
   10.8829    1.7153   20.9865 C   0  0  0  0  0  0  0  0  0  0  0  0
    5.7768    2.8533   23.7910 C   0  0  0  0  0  0  0  0  0  0  0  0
    9.7977    1.4791   21.6912 N   0  0  0  0  0  0  0  0  0  0  0  0
    6.5976    9.3401   22.6478 N   0  0  0  0  0  0  0  0  0  0  0  0
   11.2031    3.0042   20.6246 C   0  0  0  0  0  0  0  0  0  0  0  0
   12.8688    7.7370   22.7287 C   0  0  0  0  0  0  0  0  0  0  0  0
    7.4487    9.1361   23.6506 C   0  0  0  0  0  0  0  0  0  0  0  0
    8.9772    2.5025   22.0273 C   0  0  0  0  0  0  0  0  0  0  0  0
   10.4859    4.0901   20.9730 C   0  0  0  0  0  0  0  0  0  0  0  0
   11.0962    9.3293   23.5072 C   0  0  0  0  0  0  0  0  0  0  0  0
    5.1273    7.8529   23.6208 N   0  0  0  0  0  0  0  0  0  0  0  0
    9.7552    9.2338   23.0171 N   0  0  0  0  0  0  0  0  0  0  0  0
   11.1797    6.7591   21.3326 N   0  0  0  0  0  0  0  0  0  0  0  0
   11.7728    8.0337   23.7267 C   0  0  0  0  0  0  0  0  0  0  0  0
    7.1194    8.3344   24.6775 C   0  0  0  0  0  0  0  0  0  0  0  0
    8.4311    4.7963   22.0500 C   0  0  0  0  0  0  0  0  0  0  0  0
    8.7393   10.8706   24.1871 O   0  0  0  0  0  0  0  0  0  0  0  0
    9.3093    3.8166   21.6712 C   0  0  0  0  0  0  0  0  0  0  0  0
  1  5  1  0
  1 15  4  0
  1 22  4  0
  2 20  1  0
  2 24  1  0
  3  6  4  0
  3 27  4  0
  4 22  4  0
  4 26  4  0
  6  7  4  0
  6 13  1  0
  7 19  4  0
  8 18  1  0
  8 23  1  0
  8 28  2  0
  9 17  1  0
  9 24  1  0
 10 11  1  0
 10 24  1  0
 11 23  1  0
 12 14  4  0
 12 16  4  0
 14 19  4  0
 15 18  4  0
 16 20  4  0
 17 25  1  0
 18 26  4  0
 19 29  4  0
 20 29  4  0
 21 23  1  0
 21 25  1  0
 27 29  4  0
M  END
$$$$

 Created by Python create_sdf_string function

 29 32  0  0  0  0  0  0  0  0999 V2000
    5.4450    8.7154   22.6662 C   0  0  0  0  0  0  0  0  0  0  0  0
   10.9154    5.4574   20.5483 C   0  0  0  0  0  0  0  0  0  0  0  0
    7.2709    4.5089   22.7542 C   0  0  0  0  0  0  0  0  0  0  0  0
    5.9698    7.6329   24.6581 C   0  0  0  0  0  0  0  0  0  0  0  0
    4.5542    8.9057   21.7104 O   0  0  0  0  0  0  0  0  0  0  0  0
    6.9895    3.2085   23.0690 C   0  0  0  0  0  0  0  0  0  0  0  0
    7.8391    2.2253   22.7260 N   0  0  0  0  0  0  0  0  0  0  0  0
    8.6968    9.8373   23.6359 C   0  0  0  0  0  0  0  0  0  0  0  0
   12.5135    6.5957   21.8396 C   0  0  0  0  0  0  0  0  0  0  0  0
   10.9406    8.2330   21.1350 C   0  0  0  0  0  0  0  0  0  0  0  0
    9.6648    8.5956   21.7310 C   0  0  0  0  0  0  0  0  0  0  0  0
   10.8829    1.7153   20.9865 C   0  0  0  0  0  0  0  0  0  0  0  0
    5.7768    2.8533   23.7910 C   0  0  0  0  0  0  0  0  0  0  0  0
    9.7977    1.4791   21.6912 N   0  0  0  0  0  0  0  0  0  0  0  0
    6.5976    9.3401   22.6478 N   0  0  0  0  0  0  0  0  0  0  0  0
   11.2031    3.0042   20.6246 C   0  0  0  0  0  0  0  0  0  0  0  0
   12.8688    7.7370   22.7287 C   0  0  0  0  0  0  0  0  0  0  0  0
    7.4487    9.1361   23.6506 C   0  0  0  0  0  0  0  0  0  0  0  0
    8.9772    2.5025   22.0273 C   0  0  0  0  0  0  0  0  0  0  0  0
   10.4859    4.0901   20.9730 C   0  0  0  0  0  0  0  0  0  0  0  0
   11.0962    9.3293   23.5072 C   0  0  0  0  0  0  0  0  0  0  0  0
    5.1273    7.8529   23.6208 N   0  0  0  0  0  0  0  0  0  0  0  0
    9.7552    9.2338   23.0171 N   0  0  0  0  0  0  0  0  0  0  0  0
   11.1797    6.7591   21.3326 N   0  0  0  0  0  0  0  0  0  0  0  0
   11.7728    8.0337   23.7267 C   0  0  0  0  0  0  0  0  0  0  0  0
    7.1194    8.3344   24.6775 C   0  0  0  0  0  0  0  0  0  0  0  0
    8.4311    4.7963   22.0500 C   0  0  0  0  0  0  0  0  0  0  0  0
    8.7393   10.8706   24.1871 O   0  0  0  0  0  0  0  0  0  0  0  0
    9.3093    3.8166   21.6712 C   0  0  0  0  0  0  0  0  0  0  0  0
  1  5  1  0
  1 15  4  0
  1 22  4  0
  2 20  1  0
  2 24  1  0
  3  6  4  0
  3 27  4  0
  4 22  4  0
  4 26  4  0
  6  7  4  0
  6 13  1  0
  7 19  4  0
  8 18  1  0
  8 23  1  0
  8 28  2  0
  9 17  1  0
  9 24  1  0
 10 11  1  0
 10 24  1  0
 11 23  1  0
 12 14  4  0
 12 16  4  0
 14 19  4  0
 15 18  4  0
 16 20  4  0
 17 25  1  0
 18 26  4  0
 19 29  4  0
 20 29  4  0
 21 23  1  0
 21 25  1  0
 27 29  4  0
M  END
$$$$

 Created by Python create_sdf_string function

 29 32  0  0  0  0  0  0  0  0999 V2000
    5.4450    8.7154   22.6662 C   0  0  0  0  0  0  0  0  0  0  0  0
   10.9154    5.4574   20.5483 C   0  0  0  0  0  0  0  0  0  0  0  0
    7.2709    4.5089   22.7542 C   0  0  0  0  0  0  0  0  0  0  0  0
    5.9698    7.6329   24.6581 C   0  0  0  0  0  0  0  0  0  0  0  0
    4.5542    8.9057   21.7104 O   0  0  0  0  0  0  0  0  0  0  0  0
    6.9895    3.2085   23.0690 C   0  0  0  0  0  0  0  0  0  0  0  0
    7.8391    2.2253   22.7260 N   0  0  0  0  0  0  0  0  0  0  0  0
    8.6968    9.8373   23.6359 C   0  0  0  0  0  0  0  0  0  0  0  0
   12.5135    6.5957   21.8396 C   0  0  0  0  0  0  0  0  0  0  0  0
   10.9406    8.2330   21.1350 C   0  0  0  0  0  0  0  0  0  0  0  0
    9.6648    8.5956   21.7310 C   0  0  0  0  0  0  0  0  0  0  0  0
   10.8829    1.7153   20.9865 C   0  0  0  0  0  0  0  0  0  0  0  0
    5.7768    2.8533   23.7910 C   0  0  0  0  0  0  0  0  0  0  0  0
    9.7977    1.4791   21.6912 N   0  0  0  0  0  0  0  0  0  0  0  0
    6.5976    9.3401   22.6478 N   0  0  0  0  0  0  0  0  0  0  0  0
   11.2031    3.0042   20.6246 C   0  0  0  0  0  0  0  0  0  0  0  0
   12.8688    7.7370   22.7287 C   0  0  0  0  0  0  0  0  0  0  0  0
    7.4487    9.1361   23.6506 C   0  0  0  0  0  0  0  0  0  0  0  0
    8.9772    2.5025   22.0273 C   0  0  0  0  0  0  0  0  0  0  0  0
   10.4859    4.0901   20.9730 C   0  0  0  0  0  0  0  0  0  0  0  0
   11.0962    9.3293   23.5072 C   0  0  0  0  0  0  0  0  0  0  0  0
    5.1273    7.8529   23.6208 N   0  0  0  0  0  0  0  0  0  0  0  0
    9.7552    9.2338   23.0171 N   0  0  0  0  0  0  0  0  0  0  0  0
   11.1797    6.7591   21.3326 N   0  0  0  0  0  0  0  0  0  0  0  0
   11.7728    8.0337   23.7267 C   0  0  0  0  0  0  0  0  0  0  0  0
    7.1194    8.3344   24.6775 C   0  0  0  0  0  0  0  0  0  0  0  0
    8.4311    4.7963   22.0500 C   0  0  0  0  0  0  0  0  0  0  0  0
    8.7393   10.8706   24.1871 O   0  0  0  0  0  0  0  0  0  0  0  0
    9.3093    3.8166   21.6712 C   0  0  0  0  0  0  0  0  0  0  0  0
  1  5  1  0
  1 15  4  0
  1 22  4  0
  2 20  1  0
  2 24  1  0
  3  6  4  0
  3 27  4  0
  4 22  4  0
  4 26  4  0
  6  7  4  0
  6 13  1  0
  7 19  4  0
  8 18  1  0
  8 23  1  0
  8 28  2  0
  9 17  1  0
  9 24  1  0
 10 11  1  0
 10 24  1  0
 11 23  1  0
 12 14  4  0
 12 16  4  0
 14 19  4  0
 15 18  4  0
 16 20  4  0
 17 25  1  0
 18 26  4  0
 19 29  4  0
 20 29  4  0
 21 23  1  0
 21 25  1  0
 27 29  4  0
M  END
$$$$

 Created by Python create_sdf_string function

 29 32  0  0  0  0  0  0  0  0999 V2000
    5.4450    8.7154   22.6662 C   0  0  0  0  0  0  0  0  0  0  0  0
   10.9154    5.4574   20.5483 C   0  0  0  0  0  0  0  0  0  0  0  0
    7.2709    4.5089   22.7542 C   0  0  0  0  0  0  0  0  0  0  0  0
    5.9698    7.6329   24.6581 C   0  0  0  0  0  0  0  0  0  0  0  0
    4.5542    8.9057   21.7104 O   0  0  0  0  0  0  0  0  0  0  0  0
    6.9895    3.2085   23.0690 C   0  0  0  0  0  0  0  0  0  0  0  0
    7.8391    2.2253   22.7260 N   0  0  0  0  0  0  0  0  0  0  0  0
    8.6968    9.8373   23.6359 C   0  0  0  0  0  0  0  0  0  0  0  0
   12.5135    6.5957   21.8396 C   0  0  0  0  0  0  0  0  0  0  0  0
   10.9406    8.2330   21.1350 C   0  0  0  0  0  0  0  0  0  0  0  0
    9.6648    8.5956   21.7310 C   0  0  0  0  0  0  0  0  0  0  0  0
   10.8829    1.7153   20.9865 C   0  0  0  0  0  0  0  0  0  0  0  0
    5.7768    2.8533   23.7910 C   0  0  0  0  0  0  0  0  0  0  0  0
    9.7977    1.4791   21.6912 N   0  0  0  0  0  0  0  0  0  0  0  0
    6.5976    9.3401   22.6478 N   0  0  0  0  0  0  0  0  0  0  0  0
   11.2031    3.0042   20.6246 C   0  0  0  0  0  0  0  0  0  0  0  0
   12.8688    7.7370   22.7287 C   0  0  0  0  0  0  0  0  0  0  0  0
    7.4487    9.1361   23.6506 C   0  0  0  0  0  0  0  0  0  0  0  0
    8.9772    2.5025   22.0273 C   0  0  0  0  0  0  0  0  0  0  0  0
   10.4859    4.0901   20.9730 C   0  0  0  0  0  0  0  0  0  0  0  0
   11.0962    9.3293   23.5072 C   0  0  0  0  0  0  0  0  0  0  0  0
    5.1273    7.8529   23.6208 N   0  0  0  0  0  0  0  0  0  0  0  0
    9.7552    9.2338   23.0171 N   0  0  0  0  0  0  0  0  0  0  0  0
   11.1797    6.7591   21.3326 N   0  0  0  0  0  0  0  0  0  0  0  0
   11.7728    8.0337   23.7267 C   0  0  0  0  0  0  0  0  0  0  0  0
    7.1194    8.3344   24.6775 C   0  0  0  0  0  0  0  0  0  0  0  0
    8.4311    4.7963   22.0500 C   0  0  0  0  0  0  0  0  0  0  0  0
    8.7393   10.8706   24.1871 O   0  0  0  0  0  0  0  0  0  0  0  0
    9.3093    3.8166   21.6712 C   0  0  0  0  0  0  0  0  0  0  0  0
  1  5  1  0
  1 15  4  0
  1 22  4  0
  2 20  1  0
  2 24  1  0
  3  6  4  0
  3 27  4  0
  4 22  4  0
  4 26  4  0
  6  7  4  0
  6 13  1  0
  7 19  4  0
  8 18  1  0
  8 23  1  0
  8 28  2  0
  9 17  1  0
  9 24  1  0
 10 11  1  0
 10 24  1  0
 11 23  1  0
 12 14  4  0
 12 16  4  0
 14 19  4  0
 15 18  4  0
 16 20  4  0
 17 25  1  0
 18 26  4  0
 19 29  4  0
 20 29  4  0
 21 23  1  0
 21 25  1  0
 27 29  4  0
M  END
$$$$

 Created by Python create_sdf_string function

 29 32  0  0  0  0  0  0  0  0999 V2000
    5.4450    8.7154   22.6662 C   0  0  0  0  0  0  0  0  0  0  0  0
   10.9154    5.4574   20.5483 C   0  0  0  0  0  0  0  0  0  0  0  0
    7.2709    4.5089   22.7542 C   0  0  0  0  0  0  0  0  0  0  0  0
    5.9698    7.6329   24.6581 C   0  0  0  0  0  0  0  0  0  0  0  0
    4.5542    8.9057   21.7104 O   0  0  0  0  0  0  0  0  0  0  0  0
    6.9895    3.2085   23.0690 C   0  0  0  0  0  0  0  0  0  0  0  0
    7.8391    2.2253   22.7260 N   0  0  0  0  0  0  0  0  0  0  0  0
    8.6968    9.8373   23.6359 C   0  0  0  0  0  0  0  0  0  0  0  0
   12.5135    6.5957   21.8396 C   0  0  0  0  0  0  0  0  0  0  0  0
   10.9406    8.2330   21.1350 C   0  0  0  0  0  0  0  0  0  0  0  0
    9.6648    8.5956   21.7310 C   0  0  0  0  0  0  0  0  0  0  0  0
   10.8829    1.7153   20.9865 C   0  0  0  0  0  0  0  0  0  0  0  0
    5.7768    2.8533   23.7910 C   0  0  0  0  0  0  0  0  0  0  0  0
    9.7977    1.4791   21.6912 N   0  0  0  0  0  0  0  0  0  0  0  0
    6.5976    9.3401   22.6478 N   0  0  0  0  0  0  0  0  0  0  0  0
   11.2031    3.0042   20.6246 C   0  0  0  0  0  0  0  0  0  0  0  0
   12.8688    7.7370   22.7287 C   0  0  0  0  0  0  0  0  0  0  0  0
    7.4487    9.1361   23.6506 C   0  0  0  0  0  0  0  0  0  0  0  0
    8.9772    2.5025   22.0273 C   0  0  0  0  0  0  0  0  0  0  0  0
   10.4859    4.0901   20.9730 C   0  0  0  0  0  0  0  0  0  0  0  0
   11.0962    9.3293   23.5072 C   0  0  0  0  0  0  0  0  0  0  0  0
    5.1273    7.8529   23.6208 N   0  0  0  0  0  0  0  0  0  0  0  0
    9.7552    9.2338   23.0171 N   0  0  0  0  0  0  0  0  0  0  0  0
   11.1797    6.7591   21.3326 N   0  0  0  0  0  0  0  0  0  0  0  0
   11.7728    8.0337   23.7267 C   0  0  0  0  0  0  0  0  0  0  0  0
    7.1194    8.3344   24.6775 C   0  0  0  0  0  0  0  0  0  0  0  0
    8.4311    4.7963   22.0500 C   0  0  0  0  0  0  0  0  0  0  0  0
    8.7393   10.8706   24.1871 O   0  0  0  0  0  0  0  0  0  0  0  0
    9.3093    3.8166   21.6712 C   0  0  0  0  0  0  0  0  0  0  0  0
  1  5  1  0
  1 15  4  0
  1 22  4  0
  2 20  1  0
  2 24  1  0
  3  6  4  0
  3 27  4  0
  4 22  4  0
  4 26  4  0
  6  7  4  0
  6 13  1  0
  7 19  4  0
  8 18  1  0
  8 23  1  0
  8 28  2  0
  9 17  1  0
  9 24  1  0
 10 11  1  0
 10 24  1  0
 11 23  1  0
 12 14  4  0
 12 16  4  0
 14 19  4  0
 15 18  4  0
 16 20  4  0
 17 25  1  0
 18 26  4  0
 19 29  4  0
 20 29  4  0
 21 23  1  0
 21 25  1  0
 27 29  4  0
M  END
$$$$

 Created by Python create_sdf_string function

 29 32  0  0  0  0  0  0  0  0999 V2000
    5.4450    8.7154   22.6662 C   0  0  0  0  0  0  0  0  0  0  0  0
   10.9154    5.4574   20.5483 C   0  0  0  0  0  0  0  0  0  0  0  0
    7.2709    4.5089   22.7542 C   0  0  0  0  0  0  0  0  0  0  0  0
    5.9698    7.6329   24.6581 C   0  0  0  0  0  0  0  0  0  0  0  0
    4.5542    8.9057   21.7104 O   0  0  0  0  0  0  0  0  0  0  0  0
    6.9895    3.2085   23.0690 C   0  0  0  0  0  0  0  0  0  0  0  0
    7.8391    2.2253   22.7260 N   0  0  0  0  0  0  0  0  0  0  0  0
    8.6968    9.8373   23.6359 C   0  0  0  0  0  0  0  0  0  0  0  0
   12.5135    6.5957   21.8396 C   0  0  0  0  0  0  0  0  0  0  0  0
   10.9406    8.2330   21.1350 C   0  0  0  0  0  0  0  0  0  0  0  0
    9.6648    8.5956   21.7310 C   0  0  0  0  0  0  0  0  0  0  0  0
   10.8829    1.7153   20.9865 C   0  0  0  0  0  0  0  0  0  0  0  0
    5.7768    2.8533   23.7910 C   0  0  0  0  0  0  0  0  0  0  0  0
    9.7977    1.4791   21.6912 N   0  0  0  0  0  0  0  0  0  0  0  0
    6.5976    9.3401   22.6478 N   0  0  0  0  0  0  0  0  0  0  0  0
   11.2031    3.0042   20.6246 C   0  0  0  0  0  0  0  0  0  0  0  0
   12.8688    7.7370   22.7287 C   0  0  0  0  0  0  0  0  0  0  0  0
    7.4487    9.1361   23.6506 C   0  0  0  0  0  0  0  0  0  0  0  0
    8.9772    2.5025   22.0273 C   0  0  0  0  0  0  0  0  0  0  0  0
   10.4859    4.0901   20.9730 C   0  0  0  0  0  0  0  0  0  0  0  0
   11.0962    9.3293   23.5072 C   0  0  0  0  0  0  0  0  0  0  0  0
    5.1273    7.8529   23.6208 N   0  0  0  0  0  0  0  0  0  0  0  0
    9.7552    9.2338   23.0171 N   0  0  0  0  0  0  0  0  0  0  0  0
   11.1797    6.7591   21.3326 N   0  0  0  0  0  0  0  0  0  0  0  0
   11.7728    8.0337   23.7267 C   0  0  0  0  0  0  0  0  0  0  0  0
    7.1194    8.3344   24.6775 C   0  0  0  0  0  0  0  0  0  0  0  0
    8.4311    4.7963   22.0500 C   0  0  0  0  0  0  0  0  0  0  0  0
    8.7393   10.8706   24.1871 O   0  0  0  0  0  0  0  0  0  0  0  0
    9.3093    3.8166   21.6712 C   0  0  0  0  0  0  0  0  0  0  0  0
  1  5  1  0
  1 15  4  0
  1 22  4  0
  2 20  1  0
  2 24  1  0
  3  6  4  0
  3 27  4  0
  4 22  4  0
  4 26  4  0
  6  7  4  0
  6 13  1  0
  7 19  4  0
  8 18  1  0
  8 23  1  0
  8 28  2  0
  9 17  1  0
  9 24  1  0
 10 11  1  0
 10 24  1  0
 11 23  1  0
 12 14  4  0
 12 16  4  0
 14 19  4  0
 15 18  4  0
 16 20  4  0
 17 25  1  0
 18 26  4  0
 19 29  4  0
 20 29  4  0
 21 23  1  0
 21 25  1  0
 27 29  4  0
M  END
$$$$

 Created by Python create_sdf_string function

 29 32  0  0  0  0  0  0  0  0999 V2000
    5.4450    8.7154   22.6662 C   0  0  0  0  0  0  0  0  0  0  0  0
   10.9154    5.4574   20.5483 C   0  0  0  0  0  0  0  0  0  0  0  0
    7.2709    4.5089   22.7542 C   0  0  0  0  0  0  0  0  0  0  0  0
    5.9698    7.6329   24.6581 C   0  0  0  0  0  0  0  0  0  0  0  0
    4.5542    8.9057   21.7104 O   0  0  0  0  0  0  0  0  0  0  0  0
    6.9895    3.2085   23.0690 C   0  0  0  0  0  0  0  0  0  0  0  0
    7.8391    2.2253   22.7260 N   0  0  0  0  0  0  0  0  0  0  0  0
    8.6968    9.8373   23.6359 C   0  0  0  0  0  0  0  0  0  0  0  0
   12.5135    6.5957   21.8396 C   0  0  0  0  0  0  0  0  0  0  0  0
   10.9406    8.2330   21.1350 C   0  0  0  0  0  0  0  0  0  0  0  0
    9.6648    8.5956   21.7310 C   0  0  0  0  0  0  0  0  0  0  0  0
   10.8829    1.7153   20.9865 C   0  0  0  0  0  0  0  0  0  0  0  0
    5.7768    2.8533   23.7910 C   0  0  0  0  0  0  0  0  0  0  0  0
    9.7977    1.4791   21.6912 N   0  0  0  0  0  0  0  0  0  0  0  0
    6.5976    9.3401   22.6478 N   0  0  0  0  0  0  0  0  0  0  0  0
   11.2031    3.0042   20.6246 C   0  0  0  0  0  0  0  0  0  0  0  0
   12.8688    7.7370   22.7287 C   0  0  0  0  0  0  0  0  0  0  0  0
    7.4487    9.1361   23.6506 C   0  0  0  0  0  0  0  0  0  0  0  0
    8.9772    2.5025   22.0273 C   0  0  0  0  0  0  0  0  0  0  0  0
   10.4859    4.0901   20.9730 C   0  0  0  0  0  0  0  0  0  0  0  0
   11.0962    9.3293   23.5072 C   0  0  0  0  0  0  0  0  0  0  0  0
    5.1273    7.8529   23.6208 N   0  0  0  0  0  0  0  0  0  0  0  0
    9.7552    9.2338   23.0171 N   0  0  0  0  0  0  0  0  0  0  0  0
   11.1797    6.7591   21.3326 N   0  0  0  0  0  0  0  0  0  0  0  0
   11.7728    8.0337   23.7267 C   0  0  0  0  0  0  0  0  0  0  0  0
    7.1194    8.3344   24.6775 C   0  0  0  0  0  0  0  0  0  0  0  0
    8.4311    4.7963   22.0500 C   0  0  0  0  0  0  0  0  0  0  0  0
    8.7393   10.8706   24.1871 O   0  0  0  0  0  0  0  0  0  0  0  0
    9.3093    3.8166   21.6712 C   0  0  0  0  0  0  0  0  0  0  0  0
  1  5  1  0
  1 15  4  0
  1 22  4  0
  2 20  1  0
  2 24  1  0
  3  6  4  0
  3 27  4  0
  4 22  4  0
  4 26  4  0
  6  7  4  0
  6 13  1  0
  7 19  4  0
  8 18  1  0
  8 23  1  0
  8 28  2  0
  9 17  1  0
  9 24  1  0
 10 11  1  0
 10 24  1  0
 11 23  1  0
 12 14  4  0
 12 16  4  0
 14 19  4  0
 15 18  4  0
 16 20  4  0
 17 25  1  0
 18 26  4  0
 19 29  4  0
 20 29  4  0
 21 23  1  0
 21 25  1  0
 27 29  4  0
M  END
$$$$

 Created by Python create_sdf_string function

 29 32  0  0  0  0  0  0  0  0999 V2000
    5.4450    8.7154   22.6662 C   0  0  0  0  0  0  0  0  0  0  0  0
   10.9154    5.4574   20.5483 C   0  0  0  0  0  0  0  0  0  0  0  0
    7.2709    4.5089   22.7542 C   0  0  0  0  0  0  0  0  0  0  0  0
    5.9698    7.6329   24.6581 C   0  0  0  0  0  0  0  0  0  0  0  0
    4.5542    8.9057   21.7104 O   0  0  0  0  0  0  0  0  0  0  0  0
    6.9895    3.2085   23.0690 C   0  0  0  0  0  0  0  0  0  0  0  0
    7.8391    2.2253   22.7260 N   0  0  0  0  0  0  0  0  0  0  0  0
    8.6968    9.8373   23.6359 C   0  0  0  0  0  0  0  0  0  0  0  0
   12.5135    6.5957   21.8396 C   0  0  0  0  0  0  0  0  0  0  0  0
   10.9406    8.2330   21.1350 C   0  0  0  0  0  0  0  0  0  0  0  0
    9.6648    8.5956   21.7310 C   0  0  0  0  0  0  0  0  0  0  0  0
   10.8829    1.7153   20.9865 C   0  0  0  0  0  0  0  0  0  0  0  0
    5.7768    2.8533   23.7910 C   0  0  0  0  0  0  0  0  0  0  0  0
    9.7977    1.4791   21.6912 N   0  0  0  0  0  0  0  0  0  0  0  0
    6.5976    9.3401   22.6478 N   0  0  0  0  0  0  0  0  0  0  0  0
   11.2031    3.0042   20.6246 C   0  0  0  0  0  0  0  0  0  0  0  0
   12.8688    7.7370   22.7287 C   0  0  0  0  0  0  0  0  0  0  0  0
    7.4487    9.1361   23.6506 C   0  0  0  0  0  0  0  0  0  0  0  0
    8.9772    2.5025   22.0273 C   0  0  0  0  0  0  0  0  0  0  0  0
   10.4859    4.0901   20.9730 C   0  0  0  0  0  0  0  0  0  0  0  0
   11.0962    9.3293   23.5072 C   0  0  0  0  0  0  0  0  0  0  0  0
    5.1273    7.8529   23.6208 N   0  0  0  0  0  0  0  0  0  0  0  0
    9.7552    9.2338   23.0171 N   0  0  0  0  0  0  0  0  0  0  0  0
   11.1797    6.7591   21.3326 N   0  0  0  0  0  0  0  0  0  0  0  0
   11.7728    8.0337   23.7267 C   0  0  0  0  0  0  0  0  0  0  0  0
    7.1194    8.3344   24.6775 C   0  0  0  0  0  0  0  0  0  0  0  0
    8.4311    4.7963   22.0500 C   0  0  0  0  0  0  0  0  0  0  0  0
    8.7393   10.8706   24.1871 O   0  0  0  0  0  0  0  0  0  0  0  0
    9.3093    3.8166   21.6712 C   0  0  0  0  0  0  0  0  0  0  0  0
  1  5  1  0
  1 15  4  0
  1 22  4  0
  2 20  1  0
  2 24  1  0
  3  6  4  0
  3 27  4  0
  4 22  4  0
  4 26  4  0
  6  7  4  0
  6 13  1  0
  7 19  4  0
  8 18  1  0
  8 23  1  0
  8 28  2  0
  9 17  1  0
  9 24  1  0
 10 11  1  0
 10 24  1  0
 11 23  1  0
 12 14  4  0
 12 16  4  0
 14 19  4  0
 15 18  4  0
 16 20  4  0
 17 25  1  0
 18 26  4  0
 19 29  4  0
 20 29  4  0
 21 23  1  0
 21 25  1  0
 27 29  4  0
M  END
$$$$

 Created by Python create_sdf_string function

 29 32  0  0  0  0  0  0  0  0999 V2000
    5.4450    8.7154   22.6662 C   0  0  0  0  0  0  0  0  0  0  0  0
   10.9154    5.4574   20.5483 C   0  0  0  0  0  0  0  0  0  0  0  0
    7.2709    4.5089   22.7542 C   0  0  0  0  0  0  0  0  0  0  0  0
    5.9698    7.6329   24.6581 C   0  0  0  0  0  0  0  0  0  0  0  0
    4.5542    8.9057   21.7104 O   0  0  0  0  0  0  0  0  0  0  0  0
    6.9895    3.2085   23.0690 C   0  0  0  0  0  0  0  0  0  0  0  0
    7.8391    2.2253   22.7260 N   0  0  0  0  0  0  0  0  0  0  0  0
    8.6968    9.8373   23.6359 C   0  0  0  0  0  0  0  0  0  0  0  0
   12.5135    6.5957   21.8396 C   0  0  0  0  0  0  0  0  0  0  0  0
   10.9406    8.2330   21.1350 C   0  0  0  0  0  0  0  0  0  0  0  0
    9.6648    8.5956   21.7310 C   0  0  0  0  0  0  0  0  0  0  0  0
   10.8829    1.7153   20.9865 C   0  0  0  0  0  0  0  0  0  0  0  0
    5.7768    2.8533   23.7910 C   0  0  0  0  0  0  0  0  0  0  0  0
    9.7977    1.4791   21.6912 N   0  0  0  0  0  0  0  0  0  0  0  0
    6.5976    9.3401   22.6478 N   0  0  0  0  0  0  0  0  0  0  0  0
   11.2031    3.0042   20.6246 C   0  0  0  0  0  0  0  0  0  0  0  0
   12.8688    7.7370   22.7287 C   0  0  0  0  0  0  0  0  0  0  0  0
    7.4487    9.1361   23.6506 C   0  0  0  0  0  0  0  0  0  0  0  0
    8.9772    2.5025   22.0273 C   0  0  0  0  0  0  0  0  0  0  0  0
   10.4859    4.0901   20.9730 C   0  0  0  0  0  0  0  0  0  0  0  0
   11.0962    9.3293   23.5072 C   0  0  0  0  0  0  0  0  0  0  0  0
    5.1273    7.8529   23.6208 N   0  0  0  0  0  0  0  0  0  0  0  0
    9.7552    9.2338   23.0171 N   0  0  0  0  0  0  0  0  0  0  0  0
   11.1797    6.7591   21.3326 N   0  0  0  0  0  0  0  0  0  0  0  0
   11.7728    8.0337   23.7267 C   0  0  0  0  0  0  0  0  0  0  0  0
    7.1194    8.3344   24.6775 C   0  0  0  0  0  0  0  0  0  0  0  0
    8.4311    4.7963   22.0500 C   0  0  0  0  0  0  0  0  0  0  0  0
    8.7393   10.8706   24.1871 O   0  0  0  0  0  0  0  0  0  0  0  0
    9.3093    3.8166   21.6712 C   0  0  0  0  0  0  0  0  0  0  0  0
  1  5  1  0
  1 15  4  0
  1 22  4  0
  2 20  1  0
  2 24  1  0
  3  6  4  0
  3 27  4  0
  4 22  4  0
  4 26  4  0
  6  7  4  0
  6 13  1  0
  7 19  4  0
  8 18  1  0
  8 23  1  0
  8 28  2  0
  9 17  1  0
  9 24  1  0
 10 11  1  0
 10 24  1  0
 11 23  1  0
 12 14  4  0
 12 16  4  0
 14 19  4  0
 15 18  4  0
 16 20  4  0
 17 25  1  0
 18 26  4  0
 19 29  4  0
 20 29  4  0
 21 23  1  0
 21 25  1  0
 27 29  4  0
M  END
$$$$

 Created by Python create_sdf_string function

 29 32  0  0  0  0  0  0  0  0999 V2000
    5.4450    8.7154   22.6662 C   0  0  0  0  0  0  0  0  0  0  0  0
   10.9154    5.4574   20.5483 C   0  0  0  0  0  0  0  0  0  0  0  0
    7.2709    4.5089   22.7542 C   0  0  0  0  0  0  0  0  0  0  0  0
    5.9698    7.6329   24.6581 C   0  0  0  0  0  0  0  0  0  0  0  0
    4.5542    8.9057   21.7104 O   0  0  0  0  0  0  0  0  0  0  0  0
    6.9895    3.2085   23.0690 C   0  0  0  0  0  0  0  0  0  0  0  0
    7.8391    2.2253   22.7260 N   0  0  0  0  0  0  0  0  0  0  0  0
    8.6968    9.8373   23.6359 C   0  0  0  0  0  0  0  0  0  0  0  0
   12.5135    6.5957   21.8396 C   0  0  0  0  0  0  0  0  0  0  0  0
   10.9406    8.2330   21.1350 C   0  0  0  0  0  0  0  0  0  0  0  0
    9.6648    8.5956   21.7310 C   0  0  0  0  0  0  0  0  0  0  0  0
   10.8829    1.7153   20.9865 C   0  0  0  0  0  0  0  0  0  0  0  0
    5.7768    2.8533   23.7910 C   0  0  0  0  0  0  0  0  0  0  0  0
    9.7977    1.4791   21.6912 N   0  0  0  0  0  0  0  0  0  0  0  0
    6.5976    9.3401   22.6478 N   0  0  0  0  0  0  0  0  0  0  0  0
   11.2031    3.0042   20.6246 C   0  0  0  0  0  0  0  0  0  0  0  0
   12.8688    7.7370   22.7287 C   0  0  0  0  0  0  0  0  0  0  0  0
    7.4487    9.1361   23.6506 C   0  0  0  0  0  0  0  0  0  0  0  0
    8.9772    2.5025   22.0273 C   0  0  0  0  0  0  0  0  0  0  0  0
   10.4859    4.0901   20.9730 C   0  0  0  0  0  0  0  0  0  0  0  0
   11.0962    9.3293   23.5072 C   0  0  0  0  0  0  0  0  0  0  0  0
    5.1273    7.8529   23.6208 N   0  0  0  0  0  0  0  0  0  0  0  0
    9.7552    9.2338   23.0171 N   0  0  0  0  0  0  0  0  0  0  0  0
   11.1797    6.7591   21.3326 N   0  0  0  0  0  0  0  0  0  0  0  0
   11.7728    8.0337   23.7267 C   0  0  0  0  0  0  0  0  0  0  0  0
    7.1194    8.3344   24.6775 C   0  0  0  0  0  0  0  0  0  0  0  0
    8.4311    4.7963   22.0500 C   0  0  0  0  0  0  0  0  0  0  0  0
    8.7393   10.8706   24.1871 O   0  0  0  0  0  0  0  0  0  0  0  0
    9.3093    3.8166   21.6712 C   0  0  0  0  0  0  0  0  0  0  0  0
  1  5  1  0
  1 15  4  0
  1 22  4  0
  2 20  1  0
  2 24  1  0
  3  6  4  0
  3 27  4  0
  4 22  4  0
  4 26  4  0
  6  7  4  0
  6 13  1  0
  7 19  4  0
  8 18  1  0
  8 23  1  0
  8 28  2  0
  9 17  1  0
  9 24  1  0
 10 11  1  0
 10 24  1  0
 11 23  1  0
 12 14  4  0
 12 16  4  0
 14 19  4  0
 15 18  4  0
 16 20  4  0
 17 25  1  0
 18 26  4  0
 19 29  4  0
 20 29  4  0
 21 23  1  0
 21 25  1  0
 27 29  4  0
M  END
$$$$

 Created by Python create_sdf_string function

 29 32  0  0  0  0  0  0  0  0999 V2000
    5.4450    8.7154   22.6662 C   0  0  0  0  0  0  0  0  0  0  0  0
   10.9154    5.4574   20.5483 C   0  0  0  0  0  0  0  0  0  0  0  0
    7.2709    4.5089   22.7542 C   0  0  0  0  0  0  0  0  0  0  0  0
    5.9698    7.6329   24.6581 C   0  0  0  0  0  0  0  0  0  0  0  0
    4.5542    8.9057   21.7104 O   0  0  0  0  0  0  0  0  0  0  0  0
    6.9895    3.2085   23.0690 C   0  0  0  0  0  0  0  0  0  0  0  0
    7.8391    2.2253   22.7260 N   0  0  0  0  0  0  0  0  0  0  0  0
    8.6968    9.8373   23.6359 C   0  0  0  0  0  0  0  0  0  0  0  0
   12.5135    6.5957   21.8396 C   0  0  0  0  0  0  0  0  0  0  0  0
   10.9406    8.2330   21.1350 C   0  0  0  0  0  0  0  0  0  0  0  0
    9.6648    8.5956   21.7310 C   0  0  0  0  0  0  0  0  0  0  0  0
   10.8829    1.7153   20.9865 C   0  0  0  0  0  0  0  0  0  0  0  0
    5.7768    2.8533   23.7910 C   0  0  0  0  0  0  0  0  0  0  0  0
    9.7977    1.4791   21.6912 N   0  0  0  0  0  0  0  0  0  0  0  0
    6.5976    9.3401   22.6478 N   0  0  0  0  0  0  0  0  0  0  0  0
   11.2031    3.0042   20.6246 C   0  0  0  0  0  0  0  0  0  0  0  0
   12.8688    7.7370   22.7287 C   0  0  0  0  0  0  0  0  0  0  0  0
    7.4487    9.1361   23.6506 C   0  0  0  0  0  0  0  0  0  0  0  0
    8.9772    2.5025   22.0273 C   0  0  0  0  0  0  0  0  0  0  0  0
   10.4859    4.0901   20.9730 C   0  0  0  0  0  0  0  0  0  0  0  0
   11.0962    9.3293   23.5072 C   0  0  0  0  0  0  0  0  0  0  0  0
    5.1273    7.8529   23.6208 N   0  0  0  0  0  0  0  0  0  0  0  0
    9.7552    9.2338   23.0171 N   0  0  0  0  0  0  0  0  0  0  0  0
   11.1797    6.7591   21.3326 N   0  0  0  0  0  0  0  0  0  0  0  0
   11.7728    8.0337   23.7267 C   0  0  0  0  0  0  0  0  0  0  0  0
    7.1194    8.3344   24.6775 C   0  0  0  0  0  0  0  0  0  0  0  0
    8.4311    4.7963   22.0500 C   0  0  0  0  0  0  0  0  0  0  0  0
    8.7393   10.8706   24.1871 O   0  0  0  0  0  0  0  0  0  0  0  0
    9.3093    3.8166   21.6712 C   0  0  0  0  0  0  0  0  0  0  0  0
  1  5  1  0
  1 15  4  0
  1 22  4  0
  2 20  1  0
  2 24  1  0
  3  6  4  0
  3 27  4  0
  4 22  4  0
  4 26  4  0
  6  7  4  0
  6 13  1  0
  7 19  4  0
  8 18  1  0
  8 23  1  0
  8 28  2  0
  9 17  1  0
  9 24  1  0
 10 11  1  0
 10 24  1  0
 11 23  1  0
 12 14  4  0
 12 16  4  0
 14 19  4  0
 15 18  4  0
 16 20  4  0
 17 25  1  0
 18 26  4  0
 19 29  4  0
 20 29  4  0
 21 23  1  0
 21 25  1  0
 27 29  4  0
M  END
$$$$

 Created by Python create_sdf_string function

 29 32  0  0  0  0  0  0  0  0999 V2000
    5.4450    8.7154   22.6662 C   0  0  0  0  0  0  0  0  0  0  0  0
   10.9154    5.4574   20.5483 C   0  0  0  0  0  0  0  0  0  0  0  0
    7.2709    4.5089   22.7542 C   0  0  0  0  0  0  0  0  0  0  0  0
    5.9698    7.6329   24.6581 C   0  0  0  0  0  0  0  0  0  0  0  0
    4.5542    8.9057   21.7104 O   0  0  0  0  0  0  0  0  0  0  0  0
    6.9895    3.2085   23.0690 C   0  0  0  0  0  0  0  0  0  0  0  0
    7.8391    2.2253   22.7260 N   0  0  0  0  0  0  0  0  0  0  0  0
    8.6968    9.8373   23.6359 C   0  0  0  0  0  0  0  0  0  0  0  0
   12.5135    6.5957   21.8396 C   0  0  0  0  0  0  0  0  0  0  0  0
   10.9406    8.2330   21.1350 C   0  0  0  0  0  0  0  0  0  0  0  0
    9.6648    8.5956   21.7310 C   0  0  0  0  0  0  0  0  0  0  0  0
   10.8829    1.7153   20.9865 C   0  0  0  0  0  0  0  0  0  0  0  0
    5.7768    2.8533   23.7910 C   0  0  0  0  0  0  0  0  0  0  0  0
    9.7977    1.4791   21.6912 N   0  0  0  0  0  0  0  0  0  0  0  0
    6.5976    9.3401   22.6478 N   0  0  0  0  0  0  0  0  0  0  0  0
   11.2031    3.0042   20.6246 C   0  0  0  0  0  0  0  0  0  0  0  0
   12.8688    7.7370   22.7287 C   0  0  0  0  0  0  0  0  0  0  0  0
    7.4487    9.1361   23.6506 C   0  0  0  0  0  0  0  0  0  0  0  0
    8.9772    2.5025   22.0273 C   0  0  0  0  0  0  0  0  0  0  0  0
   10.4859    4.0901   20.9730 C   0  0  0  0  0  0  0  0  0  0  0  0
   11.0962    9.3293   23.5072 C   0  0  0  0  0  0  0  0  0  0  0  0
    5.1273    7.8529   23.6208 N   0  0  0  0  0  0  0  0  0  0  0  0
    9.7552    9.2338   23.0171 N   0  0  0  0  0  0  0  0  0  0  0  0
   11.1797    6.7591   21.3326 N   0  0  0  0  0  0  0  0  0  0  0  0
   11.7728    8.0337   23.7267 C   0  0  0  0  0  0  0  0  0  0  0  0
    7.1194    8.3344   24.6775 C   0  0  0  0  0  0  0  0  0  0  0  0
    8.4311    4.7963   22.0500 C   0  0  0  0  0  0  0  0  0  0  0  0
    8.7393   10.8706   24.1871 O   0  0  0  0  0  0  0  0  0  0  0  0
    9.3093    3.8166   21.6712 C   0  0  0  0  0  0  0  0  0  0  0  0
  1  5  1  0
  1 15  4  0
  1 22  4  0
  2 20  1  0
  2 24  1  0
  3  6  4  0
  3 27  4  0
  4 22  4  0
  4 26  4  0
  6  7  4  0
  6 13  1  0
  7 19  4  0
  8 18  1  0
  8 23  1  0
  8 28  2  0
  9 17  1  0
  9 24  1  0
 10 11  1  0
 10 24  1  0
 11 23  1  0
 12 14  4  0
 12 16  4  0
 14 19  4  0
 15 18  4  0
 16 20  4  0
 17 25  1  0
 18 26  4  0
 19 29  4  0
 20 29  4  0
 21 23  1  0
 21 25  1  0
 27 29  4  0
M  END
$$$$

 Created by Python create_sdf_string function

 29 32  0  0  0  0  0  0  0  0999 V2000
    5.4450    8.7154   22.6662 C   0  0  0  0  0  0  0  0  0  0  0  0
   10.9154    5.4574   20.5483 C   0  0  0  0  0  0  0  0  0  0  0  0
    7.2709    4.5089   22.7542 C   0  0  0  0  0  0  0  0  0  0  0  0
    5.9698    7.6329   24.6581 C   0  0  0  0  0  0  0  0  0  0  0  0
    4.5542    8.9057   21.7104 O   0  0  0  0  0  0  0  0  0  0  0  0
    6.9895    3.2085   23.0690 C   0  0  0  0  0  0  0  0  0  0  0  0
    7.8391    2.2253   22.7260 N   0  0  0  0  0  0  0  0  0  0  0  0
    8.6968    9.8373   23.6359 C   0  0  0  0  0  0  0  0  0  0  0  0
   12.5135    6.5957   21.8396 C   0  0  0  0  0  0  0  0  0  0  0  0
   10.9406    8.2330   21.1350 C   0  0  0  0  0  0  0  0  0  0  0  0
    9.6648    8.5956   21.7310 C   0  0  0  0  0  0  0  0  0  0  0  0
   10.8829    1.7153   20.9865 C   0  0  0  0  0  0  0  0  0  0  0  0
    5.7768    2.8533   23.7910 C   0  0  0  0  0  0  0  0  0  0  0  0
    9.7977    1.4791   21.6912 N   0  0  0  0  0  0  0  0  0  0  0  0
    6.5976    9.3401   22.6478 N   0  0  0  0  0  0  0  0  0  0  0  0
   11.2031    3.0042   20.6246 C   0  0  0  0  0  0  0  0  0  0  0  0
   12.8688    7.7370   22.7287 C   0  0  0  0  0  0  0  0  0  0  0  0
    7.4487    9.1361   23.6506 C   0  0  0  0  0  0  0  0  0  0  0  0
    8.9772    2.5025   22.0273 C   0  0  0  0  0  0  0  0  0  0  0  0
   10.4859    4.0901   20.9730 C   0  0  0  0  0  0  0  0  0  0  0  0
   11.0962    9.3293   23.5072 C   0  0  0  0  0  0  0  0  0  0  0  0
    5.1273    7.8529   23.6208 N   0  0  0  0  0  0  0  0  0  0  0  0
    9.7552    9.2338   23.0171 N   0  0  0  0  0  0  0  0  0  0  0  0
   11.1797    6.7591   21.3326 N   0  0  0  0  0  0  0  0  0  0  0  0
   11.7728    8.0337   23.7267 C   0  0  0  0  0  0  0  0  0  0  0  0
    7.1194    8.3344   24.6775 C   0  0  0  0  0  0  0  0  0  0  0  0
    8.4311    4.7963   22.0500 C   0  0  0  0  0  0  0  0  0  0  0  0
    8.7393   10.8706   24.1871 O   0  0  0  0  0  0  0  0  0  0  0  0
    9.3093    3.8166   21.6712 C   0  0  0  0  0  0  0  0  0  0  0  0
  1  5  1  0
  1 15  4  0
  1 22  4  0
  2 20  1  0
  2 24  1  0
  3  6  4  0
  3 27  4  0
  4 22  4  0
  4 26  4  0
  6  7  4  0
  6 13  1  0
  7 19  4  0
  8 18  1  0
  8 23  1  0
  8 28  2  0
  9 17  1  0
  9 24  1  0
 10 11  1  0
 10 24  1  0
 11 23  1  0
 12 14  4  0
 12 16  4  0
 14 19  4  0
 15 18  4  0
 16 20  4  0
 17 25  1  0
 18 26  4  0
 19 29  4  0
 20 29  4  0
 21 23  1  0
 21 25  1  0
 27 29  4  0
M  END
$$$$

 Created by Python create_sdf_string function

 29 32  0  0  0  0  0  0  0  0999 V2000
    5.4450    8.7154   22.6662 C   0  0  0  0  0  0  0  0  0  0  0  0
   10.9154    5.4574   20.5483 C   0  0  0  0  0  0  0  0  0  0  0  0
    7.2709    4.5089   22.7542 C   0  0  0  0  0  0  0  0  0  0  0  0
    5.9698    7.6329   24.6581 C   0  0  0  0  0  0  0  0  0  0  0  0
    4.5542    8.9057   21.7104 O   0  0  0  0  0  0  0  0  0  0  0  0
    6.9895    3.2085   23.0690 C   0  0  0  0  0  0  0  0  0  0  0  0
    7.8391    2.2253   22.7260 N   0  0  0  0  0  0  0  0  0  0  0  0
    8.6968    9.8373   23.6359 C   0  0  0  0  0  0  0  0  0  0  0  0
   12.5135    6.5957   21.8396 C   0  0  0  0  0  0  0  0  0  0  0  0
   10.9406    8.2330   21.1350 C   0  0  0  0  0  0  0  0  0  0  0  0
    9.6648    8.5956   21.7310 C   0  0  0  0  0  0  0  0  0  0  0  0
   10.8829    1.7153   20.9865 C   0  0  0  0  0  0  0  0  0  0  0  0
    5.7768    2.8533   23.7910 C   0  0  0  0  0  0  0  0  0  0  0  0
    9.7977    1.4791   21.6912 N   0  0  0  0  0  0  0  0  0  0  0  0
    6.5976    9.3401   22.6478 N   0  0  0  0  0  0  0  0  0  0  0  0
   11.2031    3.0042   20.6246 C   0  0  0  0  0  0  0  0  0  0  0  0
   12.8688    7.7370   22.7287 C   0  0  0  0  0  0  0  0  0  0  0  0
    7.4487    9.1361   23.6506 C   0  0  0  0  0  0  0  0  0  0  0  0
    8.9772    2.5025   22.0273 C   0  0  0  0  0  0  0  0  0  0  0  0
   10.4859    4.0901   20.9730 C   0  0  0  0  0  0  0  0  0  0  0  0
   11.0962    9.3293   23.5072 C   0  0  0  0  0  0  0  0  0  0  0  0
    5.1273    7.8529   23.6208 N   0  0  0  0  0  0  0  0  0  0  0  0
    9.7552    9.2338   23.0171 N   0  0  0  0  0  0  0  0  0  0  0  0
   11.1797    6.7591   21.3326 N   0  0  0  0  0  0  0  0  0  0  0  0
   11.7728    8.0337   23.7267 C   0  0  0  0  0  0  0  0  0  0  0  0
    7.1194    8.3344   24.6775 C   0  0  0  0  0  0  0  0  0  0  0  0
    8.4311    4.7963   22.0500 C   0  0  0  0  0  0  0  0  0  0  0  0
    8.7393   10.8706   24.1871 O   0  0  0  0  0  0  0  0  0  0  0  0
    9.3093    3.8166   21.6712 C   0  0  0  0  0  0  0  0  0  0  0  0
  1  5  1  0
  1 15  4  0
  1 22  4  0
  2 20  1  0
  2 24  1  0
  3  6  4  0
  3 27  4  0
  4 22  4  0
  4 26  4  0
  6  7  4  0
  6 13  1  0
  7 19  4  0
  8 18  1  0
  8 23  1  0
  8 28  2  0
  9 17  1  0
  9 24  1  0
 10 11  1  0
 10 24  1  0
 11 23  1  0
 12 14  4  0
 12 16  4  0
 14 19  4  0
 15 18  4  0
 16 20  4  0
 17 25  1  0
 18 26  4  0
 19 29  4  0
 20 29  4  0
 21 23  1  0
 21 25  1  0
 27 29  4  0
M  END
$$$$

 Created by Python create_sdf_string function

 29 32  0  0  0  0  0  0  0  0999 V2000
    5.4450    8.7154   22.6662 C   0  0  0  0  0  0  0  0  0  0  0  0
   10.9154    5.4574   20.5483 C   0  0  0  0  0  0  0  0  0  0  0  0
    7.2709    4.5089   22.7542 C   0  0  0  0  0  0  0  0  0  0  0  0
    5.9698    7.6329   24.6581 C   0  0  0  0  0  0  0  0  0  0  0  0
    4.5542    8.9057   21.7104 O   0  0  0  0  0  0  0  0  0  0  0  0
    6.9895    3.2085   23.0690 C   0  0  0  0  0  0  0  0  0  0  0  0
    7.8391    2.2253   22.7260 N   0  0  0  0  0  0  0  0  0  0  0  0
    8.6968    9.8373   23.6359 C   0  0  0  0  0  0  0  0  0  0  0  0
   12.5135    6.5957   21.8396 C   0  0  0  0  0  0  0  0  0  0  0  0
   10.9406    8.2330   21.1350 C   0  0  0  0  0  0  0  0  0  0  0  0
    9.6648    8.5956   21.7310 C   0  0  0  0  0  0  0  0  0  0  0  0
   10.8829    1.7153   20.9865 C   0  0  0  0  0  0  0  0  0  0  0  0
    5.7768    2.8533   23.7910 C   0  0  0  0  0  0  0  0  0  0  0  0
    9.7977    1.4791   21.6912 N   0  0  0  0  0  0  0  0  0  0  0  0
    6.5976    9.3401   22.6478 N   0  0  0  0  0  0  0  0  0  0  0  0
   11.2031    3.0042   20.6246 C   0  0  0  0  0  0  0  0  0  0  0  0
   12.8688    7.7370   22.7287 C   0  0  0  0  0  0  0  0  0  0  0  0
    7.4487    9.1361   23.6506 C   0  0  0  0  0  0  0  0  0  0  0  0
    8.9772    2.5025   22.0273 C   0  0  0  0  0  0  0  0  0  0  0  0
   10.4859    4.0901   20.9730 C   0  0  0  0  0  0  0  0  0  0  0  0
   11.0962    9.3293   23.5072 C   0  0  0  0  0  0  0  0  0  0  0  0
    5.1273    7.8529   23.6208 N   0  0  0  0  0  0  0  0  0  0  0  0
    9.7552    9.2338   23.0171 N   0  0  0  0  0  0  0  0  0  0  0  0
   11.1797    6.7591   21.3326 N   0  0  0  0  0  0  0  0  0  0  0  0
   11.7728    8.0337   23.7267 C   0  0  0  0  0  0  0  0  0  0  0  0
    7.1194    8.3344   24.6775 C   0  0  0  0  0  0  0  0  0  0  0  0
    8.4311    4.7963   22.0500 C   0  0  0  0  0  0  0  0  0  0  0  0
    8.7393   10.8706   24.1871 O   0  0  0  0  0  0  0  0  0  0  0  0
    9.3093    3.8166   21.6712 C   0  0  0  0  0  0  0  0  0  0  0  0
  1  5  1  0
  1 15  4  0
  1 22  4  0
  2 20  1  0
  2 24  1  0
  3  6  4  0
  3 27  4  0
  4 22  4  0
  4 26  4  0
  6  7  4  0
  6 13  1  0
  7 19  4  0
  8 18  1  0
  8 23  1  0
  8 28  2  0
  9 17  1  0
  9 24  1  0
 10 11  1  0
 10 24  1  0
 11 23  1  0
 12 14  4  0
 12 16  4  0
 14 19  4  0
 15 18  4  0
 16 20  4  0
 17 25  1  0
 18 26  4  0
 19 29  4  0
 20 29  4  0
 21 23  1  0
 21 25  1  0
 27 29  4  0
M  END
$$$$

 Created by Python create_sdf_string function

 29 32  0  0  0  0  0  0  0  0999 V2000
    5.4450    8.7154   22.6662 C   0  0  0  0  0  0  0  0  0  0  0  0
   10.9154    5.4574   20.5483 C   0  0  0  0  0  0  0  0  0  0  0  0
    7.2709    4.5089   22.7542 C   0  0  0  0  0  0  0  0  0  0  0  0
    5.9698    7.6329   24.6581 C   0  0  0  0  0  0  0  0  0  0  0  0
    4.5542    8.9057   21.7104 O   0  0  0  0  0  0  0  0  0  0  0  0
    6.9895    3.2085   23.0690 C   0  0  0  0  0  0  0  0  0  0  0  0
    7.8391    2.2253   22.7260 N   0  0  0  0  0  0  0  0  0  0  0  0
    8.6968    9.8373   23.6359 C   0  0  0  0  0  0  0  0  0  0  0  0
   12.5135    6.5957   21.8396 C   0  0  0  0  0  0  0  0  0  0  0  0
   10.9406    8.2330   21.1350 C   0  0  0  0  0  0  0  0  0  0  0  0
    9.6648    8.5956   21.7310 C   0  0  0  0  0  0  0  0  0  0  0  0
   10.8829    1.7153   20.9865 C   0  0  0  0  0  0  0  0  0  0  0  0
    5.7768    2.8533   23.7910 C   0  0  0  0  0  0  0  0  0  0  0  0
    9.7977    1.4791   21.6912 N   0  0  0  0  0  0  0  0  0  0  0  0
    6.5976    9.3401   22.6478 N   0  0  0  0  0  0  0  0  0  0  0  0
   11.2031    3.0042   20.6246 C   0  0  0  0  0  0  0  0  0  0  0  0
   12.8688    7.7370   22.7287 C   0  0  0  0  0  0  0  0  0  0  0  0
    7.4487    9.1361   23.6506 C   0  0  0  0  0  0  0  0  0  0  0  0
    8.9772    2.5025   22.0273 C   0  0  0  0  0  0  0  0  0  0  0  0
   10.4859    4.0901   20.9730 C   0  0  0  0  0  0  0  0  0  0  0  0
   11.0962    9.3293   23.5072 C   0  0  0  0  0  0  0  0  0  0  0  0
    5.1273    7.8529   23.6208 N   0  0  0  0  0  0  0  0  0  0  0  0
    9.7552    9.2338   23.0171 N   0  0  0  0  0  0  0  0  0  0  0  0
   11.1797    6.7591   21.3326 N   0  0  0  0  0  0  0  0  0  0  0  0
   11.7728    8.0337   23.7267 C   0  0  0  0  0  0  0  0  0  0  0  0
    7.1194    8.3344   24.6775 C   0  0  0  0  0  0  0  0  0  0  0  0
    8.4311    4.7963   22.0500 C   0  0  0  0  0  0  0  0  0  0  0  0
    8.7393   10.8706   24.1871 O   0  0  0  0  0  0  0  0  0  0  0  0
    9.3093    3.8166   21.6712 C   0  0  0  0  0  0  0  0  0  0  0  0
  1  5  1  0
  1 15  4  0
  1 22  4  0
  2 20  1  0
  2 24  1  0
  3  6  4  0
  3 27  4  0
  4 22  4  0
  4 26  4  0
  6  7  4  0
  6 13  1  0
  7 19  4  0
  8 18  1  0
  8 23  1  0
  8 28  2  0
  9 17  1  0
  9 24  1  0
 10 11  1  0
 10 24  1  0
 11 23  1  0
 12 14  4  0
 12 16  4  0
 14 19  4  0
 15 18  4  0
 16 20  4  0
 17 25  1  0
 18 26  4  0
 19 29  4  0
 20 29  4  0
 21 23  1  0
 21 25  1  0
 27 29  4  0
M  END
$$$$

 Created by Python create_sdf_string function

 29 32  0  0  0  0  0  0  0  0999 V2000
    5.4450    8.7154   22.6662 C   0  0  0  0  0  0  0  0  0  0  0  0
   10.9154    5.4574   20.5483 C   0  0  0  0  0  0  0  0  0  0  0  0
    7.2709    4.5089   22.7542 C   0  0  0  0  0  0  0  0  0  0  0  0
    5.9698    7.6329   24.6581 C   0  0  0  0  0  0  0  0  0  0  0  0
    4.5542    8.9057   21.7104 O   0  0  0  0  0  0  0  0  0  0  0  0
    6.9895    3.2085   23.0690 C   0  0  0  0  0  0  0  0  0  0  0  0
    7.8391    2.2253   22.7260 N   0  0  0  0  0  0  0  0  0  0  0  0
    8.6968    9.8373   23.6359 C   0  0  0  0  0  0  0  0  0  0  0  0
   12.5135    6.5957   21.8396 C   0  0  0  0  0  0  0  0  0  0  0  0
   10.9406    8.2330   21.1350 C   0  0  0  0  0  0  0  0  0  0  0  0
    9.6648    8.5956   21.7310 C   0  0  0  0  0  0  0  0  0  0  0  0
   10.8829    1.7153   20.9865 C   0  0  0  0  0  0  0  0  0  0  0  0
    5.7768    2.8533   23.7910 C   0  0  0  0  0  0  0  0  0  0  0  0
    9.7977    1.4791   21.6912 N   0  0  0  0  0  0  0  0  0  0  0  0
    6.5976    9.3401   22.6478 N   0  0  0  0  0  0  0  0  0  0  0  0
   11.2031    3.0042   20.6246 C   0  0  0  0  0  0  0  0  0  0  0  0
   12.8688    7.7370   22.7287 C   0  0  0  0  0  0  0  0  0  0  0  0
    7.4487    9.1361   23.6506 C   0  0  0  0  0  0  0  0  0  0  0  0
    8.9772    2.5025   22.0273 C   0  0  0  0  0  0  0  0  0  0  0  0
   10.4859    4.0901   20.9730 C   0  0  0  0  0  0  0  0  0  0  0  0
   11.0962    9.3293   23.5072 C   0  0  0  0  0  0  0  0  0  0  0  0
    5.1273    7.8529   23.6208 N   0  0  0  0  0  0  0  0  0  0  0  0
    9.7552    9.2338   23.0171 N   0  0  0  0  0  0  0  0  0  0  0  0
   11.1797    6.7591   21.3326 N   0  0  0  0  0  0  0  0  0  0  0  0
   11.7728    8.0337   23.7267 C   0  0  0  0  0  0  0  0  0  0  0  0
    7.1194    8.3344   24.6775 C   0  0  0  0  0  0  0  0  0  0  0  0
    8.4311    4.7963   22.0500 C   0  0  0  0  0  0  0  0  0  0  0  0
    8.7393   10.8706   24.1871 O   0  0  0  0  0  0  0  0  0  0  0  0
    9.3093    3.8166   21.6712 C   0  0  0  0  0  0  0  0  0  0  0  0
  1  5  1  0
  1 15  4  0
  1 22  4  0
  2 20  1  0
  2 24  1  0
  3  6  4  0
  3 27  4  0
  4 22  4  0
  4 26  4  0
  6  7  4  0
  6 13  1  0
  7 19  4  0
  8 18  1  0
  8 23  1  0
  8 28  2  0
  9 17  1  0
  9 24  1  0
 10 11  1  0
 10 24  1  0
 11 23  1  0
 12 14  4  0
 12 16  4  0
 14 19  4  0
 15 18  4  0
 16 20  4  0
 17 25  1  0
 18 26  4  0
 19 29  4  0
 20 29  4  0
 21 23  1  0
 21 25  1  0
 27 29  4  0
M  END
$$$$

 Created by Python create_sdf_string function

 29 32  0  0  0  0  0  0  0  0999 V2000
    5.4450    8.7154   22.6662 C   0  0  0  0  0  0  0  0  0  0  0  0
   10.9154    5.4574   20.5483 C   0  0  0  0  0  0  0  0  0  0  0  0
    7.2709    4.5089   22.7542 C   0  0  0  0  0  0  0  0  0  0  0  0
    5.9698    7.6329   24.6581 C   0  0  0  0  0  0  0  0  0  0  0  0
    4.5542    8.9057   21.7104 O   0  0  0  0  0  0  0  0  0  0  0  0
    6.9895    3.2085   23.0690 C   0  0  0  0  0  0  0  0  0  0  0  0
    7.8391    2.2253   22.7260 N   0  0  0  0  0  0  0  0  0  0  0  0
    8.6968    9.8373   23.6359 C   0  0  0  0  0  0  0  0  0  0  0  0
   12.5135    6.5957   21.8396 C   0  0  0  0  0  0  0  0  0  0  0  0
   10.9406    8.2330   21.1350 C   0  0  0  0  0  0  0  0  0  0  0  0
    9.6648    8.5956   21.7310 C   0  0  0  0  0  0  0  0  0  0  0  0
   10.8829    1.7153   20.9865 C   0  0  0  0  0  0  0  0  0  0  0  0
    5.7768    2.8533   23.7910 C   0  0  0  0  0  0  0  0  0  0  0  0
    9.7977    1.4791   21.6912 N   0  0  0  0  0  0  0  0  0  0  0  0
    6.5976    9.3401   22.6478 N   0  0  0  0  0  0  0  0  0  0  0  0
   11.2031    3.0042   20.6246 C   0  0  0  0  0  0  0  0  0  0  0  0
   12.8688    7.7370   22.7287 C   0  0  0  0  0  0  0  0  0  0  0  0
    7.4487    9.1361   23.6506 C   0  0  0  0  0  0  0  0  0  0  0  0
    8.9772    2.5025   22.0273 C   0  0  0  0  0  0  0  0  0  0  0  0
   10.4859    4.0901   20.9730 C   0  0  0  0  0  0  0  0  0  0  0  0
   11.0962    9.3293   23.5072 C   0  0  0  0  0  0  0  0  0  0  0  0
    5.1273    7.8529   23.6208 N   0  0  0  0  0  0  0  0  0  0  0  0
    9.7552    9.2338   23.0171 N   0  0  0  0  0  0  0  0  0  0  0  0
   11.1797    6.7591   21.3326 N   0  0  0  0  0  0  0  0  0  0  0  0
   11.7728    8.0337   23.7267 C   0  0  0  0  0  0  0  0  0  0  0  0
    7.1194    8.3344   24.6775 C   0  0  0  0  0  0  0  0  0  0  0  0
    8.4311    4.7963   22.0500 C   0  0  0  0  0  0  0  0  0  0  0  0
    8.7393   10.8706   24.1871 O   0  0  0  0  0  0  0  0  0  0  0  0
    9.3093    3.8166   21.6712 C   0  0  0  0  0  0  0  0  0  0  0  0
  1  5  1  0
  1 15  4  0
  1 22  4  0
  2 20  1  0
  2 24  1  0
  3  6  4  0
  3 27  4  0
  4 22  4  0
  4 26  4  0
  6  7  4  0
  6 13  1  0
  7 19  4  0
  8 18  1  0
  8 23  1  0
  8 28  2  0
  9 17  1  0
  9 24  1  0
 10 11  1  0
 10 24  1  0
 11 23  1  0
 12 14  4  0
 12 16  4  0
 14 19  4  0
 15 18  4  0
 16 20  4  0
 17 25  1  0
 18 26  4  0
 19 29  4  0
 20 29  4  0
 21 23  1  0
 21 25  1  0
 27 29  4  0
M  END
$$$$

 Created by Python create_sdf_string function

 29 32  0  0  0  0  0  0  0  0999 V2000
    5.4450    8.7154   22.6662 C   0  0  0  0  0  0  0  0  0  0  0  0
   10.9154    5.4574   20.5483 C   0  0  0  0  0  0  0  0  0  0  0  0
    7.2709    4.5089   22.7542 C   0  0  0  0  0  0  0  0  0  0  0  0
    5.9698    7.6329   24.6581 C   0  0  0  0  0  0  0  0  0  0  0  0
    4.5542    8.9057   21.7104 O   0  0  0  0  0  0  0  0  0  0  0  0
    6.9895    3.2085   23.0690 C   0  0  0  0  0  0  0  0  0  0  0  0
    7.8391    2.2253   22.7260 N   0  0  0  0  0  0  0  0  0  0  0  0
    8.6968    9.8373   23.6359 C   0  0  0  0  0  0  0  0  0  0  0  0
   12.5135    6.5957   21.8396 C   0  0  0  0  0  0  0  0  0  0  0  0
   10.9406    8.2330   21.1350 C   0  0  0  0  0  0  0  0  0  0  0  0
    9.6648    8.5956   21.7310 C   0  0  0  0  0  0  0  0  0  0  0  0
   10.8829    1.7153   20.9865 C   0  0  0  0  0  0  0  0  0  0  0  0
    5.7768    2.8533   23.7910 C   0  0  0  0  0  0  0  0  0  0  0  0
    9.7977    1.4791   21.6912 N   0  0  0  0  0  0  0  0  0  0  0  0
    6.5976    9.3401   22.6478 N   0  0  0  0  0  0  0  0  0  0  0  0
   11.2031    3.0042   20.6246 C   0  0  0  0  0  0  0  0  0  0  0  0
   12.8688    7.7370   22.7287 C   0  0  0  0  0  0  0  0  0  0  0  0
    7.4487    9.1361   23.6506 C   0  0  0  0  0  0  0  0  0  0  0  0
    8.9772    2.5025   22.0273 C   0  0  0  0  0  0  0  0  0  0  0  0
   10.4859    4.0901   20.9730 C   0  0  0  0  0  0  0  0  0  0  0  0
   11.0962    9.3293   23.5072 C   0  0  0  0  0  0  0  0  0  0  0  0
    5.1273    7.8529   23.6208 N   0  0  0  0  0  0  0  0  0  0  0  0
    9.7552    9.2338   23.0171 N   0  0  0  0  0  0  0  0  0  0  0  0
   11.1797    6.7591   21.3326 N   0  0  0  0  0  0  0  0  0  0  0  0
   11.7728    8.0337   23.7267 C   0  0  0  0  0  0  0  0  0  0  0  0
    7.1194    8.3344   24.6775 C   0  0  0  0  0  0  0  0  0  0  0  0
    8.4311    4.7963   22.0500 C   0  0  0  0  0  0  0  0  0  0  0  0
    8.7393   10.8706   24.1871 O   0  0  0  0  0  0  0  0  0  0  0  0
    9.3093    3.8166   21.6712 C   0  0  0  0  0  0  0  0  0  0  0  0
  1  5  1  0
  1 15  4  0
  1 22  4  0
  2 20  1  0
  2 24  1  0
  3  6  4  0
  3 27  4  0
  4 22  4  0
  4 26  4  0
  6  7  4  0
  6 13  1  0
  7 19  4  0
  8 18  1  0
  8 23  1  0
  8 28  2  0
  9 17  1  0
  9 24  1  0
 10 11  1  0
 10 24  1  0
 11 23  1  0
 12 14  4  0
 12 16  4  0
 14 19  4  0
 15 18  4  0
 16 20  4  0
 17 25  1  0
 18 26  4  0
 19 29  4  0
 20 29  4  0
 21 23  1  0
 21 25  1  0
 27 29  4  0
M  END
$$$$

 Created by Python create_sdf_string function

 29 32  0  0  0  0  0  0  0  0999 V2000
    5.4450    8.7154   22.6662 C   0  0  0  0  0  0  0  0  0  0  0  0
   10.9154    5.4574   20.5483 C   0  0  0  0  0  0  0  0  0  0  0  0
    7.2709    4.5089   22.7542 C   0  0  0  0  0  0  0  0  0  0  0  0
    5.9698    7.6329   24.6581 C   0  0  0  0  0  0  0  0  0  0  0  0
    4.5542    8.9057   21.7104 O   0  0  0  0  0  0  0  0  0  0  0  0
    6.9895    3.2085   23.0690 C   0  0  0  0  0  0  0  0  0  0  0  0
    7.8391    2.2253   22.7260 N   0  0  0  0  0  0  0  0  0  0  0  0
    8.6968    9.8373   23.6359 C   0  0  0  0  0  0  0  0  0  0  0  0
   12.5135    6.5957   21.8396 C   0  0  0  0  0  0  0  0  0  0  0  0
   10.9406    8.2330   21.1350 C   0  0  0  0  0  0  0  0  0  0  0  0
    9.6648    8.5956   21.7310 C   0  0  0  0  0  0  0  0  0  0  0  0
   10.8829    1.7153   20.9865 C   0  0  0  0  0  0  0  0  0  0  0  0
    5.7768    2.8533   23.7910 C   0  0  0  0  0  0  0  0  0  0  0  0
    9.7977    1.4791   21.6912 N   0  0  0  0  0  0  0  0  0  0  0  0
    6.5976    9.3401   22.6478 N   0  0  0  0  0  0  0  0  0  0  0  0
   11.2031    3.0042   20.6246 C   0  0  0  0  0  0  0  0  0  0  0  0
   12.8688    7.7370   22.7287 C   0  0  0  0  0  0  0  0  0  0  0  0
    7.4487    9.1361   23.6506 C   0  0  0  0  0  0  0  0  0  0  0  0
    8.9772    2.5025   22.0273 C   0  0  0  0  0  0  0  0  0  0  0  0
   10.4859    4.0901   20.9730 C   0  0  0  0  0  0  0  0  0  0  0  0
   11.0962    9.3293   23.5072 C   0  0  0  0  0  0  0  0  0  0  0  0
    5.1273    7.8529   23.6208 N   0  0  0  0  0  0  0  0  0  0  0  0
    9.7552    9.2338   23.0171 N   0  0  0  0  0  0  0  0  0  0  0  0
   11.1797    6.7591   21.3326 N   0  0  0  0  0  0  0  0  0  0  0  0
   11.7728    8.0337   23.7267 C   0  0  0  0  0  0  0  0  0  0  0  0
    7.1194    8.3344   24.6775 C   0  0  0  0  0  0  0  0  0  0  0  0
    8.4311    4.7963   22.0500 C   0  0  0  0  0  0  0  0  0  0  0  0
    8.7393   10.8706   24.1871 O   0  0  0  0  0  0  0  0  0  0  0  0
    9.3093    3.8166   21.6712 C   0  0  0  0  0  0  0  0  0  0  0  0
  1  5  1  0
  1 15  4  0
  1 22  4  0
  2 20  1  0
  2 24  1  0
  3  6  4  0
  3 27  4  0
  4 22  4  0
  4 26  4  0
  6  7  4  0
  6 13  1  0
  7 19  4  0
  8 18  1  0
  8 23  1  0
  8 28  2  0
  9 17  1  0
  9 24  1  0
 10 11  1  0
 10 24  1  0
 11 23  1  0
 12 14  4  0
 12 16  4  0
 14 19  4  0
 15 18  4  0
 16 20  4  0
 17 25  1  0
 18 26  4  0
 19 29  4  0
 20 29  4  0
 21 23  1  0
 21 25  1  0
 27 29  4  0
M  END
$$$$

 Created by Python create_sdf_string function

 29 32  0  0  0  0  0  0  0  0999 V2000
    5.4450    8.7154   22.6662 C   0  0  0  0  0  0  0  0  0  0  0  0
   10.9154    5.4574   20.5483 C   0  0  0  0  0  0  0  0  0  0  0  0
    7.2709    4.5089   22.7542 C   0  0  0  0  0  0  0  0  0  0  0  0
    5.9698    7.6329   24.6581 C   0  0  0  0  0  0  0  0  0  0  0  0
    4.5542    8.9057   21.7104 O   0  0  0  0  0  0  0  0  0  0  0  0
    6.9895    3.2085   23.0690 C   0  0  0  0  0  0  0  0  0  0  0  0
    7.8391    2.2253   22.7260 N   0  0  0  0  0  0  0  0  0  0  0  0
    8.6968    9.8373   23.6359 C   0  0  0  0  0  0  0  0  0  0  0  0
   12.5135    6.5957   21.8396 C   0  0  0  0  0  0  0  0  0  0  0  0
   10.9406    8.2330   21.1350 C   0  0  0  0  0  0  0  0  0  0  0  0
    9.6648    8.5956   21.7310 C   0  0  0  0  0  0  0  0  0  0  0  0
   10.8829    1.7153   20.9865 C   0  0  0  0  0  0  0  0  0  0  0  0
    5.7768    2.8533   23.7910 C   0  0  0  0  0  0  0  0  0  0  0  0
    9.7977    1.4791   21.6912 N   0  0  0  0  0  0  0  0  0  0  0  0
    6.5976    9.3401   22.6478 N   0  0  0  0  0  0  0  0  0  0  0  0
   11.2031    3.0042   20.6246 C   0  0  0  0  0  0  0  0  0  0  0  0
   12.8688    7.7370   22.7287 C   0  0  0  0  0  0  0  0  0  0  0  0
    7.4487    9.1361   23.6506 C   0  0  0  0  0  0  0  0  0  0  0  0
    8.9772    2.5025   22.0273 C   0  0  0  0  0  0  0  0  0  0  0  0
   10.4859    4.0901   20.9730 C   0  0  0  0  0  0  0  0  0  0  0  0
   11.0962    9.3293   23.5072 C   0  0  0  0  0  0  0  0  0  0  0  0
    5.1273    7.8529   23.6208 N   0  0  0  0  0  0  0  0  0  0  0  0
    9.7552    9.2338   23.0171 N   0  0  0  0  0  0  0  0  0  0  0  0
   11.1797    6.7591   21.3326 N   0  0  0  0  0  0  0  0  0  0  0  0
   11.7728    8.0337   23.7267 C   0  0  0  0  0  0  0  0  0  0  0  0
    7.1194    8.3344   24.6775 C   0  0  0  0  0  0  0  0  0  0  0  0
    8.4311    4.7963   22.0500 C   0  0  0  0  0  0  0  0  0  0  0  0
    8.7393   10.8706   24.1871 O   0  0  0  0  0  0  0  0  0  0  0  0
    9.3093    3.8166   21.6712 C   0  0  0  0  0  0  0  0  0  0  0  0
  1  5  1  0
  1 15  4  0
  1 22  4  0
  2 20  1  0
  2 24  1  0
  3  6  4  0
  3 27  4  0
  4 22  4  0
  4 26  4  0
  6  7  4  0
  6 13  1  0
  7 19  4  0
  8 18  1  0
  8 23  1  0
  8 28  2  0
  9 17  1  0
  9 24  1  0
 10 11  1  0
 10 24  1  0
 11 23  1  0
 12 14  4  0
 12 16  4  0
 14 19  4  0
 15 18  4  0
 16 20  4  0
 17 25  1  0
 18 26  4  0
 19 29  4  0
 20 29  4  0
 21 23  1  0
 21 25  1  0
 27 29  4  0
M  END
$$$$

 Created by Python create_sdf_string function

 29 32  0  0  0  0  0  0  0  0999 V2000
    5.4450    8.7154   22.6662 C   0  0  0  0  0  0  0  0  0  0  0  0
   10.9154    5.4574   20.5483 C   0  0  0  0  0  0  0  0  0  0  0  0
    7.2709    4.5089   22.7542 C   0  0  0  0  0  0  0  0  0  0  0  0
    5.9698    7.6329   24.6581 C   0  0  0  0  0  0  0  0  0  0  0  0
    4.5542    8.9057   21.7104 O   0  0  0  0  0  0  0  0  0  0  0  0
    6.9895    3.2085   23.0690 C   0  0  0  0  0  0  0  0  0  0  0  0
    7.8391    2.2253   22.7260 N   0  0  0  0  0  0  0  0  0  0  0  0
    8.6968    9.8373   23.6359 C   0  0  0  0  0  0  0  0  0  0  0  0
   12.5135    6.5957   21.8396 C   0  0  0  0  0  0  0  0  0  0  0  0
   10.9406    8.2330   21.1350 C   0  0  0  0  0  0  0  0  0  0  0  0
    9.6648    8.5956   21.7310 C   0  0  0  0  0  0  0  0  0  0  0  0
   10.8829    1.7153   20.9865 C   0  0  0  0  0  0  0  0  0  0  0  0
    5.7768    2.8533   23.7910 C   0  0  0  0  0  0  0  0  0  0  0  0
    9.7977    1.4791   21.6912 N   0  0  0  0  0  0  0  0  0  0  0  0
    6.5976    9.3401   22.6478 N   0  0  0  0  0  0  0  0  0  0  0  0
   11.2031    3.0042   20.6246 C   0  0  0  0  0  0  0  0  0  0  0  0
   12.8688    7.7370   22.7287 C   0  0  0  0  0  0  0  0  0  0  0  0
    7.4487    9.1361   23.6506 C   0  0  0  0  0  0  0  0  0  0  0  0
    8.9772    2.5025   22.0273 C   0  0  0  0  0  0  0  0  0  0  0  0
   10.4859    4.0901   20.9730 C   0  0  0  0  0  0  0  0  0  0  0  0
   11.0962    9.3293   23.5072 C   0  0  0  0  0  0  0  0  0  0  0  0
    5.1273    7.8529   23.6208 N   0  0  0  0  0  0  0  0  0  0  0  0
    9.7552    9.2338   23.0171 N   0  0  0  0  0  0  0  0  0  0  0  0
   11.1797    6.7591   21.3326 N   0  0  0  0  0  0  0  0  0  0  0  0
   11.7728    8.0337   23.7267 C   0  0  0  0  0  0  0  0  0  0  0  0
    7.1194    8.3344   24.6775 C   0  0  0  0  0  0  0  0  0  0  0  0
    8.4311    4.7963   22.0500 C   0  0  0  0  0  0  0  0  0  0  0  0
    8.7393   10.8706   24.1871 O   0  0  0  0  0  0  0  0  0  0  0  0
    9.3093    3.8166   21.6712 C   0  0  0  0  0  0  0  0  0  0  0  0
  1  5  1  0
  1 15  4  0
  1 22  4  0
  2 20  1  0
  2 24  1  0
  3  6  4  0
  3 27  4  0
  4 22  4  0
  4 26  4  0
  6  7  4  0
  6 13  1  0
  7 19  4  0
  8 18  1  0
  8 23  1  0
  8 28  2  0
  9 17  1  0
  9 24  1  0
 10 11  1  0
 10 24  1  0
 11 23  1  0
 12 14  4  0
 12 16  4  0
 14 19  4  0
 15 18  4  0
 16 20  4  0
 17 25  1  0
 18 26  4  0
 19 29  4  0
 20 29  4  0
 21 23  1  0
 21 25  1  0
 27 29  4  0
M  END
$$$$

 Created by Python create_sdf_string function

 29 32  0  0  0  0  0  0  0  0999 V2000
    5.4450    8.7154   22.6662 C   0  0  0  0  0  0  0  0  0  0  0  0
   10.9154    5.4574   20.5483 C   0  0  0  0  0  0  0  0  0  0  0  0
    7.2709    4.5089   22.7542 C   0  0  0  0  0  0  0  0  0  0  0  0
    5.9698    7.6329   24.6581 C   0  0  0  0  0  0  0  0  0  0  0  0
    4.5542    8.9057   21.7104 O   0  0  0  0  0  0  0  0  0  0  0  0
    6.9895    3.2085   23.0690 C   0  0  0  0  0  0  0  0  0  0  0  0
    7.8391    2.2253   22.7260 N   0  0  0  0  0  0  0  0  0  0  0  0
    8.6968    9.8373   23.6359 C   0  0  0  0  0  0  0  0  0  0  0  0
   12.5135    6.5957   21.8396 C   0  0  0  0  0  0  0  0  0  0  0  0
   10.9406    8.2330   21.1350 C   0  0  0  0  0  0  0  0  0  0  0  0
    9.6648    8.5956   21.7310 C   0  0  0  0  0  0  0  0  0  0  0  0
   10.8829    1.7153   20.9865 C   0  0  0  0  0  0  0  0  0  0  0  0
    5.7768    2.8533   23.7910 C   0  0  0  0  0  0  0  0  0  0  0  0
    9.7977    1.4791   21.6912 N   0  0  0  0  0  0  0  0  0  0  0  0
    6.5976    9.3401   22.6478 N   0  0  0  0  0  0  0  0  0  0  0  0
   11.2031    3.0042   20.6246 C   0  0  0  0  0  0  0  0  0  0  0  0
   12.8688    7.7370   22.7287 C   0  0  0  0  0  0  0  0  0  0  0  0
    7.4487    9.1361   23.6506 C   0  0  0  0  0  0  0  0  0  0  0  0
    8.9772    2.5025   22.0273 C   0  0  0  0  0  0  0  0  0  0  0  0
   10.4859    4.0901   20.9730 C   0  0  0  0  0  0  0  0  0  0  0  0
   11.0962    9.3293   23.5072 C   0  0  0  0  0  0  0  0  0  0  0  0
    5.1273    7.8529   23.6208 N   0  0  0  0  0  0  0  0  0  0  0  0
    9.7552    9.2338   23.0171 N   0  0  0  0  0  0  0  0  0  0  0  0
   11.1797    6.7591   21.3326 N   0  0  0  0  0  0  0  0  0  0  0  0
   11.7728    8.0337   23.7267 C   0  0  0  0  0  0  0  0  0  0  0  0
    7.1194    8.3344   24.6775 C   0  0  0  0  0  0  0  0  0  0  0  0
    8.4311    4.7963   22.0500 C   0  0  0  0  0  0  0  0  0  0  0  0
    8.7393   10.8706   24.1871 O   0  0  0  0  0  0  0  0  0  0  0  0
    9.3093    3.8166   21.6712 C   0  0  0  0  0  0  0  0  0  0  0  0
  1  5  1  0
  1 15  4  0
  1 22  4  0
  2 20  1  0
  2 24  1  0
  3  6  4  0
  3 27  4  0
  4 22  4  0
  4 26  4  0
  6  7  4  0
  6 13  1  0
  7 19  4  0
  8 18  1  0
  8 23  1  0
  8 28  2  0
  9 17  1  0
  9 24  1  0
 10 11  1  0
 10 24  1  0
 11 23  1  0
 12 14  4  0
 12 16  4  0
 14 19  4  0
 15 18  4  0
 16 20  4  0
 17 25  1  0
 18 26  4  0
 19 29  4  0
 20 29  4  0
 21 23  1  0
 21 25  1  0
 27 29  4  0
M  END
$$$$

 Created by Python create_sdf_string function

 29 32  0  0  0  0  0  0  0  0999 V2000
    5.4450    8.7154   22.6662 C   0  0  0  0  0  0  0  0  0  0  0  0
   10.9154    5.4574   20.5483 C   0  0  0  0  0  0  0  0  0  0  0  0
    7.2709    4.5089   22.7542 C   0  0  0  0  0  0  0  0  0  0  0  0
    5.9698    7.6329   24.6581 C   0  0  0  0  0  0  0  0  0  0  0  0
    4.5542    8.9057   21.7104 O   0  0  0  0  0  0  0  0  0  0  0  0
    6.9895    3.2085   23.0690 C   0  0  0  0  0  0  0  0  0  0  0  0
    7.8391    2.2253   22.7260 N   0  0  0  0  0  0  0  0  0  0  0  0
    8.6968    9.8373   23.6359 C   0  0  0  0  0  0  0  0  0  0  0  0
   12.5135    6.5957   21.8396 C   0  0  0  0  0  0  0  0  0  0  0  0
   10.9406    8.2330   21.1350 C   0  0  0  0  0  0  0  0  0  0  0  0
    9.6648    8.5956   21.7310 C   0  0  0  0  0  0  0  0  0  0  0  0
   10.8829    1.7153   20.9865 C   0  0  0  0  0  0  0  0  0  0  0  0
    5.7768    2.8533   23.7910 C   0  0  0  0  0  0  0  0  0  0  0  0
    9.7977    1.4791   21.6912 N   0  0  0  0  0  0  0  0  0  0  0  0
    6.5976    9.3401   22.6478 N   0  0  0  0  0  0  0  0  0  0  0  0
   11.2031    3.0042   20.6246 C   0  0  0  0  0  0  0  0  0  0  0  0
   12.8688    7.7370   22.7287 C   0  0  0  0  0  0  0  0  0  0  0  0
    7.4487    9.1361   23.6506 C   0  0  0  0  0  0  0  0  0  0  0  0
    8.9772    2.5025   22.0273 C   0  0  0  0  0  0  0  0  0  0  0  0
   10.4859    4.0901   20.9730 C   0  0  0  0  0  0  0  0  0  0  0  0
   11.0962    9.3293   23.5072 C   0  0  0  0  0  0  0  0  0  0  0  0
    5.1273    7.8529   23.6208 N   0  0  0  0  0  0  0  0  0  0  0  0
    9.7552    9.2338   23.0171 N   0  0  0  0  0  0  0  0  0  0  0  0
   11.1797    6.7591   21.3326 N   0  0  0  0  0  0  0  0  0  0  0  0
   11.7728    8.0337   23.7267 C   0  0  0  0  0  0  0  0  0  0  0  0
    7.1194    8.3344   24.6775 C   0  0  0  0  0  0  0  0  0  0  0  0
    8.4311    4.7963   22.0500 C   0  0  0  0  0  0  0  0  0  0  0  0
    8.7393   10.8706   24.1871 O   0  0  0  0  0  0  0  0  0  0  0  0
    9.3093    3.8166   21.6712 C   0  0  0  0  0  0  0  0  0  0  0  0
  1  5  1  0
  1 15  4  0
  1 22  4  0
  2 20  1  0
  2 24  1  0
  3  6  4  0
  3 27  4  0
  4 22  4  0
  4 26  4  0
  6  7  4  0
  6 13  1  0
  7 19  4  0
  8 18  1  0
  8 23  1  0
  8 28  2  0
  9 17  1  0
  9 24  1  0
 10 11  1  0
 10 24  1  0
 11 23  1  0
 12 14  4  0
 12 16  4  0
 14 19  4  0
 15 18  4  0
 16 20  4  0
 17 25  1  0
 18 26  4  0
 19 29  4  0
 20 29  4  0
 21 23  1  0
 21 25  1  0
 27 29  4  0
M  END
$$$$

 Created by Python create_sdf_string function

 29 32  0  0  0  0  0  0  0  0999 V2000
    5.4450    8.7154   22.6662 C   0  0  0  0  0  0  0  0  0  0  0  0
   10.9154    5.4574   20.5483 C   0  0  0  0  0  0  0  0  0  0  0  0
    7.2709    4.5089   22.7542 C   0  0  0  0  0  0  0  0  0  0  0  0
    5.9698    7.6329   24.6581 C   0  0  0  0  0  0  0  0  0  0  0  0
    4.5542    8.9057   21.7104 O   0  0  0  0  0  0  0  0  0  0  0  0
    6.9895    3.2085   23.0690 C   0  0  0  0  0  0  0  0  0  0  0  0
    7.8391    2.2253   22.7260 N   0  0  0  0  0  0  0  0  0  0  0  0
    8.6968    9.8373   23.6359 C   0  0  0  0  0  0  0  0  0  0  0  0
   12.5135    6.5957   21.8396 C   0  0  0  0  0  0  0  0  0  0  0  0
   10.9406    8.2330   21.1350 C   0  0  0  0  0  0  0  0  0  0  0  0
    9.6648    8.5956   21.7310 C   0  0  0  0  0  0  0  0  0  0  0  0
   10.8829    1.7153   20.9865 C   0  0  0  0  0  0  0  0  0  0  0  0
    5.7768    2.8533   23.7910 C   0  0  0  0  0  0  0  0  0  0  0  0
    9.7977    1.4791   21.6912 N   0  0  0  0  0  0  0  0  0  0  0  0
    6.5976    9.3401   22.6478 N   0  0  0  0  0  0  0  0  0  0  0  0
   11.2031    3.0042   20.6246 C   0  0  0  0  0  0  0  0  0  0  0  0
   12.8688    7.7370   22.7287 C   0  0  0  0  0  0  0  0  0  0  0  0
    7.4487    9.1361   23.6506 C   0  0  0  0  0  0  0  0  0  0  0  0
    8.9772    2.5025   22.0273 C   0  0  0  0  0  0  0  0  0  0  0  0
   10.4859    4.0901   20.9730 C   0  0  0  0  0  0  0  0  0  0  0  0
   11.0962    9.3293   23.5072 C   0  0  0  0  0  0  0  0  0  0  0  0
    5.1273    7.8529   23.6208 N   0  0  0  0  0  0  0  0  0  0  0  0
    9.7552    9.2338   23.0171 N   0  0  0  0  0  0  0  0  0  0  0  0
   11.1797    6.7591   21.3326 N   0  0  0  0  0  0  0  0  0  0  0  0
   11.7728    8.0337   23.7267 C   0  0  0  0  0  0  0  0  0  0  0  0
    7.1194    8.3344   24.6775 C   0  0  0  0  0  0  0  0  0  0  0  0
    8.4311    4.7963   22.0500 C   0  0  0  0  0  0  0  0  0  0  0  0
    8.7393   10.8706   24.1871 O   0  0  0  0  0  0  0  0  0  0  0  0
    9.3093    3.8166   21.6712 C   0  0  0  0  0  0  0  0  0  0  0  0
  1  5  1  0
  1 15  4  0
  1 22  4  0
  2 20  1  0
  2 24  1  0
  3  6  4  0
  3 27  4  0
  4 22  4  0
  4 26  4  0
  6  7  4  0
  6 13  1  0
  7 19  4  0
  8 18  1  0
  8 23  1  0
  8 28  2  0
  9 17  1  0
  9 24  1  0
 10 11  1  0
 10 24  1  0
 11 23  1  0
 12 14  4  0
 12 16  4  0
 14 19  4  0
 15 18  4  0
 16 20  4  0
 17 25  1  0
 18 26  4  0
 19 29  4  0
 20 29  4  0
 21 23  1  0
 21 25  1  0
 27 29  4  0
M  END
$$$$

 Created by Python create_sdf_string function

 29 32  0  0  0  0  0  0  0  0999 V2000
    5.4450    8.7154   22.6662 C   0  0  0  0  0  0  0  0  0  0  0  0
   10.9154    5.4574   20.5483 C   0  0  0  0  0  0  0  0  0  0  0  0
    7.2709    4.5089   22.7542 C   0  0  0  0  0  0  0  0  0  0  0  0
    5.9698    7.6329   24.6581 C   0  0  0  0  0  0  0  0  0  0  0  0
    4.5542    8.9057   21.7104 O   0  0  0  0  0  0  0  0  0  0  0  0
    6.9895    3.2085   23.0690 C   0  0  0  0  0  0  0  0  0  0  0  0
    7.8391    2.2253   22.7260 N   0  0  0  0  0  0  0  0  0  0  0  0
    8.6968    9.8373   23.6359 C   0  0  0  0  0  0  0  0  0  0  0  0
   12.5135    6.5957   21.8396 C   0  0  0  0  0  0  0  0  0  0  0  0
   10.9406    8.2330   21.1350 C   0  0  0  0  0  0  0  0  0  0  0  0
    9.6648    8.5956   21.7310 C   0  0  0  0  0  0  0  0  0  0  0  0
   10.8829    1.7153   20.9865 C   0  0  0  0  0  0  0  0  0  0  0  0
    5.7768    2.8533   23.7910 C   0  0  0  0  0  0  0  0  0  0  0  0
    9.7977    1.4791   21.6912 N   0  0  0  0  0  0  0  0  0  0  0  0
    6.5976    9.3401   22.6478 N   0  0  0  0  0  0  0  0  0  0  0  0
   11.2031    3.0042   20.6246 C   0  0  0  0  0  0  0  0  0  0  0  0
   12.8688    7.7370   22.7287 C   0  0  0  0  0  0  0  0  0  0  0  0
    7.4487    9.1361   23.6506 C   0  0  0  0  0  0  0  0  0  0  0  0
    8.9772    2.5025   22.0273 C   0  0  0  0  0  0  0  0  0  0  0  0
   10.4859    4.0901   20.9730 C   0  0  0  0  0  0  0  0  0  0  0  0
   11.0962    9.3293   23.5072 C   0  0  0  0  0  0  0  0  0  0  0  0
    5.1273    7.8529   23.6208 N   0  0  0  0  0  0  0  0  0  0  0  0
    9.7552    9.2338   23.0171 N   0  0  0  0  0  0  0  0  0  0  0  0
   11.1797    6.7591   21.3326 N   0  0  0  0  0  0  0  0  0  0  0  0
   11.7728    8.0337   23.7267 C   0  0  0  0  0  0  0  0  0  0  0  0
    7.1194    8.3344   24.6775 C   0  0  0  0  0  0  0  0  0  0  0  0
    8.4311    4.7963   22.0500 C   0  0  0  0  0  0  0  0  0  0  0  0
    8.7393   10.8706   24.1871 O   0  0  0  0  0  0  0  0  0  0  0  0
    9.3093    3.8166   21.6712 C   0  0  0  0  0  0  0  0  0  0  0  0
  1  5  1  0
  1 15  4  0
  1 22  4  0
  2 20  1  0
  2 24  1  0
  3  6  4  0
  3 27  4  0
  4 22  4  0
  4 26  4  0
  6  7  4  0
  6 13  1  0
  7 19  4  0
  8 18  1  0
  8 23  1  0
  8 28  2  0
  9 17  1  0
  9 24  1  0
 10 11  1  0
 10 24  1  0
 11 23  1  0
 12 14  4  0
 12 16  4  0
 14 19  4  0
 15 18  4  0
 16 20  4  0
 17 25  1  0
 18 26  4  0
 19 29  4  0
 20 29  4  0
 21 23  1  0
 21 25  1  0
 27 29  4  0
M  END
$$$$

 Created by Python create_sdf_string function

 29 32  0  0  0  0  0  0  0  0999 V2000
    5.4450    8.7154   22.6662 C   0  0  0  0  0  0  0  0  0  0  0  0
   10.9154    5.4574   20.5483 C   0  0  0  0  0  0  0  0  0  0  0  0
    7.2709    4.5089   22.7542 C   0  0  0  0  0  0  0  0  0  0  0  0
    5.9698    7.6329   24.6581 C   0  0  0  0  0  0  0  0  0  0  0  0
    4.5542    8.9057   21.7104 O   0  0  0  0  0  0  0  0  0  0  0  0
    6.9895    3.2085   23.0690 C   0  0  0  0  0  0  0  0  0  0  0  0
    7.8391    2.2253   22.7260 N   0  0  0  0  0  0  0  0  0  0  0  0
    8.6968    9.8373   23.6359 C   0  0  0  0  0  0  0  0  0  0  0  0
   12.5135    6.5957   21.8396 C   0  0  0  0  0  0  0  0  0  0  0  0
   10.9406    8.2330   21.1350 C   0  0  0  0  0  0  0  0  0  0  0  0
    9.6648    8.5956   21.7310 C   0  0  0  0  0  0  0  0  0  0  0  0
   10.8829    1.7153   20.9865 C   0  0  0  0  0  0  0  0  0  0  0  0
    5.7768    2.8533   23.7910 C   0  0  0  0  0  0  0  0  0  0  0  0
    9.7977    1.4791   21.6912 N   0  0  0  0  0  0  0  0  0  0  0  0
    6.5976    9.3401   22.6478 N   0  0  0  0  0  0  0  0  0  0  0  0
   11.2031    3.0042   20.6246 C   0  0  0  0  0  0  0  0  0  0  0  0
   12.8688    7.7370   22.7287 C   0  0  0  0  0  0  0  0  0  0  0  0
    7.4487    9.1361   23.6506 C   0  0  0  0  0  0  0  0  0  0  0  0
    8.9772    2.5025   22.0273 C   0  0  0  0  0  0  0  0  0  0  0  0
   10.4859    4.0901   20.9730 C   0  0  0  0  0  0  0  0  0  0  0  0
   11.0962    9.3293   23.5072 C   0  0  0  0  0  0  0  0  0  0  0  0
    5.1273    7.8529   23.6208 N   0  0  0  0  0  0  0  0  0  0  0  0
    9.7552    9.2338   23.0171 N   0  0  0  0  0  0  0  0  0  0  0  0
   11.1797    6.7591   21.3326 N   0  0  0  0  0  0  0  0  0  0  0  0
   11.7728    8.0337   23.7267 C   0  0  0  0  0  0  0  0  0  0  0  0
    7.1194    8.3344   24.6775 C   0  0  0  0  0  0  0  0  0  0  0  0
    8.4311    4.7963   22.0500 C   0  0  0  0  0  0  0  0  0  0  0  0
    8.7393   10.8706   24.1871 O   0  0  0  0  0  0  0  0  0  0  0  0
    9.3093    3.8166   21.6712 C   0  0  0  0  0  0  0  0  0  0  0  0
  1  5  1  0
  1 15  4  0
  1 22  4  0
  2 20  1  0
  2 24  1  0
  3  6  4  0
  3 27  4  0
  4 22  4  0
  4 26  4  0
  6  7  4  0
  6 13  1  0
  7 19  4  0
  8 18  1  0
  8 23  1  0
  8 28  2  0
  9 17  1  0
  9 24  1  0
 10 11  1  0
 10 24  1  0
 11 23  1  0
 12 14  4  0
 12 16  4  0
 14 19  4  0
 15 18  4  0
 16 20  4  0
 17 25  1  0
 18 26  4  0
 19 29  4  0
 20 29  4  0
 21 23  1  0
 21 25  1  0
 27 29  4  0
M  END
$$$$

 Created by Python create_sdf_string function

 29 32  0  0  0  0  0  0  0  0999 V2000
    5.4450    8.7154   22.6662 C   0  0  0  0  0  0  0  0  0  0  0  0
   10.9154    5.4574   20.5483 C   0  0  0  0  0  0  0  0  0  0  0  0
    7.2709    4.5089   22.7542 C   0  0  0  0  0  0  0  0  0  0  0  0
    5.9698    7.6329   24.6581 C   0  0  0  0  0  0  0  0  0  0  0  0
    4.5542    8.9057   21.7104 O   0  0  0  0  0  0  0  0  0  0  0  0
    6.9895    3.2085   23.0690 C   0  0  0  0  0  0  0  0  0  0  0  0
    7.8391    2.2253   22.7260 N   0  0  0  0  0  0  0  0  0  0  0  0
    8.6968    9.8373   23.6359 C   0  0  0  0  0  0  0  0  0  0  0  0
   12.5135    6.5957   21.8396 C   0  0  0  0  0  0  0  0  0  0  0  0
   10.9406    8.2330   21.1350 C   0  0  0  0  0  0  0  0  0  0  0  0
    9.6648    8.5956   21.7310 C   0  0  0  0  0  0  0  0  0  0  0  0
   10.8829    1.7153   20.9865 C   0  0  0  0  0  0  0  0  0  0  0  0
    5.7768    2.8533   23.7910 C   0  0  0  0  0  0  0  0  0  0  0  0
    9.7977    1.4791   21.6912 N   0  0  0  0  0  0  0  0  0  0  0  0
    6.5976    9.3401   22.6478 N   0  0  0  0  0  0  0  0  0  0  0  0
   11.2031    3.0042   20.6246 C   0  0  0  0  0  0  0  0  0  0  0  0
   12.8688    7.7370   22.7287 C   0  0  0  0  0  0  0  0  0  0  0  0
    7.4487    9.1361   23.6506 C   0  0  0  0  0  0  0  0  0  0  0  0
    8.9772    2.5025   22.0273 C   0  0  0  0  0  0  0  0  0  0  0  0
   10.4859    4.0901   20.9730 C   0  0  0  0  0  0  0  0  0  0  0  0
   11.0962    9.3293   23.5072 C   0  0  0  0  0  0  0  0  0  0  0  0
    5.1273    7.8529   23.6208 N   0  0  0  0  0  0  0  0  0  0  0  0
    9.7552    9.2338   23.0171 N   0  0  0  0  0  0  0  0  0  0  0  0
   11.1797    6.7591   21.3326 N   0  0  0  0  0  0  0  0  0  0  0  0
   11.7728    8.0337   23.7267 C   0  0  0  0  0  0  0  0  0  0  0  0
    7.1194    8.3344   24.6775 C   0  0  0  0  0  0  0  0  0  0  0  0
    8.4311    4.7963   22.0500 C   0  0  0  0  0  0  0  0  0  0  0  0
    8.7393   10.8706   24.1871 O   0  0  0  0  0  0  0  0  0  0  0  0
    9.3093    3.8166   21.6712 C   0  0  0  0  0  0  0  0  0  0  0  0
  1  5  1  0
  1 15  4  0
  1 22  4  0
  2 20  1  0
  2 24  1  0
  3  6  4  0
  3 27  4  0
  4 22  4  0
  4 26  4  0
  6  7  4  0
  6 13  1  0
  7 19  4  0
  8 18  1  0
  8 23  1  0
  8 28  2  0
  9 17  1  0
  9 24  1  0
 10 11  1  0
 10 24  1  0
 11 23  1  0
 12 14  4  0
 12 16  4  0
 14 19  4  0
 15 18  4  0
 16 20  4  0
 17 25  1  0
 18 26  4  0
 19 29  4  0
 20 29  4  0
 21 23  1  0
 21 25  1  0
 27 29  4  0
M  END
$$$$

 Created by Python create_sdf_string function

 29 32  0  0  0  0  0  0  0  0999 V2000
    5.4450    8.7154   22.6662 C   0  0  0  0  0  0  0  0  0  0  0  0
   10.9154    5.4574   20.5483 C   0  0  0  0  0  0  0  0  0  0  0  0
    7.2709    4.5089   22.7542 C   0  0  0  0  0  0  0  0  0  0  0  0
    5.9698    7.6329   24.6581 C   0  0  0  0  0  0  0  0  0  0  0  0
    4.5542    8.9057   21.7104 O   0  0  0  0  0  0  0  0  0  0  0  0
    6.9895    3.2085   23.0690 C   0  0  0  0  0  0  0  0  0  0  0  0
    7.8391    2.2253   22.7260 N   0  0  0  0  0  0  0  0  0  0  0  0
    8.6968    9.8373   23.6359 C   0  0  0  0  0  0  0  0  0  0  0  0
   12.5135    6.5957   21.8396 C   0  0  0  0  0  0  0  0  0  0  0  0
   10.9406    8.2330   21.1350 C   0  0  0  0  0  0  0  0  0  0  0  0
    9.6648    8.5956   21.7310 C   0  0  0  0  0  0  0  0  0  0  0  0
   10.8829    1.7153   20.9865 C   0  0  0  0  0  0  0  0  0  0  0  0
    5.7768    2.8533   23.7910 C   0  0  0  0  0  0  0  0  0  0  0  0
    9.7977    1.4791   21.6912 N   0  0  0  0  0  0  0  0  0  0  0  0
    6.5976    9.3401   22.6478 N   0  0  0  0  0  0  0  0  0  0  0  0
   11.2031    3.0042   20.6246 C   0  0  0  0  0  0  0  0  0  0  0  0
   12.8688    7.7370   22.7287 C   0  0  0  0  0  0  0  0  0  0  0  0
    7.4487    9.1361   23.6506 C   0  0  0  0  0  0  0  0  0  0  0  0
    8.9772    2.5025   22.0273 C   0  0  0  0  0  0  0  0  0  0  0  0
   10.4859    4.0901   20.9730 C   0  0  0  0  0  0  0  0  0  0  0  0
   11.0962    9.3293   23.5072 C   0  0  0  0  0  0  0  0  0  0  0  0
    5.1273    7.8529   23.6208 N   0  0  0  0  0  0  0  0  0  0  0  0
    9.7552    9.2338   23.0171 N   0  0  0  0  0  0  0  0  0  0  0  0
   11.1797    6.7591   21.3326 N   0  0  0  0  0  0  0  0  0  0  0  0
   11.7728    8.0337   23.7267 C   0  0  0  0  0  0  0  0  0  0  0  0
    7.1194    8.3344   24.6775 C   0  0  0  0  0  0  0  0  0  0  0  0
    8.4311    4.7963   22.0500 C   0  0  0  0  0  0  0  0  0  0  0  0
    8.7393   10.8706   24.1871 O   0  0  0  0  0  0  0  0  0  0  0  0
    9.3093    3.8166   21.6712 C   0  0  0  0  0  0  0  0  0  0  0  0
  1  5  1  0
  1 15  4  0
  1 22  4  0
  2 20  1  0
  2 24  1  0
  3  6  4  0
  3 27  4  0
  4 22  4  0
  4 26  4  0
  6  7  4  0
  6 13  1  0
  7 19  4  0
  8 18  1  0
  8 23  1  0
  8 28  2  0
  9 17  1  0
  9 24  1  0
 10 11  1  0
 10 24  1  0
 11 23  1  0
 12 14  4  0
 12 16  4  0
 14 19  4  0
 15 18  4  0
 16 20  4  0
 17 25  1  0
 18 26  4  0
 19 29  4  0
 20 29  4  0
 21 23  1  0
 21 25  1  0
 27 29  4  0
M  END
$$$$

 Created by Python create_sdf_string function

 29 32  0  0  0  0  0  0  0  0999 V2000
    5.4450    8.7154   22.6662 C   0  0  0  0  0  0  0  0  0  0  0  0
   10.9154    5.4574   20.5483 C   0  0  0  0  0  0  0  0  0  0  0  0
    7.2709    4.5089   22.7542 C   0  0  0  0  0  0  0  0  0  0  0  0
    5.9698    7.6329   24.6581 C   0  0  0  0  0  0  0  0  0  0  0  0
    4.5542    8.9057   21.7104 O   0  0  0  0  0  0  0  0  0  0  0  0
    6.9895    3.2085   23.0690 C   0  0  0  0  0  0  0  0  0  0  0  0
    7.8391    2.2253   22.7260 N   0  0  0  0  0  0  0  0  0  0  0  0
    8.6968    9.8373   23.6359 C   0  0  0  0  0  0  0  0  0  0  0  0
   12.5135    6.5957   21.8396 C   0  0  0  0  0  0  0  0  0  0  0  0
   10.9406    8.2330   21.1350 C   0  0  0  0  0  0  0  0  0  0  0  0
    9.6648    8.5956   21.7310 C   0  0  0  0  0  0  0  0  0  0  0  0
   10.8829    1.7153   20.9865 C   0  0  0  0  0  0  0  0  0  0  0  0
    5.7768    2.8533   23.7910 C   0  0  0  0  0  0  0  0  0  0  0  0
    9.7977    1.4791   21.6912 N   0  0  0  0  0  0  0  0  0  0  0  0
    6.5976    9.3401   22.6478 N   0  0  0  0  0  0  0  0  0  0  0  0
   11.2031    3.0042   20.6246 C   0  0  0  0  0  0  0  0  0  0  0  0
   12.8688    7.7370   22.7287 C   0  0  0  0  0  0  0  0  0  0  0  0
    7.4487    9.1361   23.6506 C   0  0  0  0  0  0  0  0  0  0  0  0
    8.9772    2.5025   22.0273 C   0  0  0  0  0  0  0  0  0  0  0  0
   10.4859    4.0901   20.9730 C   0  0  0  0  0  0  0  0  0  0  0  0
   11.0962    9.3293   23.5072 C   0  0  0  0  0  0  0  0  0  0  0  0
    5.1273    7.8529   23.6208 N   0  0  0  0  0  0  0  0  0  0  0  0
    9.7552    9.2338   23.0171 N   0  0  0  0  0  0  0  0  0  0  0  0
   11.1797    6.7591   21.3326 N   0  0  0  0  0  0  0  0  0  0  0  0
   11.7728    8.0337   23.7267 C   0  0  0  0  0  0  0  0  0  0  0  0
    7.1194    8.3344   24.6775 C   0  0  0  0  0  0  0  0  0  0  0  0
    8.4311    4.7963   22.0500 C   0  0  0  0  0  0  0  0  0  0  0  0
    8.7393   10.8706   24.1871 O   0  0  0  0  0  0  0  0  0  0  0  0
    9.3093    3.8166   21.6712 C   0  0  0  0  0  0  0  0  0  0  0  0
  1  5  1  0
  1 15  4  0
  1 22  4  0
  2 20  1  0
  2 24  1  0
  3  6  4  0
  3 27  4  0
  4 22  4  0
  4 26  4  0
  6  7  4  0
  6 13  1  0
  7 19  4  0
  8 18  1  0
  8 23  1  0
  8 28  2  0
  9 17  1  0
  9 24  1  0
 10 11  1  0
 10 24  1  0
 11 23  1  0
 12 14  4  0
 12 16  4  0
 14 19  4  0
 15 18  4  0
 16 20  4  0
 17 25  1  0
 18 26  4  0
 19 29  4  0
 20 29  4  0
 21 23  1  0
 21 25  1  0
 27 29  4  0
M  END
$$$$

 Created by Python create_sdf_string function

 29 32  0  0  0  0  0  0  0  0999 V2000
    5.4450    8.7154   22.6662 C   0  0  0  0  0  0  0  0  0  0  0  0
   10.9154    5.4574   20.5483 C   0  0  0  0  0  0  0  0  0  0  0  0
    7.2709    4.5089   22.7542 C   0  0  0  0  0  0  0  0  0  0  0  0
    5.9698    7.6329   24.6581 C   0  0  0  0  0  0  0  0  0  0  0  0
    4.5542    8.9057   21.7104 O   0  0  0  0  0  0  0  0  0  0  0  0
    6.9895    3.2085   23.0690 C   0  0  0  0  0  0  0  0  0  0  0  0
    7.8391    2.2253   22.7260 N   0  0  0  0  0  0  0  0  0  0  0  0
    8.6968    9.8373   23.6359 C   0  0  0  0  0  0  0  0  0  0  0  0
   12.5135    6.5957   21.8396 C   0  0  0  0  0  0  0  0  0  0  0  0
   10.9406    8.2330   21.1350 C   0  0  0  0  0  0  0  0  0  0  0  0
    9.6648    8.5956   21.7310 C   0  0  0  0  0  0  0  0  0  0  0  0
   10.8829    1.7153   20.9865 C   0  0  0  0  0  0  0  0  0  0  0  0
    5.7768    2.8533   23.7910 C   0  0  0  0  0  0  0  0  0  0  0  0
    9.7977    1.4791   21.6912 N   0  0  0  0  0  0  0  0  0  0  0  0
    6.5976    9.3401   22.6478 N   0  0  0  0  0  0  0  0  0  0  0  0
   11.2031    3.0042   20.6246 C   0  0  0  0  0  0  0  0  0  0  0  0
   12.8688    7.7370   22.7287 C   0  0  0  0  0  0  0  0  0  0  0  0
    7.4487    9.1361   23.6506 C   0  0  0  0  0  0  0  0  0  0  0  0
    8.9772    2.5025   22.0273 C   0  0  0  0  0  0  0  0  0  0  0  0
   10.4859    4.0901   20.9730 C   0  0  0  0  0  0  0  0  0  0  0  0
   11.0962    9.3293   23.5072 C   0  0  0  0  0  0  0  0  0  0  0  0
    5.1273    7.8529   23.6208 N   0  0  0  0  0  0  0  0  0  0  0  0
    9.7552    9.2338   23.0171 N   0  0  0  0  0  0  0  0  0  0  0  0
   11.1797    6.7591   21.3326 N   0  0  0  0  0  0  0  0  0  0  0  0
   11.7728    8.0337   23.7267 C   0  0  0  0  0  0  0  0  0  0  0  0
    7.1194    8.3344   24.6775 C   0  0  0  0  0  0  0  0  0  0  0  0
    8.4311    4.7963   22.0500 C   0  0  0  0  0  0  0  0  0  0  0  0
    8.7393   10.8706   24.1871 O   0  0  0  0  0  0  0  0  0  0  0  0
    9.3093    3.8166   21.6712 C   0  0  0  0  0  0  0  0  0  0  0  0
  1  5  1  0
  1 15  4  0
  1 22  4  0
  2 20  1  0
  2 24  1  0
  3  6  4  0
  3 27  4  0
  4 22  4  0
  4 26  4  0
  6  7  4  0
  6 13  1  0
  7 19  4  0
  8 18  1  0
  8 23  1  0
  8 28  2  0
  9 17  1  0
  9 24  1  0
 10 11  1  0
 10 24  1  0
 11 23  1  0
 12 14  4  0
 12 16  4  0
 14 19  4  0
 15 18  4  0
 16 20  4  0
 17 25  1  0
 18 26  4  0
 19 29  4  0
 20 29  4  0
 21 23  1  0
 21 25  1  0
 27 29  4  0
M  END
$$$$

 Created by Python create_sdf_string function

 29 32  0  0  0  0  0  0  0  0999 V2000
    5.4450    8.7154   22.6662 C   0  0  0  0  0  0  0  0  0  0  0  0
   10.9154    5.4574   20.5483 C   0  0  0  0  0  0  0  0  0  0  0  0
    7.2709    4.5089   22.7542 C   0  0  0  0  0  0  0  0  0  0  0  0
    5.9698    7.6329   24.6581 C   0  0  0  0  0  0  0  0  0  0  0  0
    4.5542    8.9057   21.7104 O   0  0  0  0  0  0  0  0  0  0  0  0
    6.9895    3.2085   23.0690 C   0  0  0  0  0  0  0  0  0  0  0  0
    7.8391    2.2253   22.7260 N   0  0  0  0  0  0  0  0  0  0  0  0
    8.6968    9.8373   23.6359 C   0  0  0  0  0  0  0  0  0  0  0  0
   12.5135    6.5957   21.8396 C   0  0  0  0  0  0  0  0  0  0  0  0
   10.9406    8.2330   21.1350 C   0  0  0  0  0  0  0  0  0  0  0  0
    9.6648    8.5956   21.7310 C   0  0  0  0  0  0  0  0  0  0  0  0
   10.8829    1.7153   20.9865 C   0  0  0  0  0  0  0  0  0  0  0  0
    5.7768    2.8533   23.7910 C   0  0  0  0  0  0  0  0  0  0  0  0
    9.7977    1.4791   21.6912 N   0  0  0  0  0  0  0  0  0  0  0  0
    6.5976    9.3401   22.6478 N   0  0  0  0  0  0  0  0  0  0  0  0
   11.2031    3.0042   20.6246 C   0  0  0  0  0  0  0  0  0  0  0  0
   12.8688    7.7370   22.7287 C   0  0  0  0  0  0  0  0  0  0  0  0
    7.4487    9.1361   23.6506 C   0  0  0  0  0  0  0  0  0  0  0  0
    8.9772    2.5025   22.0273 C   0  0  0  0  0  0  0  0  0  0  0  0
   10.4859    4.0901   20.9730 C   0  0  0  0  0  0  0  0  0  0  0  0
   11.0962    9.3293   23.5072 C   0  0  0  0  0  0  0  0  0  0  0  0
    5.1273    7.8529   23.6208 N   0  0  0  0  0  0  0  0  0  0  0  0
    9.7552    9.2338   23.0171 N   0  0  0  0  0  0  0  0  0  0  0  0
   11.1797    6.7591   21.3326 N   0  0  0  0  0  0  0  0  0  0  0  0
   11.7728    8.0337   23.7267 C   0  0  0  0  0  0  0  0  0  0  0  0
    7.1194    8.3344   24.6775 C   0  0  0  0  0  0  0  0  0  0  0  0
    8.4311    4.7963   22.0500 C   0  0  0  0  0  0  0  0  0  0  0  0
    8.7393   10.8706   24.1871 O   0  0  0  0  0  0  0  0  0  0  0  0
    9.3093    3.8166   21.6712 C   0  0  0  0  0  0  0  0  0  0  0  0
  1  5  1  0
  1 15  4  0
  1 22  4  0
  2 20  1  0
  2 24  1  0
  3  6  4  0
  3 27  4  0
  4 22  4  0
  4 26  4  0
  6  7  4  0
  6 13  1  0
  7 19  4  0
  8 18  1  0
  8 23  1  0
  8 28  2  0
  9 17  1  0
  9 24  1  0
 10 11  1  0
 10 24  1  0
 11 23  1  0
 12 14  4  0
 12 16  4  0
 14 19  4  0
 15 18  4  0
 16 20  4  0
 17 25  1  0
 18 26  4  0
 19 29  4  0
 20 29  4  0
 21 23  1  0
 21 25  1  0
 27 29  4  0
M  END
$$$$

 Created by Python create_sdf_string function

 29 32  0  0  0  0  0  0  0  0999 V2000
    5.4450    8.7154   22.6662 C   0  0  0  0  0  0  0  0  0  0  0  0
   10.9154    5.4574   20.5483 C   0  0  0  0  0  0  0  0  0  0  0  0
    7.2709    4.5089   22.7542 C   0  0  0  0  0  0  0  0  0  0  0  0
    5.9698    7.6329   24.6581 C   0  0  0  0  0  0  0  0  0  0  0  0
    4.5542    8.9057   21.7104 O   0  0  0  0  0  0  0  0  0  0  0  0
    6.9895    3.2085   23.0690 C   0  0  0  0  0  0  0  0  0  0  0  0
    7.8391    2.2253   22.7260 N   0  0  0  0  0  0  0  0  0  0  0  0
    8.6968    9.8373   23.6359 C   0  0  0  0  0  0  0  0  0  0  0  0
   12.5135    6.5957   21.8396 C   0  0  0  0  0  0  0  0  0  0  0  0
   10.9406    8.2330   21.1350 C   0  0  0  0  0  0  0  0  0  0  0  0
    9.6648    8.5956   21.7310 C   0  0  0  0  0  0  0  0  0  0  0  0
   10.8829    1.7153   20.9865 C   0  0  0  0  0  0  0  0  0  0  0  0
    5.7768    2.8533   23.7910 C   0  0  0  0  0  0  0  0  0  0  0  0
    9.7977    1.4791   21.6912 N   0  0  0  0  0  0  0  0  0  0  0  0
    6.5976    9.3401   22.6478 N   0  0  0  0  0  0  0  0  0  0  0  0
   11.2031    3.0042   20.6246 C   0  0  0  0  0  0  0  0  0  0  0  0
   12.8688    7.7370   22.7287 C   0  0  0  0  0  0  0  0  0  0  0  0
    7.4487    9.1361   23.6506 C   0  0  0  0  0  0  0  0  0  0  0  0
    8.9772    2.5025   22.0273 C   0  0  0  0  0  0  0  0  0  0  0  0
   10.4859    4.0901   20.9730 C   0  0  0  0  0  0  0  0  0  0  0  0
   11.0962    9.3293   23.5072 C   0  0  0  0  0  0  0  0  0  0  0  0
    5.1273    7.8529   23.6208 N   0  0  0  0  0  0  0  0  0  0  0  0
    9.7552    9.2338   23.0171 N   0  0  0  0  0  0  0  0  0  0  0  0
   11.1797    6.7591   21.3326 N   0  0  0  0  0  0  0  0  0  0  0  0
   11.7728    8.0337   23.7267 C   0  0  0  0  0  0  0  0  0  0  0  0
    7.1194    8.3344   24.6775 C   0  0  0  0  0  0  0  0  0  0  0  0
    8.4311    4.7963   22.0500 C   0  0  0  0  0  0  0  0  0  0  0  0
    8.7393   10.8706   24.1871 O   0  0  0  0  0  0  0  0  0  0  0  0
    9.3093    3.8166   21.6712 C   0  0  0  0  0  0  0  0  0  0  0  0
  1  5  1  0
  1 15  4  0
  1 22  4  0
  2 20  1  0
  2 24  1  0
  3  6  4  0
  3 27  4  0
  4 22  4  0
  4 26  4  0
  6  7  4  0
  6 13  1  0
  7 19  4  0
  8 18  1  0
  8 23  1  0
  8 28  2  0
  9 17  1  0
  9 24  1  0
 10 11  1  0
 10 24  1  0
 11 23  1  0
 12 14  4  0
 12 16  4  0
 14 19  4  0
 15 18  4  0
 16 20  4  0
 17 25  1  0
 18 26  4  0
 19 29  4  0
 20 29  4  0
 21 23  1  0
 21 25  1  0
 27 29  4  0
M  END
$$$$

 Created by Python create_sdf_string function

 29 32  0  0  0  0  0  0  0  0999 V2000
    5.4450    8.7154   22.6662 C   0  0  0  0  0  0  0  0  0  0  0  0
   10.9154    5.4574   20.5483 C   0  0  0  0  0  0  0  0  0  0  0  0
    7.2709    4.5089   22.7542 C   0  0  0  0  0  0  0  0  0  0  0  0
    5.9698    7.6329   24.6581 C   0  0  0  0  0  0  0  0  0  0  0  0
    4.5542    8.9057   21.7104 O   0  0  0  0  0  0  0  0  0  0  0  0
    6.9895    3.2085   23.0690 C   0  0  0  0  0  0  0  0  0  0  0  0
    7.8391    2.2253   22.7260 N   0  0  0  0  0  0  0  0  0  0  0  0
    8.6968    9.8373   23.6359 C   0  0  0  0  0  0  0  0  0  0  0  0
   12.5135    6.5957   21.8396 C   0  0  0  0  0  0  0  0  0  0  0  0
   10.9406    8.2330   21.1350 C   0  0  0  0  0  0  0  0  0  0  0  0
    9.6648    8.5956   21.7310 C   0  0  0  0  0  0  0  0  0  0  0  0
   10.8829    1.7153   20.9865 C   0  0  0  0  0  0  0  0  0  0  0  0
    5.7768    2.8533   23.7910 C   0  0  0  0  0  0  0  0  0  0  0  0
    9.7977    1.4791   21.6912 N   0  0  0  0  0  0  0  0  0  0  0  0
    6.5976    9.3401   22.6478 N   0  0  0  0  0  0  0  0  0  0  0  0
   11.2031    3.0042   20.6246 C   0  0  0  0  0  0  0  0  0  0  0  0
   12.8688    7.7370   22.7287 C   0  0  0  0  0  0  0  0  0  0  0  0
    7.4487    9.1361   23.6506 C   0  0  0  0  0  0  0  0  0  0  0  0
    8.9772    2.5025   22.0273 C   0  0  0  0  0  0  0  0  0  0  0  0
   10.4859    4.0901   20.9730 C   0  0  0  0  0  0  0  0  0  0  0  0
   11.0962    9.3293   23.5072 C   0  0  0  0  0  0  0  0  0  0  0  0
    5.1273    7.8529   23.6208 N   0  0  0  0  0  0  0  0  0  0  0  0
    9.7552    9.2338   23.0171 N   0  0  0  0  0  0  0  0  0  0  0  0
   11.1797    6.7591   21.3326 N   0  0  0  0  0  0  0  0  0  0  0  0
   11.7728    8.0337   23.7267 C   0  0  0  0  0  0  0  0  0  0  0  0
    7.1194    8.3344   24.6775 C   0  0  0  0  0  0  0  0  0  0  0  0
    8.4311    4.7963   22.0500 C   0  0  0  0  0  0  0  0  0  0  0  0
    8.7393   10.8706   24.1871 O   0  0  0  0  0  0  0  0  0  0  0  0
    9.3093    3.8166   21.6712 C   0  0  0  0  0  0  0  0  0  0  0  0
  1  5  1  0
  1 15  4  0
  1 22  4  0
  2 20  1  0
  2 24  1  0
  3  6  4  0
  3 27  4  0
  4 22  4  0
  4 26  4  0
  6  7  4  0
  6 13  1  0
  7 19  4  0
  8 18  1  0
  8 23  1  0
  8 28  2  0
  9 17  1  0
  9 24  1  0
 10 11  1  0
 10 24  1  0
 11 23  1  0
 12 14  4  0
 12 16  4  0
 14 19  4  0
 15 18  4  0
 16 20  4  0
 17 25  1  0
 18 26  4  0
 19 29  4  0
 20 29  4  0
 21 23  1  0
 21 25  1  0
 27 29  4  0
M  END
$$$$

 Created by Python create_sdf_string function

 29 32  0  0  0  0  0  0  0  0999 V2000
    5.4450    8.7154   22.6662 C   0  0  0  0  0  0  0  0  0  0  0  0
   10.9154    5.4574   20.5483 C   0  0  0  0  0  0  0  0  0  0  0  0
    7.2709    4.5089   22.7542 C   0  0  0  0  0  0  0  0  0  0  0  0
    5.9698    7.6329   24.6581 C   0  0  0  0  0  0  0  0  0  0  0  0
    4.5542    8.9057   21.7104 O   0  0  0  0  0  0  0  0  0  0  0  0
    6.9895    3.2085   23.0690 C   0  0  0  0  0  0  0  0  0  0  0  0
    7.8391    2.2253   22.7260 N   0  0  0  0  0  0  0  0  0  0  0  0
    8.6968    9.8373   23.6359 C   0  0  0  0  0  0  0  0  0  0  0  0
   12.5135    6.5957   21.8396 C   0  0  0  0  0  0  0  0  0  0  0  0
   10.9406    8.2330   21.1350 C   0  0  0  0  0  0  0  0  0  0  0  0
    9.6648    8.5956   21.7310 C   0  0  0  0  0  0  0  0  0  0  0  0
   10.8829    1.7153   20.9865 C   0  0  0  0  0  0  0  0  0  0  0  0
    5.7768    2.8533   23.7910 C   0  0  0  0  0  0  0  0  0  0  0  0
    9.7977    1.4791   21.6912 N   0  0  0  0  0  0  0  0  0  0  0  0
    6.5976    9.3401   22.6478 N   0  0  0  0  0  0  0  0  0  0  0  0
   11.2031    3.0042   20.6246 C   0  0  0  0  0  0  0  0  0  0  0  0
   12.8688    7.7370   22.7287 C   0  0  0  0  0  0  0  0  0  0  0  0
    7.4487    9.1361   23.6506 C   0  0  0  0  0  0  0  0  0  0  0  0
    8.9772    2.5025   22.0273 C   0  0  0  0  0  0  0  0  0  0  0  0
   10.4859    4.0901   20.9730 C   0  0  0  0  0  0  0  0  0  0  0  0
   11.0962    9.3293   23.5072 C   0  0  0  0  0  0  0  0  0  0  0  0
    5.1273    7.8529   23.6208 N   0  0  0  0  0  0  0  0  0  0  0  0
    9.7552    9.2338   23.0171 N   0  0  0  0  0  0  0  0  0  0  0  0
   11.1797    6.7591   21.3326 N   0  0  0  0  0  0  0  0  0  0  0  0
   11.7728    8.0337   23.7267 C   0  0  0  0  0  0  0  0  0  0  0  0
    7.1194    8.3344   24.6775 C   0  0  0  0  0  0  0  0  0  0  0  0
    8.4311    4.7963   22.0500 C   0  0  0  0  0  0  0  0  0  0  0  0
    8.7393   10.8706   24.1871 O   0  0  0  0  0  0  0  0  0  0  0  0
    9.3093    3.8166   21.6712 C   0  0  0  0  0  0  0  0  0  0  0  0
  1  5  1  0
  1 15  4  0
  1 22  4  0
  2 20  1  0
  2 24  1  0
  3  6  4  0
  3 27  4  0
  4 22  4  0
  4 26  4  0
  6  7  4  0
  6 13  1  0
  7 19  4  0
  8 18  1  0
  8 23  1  0
  8 28  2  0
  9 17  1  0
  9 24  1  0
 10 11  1  0
 10 24  1  0
 11 23  1  0
 12 14  4  0
 12 16  4  0
 14 19  4  0
 15 18  4  0
 16 20  4  0
 17 25  1  0
 18 26  4  0
 19 29  4  0
 20 29  4  0
 21 23  1  0
 21 25  1  0
 27 29  4  0
M  END
$$$$

 Created by Python create_sdf_string function

 29 32  0  0  0  0  0  0  0  0999 V2000
    5.4450    8.7154   22.6662 C   0  0  0  0  0  0  0  0  0  0  0  0
   10.9154    5.4574   20.5483 C   0  0  0  0  0  0  0  0  0  0  0  0
    7.2709    4.5089   22.7542 C   0  0  0  0  0  0  0  0  0  0  0  0
    5.9698    7.6329   24.6581 C   0  0  0  0  0  0  0  0  0  0  0  0
    4.5542    8.9057   21.7104 O   0  0  0  0  0  0  0  0  0  0  0  0
    6.9895    3.2085   23.0690 C   0  0  0  0  0  0  0  0  0  0  0  0
    7.8391    2.2253   22.7260 N   0  0  0  0  0  0  0  0  0  0  0  0
    8.6968    9.8373   23.6359 C   0  0  0  0  0  0  0  0  0  0  0  0
   12.5135    6.5957   21.8396 C   0  0  0  0  0  0  0  0  0  0  0  0
   10.9406    8.2330   21.1350 C   0  0  0  0  0  0  0  0  0  0  0  0
    9.6648    8.5956   21.7310 C   0  0  0  0  0  0  0  0  0  0  0  0
   10.8829    1.7153   20.9865 C   0  0  0  0  0  0  0  0  0  0  0  0
    5.7768    2.8533   23.7910 C   0  0  0  0  0  0  0  0  0  0  0  0
    9.7977    1.4791   21.6912 N   0  0  0  0  0  0  0  0  0  0  0  0
    6.5976    9.3401   22.6478 N   0  0  0  0  0  0  0  0  0  0  0  0
   11.2031    3.0042   20.6246 C   0  0  0  0  0  0  0  0  0  0  0  0
   12.8688    7.7370   22.7287 C   0  0  0  0  0  0  0  0  0  0  0  0
    7.4487    9.1361   23.6506 C   0  0  0  0  0  0  0  0  0  0  0  0
    8.9772    2.5025   22.0273 C   0  0  0  0  0  0  0  0  0  0  0  0
   10.4859    4.0901   20.9730 C   0  0  0  0  0  0  0  0  0  0  0  0
   11.0962    9.3293   23.5072 C   0  0  0  0  0  0  0  0  0  0  0  0
    5.1273    7.8529   23.6208 N   0  0  0  0  0  0  0  0  0  0  0  0
    9.7552    9.2338   23.0171 N   0  0  0  0  0  0  0  0  0  0  0  0
   11.1797    6.7591   21.3326 N   0  0  0  0  0  0  0  0  0  0  0  0
   11.7728    8.0337   23.7267 C   0  0  0  0  0  0  0  0  0  0  0  0
    7.1194    8.3344   24.6775 C   0  0  0  0  0  0  0  0  0  0  0  0
    8.4311    4.7963   22.0500 C   0  0  0  0  0  0  0  0  0  0  0  0
    8.7393   10.8706   24.1871 O   0  0  0  0  0  0  0  0  0  0  0  0
    9.3093    3.8166   21.6712 C   0  0  0  0  0  0  0  0  0  0  0  0
  1  5  1  0
  1 15  4  0
  1 22  4  0
  2 20  1  0
  2 24  1  0
  3  6  4  0
  3 27  4  0
  4 22  4  0
  4 26  4  0
  6  7  4  0
  6 13  1  0
  7 19  4  0
  8 18  1  0
  8 23  1  0
  8 28  2  0
  9 17  1  0
  9 24  1  0
 10 11  1  0
 10 24  1  0
 11 23  1  0
 12 14  4  0
 12 16  4  0
 14 19  4  0
 15 18  4  0
 16 20  4  0
 17 25  1  0
 18 26  4  0
 19 29  4  0
 20 29  4  0
 21 23  1  0
 21 25  1  0
 27 29  4  0
M  END
$$$$

 Created by Python create_sdf_string function

 29 32  0  0  0  0  0  0  0  0999 V2000
    5.4450    8.7154   22.6662 C   0  0  0  0  0  0  0  0  0  0  0  0
   10.9154    5.4574   20.5483 C   0  0  0  0  0  0  0  0  0  0  0  0
    7.2709    4.5089   22.7542 C   0  0  0  0  0  0  0  0  0  0  0  0
    5.9698    7.6329   24.6581 C   0  0  0  0  0  0  0  0  0  0  0  0
    4.5542    8.9057   21.7104 O   0  0  0  0  0  0  0  0  0  0  0  0
    6.9895    3.2085   23.0690 C   0  0  0  0  0  0  0  0  0  0  0  0
    7.8391    2.2253   22.7260 N   0  0  0  0  0  0  0  0  0  0  0  0
    8.6968    9.8373   23.6359 C   0  0  0  0  0  0  0  0  0  0  0  0
   12.5135    6.5957   21.8396 C   0  0  0  0  0  0  0  0  0  0  0  0
   10.9406    8.2330   21.1350 C   0  0  0  0  0  0  0  0  0  0  0  0
    9.6648    8.5956   21.7310 C   0  0  0  0  0  0  0  0  0  0  0  0
   10.8829    1.7153   20.9865 C   0  0  0  0  0  0  0  0  0  0  0  0
    5.7768    2.8533   23.7910 C   0  0  0  0  0  0  0  0  0  0  0  0
    9.7977    1.4791   21.6912 N   0  0  0  0  0  0  0  0  0  0  0  0
    6.5976    9.3401   22.6478 N   0  0  0  0  0  0  0  0  0  0  0  0
   11.2031    3.0042   20.6246 C   0  0  0  0  0  0  0  0  0  0  0  0
   12.8688    7.7370   22.7287 C   0  0  0  0  0  0  0  0  0  0  0  0
    7.4487    9.1361   23.6506 C   0  0  0  0  0  0  0  0  0  0  0  0
    8.9772    2.5025   22.0273 C   0  0  0  0  0  0  0  0  0  0  0  0
   10.4859    4.0901   20.9730 C   0  0  0  0  0  0  0  0  0  0  0  0
   11.0962    9.3293   23.5072 C   0  0  0  0  0  0  0  0  0  0  0  0
    5.1273    7.8529   23.6208 N   0  0  0  0  0  0  0  0  0  0  0  0
    9.7552    9.2338   23.0171 N   0  0  0  0  0  0  0  0  0  0  0  0
   11.1797    6.7591   21.3326 N   0  0  0  0  0  0  0  0  0  0  0  0
   11.7728    8.0337   23.7267 C   0  0  0  0  0  0  0  0  0  0  0  0
    7.1194    8.3344   24.6775 C   0  0  0  0  0  0  0  0  0  0  0  0
    8.4311    4.7963   22.0500 C   0  0  0  0  0  0  0  0  0  0  0  0
    8.7393   10.8706   24.1871 O   0  0  0  0  0  0  0  0  0  0  0  0
    9.3093    3.8166   21.6712 C   0  0  0  0  0  0  0  0  0  0  0  0
  1  5  1  0
  1 15  4  0
  1 22  4  0
  2 20  1  0
  2 24  1  0
  3  6  4  0
  3 27  4  0
  4 22  4  0
  4 26  4  0
  6  7  4  0
  6 13  1  0
  7 19  4  0
  8 18  1  0
  8 23  1  0
  8 28  2  0
  9 17  1  0
  9 24  1  0
 10 11  1  0
 10 24  1  0
 11 23  1  0
 12 14  4  0
 12 16  4  0
 14 19  4  0
 15 18  4  0
 16 20  4  0
 17 25  1  0
 18 26  4  0
 19 29  4  0
 20 29  4  0
 21 23  1  0
 21 25  1  0
 27 29  4  0
M  END
$$$$

 Created by Python create_sdf_string function

 29 32  0  0  0  0  0  0  0  0999 V2000
    5.4450    8.7154   22.6662 C   0  0  0  0  0  0  0  0  0  0  0  0
   10.9154    5.4574   20.5483 C   0  0  0  0  0  0  0  0  0  0  0  0
    7.2709    4.5089   22.7542 C   0  0  0  0  0  0  0  0  0  0  0  0
    5.9698    7.6329   24.6581 C   0  0  0  0  0  0  0  0  0  0  0  0
    4.5542    8.9057   21.7104 O   0  0  0  0  0  0  0  0  0  0  0  0
    6.9895    3.2085   23.0690 C   0  0  0  0  0  0  0  0  0  0  0  0
    7.8391    2.2253   22.7260 N   0  0  0  0  0  0  0  0  0  0  0  0
    8.6968    9.8373   23.6359 C   0  0  0  0  0  0  0  0  0  0  0  0
   12.5135    6.5957   21.8396 C   0  0  0  0  0  0  0  0  0  0  0  0
   10.9406    8.2330   21.1350 C   0  0  0  0  0  0  0  0  0  0  0  0
    9.6648    8.5956   21.7310 C   0  0  0  0  0  0  0  0  0  0  0  0
   10.8829    1.7153   20.9865 C   0  0  0  0  0  0  0  0  0  0  0  0
    5.7768    2.8533   23.7910 C   0  0  0  0  0  0  0  0  0  0  0  0
    9.7977    1.4791   21.6912 N   0  0  0  0  0  0  0  0  0  0  0  0
    6.5976    9.3401   22.6478 N   0  0  0  0  0  0  0  0  0  0  0  0
   11.2031    3.0042   20.6246 C   0  0  0  0  0  0  0  0  0  0  0  0
   12.8688    7.7370   22.7287 C   0  0  0  0  0  0  0  0  0  0  0  0
    7.4487    9.1361   23.6506 C   0  0  0  0  0  0  0  0  0  0  0  0
    8.9772    2.5025   22.0273 C   0  0  0  0  0  0  0  0  0  0  0  0
   10.4859    4.0901   20.9730 C   0  0  0  0  0  0  0  0  0  0  0  0
   11.0962    9.3293   23.5072 C   0  0  0  0  0  0  0  0  0  0  0  0
    5.1273    7.8529   23.6208 N   0  0  0  0  0  0  0  0  0  0  0  0
    9.7552    9.2338   23.0171 N   0  0  0  0  0  0  0  0  0  0  0  0
   11.1797    6.7591   21.3326 N   0  0  0  0  0  0  0  0  0  0  0  0
   11.7728    8.0337   23.7267 C   0  0  0  0  0  0  0  0  0  0  0  0
    7.1194    8.3344   24.6775 C   0  0  0  0  0  0  0  0  0  0  0  0
    8.4311    4.7963   22.0500 C   0  0  0  0  0  0  0  0  0  0  0  0
    8.7393   10.8706   24.1871 O   0  0  0  0  0  0  0  0  0  0  0  0
    9.3093    3.8166   21.6712 C   0  0  0  0  0  0  0  0  0  0  0  0
  1  5  1  0
  1 15  4  0
  1 22  4  0
  2 20  1  0
  2 24  1  0
  3  6  4  0
  3 27  4  0
  4 22  4  0
  4 26  4  0
  6  7  4  0
  6 13  1  0
  7 19  4  0
  8 18  1  0
  8 23  1  0
  8 28  2  0
  9 17  1  0
  9 24  1  0
 10 11  1  0
 10 24  1  0
 11 23  1  0
 12 14  4  0
 12 16  4  0
 14 19  4  0
 15 18  4  0
 16 20  4  0
 17 25  1  0
 18 26  4  0
 19 29  4  0
 20 29  4  0
 21 23  1  0
 21 25  1  0
 27 29  4  0
M  END
$$$$

 Created by Python create_sdf_string function

 29 32  0  0  0  0  0  0  0  0999 V2000
    5.4450    8.7154   22.6662 C   0  0  0  0  0  0  0  0  0  0  0  0
   10.9154    5.4574   20.5483 C   0  0  0  0  0  0  0  0  0  0  0  0
    7.2709    4.5089   22.7542 C   0  0  0  0  0  0  0  0  0  0  0  0
    5.9698    7.6329   24.6581 C   0  0  0  0  0  0  0  0  0  0  0  0
    4.5542    8.9057   21.7104 O   0  0  0  0  0  0  0  0  0  0  0  0
    6.9895    3.2085   23.0690 C   0  0  0  0  0  0  0  0  0  0  0  0
    7.8391    2.2253   22.7260 N   0  0  0  0  0  0  0  0  0  0  0  0
    8.6968    9.8373   23.6359 C   0  0  0  0  0  0  0  0  0  0  0  0
   12.5135    6.5957   21.8396 C   0  0  0  0  0  0  0  0  0  0  0  0
   10.9406    8.2330   21.1350 C   0  0  0  0  0  0  0  0  0  0  0  0
    9.6648    8.5956   21.7310 C   0  0  0  0  0  0  0  0  0  0  0  0
   10.8829    1.7153   20.9865 C   0  0  0  0  0  0  0  0  0  0  0  0
    5.7768    2.8533   23.7910 C   0  0  0  0  0  0  0  0  0  0  0  0
    9.7977    1.4791   21.6912 N   0  0  0  0  0  0  0  0  0  0  0  0
    6.5976    9.3401   22.6478 N   0  0  0  0  0  0  0  0  0  0  0  0
   11.2031    3.0042   20.6246 C   0  0  0  0  0  0  0  0  0  0  0  0
   12.8688    7.7370   22.7287 C   0  0  0  0  0  0  0  0  0  0  0  0
    7.4487    9.1361   23.6506 C   0  0  0  0  0  0  0  0  0  0  0  0
    8.9772    2.5025   22.0273 C   0  0  0  0  0  0  0  0  0  0  0  0
   10.4859    4.0901   20.9730 C   0  0  0  0  0  0  0  0  0  0  0  0
   11.0962    9.3293   23.5072 C   0  0  0  0  0  0  0  0  0  0  0  0
    5.1273    7.8529   23.6208 N   0  0  0  0  0  0  0  0  0  0  0  0
    9.7552    9.2338   23.0171 N   0  0  0  0  0  0  0  0  0  0  0  0
   11.1797    6.7591   21.3326 N   0  0  0  0  0  0  0  0  0  0  0  0
   11.7728    8.0337   23.7267 C   0  0  0  0  0  0  0  0  0  0  0  0
    7.1194    8.3344   24.6775 C   0  0  0  0  0  0  0  0  0  0  0  0
    8.4311    4.7963   22.0500 C   0  0  0  0  0  0  0  0  0  0  0  0
    8.7393   10.8706   24.1871 O   0  0  0  0  0  0  0  0  0  0  0  0
    9.3093    3.8166   21.6712 C   0  0  0  0  0  0  0  0  0  0  0  0
  1  5  1  0
  1 15  4  0
  1 22  4  0
  2 20  1  0
  2 24  1  0
  3  6  4  0
  3 27  4  0
  4 22  4  0
  4 26  4  0
  6  7  4  0
  6 13  1  0
  7 19  4  0
  8 18  1  0
  8 23  1  0
  8 28  2  0
  9 17  1  0
  9 24  1  0
 10 11  1  0
 10 24  1  0
 11 23  1  0
 12 14  4  0
 12 16  4  0
 14 19  4  0
 15 18  4  0
 16 20  4  0
 17 25  1  0
 18 26  4  0
 19 29  4  0
 20 29  4  0
 21 23  1  0
 21 25  1  0
 27 29  4  0
M  END
$$$$

 Created by Python create_sdf_string function

 29 32  0  0  0  0  0  0  0  0999 V2000
    5.4450    8.7154   22.6662 C   0  0  0  0  0  0  0  0  0  0  0  0
   10.9154    5.4574   20.5483 C   0  0  0  0  0  0  0  0  0  0  0  0
    7.2709    4.5089   22.7542 C   0  0  0  0  0  0  0  0  0  0  0  0
    5.9698    7.6329   24.6581 C   0  0  0  0  0  0  0  0  0  0  0  0
    4.5542    8.9057   21.7104 O   0  0  0  0  0  0  0  0  0  0  0  0
    6.9895    3.2085   23.0690 C   0  0  0  0  0  0  0  0  0  0  0  0
    7.8391    2.2253   22.7260 N   0  0  0  0  0  0  0  0  0  0  0  0
    8.6968    9.8373   23.6359 C   0  0  0  0  0  0  0  0  0  0  0  0
   12.5135    6.5957   21.8396 C   0  0  0  0  0  0  0  0  0  0  0  0
   10.9406    8.2330   21.1350 C   0  0  0  0  0  0  0  0  0  0  0  0
    9.6648    8.5956   21.7310 C   0  0  0  0  0  0  0  0  0  0  0  0
   10.8829    1.7153   20.9865 C   0  0  0  0  0  0  0  0  0  0  0  0
    5.7768    2.8533   23.7910 C   0  0  0  0  0  0  0  0  0  0  0  0
    9.7977    1.4791   21.6912 N   0  0  0  0  0  0  0  0  0  0  0  0
    6.5976    9.3401   22.6478 N   0  0  0  0  0  0  0  0  0  0  0  0
   11.2031    3.0042   20.6246 C   0  0  0  0  0  0  0  0  0  0  0  0
   12.8688    7.7370   22.7287 C   0  0  0  0  0  0  0  0  0  0  0  0
    7.4487    9.1361   23.6506 C   0  0  0  0  0  0  0  0  0  0  0  0
    8.9772    2.5025   22.0273 C   0  0  0  0  0  0  0  0  0  0  0  0
   10.4859    4.0901   20.9730 C   0  0  0  0  0  0  0  0  0  0  0  0
   11.0962    9.3293   23.5072 C   0  0  0  0  0  0  0  0  0  0  0  0
    5.1273    7.8529   23.6208 N   0  0  0  0  0  0  0  0  0  0  0  0
    9.7552    9.2338   23.0171 N   0  0  0  0  0  0  0  0  0  0  0  0
   11.1797    6.7591   21.3326 N   0  0  0  0  0  0  0  0  0  0  0  0
   11.7728    8.0337   23.7267 C   0  0  0  0  0  0  0  0  0  0  0  0
    7.1194    8.3344   24.6775 C   0  0  0  0  0  0  0  0  0  0  0  0
    8.4311    4.7963   22.0500 C   0  0  0  0  0  0  0  0  0  0  0  0
    8.7393   10.8706   24.1871 O   0  0  0  0  0  0  0  0  0  0  0  0
    9.3093    3.8166   21.6712 C   0  0  0  0  0  0  0  0  0  0  0  0
  1  5  1  0
  1 15  4  0
  1 22  4  0
  2 20  1  0
  2 24  1  0
  3  6  4  0
  3 27  4  0
  4 22  4  0
  4 26  4  0
  6  7  4  0
  6 13  1  0
  7 19  4  0
  8 18  1  0
  8 23  1  0
  8 28  2  0
  9 17  1  0
  9 24  1  0
 10 11  1  0
 10 24  1  0
 11 23  1  0
 12 14  4  0
 12 16  4  0
 14 19  4  0
 15 18  4  0
 16 20  4  0
 17 25  1  0
 18 26  4  0
 19 29  4  0
 20 29  4  0
 21 23  1  0
 21 25  1  0
 27 29  4  0
M  END
$$$$

 Created by Python create_sdf_string function

 29 32  0  0  0  0  0  0  0  0999 V2000
    5.4450    8.7154   22.6662 C   0  0  0  0  0  0  0  0  0  0  0  0
   10.9154    5.4574   20.5483 C   0  0  0  0  0  0  0  0  0  0  0  0
    7.2709    4.5089   22.7542 C   0  0  0  0  0  0  0  0  0  0  0  0
    5.9698    7.6329   24.6581 C   0  0  0  0  0  0  0  0  0  0  0  0
    4.5542    8.9057   21.7104 O   0  0  0  0  0  0  0  0  0  0  0  0
    6.9895    3.2085   23.0690 C   0  0  0  0  0  0  0  0  0  0  0  0
    7.8391    2.2253   22.7260 N   0  0  0  0  0  0  0  0  0  0  0  0
    8.6968    9.8373   23.6359 C   0  0  0  0  0  0  0  0  0  0  0  0
   12.5135    6.5957   21.8396 C   0  0  0  0  0  0  0  0  0  0  0  0
   10.9406    8.2330   21.1350 C   0  0  0  0  0  0  0  0  0  0  0  0
    9.6648    8.5956   21.7310 C   0  0  0  0  0  0  0  0  0  0  0  0
   10.8829    1.7153   20.9865 C   0  0  0  0  0  0  0  0  0  0  0  0
    5.7768    2.8533   23.7910 C   0  0  0  0  0  0  0  0  0  0  0  0
    9.7977    1.4791   21.6912 N   0  0  0  0  0  0  0  0  0  0  0  0
    6.5976    9.3401   22.6478 N   0  0  0  0  0  0  0  0  0  0  0  0
   11.2031    3.0042   20.6246 C   0  0  0  0  0  0  0  0  0  0  0  0
   12.8688    7.7370   22.7287 C   0  0  0  0  0  0  0  0  0  0  0  0
    7.4487    9.1361   23.6506 C   0  0  0  0  0  0  0  0  0  0  0  0
    8.9772    2.5025   22.0273 C   0  0  0  0  0  0  0  0  0  0  0  0
   10.4859    4.0901   20.9730 C   0  0  0  0  0  0  0  0  0  0  0  0
   11.0962    9.3293   23.5072 C   0  0  0  0  0  0  0  0  0  0  0  0
    5.1273    7.8529   23.6208 N   0  0  0  0  0  0  0  0  0  0  0  0
    9.7552    9.2338   23.0171 N   0  0  0  0  0  0  0  0  0  0  0  0
   11.1797    6.7591   21.3326 N   0  0  0  0  0  0  0  0  0  0  0  0
   11.7728    8.0337   23.7267 C   0  0  0  0  0  0  0  0  0  0  0  0
    7.1194    8.3344   24.6775 C   0  0  0  0  0  0  0  0  0  0  0  0
    8.4311    4.7963   22.0500 C   0  0  0  0  0  0  0  0  0  0  0  0
    8.7393   10.8706   24.1871 O   0  0  0  0  0  0  0  0  0  0  0  0
    9.3093    3.8166   21.6712 C   0  0  0  0  0  0  0  0  0  0  0  0
  1  5  1  0
  1 15  4  0
  1 22  4  0
  2 20  1  0
  2 24  1  0
  3  6  4  0
  3 27  4  0
  4 22  4  0
  4 26  4  0
  6  7  4  0
  6 13  1  0
  7 19  4  0
  8 18  1  0
  8 23  1  0
  8 28  2  0
  9 17  1  0
  9 24  1  0
 10 11  1  0
 10 24  1  0
 11 23  1  0
 12 14  4  0
 12 16  4  0
 14 19  4  0
 15 18  4  0
 16 20  4  0
 17 25  1  0
 18 26  4  0
 19 29  4  0
 20 29  4  0
 21 23  1  0
 21 25  1  0
 27 29  4  0
M  END
$$$$

 Created by Python create_sdf_string function

 29 32  0  0  0  0  0  0  0  0999 V2000
    5.4450    8.7154   22.6662 C   0  0  0  0  0  0  0  0  0  0  0  0
   10.9154    5.4574   20.5483 C   0  0  0  0  0  0  0  0  0  0  0  0
    7.2709    4.5089   22.7542 C   0  0  0  0  0  0  0  0  0  0  0  0
    5.9698    7.6329   24.6581 C   0  0  0  0  0  0  0  0  0  0  0  0
    4.5542    8.9057   21.7104 O   0  0  0  0  0  0  0  0  0  0  0  0
    6.9895    3.2085   23.0690 C   0  0  0  0  0  0  0  0  0  0  0  0
    7.8391    2.2253   22.7260 N   0  0  0  0  0  0  0  0  0  0  0  0
    8.6968    9.8373   23.6359 C   0  0  0  0  0  0  0  0  0  0  0  0
   12.5135    6.5957   21.8396 C   0  0  0  0  0  0  0  0  0  0  0  0
   10.9406    8.2330   21.1350 C   0  0  0  0  0  0  0  0  0  0  0  0
    9.6648    8.5956   21.7310 C   0  0  0  0  0  0  0  0  0  0  0  0
   10.8829    1.7153   20.9865 C   0  0  0  0  0  0  0  0  0  0  0  0
    5.7768    2.8533   23.7910 C   0  0  0  0  0  0  0  0  0  0  0  0
    9.7977    1.4791   21.6912 N   0  0  0  0  0  0  0  0  0  0  0  0
    6.5976    9.3401   22.6478 N   0  0  0  0  0  0  0  0  0  0  0  0
   11.2031    3.0042   20.6246 C   0  0  0  0  0  0  0  0  0  0  0  0
   12.8688    7.7370   22.7287 C   0  0  0  0  0  0  0  0  0  0  0  0
    7.4487    9.1361   23.6506 C   0  0  0  0  0  0  0  0  0  0  0  0
    8.9772    2.5025   22.0273 C   0  0  0  0  0  0  0  0  0  0  0  0
   10.4859    4.0901   20.9730 C   0  0  0  0  0  0  0  0  0  0  0  0
   11.0962    9.3293   23.5072 C   0  0  0  0  0  0  0  0  0  0  0  0
    5.1273    7.8529   23.6208 N   0  0  0  0  0  0  0  0  0  0  0  0
    9.7552    9.2338   23.0171 N   0  0  0  0  0  0  0  0  0  0  0  0
   11.1797    6.7591   21.3326 N   0  0  0  0  0  0  0  0  0  0  0  0
   11.7728    8.0337   23.7267 C   0  0  0  0  0  0  0  0  0  0  0  0
    7.1194    8.3344   24.6775 C   0  0  0  0  0  0  0  0  0  0  0  0
    8.4311    4.7963   22.0500 C   0  0  0  0  0  0  0  0  0  0  0  0
    8.7393   10.8706   24.1871 O   0  0  0  0  0  0  0  0  0  0  0  0
    9.3093    3.8166   21.6712 C   0  0  0  0  0  0  0  0  0  0  0  0
  1  5  1  0
  1 15  4  0
  1 22  4  0
  2 20  1  0
  2 24  1  0
  3  6  4  0
  3 27  4  0
  4 22  4  0
  4 26  4  0
  6  7  4  0
  6 13  1  0
  7 19  4  0
  8 18  1  0
  8 23  1  0
  8 28  2  0
  9 17  1  0
  9 24  1  0
 10 11  1  0
 10 24  1  0
 11 23  1  0
 12 14  4  0
 12 16  4  0
 14 19  4  0
 15 18  4  0
 16 20  4  0
 17 25  1  0
 18 26  4  0
 19 29  4  0
 20 29  4  0
 21 23  1  0
 21 25  1  0
 27 29  4  0
M  END
$$$$

 Created by Python create_sdf_string function

 29 32  0  0  0  0  0  0  0  0999 V2000
    5.4450    8.7154   22.6662 C   0  0  0  0  0  0  0  0  0  0  0  0
   10.9154    5.4574   20.5483 C   0  0  0  0  0  0  0  0  0  0  0  0
    7.2709    4.5089   22.7542 C   0  0  0  0  0  0  0  0  0  0  0  0
    5.9698    7.6329   24.6581 C   0  0  0  0  0  0  0  0  0  0  0  0
    4.5542    8.9057   21.7104 O   0  0  0  0  0  0  0  0  0  0  0  0
    6.9895    3.2085   23.0690 C   0  0  0  0  0  0  0  0  0  0  0  0
    7.8391    2.2253   22.7260 N   0  0  0  0  0  0  0  0  0  0  0  0
    8.6968    9.8373   23.6359 C   0  0  0  0  0  0  0  0  0  0  0  0
   12.5135    6.5957   21.8396 C   0  0  0  0  0  0  0  0  0  0  0  0
   10.9406    8.2330   21.1350 C   0  0  0  0  0  0  0  0  0  0  0  0
    9.6648    8.5956   21.7310 C   0  0  0  0  0  0  0  0  0  0  0  0
   10.8829    1.7153   20.9865 C   0  0  0  0  0  0  0  0  0  0  0  0
    5.7768    2.8533   23.7910 C   0  0  0  0  0  0  0  0  0  0  0  0
    9.7977    1.4791   21.6912 N   0  0  0  0  0  0  0  0  0  0  0  0
    6.5976    9.3401   22.6478 N   0  0  0  0  0  0  0  0  0  0  0  0
   11.2031    3.0042   20.6246 C   0  0  0  0  0  0  0  0  0  0  0  0
   12.8688    7.7370   22.7287 C   0  0  0  0  0  0  0  0  0  0  0  0
    7.4487    9.1361   23.6506 C   0  0  0  0  0  0  0  0  0  0  0  0
    8.9772    2.5025   22.0273 C   0  0  0  0  0  0  0  0  0  0  0  0
   10.4859    4.0901   20.9730 C   0  0  0  0  0  0  0  0  0  0  0  0
   11.0962    9.3293   23.5072 C   0  0  0  0  0  0  0  0  0  0  0  0
    5.1273    7.8529   23.6208 N   0  0  0  0  0  0  0  0  0  0  0  0
    9.7552    9.2338   23.0171 N   0  0  0  0  0  0  0  0  0  0  0  0
   11.1797    6.7591   21.3326 N   0  0  0  0  0  0  0  0  0  0  0  0
   11.7728    8.0337   23.7267 C   0  0  0  0  0  0  0  0  0  0  0  0
    7.1194    8.3344   24.6775 C   0  0  0  0  0  0  0  0  0  0  0  0
    8.4311    4.7963   22.0500 C   0  0  0  0  0  0  0  0  0  0  0  0
    8.7393   10.8706   24.1871 O   0  0  0  0  0  0  0  0  0  0  0  0
    9.3093    3.8166   21.6712 C   0  0  0  0  0  0  0  0  0  0  0  0
  1  5  1  0
  1 15  4  0
  1 22  4  0
  2 20  1  0
  2 24  1  0
  3  6  4  0
  3 27  4  0
  4 22  4  0
  4 26  4  0
  6  7  4  0
  6 13  1  0
  7 19  4  0
  8 18  1  0
  8 23  1  0
  8 28  2  0
  9 17  1  0
  9 24  1  0
 10 11  1  0
 10 24  1  0
 11 23  1  0
 12 14  4  0
 12 16  4  0
 14 19  4  0
 15 18  4  0
 16 20  4  0
 17 25  1  0
 18 26  4  0
 19 29  4  0
 20 29  4  0
 21 23  1  0
 21 25  1  0
 27 29  4  0
M  END
$$$$

 Created by Python create_sdf_string function

 29 32  0  0  0  0  0  0  0  0999 V2000
    5.4450    8.7154   22.6662 C   0  0  0  0  0  0  0  0  0  0  0  0
   10.9154    5.4574   20.5483 C   0  0  0  0  0  0  0  0  0  0  0  0
    7.2709    4.5089   22.7542 C   0  0  0  0  0  0  0  0  0  0  0  0
    5.9698    7.6329   24.6581 C   0  0  0  0  0  0  0  0  0  0  0  0
    4.5542    8.9057   21.7104 O   0  0  0  0  0  0  0  0  0  0  0  0
    6.9895    3.2085   23.0690 C   0  0  0  0  0  0  0  0  0  0  0  0
    7.8391    2.2253   22.7260 N   0  0  0  0  0  0  0  0  0  0  0  0
    8.6968    9.8373   23.6359 C   0  0  0  0  0  0  0  0  0  0  0  0
   12.5135    6.5957   21.8396 C   0  0  0  0  0  0  0  0  0  0  0  0
   10.9406    8.2330   21.1350 C   0  0  0  0  0  0  0  0  0  0  0  0
    9.6648    8.5956   21.7310 C   0  0  0  0  0  0  0  0  0  0  0  0
   10.8829    1.7153   20.9865 C   0  0  0  0  0  0  0  0  0  0  0  0
    5.7768    2.8533   23.7910 C   0  0  0  0  0  0  0  0  0  0  0  0
    9.7977    1.4791   21.6912 N   0  0  0  0  0  0  0  0  0  0  0  0
    6.5976    9.3401   22.6478 N   0  0  0  0  0  0  0  0  0  0  0  0
   11.2031    3.0042   20.6246 C   0  0  0  0  0  0  0  0  0  0  0  0
   12.8688    7.7370   22.7287 C   0  0  0  0  0  0  0  0  0  0  0  0
    7.4487    9.1361   23.6506 C   0  0  0  0  0  0  0  0  0  0  0  0
    8.9772    2.5025   22.0273 C   0  0  0  0  0  0  0  0  0  0  0  0
   10.4859    4.0901   20.9730 C   0  0  0  0  0  0  0  0  0  0  0  0
   11.0962    9.3293   23.5072 C   0  0  0  0  0  0  0  0  0  0  0  0
    5.1273    7.8529   23.6208 N   0  0  0  0  0  0  0  0  0  0  0  0
    9.7552    9.2338   23.0171 N   0  0  0  0  0  0  0  0  0  0  0  0
   11.1797    6.7591   21.3326 N   0  0  0  0  0  0  0  0  0  0  0  0
   11.7728    8.0337   23.7267 C   0  0  0  0  0  0  0  0  0  0  0  0
    7.1194    8.3344   24.6775 C   0  0  0  0  0  0  0  0  0  0  0  0
    8.4311    4.7963   22.0500 C   0  0  0  0  0  0  0  0  0  0  0  0
    8.7393   10.8706   24.1871 O   0  0  0  0  0  0  0  0  0  0  0  0
    9.3093    3.8166   21.6712 C   0  0  0  0  0  0  0  0  0  0  0  0
  1  5  1  0
  1 15  4  0
  1 22  4  0
  2 20  1  0
  2 24  1  0
  3  6  4  0
  3 27  4  0
  4 22  4  0
  4 26  4  0
  6  7  4  0
  6 13  1  0
  7 19  4  0
  8 18  1  0
  8 23  1  0
  8 28  2  0
  9 17  1  0
  9 24  1  0
 10 11  1  0
 10 24  1  0
 11 23  1  0
 12 14  4  0
 12 16  4  0
 14 19  4  0
 15 18  4  0
 16 20  4  0
 17 25  1  0
 18 26  4  0
 19 29  4  0
 20 29  4  0
 21 23  1  0
 21 25  1  0
 27 29  4  0
M  END
$$$$

 Created by Python create_sdf_string function

 29 32  0  0  0  0  0  0  0  0999 V2000
    5.4450    8.7154   22.6662 C   0  0  0  0  0  0  0  0  0  0  0  0
   10.9154    5.4574   20.5483 C   0  0  0  0  0  0  0  0  0  0  0  0
    7.2709    4.5089   22.7542 C   0  0  0  0  0  0  0  0  0  0  0  0
    5.9698    7.6329   24.6581 C   0  0  0  0  0  0  0  0  0  0  0  0
    4.5542    8.9057   21.7104 O   0  0  0  0  0  0  0  0  0  0  0  0
    6.9895    3.2085   23.0690 C   0  0  0  0  0  0  0  0  0  0  0  0
    7.8391    2.2253   22.7260 N   0  0  0  0  0  0  0  0  0  0  0  0
    8.6968    9.8373   23.6359 C   0  0  0  0  0  0  0  0  0  0  0  0
   12.5135    6.5957   21.8396 C   0  0  0  0  0  0  0  0  0  0  0  0
   10.9406    8.2330   21.1350 C   0  0  0  0  0  0  0  0  0  0  0  0
    9.6648    8.5956   21.7310 C   0  0  0  0  0  0  0  0  0  0  0  0
   10.8829    1.7153   20.9865 C   0  0  0  0  0  0  0  0  0  0  0  0
    5.7768    2.8533   23.7910 C   0  0  0  0  0  0  0  0  0  0  0  0
    9.7977    1.4791   21.6912 N   0  0  0  0  0  0  0  0  0  0  0  0
    6.5976    9.3401   22.6478 N   0  0  0  0  0  0  0  0  0  0  0  0
   11.2031    3.0042   20.6246 C   0  0  0  0  0  0  0  0  0  0  0  0
   12.8688    7.7370   22.7287 C   0  0  0  0  0  0  0  0  0  0  0  0
    7.4487    9.1361   23.6506 C   0  0  0  0  0  0  0  0  0  0  0  0
    8.9772    2.5025   22.0273 C   0  0  0  0  0  0  0  0  0  0  0  0
   10.4859    4.0901   20.9730 C   0  0  0  0  0  0  0  0  0  0  0  0
   11.0962    9.3293   23.5072 C   0  0  0  0  0  0  0  0  0  0  0  0
    5.1273    7.8529   23.6208 N   0  0  0  0  0  0  0  0  0  0  0  0
    9.7552    9.2338   23.0171 N   0  0  0  0  0  0  0  0  0  0  0  0
   11.1797    6.7591   21.3326 N   0  0  0  0  0  0  0  0  0  0  0  0
   11.7728    8.0337   23.7267 C   0  0  0  0  0  0  0  0  0  0  0  0
    7.1194    8.3344   24.6775 C   0  0  0  0  0  0  0  0  0  0  0  0
    8.4311    4.7963   22.0500 C   0  0  0  0  0  0  0  0  0  0  0  0
    8.7393   10.8706   24.1871 O   0  0  0  0  0  0  0  0  0  0  0  0
    9.3093    3.8166   21.6712 C   0  0  0  0  0  0  0  0  0  0  0  0
  1  5  1  0
  1 15  4  0
  1 22  4  0
  2 20  1  0
  2 24  1  0
  3  6  4  0
  3 27  4  0
  4 22  4  0
  4 26  4  0
  6  7  4  0
  6 13  1  0
  7 19  4  0
  8 18  1  0
  8 23  1  0
  8 28  2  0
  9 17  1  0
  9 24  1  0
 10 11  1  0
 10 24  1  0
 11 23  1  0
 12 14  4  0
 12 16  4  0
 14 19  4  0
 15 18  4  0
 16 20  4  0
 17 25  1  0
 18 26  4  0
 19 29  4  0
 20 29  4  0
 21 23  1  0
 21 25  1  0
 27 29  4  0
M  END
$$$$

 Created by Python create_sdf_string function

 29 32  0  0  0  0  0  0  0  0999 V2000
    5.4450    8.7154   22.6662 C   0  0  0  0  0  0  0  0  0  0  0  0
   10.9154    5.4574   20.5483 C   0  0  0  0  0  0  0  0  0  0  0  0
    7.2709    4.5089   22.7542 C   0  0  0  0  0  0  0  0  0  0  0  0
    5.9698    7.6329   24.6581 C   0  0  0  0  0  0  0  0  0  0  0  0
    4.5542    8.9057   21.7104 O   0  0  0  0  0  0  0  0  0  0  0  0
    6.9895    3.2085   23.0690 C   0  0  0  0  0  0  0  0  0  0  0  0
    7.8391    2.2253   22.7260 N   0  0  0  0  0  0  0  0  0  0  0  0
    8.6968    9.8373   23.6359 C   0  0  0  0  0  0  0  0  0  0  0  0
   12.5135    6.5957   21.8396 C   0  0  0  0  0  0  0  0  0  0  0  0
   10.9406    8.2330   21.1350 C   0  0  0  0  0  0  0  0  0  0  0  0
    9.6648    8.5956   21.7310 C   0  0  0  0  0  0  0  0  0  0  0  0
   10.8829    1.7153   20.9865 C   0  0  0  0  0  0  0  0  0  0  0  0
    5.7768    2.8533   23.7910 C   0  0  0  0  0  0  0  0  0  0  0  0
    9.7977    1.4791   21.6912 N   0  0  0  0  0  0  0  0  0  0  0  0
    6.5976    9.3401   22.6478 N   0  0  0  0  0  0  0  0  0  0  0  0
   11.2031    3.0042   20.6246 C   0  0  0  0  0  0  0  0  0  0  0  0
   12.8688    7.7370   22.7287 C   0  0  0  0  0  0  0  0  0  0  0  0
    7.4487    9.1361   23.6506 C   0  0  0  0  0  0  0  0  0  0  0  0
    8.9772    2.5025   22.0273 C   0  0  0  0  0  0  0  0  0  0  0  0
   10.4859    4.0901   20.9730 C   0  0  0  0  0  0  0  0  0  0  0  0
   11.0962    9.3293   23.5072 C   0  0  0  0  0  0  0  0  0  0  0  0
    5.1273    7.8529   23.6208 N   0  0  0  0  0  0  0  0  0  0  0  0
    9.7552    9.2338   23.0171 N   0  0  0  0  0  0  0  0  0  0  0  0
   11.1797    6.7591   21.3326 N   0  0  0  0  0  0  0  0  0  0  0  0
   11.7728    8.0337   23.7267 C   0  0  0  0  0  0  0  0  0  0  0  0
    7.1194    8.3344   24.6775 C   0  0  0  0  0  0  0  0  0  0  0  0
    8.4311    4.7963   22.0500 C   0  0  0  0  0  0  0  0  0  0  0  0
    8.7393   10.8706   24.1871 O   0  0  0  0  0  0  0  0  0  0  0  0
    9.3093    3.8166   21.6712 C   0  0  0  0  0  0  0  0  0  0  0  0
  1  5  1  0
  1 15  4  0
  1 22  4  0
  2 20  1  0
  2 24  1  0
  3  6  4  0
  3 27  4  0
  4 22  4  0
  4 26  4  0
  6  7  4  0
  6 13  1  0
  7 19  4  0
  8 18  1  0
  8 23  1  0
  8 28  2  0
  9 17  1  0
  9 24  1  0
 10 11  1  0
 10 24  1  0
 11 23  1  0
 12 14  4  0
 12 16  4  0
 14 19  4  0
 15 18  4  0
 16 20  4  0
 17 25  1  0
 18 26  4  0
 19 29  4  0
 20 29  4  0
 21 23  1  0
 21 25  1  0
 27 29  4  0
M  END
$$$$

 Created by Python create_sdf_string function

 29 32  0  0  0  0  0  0  0  0999 V2000
    5.4450    8.7154   22.6662 C   0  0  0  0  0  0  0  0  0  0  0  0
   10.9154    5.4574   20.5483 C   0  0  0  0  0  0  0  0  0  0  0  0
    7.2709    4.5089   22.7542 C   0  0  0  0  0  0  0  0  0  0  0  0
    5.9698    7.6329   24.6581 C   0  0  0  0  0  0  0  0  0  0  0  0
    4.5542    8.9057   21.7104 O   0  0  0  0  0  0  0  0  0  0  0  0
    6.9895    3.2085   23.0690 C   0  0  0  0  0  0  0  0  0  0  0  0
    7.8391    2.2253   22.7260 N   0  0  0  0  0  0  0  0  0  0  0  0
    8.6968    9.8373   23.6359 C   0  0  0  0  0  0  0  0  0  0  0  0
   12.5135    6.5957   21.8396 C   0  0  0  0  0  0  0  0  0  0  0  0
   10.9406    8.2330   21.1350 C   0  0  0  0  0  0  0  0  0  0  0  0
    9.6648    8.5956   21.7310 C   0  0  0  0  0  0  0  0  0  0  0  0
   10.8829    1.7153   20.9865 C   0  0  0  0  0  0  0  0  0  0  0  0
    5.7768    2.8533   23.7910 C   0  0  0  0  0  0  0  0  0  0  0  0
    9.7977    1.4791   21.6912 N   0  0  0  0  0  0  0  0  0  0  0  0
    6.5976    9.3401   22.6478 N   0  0  0  0  0  0  0  0  0  0  0  0
   11.2031    3.0042   20.6246 C   0  0  0  0  0  0  0  0  0  0  0  0
   12.8688    7.7370   22.7287 C   0  0  0  0  0  0  0  0  0  0  0  0
    7.4487    9.1361   23.6506 C   0  0  0  0  0  0  0  0  0  0  0  0
    8.9772    2.5025   22.0273 C   0  0  0  0  0  0  0  0  0  0  0  0
   10.4859    4.0901   20.9730 C   0  0  0  0  0  0  0  0  0  0  0  0
   11.0962    9.3293   23.5072 C   0  0  0  0  0  0  0  0  0  0  0  0
    5.1273    7.8529   23.6208 N   0  0  0  0  0  0  0  0  0  0  0  0
    9.7552    9.2338   23.0171 N   0  0  0  0  0  0  0  0  0  0  0  0
   11.1797    6.7591   21.3326 N   0  0  0  0  0  0  0  0  0  0  0  0
   11.7728    8.0337   23.7267 C   0  0  0  0  0  0  0  0  0  0  0  0
    7.1194    8.3344   24.6775 C   0  0  0  0  0  0  0  0  0  0  0  0
    8.4311    4.7963   22.0500 C   0  0  0  0  0  0  0  0  0  0  0  0
    8.7393   10.8706   24.1871 O   0  0  0  0  0  0  0  0  0  0  0  0
    9.3093    3.8166   21.6712 C   0  0  0  0  0  0  0  0  0  0  0  0
  1  5  1  0
  1 15  4  0
  1 22  4  0
  2 20  1  0
  2 24  1  0
  3  6  4  0
  3 27  4  0
  4 22  4  0
  4 26  4  0
  6  7  4  0
  6 13  1  0
  7 19  4  0
  8 18  1  0
  8 23  1  0
  8 28  2  0
  9 17  1  0
  9 24  1  0
 10 11  1  0
 10 24  1  0
 11 23  1  0
 12 14  4  0
 12 16  4  0
 14 19  4  0
 15 18  4  0
 16 20  4  0
 17 25  1  0
 18 26  4  0
 19 29  4  0
 20 29  4  0
 21 23  1  0
 21 25  1  0
 27 29  4  0
M  END
$$$$

 Created by Python create_sdf_string function

 29 32  0  0  0  0  0  0  0  0999 V2000
    5.4450    8.7154   22.6662 C   0  0  0  0  0  0  0  0  0  0  0  0
   10.9154    5.4574   20.5483 C   0  0  0  0  0  0  0  0  0  0  0  0
    7.2709    4.5089   22.7542 C   0  0  0  0  0  0  0  0  0  0  0  0
    5.9698    7.6329   24.6581 C   0  0  0  0  0  0  0  0  0  0  0  0
    4.5542    8.9057   21.7104 O   0  0  0  0  0  0  0  0  0  0  0  0
    6.9895    3.2085   23.0690 C   0  0  0  0  0  0  0  0  0  0  0  0
    7.8391    2.2253   22.7260 N   0  0  0  0  0  0  0  0  0  0  0  0
    8.6968    9.8373   23.6359 C   0  0  0  0  0  0  0  0  0  0  0  0
   12.5135    6.5957   21.8396 C   0  0  0  0  0  0  0  0  0  0  0  0
   10.9406    8.2330   21.1350 C   0  0  0  0  0  0  0  0  0  0  0  0
    9.6648    8.5956   21.7310 C   0  0  0  0  0  0  0  0  0  0  0  0
   10.8829    1.7153   20.9865 C   0  0  0  0  0  0  0  0  0  0  0  0
    5.7768    2.8533   23.7910 C   0  0  0  0  0  0  0  0  0  0  0  0
    9.7977    1.4791   21.6912 N   0  0  0  0  0  0  0  0  0  0  0  0
    6.5976    9.3401   22.6478 N   0  0  0  0  0  0  0  0  0  0  0  0
   11.2031    3.0042   20.6246 C   0  0  0  0  0  0  0  0  0  0  0  0
   12.8688    7.7370   22.7287 C   0  0  0  0  0  0  0  0  0  0  0  0
    7.4487    9.1361   23.6506 C   0  0  0  0  0  0  0  0  0  0  0  0
    8.9772    2.5025   22.0273 C   0  0  0  0  0  0  0  0  0  0  0  0
   10.4859    4.0901   20.9730 C   0  0  0  0  0  0  0  0  0  0  0  0
   11.0962    9.3293   23.5072 C   0  0  0  0  0  0  0  0  0  0  0  0
    5.1273    7.8529   23.6208 N   0  0  0  0  0  0  0  0  0  0  0  0
    9.7552    9.2338   23.0171 N   0  0  0  0  0  0  0  0  0  0  0  0
   11.1797    6.7591   21.3326 N   0  0  0  0  0  0  0  0  0  0  0  0
   11.7728    8.0337   23.7267 C   0  0  0  0  0  0  0  0  0  0  0  0
    7.1194    8.3344   24.6775 C   0  0  0  0  0  0  0  0  0  0  0  0
    8.4311    4.7963   22.0500 C   0  0  0  0  0  0  0  0  0  0  0  0
    8.7393   10.8706   24.1871 O   0  0  0  0  0  0  0  0  0  0  0  0
    9.3093    3.8166   21.6712 C   0  0  0  0  0  0  0  0  0  0  0  0
  1  5  1  0
  1 15  4  0
  1 22  4  0
  2 20  1  0
  2 24  1  0
  3  6  4  0
  3 27  4  0
  4 22  4  0
  4 26  4  0
  6  7  4  0
  6 13  1  0
  7 19  4  0
  8 18  1  0
  8 23  1  0
  8 28  2  0
  9 17  1  0
  9 24  1  0
 10 11  1  0
 10 24  1  0
 11 23  1  0
 12 14  4  0
 12 16  4  0
 14 19  4  0
 15 18  4  0
 16 20  4  0
 17 25  1  0
 18 26  4  0
 19 29  4  0
 20 29  4  0
 21 23  1  0
 21 25  1  0
 27 29  4  0
M  END
$$$$

 Created by Python create_sdf_string function

 29 32  0  0  0  0  0  0  0  0999 V2000
    5.4450    8.7154   22.6662 C   0  0  0  0  0  0  0  0  0  0  0  0
   10.9154    5.4574   20.5483 C   0  0  0  0  0  0  0  0  0  0  0  0
    7.2709    4.5089   22.7542 C   0  0  0  0  0  0  0  0  0  0  0  0
    5.9698    7.6329   24.6581 C   0  0  0  0  0  0  0  0  0  0  0  0
    4.5542    8.9057   21.7104 O   0  0  0  0  0  0  0  0  0  0  0  0
    6.9895    3.2085   23.0690 C   0  0  0  0  0  0  0  0  0  0  0  0
    7.8391    2.2253   22.7260 N   0  0  0  0  0  0  0  0  0  0  0  0
    8.6968    9.8373   23.6359 C   0  0  0  0  0  0  0  0  0  0  0  0
   12.5135    6.5957   21.8396 C   0  0  0  0  0  0  0  0  0  0  0  0
   10.9406    8.2330   21.1350 C   0  0  0  0  0  0  0  0  0  0  0  0
    9.6648    8.5956   21.7310 C   0  0  0  0  0  0  0  0  0  0  0  0
   10.8829    1.7153   20.9865 C   0  0  0  0  0  0  0  0  0  0  0  0
    5.7768    2.8533   23.7910 C   0  0  0  0  0  0  0  0  0  0  0  0
    9.7977    1.4791   21.6912 N   0  0  0  0  0  0  0  0  0  0  0  0
    6.5976    9.3401   22.6478 N   0  0  0  0  0  0  0  0  0  0  0  0
   11.2031    3.0042   20.6246 C   0  0  0  0  0  0  0  0  0  0  0  0
   12.8688    7.7370   22.7287 C   0  0  0  0  0  0  0  0  0  0  0  0
    7.4487    9.1361   23.6506 C   0  0  0  0  0  0  0  0  0  0  0  0
    8.9772    2.5025   22.0273 C   0  0  0  0  0  0  0  0  0  0  0  0
   10.4859    4.0901   20.9730 C   0  0  0  0  0  0  0  0  0  0  0  0
   11.0962    9.3293   23.5072 C   0  0  0  0  0  0  0  0  0  0  0  0
    5.1273    7.8529   23.6208 N   0  0  0  0  0  0  0  0  0  0  0  0
    9.7552    9.2338   23.0171 N   0  0  0  0  0  0  0  0  0  0  0  0
   11.1797    6.7591   21.3326 N   0  0  0  0  0  0  0  0  0  0  0  0
   11.7728    8.0337   23.7267 C   0  0  0  0  0  0  0  0  0  0  0  0
    7.1194    8.3344   24.6775 C   0  0  0  0  0  0  0  0  0  0  0  0
    8.4311    4.7963   22.0500 C   0  0  0  0  0  0  0  0  0  0  0  0
    8.7393   10.8706   24.1871 O   0  0  0  0  0  0  0  0  0  0  0  0
    9.3093    3.8166   21.6712 C   0  0  0  0  0  0  0  0  0  0  0  0
  1  5  1  0
  1 15  4  0
  1 22  4  0
  2 20  1  0
  2 24  1  0
  3  6  4  0
  3 27  4  0
  4 22  4  0
  4 26  4  0
  6  7  4  0
  6 13  1  0
  7 19  4  0
  8 18  1  0
  8 23  1  0
  8 28  2  0
  9 17  1  0
  9 24  1  0
 10 11  1  0
 10 24  1  0
 11 23  1  0
 12 14  4  0
 12 16  4  0
 14 19  4  0
 15 18  4  0
 16 20  4  0
 17 25  1  0
 18 26  4  0
 19 29  4  0
 20 29  4  0
 21 23  1  0
 21 25  1  0
 27 29  4  0
M  END
$$$$

 Created by Python create_sdf_string function

 29 32  0  0  0  0  0  0  0  0999 V2000
    5.4450    8.7154   22.6662 C   0  0  0  0  0  0  0  0  0  0  0  0
   10.9154    5.4574   20.5483 C   0  0  0  0  0  0  0  0  0  0  0  0
    7.2709    4.5089   22.7542 C   0  0  0  0  0  0  0  0  0  0  0  0
    5.9698    7.6329   24.6581 C   0  0  0  0  0  0  0  0  0  0  0  0
    4.5542    8.9057   21.7104 O   0  0  0  0  0  0  0  0  0  0  0  0
    6.9895    3.2085   23.0690 C   0  0  0  0  0  0  0  0  0  0  0  0
    7.8391    2.2253   22.7260 N   0  0  0  0  0  0  0  0  0  0  0  0
    8.6968    9.8373   23.6359 C   0  0  0  0  0  0  0  0  0  0  0  0
   12.5135    6.5957   21.8396 C   0  0  0  0  0  0  0  0  0  0  0  0
   10.9406    8.2330   21.1350 C   0  0  0  0  0  0  0  0  0  0  0  0
    9.6648    8.5956   21.7310 C   0  0  0  0  0  0  0  0  0  0  0  0
   10.8829    1.7153   20.9865 C   0  0  0  0  0  0  0  0  0  0  0  0
    5.7768    2.8533   23.7910 C   0  0  0  0  0  0  0  0  0  0  0  0
    9.7977    1.4791   21.6912 N   0  0  0  0  0  0  0  0  0  0  0  0
    6.5976    9.3401   22.6478 N   0  0  0  0  0  0  0  0  0  0  0  0
   11.2031    3.0042   20.6246 C   0  0  0  0  0  0  0  0  0  0  0  0
   12.8688    7.7370   22.7287 C   0  0  0  0  0  0  0  0  0  0  0  0
    7.4487    9.1361   23.6506 C   0  0  0  0  0  0  0  0  0  0  0  0
    8.9772    2.5025   22.0273 C   0  0  0  0  0  0  0  0  0  0  0  0
   10.4859    4.0901   20.9730 C   0  0  0  0  0  0  0  0  0  0  0  0
   11.0962    9.3293   23.5072 C   0  0  0  0  0  0  0  0  0  0  0  0
    5.1273    7.8529   23.6208 N   0  0  0  0  0  0  0  0  0  0  0  0
    9.7552    9.2338   23.0171 N   0  0  0  0  0  0  0  0  0  0  0  0
   11.1797    6.7591   21.3326 N   0  0  0  0  0  0  0  0  0  0  0  0
   11.7728    8.0337   23.7267 C   0  0  0  0  0  0  0  0  0  0  0  0
    7.1194    8.3344   24.6775 C   0  0  0  0  0  0  0  0  0  0  0  0
    8.4311    4.7963   22.0500 C   0  0  0  0  0  0  0  0  0  0  0  0
    8.7393   10.8706   24.1871 O   0  0  0  0  0  0  0  0  0  0  0  0
    9.3093    3.8166   21.6712 C   0  0  0  0  0  0  0  0  0  0  0  0
  1  5  1  0
  1 15  4  0
  1 22  4  0
  2 20  1  0
  2 24  1  0
  3  6  4  0
  3 27  4  0
  4 22  4  0
  4 26  4  0
  6  7  4  0
  6 13  1  0
  7 19  4  0
  8 18  1  0
  8 23  1  0
  8 28  2  0
  9 17  1  0
  9 24  1  0
 10 11  1  0
 10 24  1  0
 11 23  1  0
 12 14  4  0
 12 16  4  0
 14 19  4  0
 15 18  4  0
 16 20  4  0
 17 25  1  0
 18 26  4  0
 19 29  4  0
 20 29  4  0
 21 23  1  0
 21 25  1  0
 27 29  4  0
M  END
$$$$

 Created by Python create_sdf_string function

 29 32  0  0  0  0  0  0  0  0999 V2000
    5.4450    8.7154   22.6662 C   0  0  0  0  0  0  0  0  0  0  0  0
   10.9154    5.4574   20.5483 C   0  0  0  0  0  0  0  0  0  0  0  0
    7.2709    4.5089   22.7542 C   0  0  0  0  0  0  0  0  0  0  0  0
    5.9698    7.6329   24.6581 C   0  0  0  0  0  0  0  0  0  0  0  0
    4.5542    8.9057   21.7104 O   0  0  0  0  0  0  0  0  0  0  0  0
    6.9895    3.2085   23.0690 C   0  0  0  0  0  0  0  0  0  0  0  0
    7.8391    2.2253   22.7260 N   0  0  0  0  0  0  0  0  0  0  0  0
    8.6968    9.8373   23.6359 C   0  0  0  0  0  0  0  0  0  0  0  0
   12.5135    6.5957   21.8396 C   0  0  0  0  0  0  0  0  0  0  0  0
   10.9406    8.2330   21.1350 C   0  0  0  0  0  0  0  0  0  0  0  0
    9.6648    8.5956   21.7310 C   0  0  0  0  0  0  0  0  0  0  0  0
   10.8829    1.7153   20.9865 C   0  0  0  0  0  0  0  0  0  0  0  0
    5.7768    2.8533   23.7910 C   0  0  0  0  0  0  0  0  0  0  0  0
    9.7977    1.4791   21.6912 N   0  0  0  0  0  0  0  0  0  0  0  0
    6.5976    9.3401   22.6478 N   0  0  0  0  0  0  0  0  0  0  0  0
   11.2031    3.0042   20.6246 C   0  0  0  0  0  0  0  0  0  0  0  0
   12.8688    7.7370   22.7287 C   0  0  0  0  0  0  0  0  0  0  0  0
    7.4487    9.1361   23.6506 C   0  0  0  0  0  0  0  0  0  0  0  0
    8.9772    2.5025   22.0273 C   0  0  0  0  0  0  0  0  0  0  0  0
   10.4859    4.0901   20.9730 C   0  0  0  0  0  0  0  0  0  0  0  0
   11.0962    9.3293   23.5072 C   0  0  0  0  0  0  0  0  0  0  0  0
    5.1273    7.8529   23.6208 N   0  0  0  0  0  0  0  0  0  0  0  0
    9.7552    9.2338   23.0171 N   0  0  0  0  0  0  0  0  0  0  0  0
   11.1797    6.7591   21.3326 N   0  0  0  0  0  0  0  0  0  0  0  0
   11.7728    8.0337   23.7267 C   0  0  0  0  0  0  0  0  0  0  0  0
    7.1194    8.3344   24.6775 C   0  0  0  0  0  0  0  0  0  0  0  0
    8.4311    4.7963   22.0500 C   0  0  0  0  0  0  0  0  0  0  0  0
    8.7393   10.8706   24.1871 O   0  0  0  0  0  0  0  0  0  0  0  0
    9.3093    3.8166   21.6712 C   0  0  0  0  0  0  0  0  0  0  0  0
  1  5  1  0
  1 15  4  0
  1 22  4  0
  2 20  1  0
  2 24  1  0
  3  6  4  0
  3 27  4  0
  4 22  4  0
  4 26  4  0
  6  7  4  0
  6 13  1  0
  7 19  4  0
  8 18  1  0
  8 23  1  0
  8 28  2  0
  9 17  1  0
  9 24  1  0
 10 11  1  0
 10 24  1  0
 11 23  1  0
 12 14  4  0
 12 16  4  0
 14 19  4  0
 15 18  4  0
 16 20  4  0
 17 25  1  0
 18 26  4  0
 19 29  4  0
 20 29  4  0
 21 23  1  0
 21 25  1  0
 27 29  4  0
M  END
$$$$

 Created by Python create_sdf_string function

 29 32  0  0  0  0  0  0  0  0999 V2000
    5.4450    8.7154   22.6662 C   0  0  0  0  0  0  0  0  0  0  0  0
   10.9154    5.4574   20.5483 C   0  0  0  0  0  0  0  0  0  0  0  0
    7.2709    4.5089   22.7542 C   0  0  0  0  0  0  0  0  0  0  0  0
    5.9698    7.6329   24.6581 C   0  0  0  0  0  0  0  0  0  0  0  0
    4.5542    8.9057   21.7104 O   0  0  0  0  0  0  0  0  0  0  0  0
    6.9895    3.2085   23.0690 C   0  0  0  0  0  0  0  0  0  0  0  0
    7.8391    2.2253   22.7260 N   0  0  0  0  0  0  0  0  0  0  0  0
    8.6968    9.8373   23.6359 C   0  0  0  0  0  0  0  0  0  0  0  0
   12.5135    6.5957   21.8396 C   0  0  0  0  0  0  0  0  0  0  0  0
   10.9406    8.2330   21.1350 C   0  0  0  0  0  0  0  0  0  0  0  0
    9.6648    8.5956   21.7310 C   0  0  0  0  0  0  0  0  0  0  0  0
   10.8829    1.7153   20.9865 C   0  0  0  0  0  0  0  0  0  0  0  0
    5.7768    2.8533   23.7910 C   0  0  0  0  0  0  0  0  0  0  0  0
    9.7977    1.4791   21.6912 N   0  0  0  0  0  0  0  0  0  0  0  0
    6.5976    9.3401   22.6478 N   0  0  0  0  0  0  0  0  0  0  0  0
   11.2031    3.0042   20.6246 C   0  0  0  0  0  0  0  0  0  0  0  0
   12.8688    7.7370   22.7287 C   0  0  0  0  0  0  0  0  0  0  0  0
    7.4487    9.1361   23.6506 C   0  0  0  0  0  0  0  0  0  0  0  0
    8.9772    2.5025   22.0273 C   0  0  0  0  0  0  0  0  0  0  0  0
   10.4859    4.0901   20.9730 C   0  0  0  0  0  0  0  0  0  0  0  0
   11.0962    9.3293   23.5072 C   0  0  0  0  0  0  0  0  0  0  0  0
    5.1273    7.8529   23.6208 N   0  0  0  0  0  0  0  0  0  0  0  0
    9.7552    9.2338   23.0171 N   0  0  0  0  0  0  0  0  0  0  0  0
   11.1797    6.7591   21.3326 N   0  0  0  0  0  0  0  0  0  0  0  0
   11.7728    8.0337   23.7267 C   0  0  0  0  0  0  0  0  0  0  0  0
    7.1194    8.3344   24.6775 C   0  0  0  0  0  0  0  0  0  0  0  0
    8.4311    4.7963   22.0500 C   0  0  0  0  0  0  0  0  0  0  0  0
    8.7393   10.8706   24.1871 O   0  0  0  0  0  0  0  0  0  0  0  0
    9.3093    3.8166   21.6712 C   0  0  0  0  0  0  0  0  0  0  0  0
  1  5  1  0
  1 15  4  0
  1 22  4  0
  2 20  1  0
  2 24  1  0
  3  6  4  0
  3 27  4  0
  4 22  4  0
  4 26  4  0
  6  7  4  0
  6 13  1  0
  7 19  4  0
  8 18  1  0
  8 23  1  0
  8 28  2  0
  9 17  1  0
  9 24  1  0
 10 11  1  0
 10 24  1  0
 11 23  1  0
 12 14  4  0
 12 16  4  0
 14 19  4  0
 15 18  4  0
 16 20  4  0
 17 25  1  0
 18 26  4  0
 19 29  4  0
 20 29  4  0
 21 23  1  0
 21 25  1  0
 27 29  4  0
M  END
$$$$

 Created by Python create_sdf_string function

 29 32  0  0  0  0  0  0  0  0999 V2000
    5.4450    8.7154   22.6662 C   0  0  0  0  0  0  0  0  0  0  0  0
   10.9154    5.4574   20.5483 C   0  0  0  0  0  0  0  0  0  0  0  0
    7.2709    4.5089   22.7542 C   0  0  0  0  0  0  0  0  0  0  0  0
    5.9698    7.6329   24.6581 C   0  0  0  0  0  0  0  0  0  0  0  0
    4.5542    8.9057   21.7104 O   0  0  0  0  0  0  0  0  0  0  0  0
    6.9895    3.2085   23.0690 C   0  0  0  0  0  0  0  0  0  0  0  0
    7.8391    2.2253   22.7260 N   0  0  0  0  0  0  0  0  0  0  0  0
    8.6968    9.8373   23.6359 C   0  0  0  0  0  0  0  0  0  0  0  0
   12.5135    6.5957   21.8396 C   0  0  0  0  0  0  0  0  0  0  0  0
   10.9406    8.2330   21.1350 C   0  0  0  0  0  0  0  0  0  0  0  0
    9.6648    8.5956   21.7310 C   0  0  0  0  0  0  0  0  0  0  0  0
   10.8829    1.7153   20.9865 C   0  0  0  0  0  0  0  0  0  0  0  0
    5.7768    2.8533   23.7910 C   0  0  0  0  0  0  0  0  0  0  0  0
    9.7977    1.4791   21.6912 N   0  0  0  0  0  0  0  0  0  0  0  0
    6.5976    9.3401   22.6478 N   0  0  0  0  0  0  0  0  0  0  0  0
   11.2031    3.0042   20.6246 C   0  0  0  0  0  0  0  0  0  0  0  0
   12.8688    7.7370   22.7287 C   0  0  0  0  0  0  0  0  0  0  0  0
    7.4487    9.1361   23.6506 C   0  0  0  0  0  0  0  0  0  0  0  0
    8.9772    2.5025   22.0273 C   0  0  0  0  0  0  0  0  0  0  0  0
   10.4859    4.0901   20.9730 C   0  0  0  0  0  0  0  0  0  0  0  0
   11.0962    9.3293   23.5072 C   0  0  0  0  0  0  0  0  0  0  0  0
    5.1273    7.8529   23.6208 N   0  0  0  0  0  0  0  0  0  0  0  0
    9.7552    9.2338   23.0171 N   0  0  0  0  0  0  0  0  0  0  0  0
   11.1797    6.7591   21.3326 N   0  0  0  0  0  0  0  0  0  0  0  0
   11.7728    8.0337   23.7267 C   0  0  0  0  0  0  0  0  0  0  0  0
    7.1194    8.3344   24.6775 C   0  0  0  0  0  0  0  0  0  0  0  0
    8.4311    4.7963   22.0500 C   0  0  0  0  0  0  0  0  0  0  0  0
    8.7393   10.8706   24.1871 O   0  0  0  0  0  0  0  0  0  0  0  0
    9.3093    3.8166   21.6712 C   0  0  0  0  0  0  0  0  0  0  0  0
  1  5  1  0
  1 15  4  0
  1 22  4  0
  2 20  1  0
  2 24  1  0
  3  6  4  0
  3 27  4  0
  4 22  4  0
  4 26  4  0
  6  7  4  0
  6 13  1  0
  7 19  4  0
  8 18  1  0
  8 23  1  0
  8 28  2  0
  9 17  1  0
  9 24  1  0
 10 11  1  0
 10 24  1  0
 11 23  1  0
 12 14  4  0
 12 16  4  0
 14 19  4  0
 15 18  4  0
 16 20  4  0
 17 25  1  0
 18 26  4  0
 19 29  4  0
 20 29  4  0
 21 23  1  0
 21 25  1  0
 27 29  4  0
M  END
$$$$

 Created by Python create_sdf_string function

 29 32  0  0  0  0  0  0  0  0999 V2000
    5.4450    8.7154   22.6662 C   0  0  0  0  0  0  0  0  0  0  0  0
   10.9154    5.4574   20.5483 C   0  0  0  0  0  0  0  0  0  0  0  0
    7.2709    4.5089   22.7542 C   0  0  0  0  0  0  0  0  0  0  0  0
    5.9698    7.6329   24.6581 C   0  0  0  0  0  0  0  0  0  0  0  0
    4.5542    8.9057   21.7104 O   0  0  0  0  0  0  0  0  0  0  0  0
    6.9895    3.2085   23.0690 C   0  0  0  0  0  0  0  0  0  0  0  0
    7.8391    2.2253   22.7260 N   0  0  0  0  0  0  0  0  0  0  0  0
    8.6968    9.8373   23.6359 C   0  0  0  0  0  0  0  0  0  0  0  0
   12.5135    6.5957   21.8396 C   0  0  0  0  0  0  0  0  0  0  0  0
   10.9406    8.2330   21.1350 C   0  0  0  0  0  0  0  0  0  0  0  0
    9.6648    8.5956   21.7310 C   0  0  0  0  0  0  0  0  0  0  0  0
   10.8829    1.7153   20.9865 C   0  0  0  0  0  0  0  0  0  0  0  0
    5.7768    2.8533   23.7910 C   0  0  0  0  0  0  0  0  0  0  0  0
    9.7977    1.4791   21.6912 N   0  0  0  0  0  0  0  0  0  0  0  0
    6.5976    9.3401   22.6478 N   0  0  0  0  0  0  0  0  0  0  0  0
   11.2031    3.0042   20.6246 C   0  0  0  0  0  0  0  0  0  0  0  0
   12.8688    7.7370   22.7287 C   0  0  0  0  0  0  0  0  0  0  0  0
    7.4487    9.1361   23.6506 C   0  0  0  0  0  0  0  0  0  0  0  0
    8.9772    2.5025   22.0273 C   0  0  0  0  0  0  0  0  0  0  0  0
   10.4859    4.0901   20.9730 C   0  0  0  0  0  0  0  0  0  0  0  0
   11.0962    9.3293   23.5072 C   0  0  0  0  0  0  0  0  0  0  0  0
    5.1273    7.8529   23.6208 N   0  0  0  0  0  0  0  0  0  0  0  0
    9.7552    9.2338   23.0171 N   0  0  0  0  0  0  0  0  0  0  0  0
   11.1797    6.7591   21.3326 N   0  0  0  0  0  0  0  0  0  0  0  0
   11.7728    8.0337   23.7267 C   0  0  0  0  0  0  0  0  0  0  0  0
    7.1194    8.3344   24.6775 C   0  0  0  0  0  0  0  0  0  0  0  0
    8.4311    4.7963   22.0500 C   0  0  0  0  0  0  0  0  0  0  0  0
    8.7393   10.8706   24.1871 O   0  0  0  0  0  0  0  0  0  0  0  0
    9.3093    3.8166   21.6712 C   0  0  0  0  0  0  0  0  0  0  0  0
  1  5  1  0
  1 15  4  0
  1 22  4  0
  2 20  1  0
  2 24  1  0
  3  6  4  0
  3 27  4  0
  4 22  4  0
  4 26  4  0
  6  7  4  0
  6 13  1  0
  7 19  4  0
  8 18  1  0
  8 23  1  0
  8 28  2  0
  9 17  1  0
  9 24  1  0
 10 11  1  0
 10 24  1  0
 11 23  1  0
 12 14  4  0
 12 16  4  0
 14 19  4  0
 15 18  4  0
 16 20  4  0
 17 25  1  0
 18 26  4  0
 19 29  4  0
 20 29  4  0
 21 23  1  0
 21 25  1  0
 27 29  4  0
M  END
$$$$

 Created by Python create_sdf_string function

 29 32  0  0  0  0  0  0  0  0999 V2000
    5.4450    8.7154   22.6662 C   0  0  0  0  0  0  0  0  0  0  0  0
   10.9154    5.4574   20.5483 C   0  0  0  0  0  0  0  0  0  0  0  0
    7.2709    4.5089   22.7542 C   0  0  0  0  0  0  0  0  0  0  0  0
    5.9698    7.6329   24.6581 C   0  0  0  0  0  0  0  0  0  0  0  0
    4.5542    8.9057   21.7104 O   0  0  0  0  0  0  0  0  0  0  0  0
    6.9895    3.2085   23.0690 C   0  0  0  0  0  0  0  0  0  0  0  0
    7.8391    2.2253   22.7260 N   0  0  0  0  0  0  0  0  0  0  0  0
    8.6968    9.8373   23.6359 C   0  0  0  0  0  0  0  0  0  0  0  0
   12.5135    6.5957   21.8396 C   0  0  0  0  0  0  0  0  0  0  0  0
   10.9406    8.2330   21.1350 C   0  0  0  0  0  0  0  0  0  0  0  0
    9.6648    8.5956   21.7310 C   0  0  0  0  0  0  0  0  0  0  0  0
   10.8829    1.7153   20.9865 C   0  0  0  0  0  0  0  0  0  0  0  0
    5.7768    2.8533   23.7910 C   0  0  0  0  0  0  0  0  0  0  0  0
    9.7977    1.4791   21.6912 N   0  0  0  0  0  0  0  0  0  0  0  0
    6.5976    9.3401   22.6478 N   0  0  0  0  0  0  0  0  0  0  0  0
   11.2031    3.0042   20.6246 C   0  0  0  0  0  0  0  0  0  0  0  0
   12.8688    7.7370   22.7287 C   0  0  0  0  0  0  0  0  0  0  0  0
    7.4487    9.1361   23.6506 C   0  0  0  0  0  0  0  0  0  0  0  0
    8.9772    2.5025   22.0273 C   0  0  0  0  0  0  0  0  0  0  0  0
   10.4859    4.0901   20.9730 C   0  0  0  0  0  0  0  0  0  0  0  0
   11.0962    9.3293   23.5072 C   0  0  0  0  0  0  0  0  0  0  0  0
    5.1273    7.8529   23.6208 N   0  0  0  0  0  0  0  0  0  0  0  0
    9.7552    9.2338   23.0171 N   0  0  0  0  0  0  0  0  0  0  0  0
   11.1797    6.7591   21.3326 N   0  0  0  0  0  0  0  0  0  0  0  0
   11.7728    8.0337   23.7267 C   0  0  0  0  0  0  0  0  0  0  0  0
    7.1194    8.3344   24.6775 C   0  0  0  0  0  0  0  0  0  0  0  0
    8.4311    4.7963   22.0500 C   0  0  0  0  0  0  0  0  0  0  0  0
    8.7393   10.8706   24.1871 O   0  0  0  0  0  0  0  0  0  0  0  0
    9.3093    3.8166   21.6712 C   0  0  0  0  0  0  0  0  0  0  0  0
  1  5  1  0
  1 15  4  0
  1 22  4  0
  2 20  1  0
  2 24  1  0
  3  6  4  0
  3 27  4  0
  4 22  4  0
  4 26  4  0
  6  7  4  0
  6 13  1  0
  7 19  4  0
  8 18  1  0
  8 23  1  0
  8 28  2  0
  9 17  1  0
  9 24  1  0
 10 11  1  0
 10 24  1  0
 11 23  1  0
 12 14  4  0
 12 16  4  0
 14 19  4  0
 15 18  4  0
 16 20  4  0
 17 25  1  0
 18 26  4  0
 19 29  4  0
 20 29  4  0
 21 23  1  0
 21 25  1  0
 27 29  4  0
M  END
$$$$

 Created by Python create_sdf_string function

 29 32  0  0  0  0  0  0  0  0999 V2000
    5.4450    8.7154   22.6662 C   0  0  0  0  0  0  0  0  0  0  0  0
   10.9154    5.4574   20.5483 C   0  0  0  0  0  0  0  0  0  0  0  0
    7.2709    4.5089   22.7542 C   0  0  0  0  0  0  0  0  0  0  0  0
    5.9698    7.6329   24.6581 C   0  0  0  0  0  0  0  0  0  0  0  0
    4.5542    8.9057   21.7104 O   0  0  0  0  0  0  0  0  0  0  0  0
    6.9895    3.2085   23.0690 C   0  0  0  0  0  0  0  0  0  0  0  0
    7.8391    2.2253   22.7260 N   0  0  0  0  0  0  0  0  0  0  0  0
    8.6968    9.8373   23.6359 C   0  0  0  0  0  0  0  0  0  0  0  0
   12.5135    6.5957   21.8396 C   0  0  0  0  0  0  0  0  0  0  0  0
   10.9406    8.2330   21.1350 C   0  0  0  0  0  0  0  0  0  0  0  0
    9.6648    8.5956   21.7310 C   0  0  0  0  0  0  0  0  0  0  0  0
   10.8829    1.7153   20.9865 C   0  0  0  0  0  0  0  0  0  0  0  0
    5.7768    2.8533   23.7910 C   0  0  0  0  0  0  0  0  0  0  0  0
    9.7977    1.4791   21.6912 N   0  0  0  0  0  0  0  0  0  0  0  0
    6.5976    9.3401   22.6478 N   0  0  0  0  0  0  0  0  0  0  0  0
   11.2031    3.0042   20.6246 C   0  0  0  0  0  0  0  0  0  0  0  0
   12.8688    7.7370   22.7287 C   0  0  0  0  0  0  0  0  0  0  0  0
    7.4487    9.1361   23.6506 C   0  0  0  0  0  0  0  0  0  0  0  0
    8.9772    2.5025   22.0273 C   0  0  0  0  0  0  0  0  0  0  0  0
   10.4859    4.0901   20.9730 C   0  0  0  0  0  0  0  0  0  0  0  0
   11.0962    9.3293   23.5072 C   0  0  0  0  0  0  0  0  0  0  0  0
    5.1273    7.8529   23.6208 N   0  0  0  0  0  0  0  0  0  0  0  0
    9.7552    9.2338   23.0171 N   0  0  0  0  0  0  0  0  0  0  0  0
   11.1797    6.7591   21.3326 N   0  0  0  0  0  0  0  0  0  0  0  0
   11.7728    8.0337   23.7267 C   0  0  0  0  0  0  0  0  0  0  0  0
    7.1194    8.3344   24.6775 C   0  0  0  0  0  0  0  0  0  0  0  0
    8.4311    4.7963   22.0500 C   0  0  0  0  0  0  0  0  0  0  0  0
    8.7393   10.8706   24.1871 O   0  0  0  0  0  0  0  0  0  0  0  0
    9.3093    3.8166   21.6712 C   0  0  0  0  0  0  0  0  0  0  0  0
  1  5  1  0
  1 15  4  0
  1 22  4  0
  2 20  1  0
  2 24  1  0
  3  6  4  0
  3 27  4  0
  4 22  4  0
  4 26  4  0
  6  7  4  0
  6 13  1  0
  7 19  4  0
  8 18  1  0
  8 23  1  0
  8 28  2  0
  9 17  1  0
  9 24  1  0
 10 11  1  0
 10 24  1  0
 11 23  1  0
 12 14  4  0
 12 16  4  0
 14 19  4  0
 15 18  4  0
 16 20  4  0
 17 25  1  0
 18 26  4  0
 19 29  4  0
 20 29  4  0
 21 23  1  0
 21 25  1  0
 27 29  4  0
M  END
$$$$

 Created by Python create_sdf_string function

 29 32  0  0  0  0  0  0  0  0999 V2000
    5.4450    8.7154   22.6662 C   0  0  0  0  0  0  0  0  0  0  0  0
   10.9154    5.4574   20.5483 C   0  0  0  0  0  0  0  0  0  0  0  0
    7.2709    4.5089   22.7542 C   0  0  0  0  0  0  0  0  0  0  0  0
    5.9698    7.6329   24.6581 C   0  0  0  0  0  0  0  0  0  0  0  0
    4.5542    8.9057   21.7104 O   0  0  0  0  0  0  0  0  0  0  0  0
    6.9895    3.2085   23.0690 C   0  0  0  0  0  0  0  0  0  0  0  0
    7.8391    2.2253   22.7260 N   0  0  0  0  0  0  0  0  0  0  0  0
    8.6968    9.8373   23.6359 C   0  0  0  0  0  0  0  0  0  0  0  0
   12.5135    6.5957   21.8396 C   0  0  0  0  0  0  0  0  0  0  0  0
   10.9406    8.2330   21.1350 C   0  0  0  0  0  0  0  0  0  0  0  0
    9.6648    8.5956   21.7310 C   0  0  0  0  0  0  0  0  0  0  0  0
   10.8829    1.7153   20.9865 C   0  0  0  0  0  0  0  0  0  0  0  0
    5.7768    2.8533   23.7910 C   0  0  0  0  0  0  0  0  0  0  0  0
    9.7977    1.4791   21.6912 N   0  0  0  0  0  0  0  0  0  0  0  0
    6.5976    9.3401   22.6478 N   0  0  0  0  0  0  0  0  0  0  0  0
   11.2031    3.0042   20.6246 C   0  0  0  0  0  0  0  0  0  0  0  0
   12.8688    7.7370   22.7287 C   0  0  0  0  0  0  0  0  0  0  0  0
    7.4487    9.1361   23.6506 C   0  0  0  0  0  0  0  0  0  0  0  0
    8.9772    2.5025   22.0273 C   0  0  0  0  0  0  0  0  0  0  0  0
   10.4859    4.0901   20.9730 C   0  0  0  0  0  0  0  0  0  0  0  0
   11.0962    9.3293   23.5072 C   0  0  0  0  0  0  0  0  0  0  0  0
    5.1273    7.8529   23.6208 N   0  0  0  0  0  0  0  0  0  0  0  0
    9.7552    9.2338   23.0171 N   0  0  0  0  0  0  0  0  0  0  0  0
   11.1797    6.7591   21.3326 N   0  0  0  0  0  0  0  0  0  0  0  0
   11.7728    8.0337   23.7267 C   0  0  0  0  0  0  0  0  0  0  0  0
    7.1194    8.3344   24.6775 C   0  0  0  0  0  0  0  0  0  0  0  0
    8.4311    4.7963   22.0500 C   0  0  0  0  0  0  0  0  0  0  0  0
    8.7393   10.8706   24.1871 O   0  0  0  0  0  0  0  0  0  0  0  0
    9.3093    3.8166   21.6712 C   0  0  0  0  0  0  0  0  0  0  0  0
  1  5  1  0
  1 15  4  0
  1 22  4  0
  2 20  1  0
  2 24  1  0
  3  6  4  0
  3 27  4  0
  4 22  4  0
  4 26  4  0
  6  7  4  0
  6 13  1  0
  7 19  4  0
  8 18  1  0
  8 23  1  0
  8 28  2  0
  9 17  1  0
  9 24  1  0
 10 11  1  0
 10 24  1  0
 11 23  1  0
 12 14  4  0
 12 16  4  0
 14 19  4  0
 15 18  4  0
 16 20  4  0
 17 25  1  0
 18 26  4  0
 19 29  4  0
 20 29  4  0
 21 23  1  0
 21 25  1  0
 27 29  4  0
M  END
$$$$

 Created by Python create_sdf_string function

 29 32  0  0  0  0  0  0  0  0999 V2000
    5.4450    8.7154   22.6662 C   0  0  0  0  0  0  0  0  0  0  0  0
   10.9154    5.4574   20.5483 C   0  0  0  0  0  0  0  0  0  0  0  0
    7.2709    4.5089   22.7542 C   0  0  0  0  0  0  0  0  0  0  0  0
    5.9698    7.6329   24.6581 C   0  0  0  0  0  0  0  0  0  0  0  0
    4.5542    8.9057   21.7104 O   0  0  0  0  0  0  0  0  0  0  0  0
    6.9895    3.2085   23.0690 C   0  0  0  0  0  0  0  0  0  0  0  0
    7.8391    2.2253   22.7260 N   0  0  0  0  0  0  0  0  0  0  0  0
    8.6968    9.8373   23.6359 C   0  0  0  0  0  0  0  0  0  0  0  0
   12.5135    6.5957   21.8396 C   0  0  0  0  0  0  0  0  0  0  0  0
   10.9406    8.2330   21.1350 C   0  0  0  0  0  0  0  0  0  0  0  0
    9.6648    8.5956   21.7310 C   0  0  0  0  0  0  0  0  0  0  0  0
   10.8829    1.7153   20.9865 C   0  0  0  0  0  0  0  0  0  0  0  0
    5.7768    2.8533   23.7910 C   0  0  0  0  0  0  0  0  0  0  0  0
    9.7977    1.4791   21.6912 N   0  0  0  0  0  0  0  0  0  0  0  0
    6.5976    9.3401   22.6478 N   0  0  0  0  0  0  0  0  0  0  0  0
   11.2031    3.0042   20.6246 C   0  0  0  0  0  0  0  0  0  0  0  0
   12.8688    7.7370   22.7287 C   0  0  0  0  0  0  0  0  0  0  0  0
    7.4487    9.1361   23.6506 C   0  0  0  0  0  0  0  0  0  0  0  0
    8.9772    2.5025   22.0273 C   0  0  0  0  0  0  0  0  0  0  0  0
   10.4859    4.0901   20.9730 C   0  0  0  0  0  0  0  0  0  0  0  0
   11.0962    9.3293   23.5072 C   0  0  0  0  0  0  0  0  0  0  0  0
    5.1273    7.8529   23.6208 N   0  0  0  0  0  0  0  0  0  0  0  0
    9.7552    9.2338   23.0171 N   0  0  0  0  0  0  0  0  0  0  0  0
   11.1797    6.7591   21.3326 N   0  0  0  0  0  0  0  0  0  0  0  0
   11.7728    8.0337   23.7267 C   0  0  0  0  0  0  0  0  0  0  0  0
    7.1194    8.3344   24.6775 C   0  0  0  0  0  0  0  0  0  0  0  0
    8.4311    4.7963   22.0500 C   0  0  0  0  0  0  0  0  0  0  0  0
    8.7393   10.8706   24.1871 O   0  0  0  0  0  0  0  0  0  0  0  0
    9.3093    3.8166   21.6712 C   0  0  0  0  0  0  0  0  0  0  0  0
  1  5  1  0
  1 15  4  0
  1 22  4  0
  2 20  1  0
  2 24  1  0
  3  6  4  0
  3 27  4  0
  4 22  4  0
  4 26  4  0
  6  7  4  0
  6 13  1  0
  7 19  4  0
  8 18  1  0
  8 23  1  0
  8 28  2  0
  9 17  1  0
  9 24  1  0
 10 11  1  0
 10 24  1  0
 11 23  1  0
 12 14  4  0
 12 16  4  0
 14 19  4  0
 15 18  4  0
 16 20  4  0
 17 25  1  0
 18 26  4  0
 19 29  4  0
 20 29  4  0
 21 23  1  0
 21 25  1  0
 27 29  4  0
M  END
$$$$

 Created by Python create_sdf_string function

 29 32  0  0  0  0  0  0  0  0999 V2000
    5.4450    8.7154   22.6662 C   0  0  0  0  0  0  0  0  0  0  0  0
   10.9154    5.4574   20.5483 C   0  0  0  0  0  0  0  0  0  0  0  0
    7.2709    4.5089   22.7542 C   0  0  0  0  0  0  0  0  0  0  0  0
    5.9698    7.6329   24.6581 C   0  0  0  0  0  0  0  0  0  0  0  0
    4.5542    8.9057   21.7104 O   0  0  0  0  0  0  0  0  0  0  0  0
    6.9895    3.2085   23.0690 C   0  0  0  0  0  0  0  0  0  0  0  0
    7.8391    2.2253   22.7260 N   0  0  0  0  0  0  0  0  0  0  0  0
    8.6968    9.8373   23.6359 C   0  0  0  0  0  0  0  0  0  0  0  0
   12.5135    6.5957   21.8396 C   0  0  0  0  0  0  0  0  0  0  0  0
   10.9406    8.2330   21.1350 C   0  0  0  0  0  0  0  0  0  0  0  0
    9.6648    8.5956   21.7310 C   0  0  0  0  0  0  0  0  0  0  0  0
   10.8829    1.7153   20.9865 C   0  0  0  0  0  0  0  0  0  0  0  0
    5.7768    2.8533   23.7910 C   0  0  0  0  0  0  0  0  0  0  0  0
    9.7977    1.4791   21.6912 N   0  0  0  0  0  0  0  0  0  0  0  0
    6.5976    9.3401   22.6478 N   0  0  0  0  0  0  0  0  0  0  0  0
   11.2031    3.0042   20.6246 C   0  0  0  0  0  0  0  0  0  0  0  0
   12.8688    7.7370   22.7287 C   0  0  0  0  0  0  0  0  0  0  0  0
    7.4487    9.1361   23.6506 C   0  0  0  0  0  0  0  0  0  0  0  0
    8.9772    2.5025   22.0273 C   0  0  0  0  0  0  0  0  0  0  0  0
   10.4859    4.0901   20.9730 C   0  0  0  0  0  0  0  0  0  0  0  0
   11.0962    9.3293   23.5072 C   0  0  0  0  0  0  0  0  0  0  0  0
    5.1273    7.8529   23.6208 N   0  0  0  0  0  0  0  0  0  0  0  0
    9.7552    9.2338   23.0171 N   0  0  0  0  0  0  0  0  0  0  0  0
   11.1797    6.7591   21.3326 N   0  0  0  0  0  0  0  0  0  0  0  0
   11.7728    8.0337   23.7267 C   0  0  0  0  0  0  0  0  0  0  0  0
    7.1194    8.3344   24.6775 C   0  0  0  0  0  0  0  0  0  0  0  0
    8.4311    4.7963   22.0500 C   0  0  0  0  0  0  0  0  0  0  0  0
    8.7393   10.8706   24.1871 O   0  0  0  0  0  0  0  0  0  0  0  0
    9.3093    3.8166   21.6712 C   0  0  0  0  0  0  0  0  0  0  0  0
  1  5  1  0
  1 15  4  0
  1 22  4  0
  2 20  1  0
  2 24  1  0
  3  6  4  0
  3 27  4  0
  4 22  4  0
  4 26  4  0
  6  7  4  0
  6 13  1  0
  7 19  4  0
  8 18  1  0
  8 23  1  0
  8 28  2  0
  9 17  1  0
  9 24  1  0
 10 11  1  0
 10 24  1  0
 11 23  1  0
 12 14  4  0
 12 16  4  0
 14 19  4  0
 15 18  4  0
 16 20  4  0
 17 25  1  0
 18 26  4  0
 19 29  4  0
 20 29  4  0
 21 23  1  0
 21 25  1  0
 27 29  4  0
M  END
$$$$

 Created by Python create_sdf_string function

 29 32  0  0  0  0  0  0  0  0999 V2000
    5.4450    8.7154   22.6662 C   0  0  0  0  0  0  0  0  0  0  0  0
   10.9154    5.4574   20.5483 C   0  0  0  0  0  0  0  0  0  0  0  0
    7.2709    4.5089   22.7542 C   0  0  0  0  0  0  0  0  0  0  0  0
    5.9698    7.6329   24.6581 C   0  0  0  0  0  0  0  0  0  0  0  0
    4.5542    8.9057   21.7104 O   0  0  0  0  0  0  0  0  0  0  0  0
    6.9895    3.2085   23.0690 C   0  0  0  0  0  0  0  0  0  0  0  0
    7.8391    2.2253   22.7260 N   0  0  0  0  0  0  0  0  0  0  0  0
    8.6968    9.8373   23.6359 C   0  0  0  0  0  0  0  0  0  0  0  0
   12.5135    6.5957   21.8396 C   0  0  0  0  0  0  0  0  0  0  0  0
   10.9406    8.2330   21.1350 C   0  0  0  0  0  0  0  0  0  0  0  0
    9.6648    8.5956   21.7310 C   0  0  0  0  0  0  0  0  0  0  0  0
   10.8829    1.7153   20.9865 C   0  0  0  0  0  0  0  0  0  0  0  0
    5.7768    2.8533   23.7910 C   0  0  0  0  0  0  0  0  0  0  0  0
    9.7977    1.4791   21.6912 N   0  0  0  0  0  0  0  0  0  0  0  0
    6.5976    9.3401   22.6478 N   0  0  0  0  0  0  0  0  0  0  0  0
   11.2031    3.0042   20.6246 C   0  0  0  0  0  0  0  0  0  0  0  0
   12.8688    7.7370   22.7287 C   0  0  0  0  0  0  0  0  0  0  0  0
    7.4487    9.1361   23.6506 C   0  0  0  0  0  0  0  0  0  0  0  0
    8.9772    2.5025   22.0273 C   0  0  0  0  0  0  0  0  0  0  0  0
   10.4859    4.0901   20.9730 C   0  0  0  0  0  0  0  0  0  0  0  0
   11.0962    9.3293   23.5072 C   0  0  0  0  0  0  0  0  0  0  0  0
    5.1273    7.8529   23.6208 N   0  0  0  0  0  0  0  0  0  0  0  0
    9.7552    9.2338   23.0171 N   0  0  0  0  0  0  0  0  0  0  0  0
   11.1797    6.7591   21.3326 N   0  0  0  0  0  0  0  0  0  0  0  0
   11.7728    8.0337   23.7267 C   0  0  0  0  0  0  0  0  0  0  0  0
    7.1194    8.3344   24.6775 C   0  0  0  0  0  0  0  0  0  0  0  0
    8.4311    4.7963   22.0500 C   0  0  0  0  0  0  0  0  0  0  0  0
    8.7393   10.8706   24.1871 O   0  0  0  0  0  0  0  0  0  0  0  0
    9.3093    3.8166   21.6712 C   0  0  0  0  0  0  0  0  0  0  0  0
  1  5  1  0
  1 15  4  0
  1 22  4  0
  2 20  1  0
  2 24  1  0
  3  6  4  0
  3 27  4  0
  4 22  4  0
  4 26  4  0
  6  7  4  0
  6 13  1  0
  7 19  4  0
  8 18  1  0
  8 23  1  0
  8 28  2  0
  9 17  1  0
  9 24  1  0
 10 11  1  0
 10 24  1  0
 11 23  1  0
 12 14  4  0
 12 16  4  0
 14 19  4  0
 15 18  4  0
 16 20  4  0
 17 25  1  0
 18 26  4  0
 19 29  4  0
 20 29  4  0
 21 23  1  0
 21 25  1  0
 27 29  4  0
M  END
$$$$

 Created by Python create_sdf_string function

 29 32  0  0  0  0  0  0  0  0999 V2000
    5.4450    8.7154   22.6662 C   0  0  0  0  0  0  0  0  0  0  0  0
   10.9154    5.4574   20.5483 C   0  0  0  0  0  0  0  0  0  0  0  0
    7.2709    4.5089   22.7542 C   0  0  0  0  0  0  0  0  0  0  0  0
    5.9698    7.6329   24.6581 C   0  0  0  0  0  0  0  0  0  0  0  0
    4.5542    8.9057   21.7104 O   0  0  0  0  0  0  0  0  0  0  0  0
    6.9895    3.2085   23.0690 C   0  0  0  0  0  0  0  0  0  0  0  0
    7.8391    2.2253   22.7260 N   0  0  0  0  0  0  0  0  0  0  0  0
    8.6968    9.8373   23.6359 C   0  0  0  0  0  0  0  0  0  0  0  0
   12.5135    6.5957   21.8396 C   0  0  0  0  0  0  0  0  0  0  0  0
   10.9406    8.2330   21.1350 C   0  0  0  0  0  0  0  0  0  0  0  0
    9.6648    8.5956   21.7310 C   0  0  0  0  0  0  0  0  0  0  0  0
   10.8829    1.7153   20.9865 C   0  0  0  0  0  0  0  0  0  0  0  0
    5.7768    2.8533   23.7910 C   0  0  0  0  0  0  0  0  0  0  0  0
    9.7977    1.4791   21.6912 N   0  0  0  0  0  0  0  0  0  0  0  0
    6.5976    9.3401   22.6478 N   0  0  0  0  0  0  0  0  0  0  0  0
   11.2031    3.0042   20.6246 C   0  0  0  0  0  0  0  0  0  0  0  0
   12.8688    7.7370   22.7287 C   0  0  0  0  0  0  0  0  0  0  0  0
    7.4487    9.1361   23.6506 C   0  0  0  0  0  0  0  0  0  0  0  0
    8.9772    2.5025   22.0273 C   0  0  0  0  0  0  0  0  0  0  0  0
   10.4859    4.0901   20.9730 C   0  0  0  0  0  0  0  0  0  0  0  0
   11.0962    9.3293   23.5072 C   0  0  0  0  0  0  0  0  0  0  0  0
    5.1273    7.8529   23.6208 N   0  0  0  0  0  0  0  0  0  0  0  0
    9.7552    9.2338   23.0171 N   0  0  0  0  0  0  0  0  0  0  0  0
   11.1797    6.7591   21.3326 N   0  0  0  0  0  0  0  0  0  0  0  0
   11.7728    8.0337   23.7267 C   0  0  0  0  0  0  0  0  0  0  0  0
    7.1194    8.3344   24.6775 C   0  0  0  0  0  0  0  0  0  0  0  0
    8.4311    4.7963   22.0500 C   0  0  0  0  0  0  0  0  0  0  0  0
    8.7393   10.8706   24.1871 O   0  0  0  0  0  0  0  0  0  0  0  0
    9.3093    3.8166   21.6712 C   0  0  0  0  0  0  0  0  0  0  0  0
  1  5  1  0
  1 15  4  0
  1 22  4  0
  2 20  1  0
  2 24  1  0
  3  6  4  0
  3 27  4  0
  4 22  4  0
  4 26  4  0
  6  7  4  0
  6 13  1  0
  7 19  4  0
  8 18  1  0
  8 23  1  0
  8 28  2  0
  9 17  1  0
  9 24  1  0
 10 11  1  0
 10 24  1  0
 11 23  1  0
 12 14  4  0
 12 16  4  0
 14 19  4  0
 15 18  4  0
 16 20  4  0
 17 25  1  0
 18 26  4  0
 19 29  4  0
 20 29  4  0
 21 23  1  0
 21 25  1  0
 27 29  4  0
M  END
$$$$

 Created by Python create_sdf_string function

 29 32  0  0  0  0  0  0  0  0999 V2000
    5.4450    8.7154   22.6662 C   0  0  0  0  0  0  0  0  0  0  0  0
   10.9154    5.4574   20.5483 C   0  0  0  0  0  0  0  0  0  0  0  0
    7.2709    4.5089   22.7542 C   0  0  0  0  0  0  0  0  0  0  0  0
    5.9698    7.6329   24.6581 C   0  0  0  0  0  0  0  0  0  0  0  0
    4.5542    8.9057   21.7104 O   0  0  0  0  0  0  0  0  0  0  0  0
    6.9895    3.2085   23.0690 C   0  0  0  0  0  0  0  0  0  0  0  0
    7.8391    2.2253   22.7260 N   0  0  0  0  0  0  0  0  0  0  0  0
    8.6968    9.8373   23.6359 C   0  0  0  0  0  0  0  0  0  0  0  0
   12.5135    6.5957   21.8396 C   0  0  0  0  0  0  0  0  0  0  0  0
   10.9406    8.2330   21.1350 C   0  0  0  0  0  0  0  0  0  0  0  0
    9.6648    8.5956   21.7310 C   0  0  0  0  0  0  0  0  0  0  0  0
   10.8829    1.7153   20.9865 C   0  0  0  0  0  0  0  0  0  0  0  0
    5.7768    2.8533   23.7910 C   0  0  0  0  0  0  0  0  0  0  0  0
    9.7977    1.4791   21.6912 N   0  0  0  0  0  0  0  0  0  0  0  0
    6.5976    9.3401   22.6478 N   0  0  0  0  0  0  0  0  0  0  0  0
   11.2031    3.0042   20.6246 C   0  0  0  0  0  0  0  0  0  0  0  0
   12.8688    7.7370   22.7287 C   0  0  0  0  0  0  0  0  0  0  0  0
    7.4487    9.1361   23.6506 C   0  0  0  0  0  0  0  0  0  0  0  0
    8.9772    2.5025   22.0273 C   0  0  0  0  0  0  0  0  0  0  0  0
   10.4859    4.0901   20.9730 C   0  0  0  0  0  0  0  0  0  0  0  0
   11.0962    9.3293   23.5072 C   0  0  0  0  0  0  0  0  0  0  0  0
    5.1273    7.8529   23.6208 N   0  0  0  0  0  0  0  0  0  0  0  0
    9.7552    9.2338   23.0171 N   0  0  0  0  0  0  0  0  0  0  0  0
   11.1797    6.7591   21.3326 N   0  0  0  0  0  0  0  0  0  0  0  0
   11.7728    8.0337   23.7267 C   0  0  0  0  0  0  0  0  0  0  0  0
    7.1194    8.3344   24.6775 C   0  0  0  0  0  0  0  0  0  0  0  0
    8.4311    4.7963   22.0500 C   0  0  0  0  0  0  0  0  0  0  0  0
    8.7393   10.8706   24.1871 O   0  0  0  0  0  0  0  0  0  0  0  0
    9.3093    3.8166   21.6712 C   0  0  0  0  0  0  0  0  0  0  0  0
  1  5  1  0
  1 15  4  0
  1 22  4  0
  2 20  1  0
  2 24  1  0
  3  6  4  0
  3 27  4  0
  4 22  4  0
  4 26  4  0
  6  7  4  0
  6 13  1  0
  7 19  4  0
  8 18  1  0
  8 23  1  0
  8 28  2  0
  9 17  1  0
  9 24  1  0
 10 11  1  0
 10 24  1  0
 11 23  1  0
 12 14  4  0
 12 16  4  0
 14 19  4  0
 15 18  4  0
 16 20  4  0
 17 25  1  0
 18 26  4  0
 19 29  4  0
 20 29  4  0
 21 23  1  0
 21 25  1  0
 27 29  4  0
M  END
$$$$

 Created by Python create_sdf_string function

 29 32  0  0  0  0  0  0  0  0999 V2000
    5.4450    8.7154   22.6662 C   0  0  0  0  0  0  0  0  0  0  0  0
   10.9154    5.4574   20.5483 C   0  0  0  0  0  0  0  0  0  0  0  0
    7.2709    4.5089   22.7542 C   0  0  0  0  0  0  0  0  0  0  0  0
    5.9698    7.6329   24.6581 C   0  0  0  0  0  0  0  0  0  0  0  0
    4.5542    8.9057   21.7104 O   0  0  0  0  0  0  0  0  0  0  0  0
    6.9895    3.2085   23.0690 C   0  0  0  0  0  0  0  0  0  0  0  0
    7.8391    2.2253   22.7260 N   0  0  0  0  0  0  0  0  0  0  0  0
    8.6968    9.8373   23.6359 C   0  0  0  0  0  0  0  0  0  0  0  0
   12.5135    6.5957   21.8396 C   0  0  0  0  0  0  0  0  0  0  0  0
   10.9406    8.2330   21.1350 C   0  0  0  0  0  0  0  0  0  0  0  0
    9.6648    8.5956   21.7310 C   0  0  0  0  0  0  0  0  0  0  0  0
   10.8829    1.7153   20.9865 C   0  0  0  0  0  0  0  0  0  0  0  0
    5.7768    2.8533   23.7910 C   0  0  0  0  0  0  0  0  0  0  0  0
    9.7977    1.4791   21.6912 N   0  0  0  0  0  0  0  0  0  0  0  0
    6.5976    9.3401   22.6478 N   0  0  0  0  0  0  0  0  0  0  0  0
   11.2031    3.0042   20.6246 C   0  0  0  0  0  0  0  0  0  0  0  0
   12.8688    7.7370   22.7287 C   0  0  0  0  0  0  0  0  0  0  0  0
    7.4487    9.1361   23.6506 C   0  0  0  0  0  0  0  0  0  0  0  0
    8.9772    2.5025   22.0273 C   0  0  0  0  0  0  0  0  0  0  0  0
   10.4859    4.0901   20.9730 C   0  0  0  0  0  0  0  0  0  0  0  0
   11.0962    9.3293   23.5072 C   0  0  0  0  0  0  0  0  0  0  0  0
    5.1273    7.8529   23.6208 N   0  0  0  0  0  0  0  0  0  0  0  0
    9.7552    9.2338   23.0171 N   0  0  0  0  0  0  0  0  0  0  0  0
   11.1797    6.7591   21.3326 N   0  0  0  0  0  0  0  0  0  0  0  0
   11.7728    8.0337   23.7267 C   0  0  0  0  0  0  0  0  0  0  0  0
    7.1194    8.3344   24.6775 C   0  0  0  0  0  0  0  0  0  0  0  0
    8.4311    4.7963   22.0500 C   0  0  0  0  0  0  0  0  0  0  0  0
    8.7393   10.8706   24.1871 O   0  0  0  0  0  0  0  0  0  0  0  0
    9.3093    3.8166   21.6712 C   0  0  0  0  0  0  0  0  0  0  0  0
  1  5  1  0
  1 15  4  0
  1 22  4  0
  2 20  1  0
  2 24  1  0
  3  6  4  0
  3 27  4  0
  4 22  4  0
  4 26  4  0
  6  7  4  0
  6 13  1  0
  7 19  4  0
  8 18  1  0
  8 23  1  0
  8 28  2  0
  9 17  1  0
  9 24  1  0
 10 11  1  0
 10 24  1  0
 11 23  1  0
 12 14  4  0
 12 16  4  0
 14 19  4  0
 15 18  4  0
 16 20  4  0
 17 25  1  0
 18 26  4  0
 19 29  4  0
 20 29  4  0
 21 23  1  0
 21 25  1  0
 27 29  4  0
M  END
$$$$

 Created by Python create_sdf_string function

 29 32  0  0  0  0  0  0  0  0999 V2000
    5.4450    8.7154   22.6662 C   0  0  0  0  0  0  0  0  0  0  0  0
   10.9154    5.4574   20.5483 C   0  0  0  0  0  0  0  0  0  0  0  0
    7.2709    4.5089   22.7542 C   0  0  0  0  0  0  0  0  0  0  0  0
    5.9698    7.6329   24.6581 C   0  0  0  0  0  0  0  0  0  0  0  0
    4.5542    8.9057   21.7104 O   0  0  0  0  0  0  0  0  0  0  0  0
    6.9895    3.2085   23.0690 C   0  0  0  0  0  0  0  0  0  0  0  0
    7.8391    2.2253   22.7260 N   0  0  0  0  0  0  0  0  0  0  0  0
    8.6968    9.8373   23.6359 C   0  0  0  0  0  0  0  0  0  0  0  0
   12.5135    6.5957   21.8396 C   0  0  0  0  0  0  0  0  0  0  0  0
   10.9406    8.2330   21.1350 C   0  0  0  0  0  0  0  0  0  0  0  0
    9.6648    8.5956   21.7310 C   0  0  0  0  0  0  0  0  0  0  0  0
   10.8829    1.7153   20.9865 C   0  0  0  0  0  0  0  0  0  0  0  0
    5.7768    2.8533   23.7910 C   0  0  0  0  0  0  0  0  0  0  0  0
    9.7977    1.4791   21.6912 N   0  0  0  0  0  0  0  0  0  0  0  0
    6.5976    9.3401   22.6478 N   0  0  0  0  0  0  0  0  0  0  0  0
   11.2031    3.0042   20.6246 C   0  0  0  0  0  0  0  0  0  0  0  0
   12.8688    7.7370   22.7287 C   0  0  0  0  0  0  0  0  0  0  0  0
    7.4487    9.1361   23.6506 C   0  0  0  0  0  0  0  0  0  0  0  0
    8.9772    2.5025   22.0273 C   0  0  0  0  0  0  0  0  0  0  0  0
   10.4859    4.0901   20.9730 C   0  0  0  0  0  0  0  0  0  0  0  0
   11.0962    9.3293   23.5072 C   0  0  0  0  0  0  0  0  0  0  0  0
    5.1273    7.8529   23.6208 N   0  0  0  0  0  0  0  0  0  0  0  0
    9.7552    9.2338   23.0171 N   0  0  0  0  0  0  0  0  0  0  0  0
   11.1797    6.7591   21.3326 N   0  0  0  0  0  0  0  0  0  0  0  0
   11.7728    8.0337   23.7267 C   0  0  0  0  0  0  0  0  0  0  0  0
    7.1194    8.3344   24.6775 C   0  0  0  0  0  0  0  0  0  0  0  0
    8.4311    4.7963   22.0500 C   0  0  0  0  0  0  0  0  0  0  0  0
    8.7393   10.8706   24.1871 O   0  0  0  0  0  0  0  0  0  0  0  0
    9.3093    3.8166   21.6712 C   0  0  0  0  0  0  0  0  0  0  0  0
  1  5  1  0
  1 15  4  0
  1 22  4  0
  2 20  1  0
  2 24  1  0
  3  6  4  0
  3 27  4  0
  4 22  4  0
  4 26  4  0
  6  7  4  0
  6 13  1  0
  7 19  4  0
  8 18  1  0
  8 23  1  0
  8 28  2  0
  9 17  1  0
  9 24  1  0
 10 11  1  0
 10 24  1  0
 11 23  1  0
 12 14  4  0
 12 16  4  0
 14 19  4  0
 15 18  4  0
 16 20  4  0
 17 25  1  0
 18 26  4  0
 19 29  4  0
 20 29  4  0
 21 23  1  0
 21 25  1  0
 27 29  4  0
M  END
$$$$

 Created by Python create_sdf_string function

 29 32  0  0  0  0  0  0  0  0999 V2000
    5.4450    8.7154   22.6662 C   0  0  0  0  0  0  0  0  0  0  0  0
   10.9154    5.4574   20.5483 C   0  0  0  0  0  0  0  0  0  0  0  0
    7.2709    4.5089   22.7542 C   0  0  0  0  0  0  0  0  0  0  0  0
    5.9698    7.6329   24.6581 C   0  0  0  0  0  0  0  0  0  0  0  0
    4.5542    8.9057   21.7104 O   0  0  0  0  0  0  0  0  0  0  0  0
    6.9895    3.2085   23.0690 C   0  0  0  0  0  0  0  0  0  0  0  0
    7.8391    2.2253   22.7260 N   0  0  0  0  0  0  0  0  0  0  0  0
    8.6968    9.8373   23.6359 C   0  0  0  0  0  0  0  0  0  0  0  0
   12.5135    6.5957   21.8396 C   0  0  0  0  0  0  0  0  0  0  0  0
   10.9406    8.2330   21.1350 C   0  0  0  0  0  0  0  0  0  0  0  0
    9.6648    8.5956   21.7310 C   0  0  0  0  0  0  0  0  0  0  0  0
   10.8829    1.7153   20.9865 C   0  0  0  0  0  0  0  0  0  0  0  0
    5.7768    2.8533   23.7910 C   0  0  0  0  0  0  0  0  0  0  0  0
    9.7977    1.4791   21.6912 N   0  0  0  0  0  0  0  0  0  0  0  0
    6.5976    9.3401   22.6478 N   0  0  0  0  0  0  0  0  0  0  0  0
   11.2031    3.0042   20.6246 C   0  0  0  0  0  0  0  0  0  0  0  0
   12.8688    7.7370   22.7287 C   0  0  0  0  0  0  0  0  0  0  0  0
    7.4487    9.1361   23.6506 C   0  0  0  0  0  0  0  0  0  0  0  0
    8.9772    2.5025   22.0273 C   0  0  0  0  0  0  0  0  0  0  0  0
   10.4859    4.0901   20.9730 C   0  0  0  0  0  0  0  0  0  0  0  0
   11.0962    9.3293   23.5072 C   0  0  0  0  0  0  0  0  0  0  0  0
    5.1273    7.8529   23.6208 N   0  0  0  0  0  0  0  0  0  0  0  0
    9.7552    9.2338   23.0171 N   0  0  0  0  0  0  0  0  0  0  0  0
   11.1797    6.7591   21.3326 N   0  0  0  0  0  0  0  0  0  0  0  0
   11.7728    8.0337   23.7267 C   0  0  0  0  0  0  0  0  0  0  0  0
    7.1194    8.3344   24.6775 C   0  0  0  0  0  0  0  0  0  0  0  0
    8.4311    4.7963   22.0500 C   0  0  0  0  0  0  0  0  0  0  0  0
    8.7393   10.8706   24.1871 O   0  0  0  0  0  0  0  0  0  0  0  0
    9.3093    3.8166   21.6712 C   0  0  0  0  0  0  0  0  0  0  0  0
  1  5  1  0
  1 15  4  0
  1 22  4  0
  2 20  1  0
  2 24  1  0
  3  6  4  0
  3 27  4  0
  4 22  4  0
  4 26  4  0
  6  7  4  0
  6 13  1  0
  7 19  4  0
  8 18  1  0
  8 23  1  0
  8 28  2  0
  9 17  1  0
  9 24  1  0
 10 11  1  0
 10 24  1  0
 11 23  1  0
 12 14  4  0
 12 16  4  0
 14 19  4  0
 15 18  4  0
 16 20  4  0
 17 25  1  0
 18 26  4  0
 19 29  4  0
 20 29  4  0
 21 23  1  0
 21 25  1  0
 27 29  4  0
M  END
$$$$

 Created by Python create_sdf_string function

 29 32  0  0  0  0  0  0  0  0999 V2000
    5.4450    8.7154   22.6662 C   0  0  0  0  0  0  0  0  0  0  0  0
   10.9154    5.4574   20.5483 C   0  0  0  0  0  0  0  0  0  0  0  0
    7.2709    4.5089   22.7542 C   0  0  0  0  0  0  0  0  0  0  0  0
    5.9698    7.6329   24.6581 C   0  0  0  0  0  0  0  0  0  0  0  0
    4.5542    8.9057   21.7104 O   0  0  0  0  0  0  0  0  0  0  0  0
    6.9895    3.2085   23.0690 C   0  0  0  0  0  0  0  0  0  0  0  0
    7.8391    2.2253   22.7260 N   0  0  0  0  0  0  0  0  0  0  0  0
    8.6968    9.8373   23.6359 C   0  0  0  0  0  0  0  0  0  0  0  0
   12.5135    6.5957   21.8396 C   0  0  0  0  0  0  0  0  0  0  0  0
   10.9406    8.2330   21.1350 C   0  0  0  0  0  0  0  0  0  0  0  0
    9.6648    8.5956   21.7310 C   0  0  0  0  0  0  0  0  0  0  0  0
   10.8829    1.7153   20.9865 C   0  0  0  0  0  0  0  0  0  0  0  0
    5.7768    2.8533   23.7910 C   0  0  0  0  0  0  0  0  0  0  0  0
    9.7977    1.4791   21.6912 N   0  0  0  0  0  0  0  0  0  0  0  0
    6.5976    9.3401   22.6478 N   0  0  0  0  0  0  0  0  0  0  0  0
   11.2031    3.0042   20.6246 C   0  0  0  0  0  0  0  0  0  0  0  0
   12.8688    7.7370   22.7287 C   0  0  0  0  0  0  0  0  0  0  0  0
    7.4487    9.1361   23.6506 C   0  0  0  0  0  0  0  0  0  0  0  0
    8.9772    2.5025   22.0273 C   0  0  0  0  0  0  0  0  0  0  0  0
   10.4859    4.0901   20.9730 C   0  0  0  0  0  0  0  0  0  0  0  0
   11.0962    9.3293   23.5072 C   0  0  0  0  0  0  0  0  0  0  0  0
    5.1273    7.8529   23.6208 N   0  0  0  0  0  0  0  0  0  0  0  0
    9.7552    9.2338   23.0171 N   0  0  0  0  0  0  0  0  0  0  0  0
   11.1797    6.7591   21.3326 N   0  0  0  0  0  0  0  0  0  0  0  0
   11.7728    8.0337   23.7267 C   0  0  0  0  0  0  0  0  0  0  0  0
    7.1194    8.3344   24.6775 C   0  0  0  0  0  0  0  0  0  0  0  0
    8.4311    4.7963   22.0500 C   0  0  0  0  0  0  0  0  0  0  0  0
    8.7393   10.8706   24.1871 O   0  0  0  0  0  0  0  0  0  0  0  0
    9.3093    3.8166   21.6712 C   0  0  0  0  0  0  0  0  0  0  0  0
  1  5  1  0
  1 15  4  0
  1 22  4  0
  2 20  1  0
  2 24  1  0
  3  6  4  0
  3 27  4  0
  4 22  4  0
  4 26  4  0
  6  7  4  0
  6 13  1  0
  7 19  4  0
  8 18  1  0
  8 23  1  0
  8 28  2  0
  9 17  1  0
  9 24  1  0
 10 11  1  0
 10 24  1  0
 11 23  1  0
 12 14  4  0
 12 16  4  0
 14 19  4  0
 15 18  4  0
 16 20  4  0
 17 25  1  0
 18 26  4  0
 19 29  4  0
 20 29  4  0
 21 23  1  0
 21 25  1  0
 27 29  4  0
M  END
$$$$

 Created by Python create_sdf_string function

 29 32  0  0  0  0  0  0  0  0999 V2000
    5.4450    8.7154   22.6662 C   0  0  0  0  0  0  0  0  0  0  0  0
   10.9154    5.4574   20.5483 C   0  0  0  0  0  0  0  0  0  0  0  0
    7.2709    4.5089   22.7542 C   0  0  0  0  0  0  0  0  0  0  0  0
    5.9698    7.6329   24.6581 C   0  0  0  0  0  0  0  0  0  0  0  0
    4.5542    8.9057   21.7104 O   0  0  0  0  0  0  0  0  0  0  0  0
    6.9895    3.2085   23.0690 C   0  0  0  0  0  0  0  0  0  0  0  0
    7.8391    2.2253   22.7260 N   0  0  0  0  0  0  0  0  0  0  0  0
    8.6968    9.8373   23.6359 C   0  0  0  0  0  0  0  0  0  0  0  0
   12.5135    6.5957   21.8396 C   0  0  0  0  0  0  0  0  0  0  0  0
   10.9406    8.2330   21.1350 C   0  0  0  0  0  0  0  0  0  0  0  0
    9.6648    8.5956   21.7310 C   0  0  0  0  0  0  0  0  0  0  0  0
   10.8829    1.7153   20.9865 C   0  0  0  0  0  0  0  0  0  0  0  0
    5.7768    2.8533   23.7910 C   0  0  0  0  0  0  0  0  0  0  0  0
    9.7977    1.4791   21.6912 N   0  0  0  0  0  0  0  0  0  0  0  0
    6.5976    9.3401   22.6478 N   0  0  0  0  0  0  0  0  0  0  0  0
   11.2031    3.0042   20.6246 C   0  0  0  0  0  0  0  0  0  0  0  0
   12.8688    7.7370   22.7287 C   0  0  0  0  0  0  0  0  0  0  0  0
    7.4487    9.1361   23.6506 C   0  0  0  0  0  0  0  0  0  0  0  0
    8.9772    2.5025   22.0273 C   0  0  0  0  0  0  0  0  0  0  0  0
   10.4859    4.0901   20.9730 C   0  0  0  0  0  0  0  0  0  0  0  0
   11.0962    9.3293   23.5072 C   0  0  0  0  0  0  0  0  0  0  0  0
    5.1273    7.8529   23.6208 N   0  0  0  0  0  0  0  0  0  0  0  0
    9.7552    9.2338   23.0171 N   0  0  0  0  0  0  0  0  0  0  0  0
   11.1797    6.7591   21.3326 N   0  0  0  0  0  0  0  0  0  0  0  0
   11.7728    8.0337   23.7267 C   0  0  0  0  0  0  0  0  0  0  0  0
    7.1194    8.3344   24.6775 C   0  0  0  0  0  0  0  0  0  0  0  0
    8.4311    4.7963   22.0500 C   0  0  0  0  0  0  0  0  0  0  0  0
    8.7393   10.8706   24.1871 O   0  0  0  0  0  0  0  0  0  0  0  0
    9.3093    3.8166   21.6712 C   0  0  0  0  0  0  0  0  0  0  0  0
  1  5  1  0
  1 15  4  0
  1 22  4  0
  2 20  1  0
  2 24  1  0
  3  6  4  0
  3 27  4  0
  4 22  4  0
  4 26  4  0
  6  7  4  0
  6 13  1  0
  7 19  4  0
  8 18  1  0
  8 23  1  0
  8 28  2  0
  9 17  1  0
  9 24  1  0
 10 11  1  0
 10 24  1  0
 11 23  1  0
 12 14  4  0
 12 16  4  0
 14 19  4  0
 15 18  4  0
 16 20  4  0
 17 25  1  0
 18 26  4  0
 19 29  4  0
 20 29  4  0
 21 23  1  0
 21 25  1  0
 27 29  4  0
M  END
$$$$

 Created by Python create_sdf_string function

 29 32  0  0  0  0  0  0  0  0999 V2000
    5.4450    8.7154   22.6662 C   0  0  0  0  0  0  0  0  0  0  0  0
   10.9154    5.4574   20.5483 C   0  0  0  0  0  0  0  0  0  0  0  0
    7.2709    4.5089   22.7542 C   0  0  0  0  0  0  0  0  0  0  0  0
    5.9698    7.6329   24.6581 C   0  0  0  0  0  0  0  0  0  0  0  0
    4.5542    8.9057   21.7104 O   0  0  0  0  0  0  0  0  0  0  0  0
    6.9895    3.2085   23.0690 C   0  0  0  0  0  0  0  0  0  0  0  0
    7.8391    2.2253   22.7260 N   0  0  0  0  0  0  0  0  0  0  0  0
    8.6968    9.8373   23.6359 C   0  0  0  0  0  0  0  0  0  0  0  0
   12.5135    6.5957   21.8396 C   0  0  0  0  0  0  0  0  0  0  0  0
   10.9406    8.2330   21.1350 C   0  0  0  0  0  0  0  0  0  0  0  0
    9.6648    8.5956   21.7310 C   0  0  0  0  0  0  0  0  0  0  0  0
   10.8829    1.7153   20.9865 C   0  0  0  0  0  0  0  0  0  0  0  0
    5.7768    2.8533   23.7910 C   0  0  0  0  0  0  0  0  0  0  0  0
    9.7977    1.4791   21.6912 N   0  0  0  0  0  0  0  0  0  0  0  0
    6.5976    9.3401   22.6478 N   0  0  0  0  0  0  0  0  0  0  0  0
   11.2031    3.0042   20.6246 C   0  0  0  0  0  0  0  0  0  0  0  0
   12.8688    7.7370   22.7287 C   0  0  0  0  0  0  0  0  0  0  0  0
    7.4487    9.1361   23.6506 C   0  0  0  0  0  0  0  0  0  0  0  0
    8.9772    2.5025   22.0273 C   0  0  0  0  0  0  0  0  0  0  0  0
   10.4859    4.0901   20.9730 C   0  0  0  0  0  0  0  0  0  0  0  0
   11.0962    9.3293   23.5072 C   0  0  0  0  0  0  0  0  0  0  0  0
    5.1273    7.8529   23.6208 N   0  0  0  0  0  0  0  0  0  0  0  0
    9.7552    9.2338   23.0171 N   0  0  0  0  0  0  0  0  0  0  0  0
   11.1797    6.7591   21.3326 N   0  0  0  0  0  0  0  0  0  0  0  0
   11.7728    8.0337   23.7267 C   0  0  0  0  0  0  0  0  0  0  0  0
    7.1194    8.3344   24.6775 C   0  0  0  0  0  0  0  0  0  0  0  0
    8.4311    4.7963   22.0500 C   0  0  0  0  0  0  0  0  0  0  0  0
    8.7393   10.8706   24.1871 O   0  0  0  0  0  0  0  0  0  0  0  0
    9.3093    3.8166   21.6712 C   0  0  0  0  0  0  0  0  0  0  0  0
  1  5  1  0
  1 15  4  0
  1 22  4  0
  2 20  1  0
  2 24  1  0
  3  6  4  0
  3 27  4  0
  4 22  4  0
  4 26  4  0
  6  7  4  0
  6 13  1  0
  7 19  4  0
  8 18  1  0
  8 23  1  0
  8 28  2  0
  9 17  1  0
  9 24  1  0
 10 11  1  0
 10 24  1  0
 11 23  1  0
 12 14  4  0
 12 16  4  0
 14 19  4  0
 15 18  4  0
 16 20  4  0
 17 25  1  0
 18 26  4  0
 19 29  4  0
 20 29  4  0
 21 23  1  0
 21 25  1  0
 27 29  4  0
M  END
$$$$

 Created by Python create_sdf_string function

 29 32  0  0  0  0  0  0  0  0999 V2000
    5.4450    8.7154   22.6662 C   0  0  0  0  0  0  0  0  0  0  0  0
   10.9154    5.4574   20.5483 C   0  0  0  0  0  0  0  0  0  0  0  0
    7.2709    4.5089   22.7542 C   0  0  0  0  0  0  0  0  0  0  0  0
    5.9698    7.6329   24.6581 C   0  0  0  0  0  0  0  0  0  0  0  0
    4.5542    8.9057   21.7104 O   0  0  0  0  0  0  0  0  0  0  0  0
    6.9895    3.2085   23.0690 C   0  0  0  0  0  0  0  0  0  0  0  0
    7.8391    2.2253   22.7260 N   0  0  0  0  0  0  0  0  0  0  0  0
    8.6968    9.8373   23.6359 C   0  0  0  0  0  0  0  0  0  0  0  0
   12.5135    6.5957   21.8396 C   0  0  0  0  0  0  0  0  0  0  0  0
   10.9406    8.2330   21.1350 C   0  0  0  0  0  0  0  0  0  0  0  0
    9.6648    8.5956   21.7310 C   0  0  0  0  0  0  0  0  0  0  0  0
   10.8829    1.7153   20.9865 C   0  0  0  0  0  0  0  0  0  0  0  0
    5.7768    2.8533   23.7910 C   0  0  0  0  0  0  0  0  0  0  0  0
    9.7977    1.4791   21.6912 N   0  0  0  0  0  0  0  0  0  0  0  0
    6.5976    9.3401   22.6478 N   0  0  0  0  0  0  0  0  0  0  0  0
   11.2031    3.0042   20.6246 C   0  0  0  0  0  0  0  0  0  0  0  0
   12.8688    7.7370   22.7287 C   0  0  0  0  0  0  0  0  0  0  0  0
    7.4487    9.1361   23.6506 C   0  0  0  0  0  0  0  0  0  0  0  0
    8.9772    2.5025   22.0273 C   0  0  0  0  0  0  0  0  0  0  0  0
   10.4859    4.0901   20.9730 C   0  0  0  0  0  0  0  0  0  0  0  0
   11.0962    9.3293   23.5072 C   0  0  0  0  0  0  0  0  0  0  0  0
    5.1273    7.8529   23.6208 N   0  0  0  0  0  0  0  0  0  0  0  0
    9.7552    9.2338   23.0171 N   0  0  0  0  0  0  0  0  0  0  0  0
   11.1797    6.7591   21.3326 N   0  0  0  0  0  0  0  0  0  0  0  0
   11.7728    8.0337   23.7267 C   0  0  0  0  0  0  0  0  0  0  0  0
    7.1194    8.3344   24.6775 C   0  0  0  0  0  0  0  0  0  0  0  0
    8.4311    4.7963   22.0500 C   0  0  0  0  0  0  0  0  0  0  0  0
    8.7393   10.8706   24.1871 O   0  0  0  0  0  0  0  0  0  0  0  0
    9.3093    3.8166   21.6712 C   0  0  0  0  0  0  0  0  0  0  0  0
  1  5  1  0
  1 15  4  0
  1 22  4  0
  2 20  1  0
  2 24  1  0
  3  6  4  0
  3 27  4  0
  4 22  4  0
  4 26  4  0
  6  7  4  0
  6 13  1  0
  7 19  4  0
  8 18  1  0
  8 23  1  0
  8 28  2  0
  9 17  1  0
  9 24  1  0
 10 11  1  0
 10 24  1  0
 11 23  1  0
 12 14  4  0
 12 16  4  0
 14 19  4  0
 15 18  4  0
 16 20  4  0
 17 25  1  0
 18 26  4  0
 19 29  4  0
 20 29  4  0
 21 23  1  0
 21 25  1  0
 27 29  4  0
M  END
$$$$

 Created by Python create_sdf_string function

 29 32  0  0  0  0  0  0  0  0999 V2000
    5.4450    8.7154   22.6662 C   0  0  0  0  0  0  0  0  0  0  0  0
   10.9154    5.4574   20.5483 C   0  0  0  0  0  0  0  0  0  0  0  0
    7.2709    4.5089   22.7542 C   0  0  0  0  0  0  0  0  0  0  0  0
    5.9698    7.6329   24.6581 C   0  0  0  0  0  0  0  0  0  0  0  0
    4.5542    8.9057   21.7104 O   0  0  0  0  0  0  0  0  0  0  0  0
    6.9895    3.2085   23.0690 C   0  0  0  0  0  0  0  0  0  0  0  0
    7.8391    2.2253   22.7260 N   0  0  0  0  0  0  0  0  0  0  0  0
    8.6968    9.8373   23.6359 C   0  0  0  0  0  0  0  0  0  0  0  0
   12.5135    6.5957   21.8396 C   0  0  0  0  0  0  0  0  0  0  0  0
   10.9406    8.2330   21.1350 C   0  0  0  0  0  0  0  0  0  0  0  0
    9.6648    8.5956   21.7310 C   0  0  0  0  0  0  0  0  0  0  0  0
   10.8829    1.7153   20.9865 C   0  0  0  0  0  0  0  0  0  0  0  0
    5.7768    2.8533   23.7910 C   0  0  0  0  0  0  0  0  0  0  0  0
    9.7977    1.4791   21.6912 N   0  0  0  0  0  0  0  0  0  0  0  0
    6.5976    9.3401   22.6478 N   0  0  0  0  0  0  0  0  0  0  0  0
   11.2031    3.0042   20.6246 C   0  0  0  0  0  0  0  0  0  0  0  0
   12.8688    7.7370   22.7287 C   0  0  0  0  0  0  0  0  0  0  0  0
    7.4487    9.1361   23.6506 C   0  0  0  0  0  0  0  0  0  0  0  0
    8.9772    2.5025   22.0273 C   0  0  0  0  0  0  0  0  0  0  0  0
   10.4859    4.0901   20.9730 C   0  0  0  0  0  0  0  0  0  0  0  0
   11.0962    9.3293   23.5072 C   0  0  0  0  0  0  0  0  0  0  0  0
    5.1273    7.8529   23.6208 N   0  0  0  0  0  0  0  0  0  0  0  0
    9.7552    9.2338   23.0171 N   0  0  0  0  0  0  0  0  0  0  0  0
   11.1797    6.7591   21.3326 N   0  0  0  0  0  0  0  0  0  0  0  0
   11.7728    8.0337   23.7267 C   0  0  0  0  0  0  0  0  0  0  0  0
    7.1194    8.3344   24.6775 C   0  0  0  0  0  0  0  0  0  0  0  0
    8.4311    4.7963   22.0500 C   0  0  0  0  0  0  0  0  0  0  0  0
    8.7393   10.8706   24.1871 O   0  0  0  0  0  0  0  0  0  0  0  0
    9.3093    3.8166   21.6712 C   0  0  0  0  0  0  0  0  0  0  0  0
  1  5  1  0
  1 15  4  0
  1 22  4  0
  2 20  1  0
  2 24  1  0
  3  6  4  0
  3 27  4  0
  4 22  4  0
  4 26  4  0
  6  7  4  0
  6 13  1  0
  7 19  4  0
  8 18  1  0
  8 23  1  0
  8 28  2  0
  9 17  1  0
  9 24  1  0
 10 11  1  0
 10 24  1  0
 11 23  1  0
 12 14  4  0
 12 16  4  0
 14 19  4  0
 15 18  4  0
 16 20  4  0
 17 25  1  0
 18 26  4  0
 19 29  4  0
 20 29  4  0
 21 23  1  0
 21 25  1  0
 27 29  4  0
M  END
$$$$

 Created by Python create_sdf_string function

 29 32  0  0  0  0  0  0  0  0999 V2000
    5.4450    8.7154   22.6662 C   0  0  0  0  0  0  0  0  0  0  0  0
   10.9154    5.4574   20.5483 C   0  0  0  0  0  0  0  0  0  0  0  0
    7.2709    4.5089   22.7542 C   0  0  0  0  0  0  0  0  0  0  0  0
    5.9698    7.6329   24.6581 C   0  0  0  0  0  0  0  0  0  0  0  0
    4.5542    8.9057   21.7104 O   0  0  0  0  0  0  0  0  0  0  0  0
    6.9895    3.2085   23.0690 C   0  0  0  0  0  0  0  0  0  0  0  0
    7.8391    2.2253   22.7260 N   0  0  0  0  0  0  0  0  0  0  0  0
    8.6968    9.8373   23.6359 C   0  0  0  0  0  0  0  0  0  0  0  0
   12.5135    6.5957   21.8396 C   0  0  0  0  0  0  0  0  0  0  0  0
   10.9406    8.2330   21.1350 C   0  0  0  0  0  0  0  0  0  0  0  0
    9.6648    8.5956   21.7310 C   0  0  0  0  0  0  0  0  0  0  0  0
   10.8829    1.7153   20.9865 C   0  0  0  0  0  0  0  0  0  0  0  0
    5.7768    2.8533   23.7910 C   0  0  0  0  0  0  0  0  0  0  0  0
    9.7977    1.4791   21.6912 N   0  0  0  0  0  0  0  0  0  0  0  0
    6.5976    9.3401   22.6478 N   0  0  0  0  0  0  0  0  0  0  0  0
   11.2031    3.0042   20.6246 C   0  0  0  0  0  0  0  0  0  0  0  0
   12.8688    7.7370   22.7287 C   0  0  0  0  0  0  0  0  0  0  0  0
    7.4487    9.1361   23.6506 C   0  0  0  0  0  0  0  0  0  0  0  0
    8.9772    2.5025   22.0273 C   0  0  0  0  0  0  0  0  0  0  0  0
   10.4859    4.0901   20.9730 C   0  0  0  0  0  0  0  0  0  0  0  0
   11.0962    9.3293   23.5072 C   0  0  0  0  0  0  0  0  0  0  0  0
    5.1273    7.8529   23.6208 N   0  0  0  0  0  0  0  0  0  0  0  0
    9.7552    9.2338   23.0171 N   0  0  0  0  0  0  0  0  0  0  0  0
   11.1797    6.7591   21.3326 N   0  0  0  0  0  0  0  0  0  0  0  0
   11.7728    8.0337   23.7267 C   0  0  0  0  0  0  0  0  0  0  0  0
    7.1194    8.3344   24.6775 C   0  0  0  0  0  0  0  0  0  0  0  0
    8.4311    4.7963   22.0500 C   0  0  0  0  0  0  0  0  0  0  0  0
    8.7393   10.8706   24.1871 O   0  0  0  0  0  0  0  0  0  0  0  0
    9.3093    3.8166   21.6712 C   0  0  0  0  0  0  0  0  0  0  0  0
  1  5  1  0
  1 15  4  0
  1 22  4  0
  2 20  1  0
  2 24  1  0
  3  6  4  0
  3 27  4  0
  4 22  4  0
  4 26  4  0
  6  7  4  0
  6 13  1  0
  7 19  4  0
  8 18  1  0
  8 23  1  0
  8 28  2  0
  9 17  1  0
  9 24  1  0
 10 11  1  0
 10 24  1  0
 11 23  1  0
 12 14  4  0
 12 16  4  0
 14 19  4  0
 15 18  4  0
 16 20  4  0
 17 25  1  0
 18 26  4  0
 19 29  4  0
 20 29  4  0
 21 23  1  0
 21 25  1  0
 27 29  4  0
M  END
$$$$

 Created by Python create_sdf_string function

 29 32  0  0  0  0  0  0  0  0999 V2000
    5.4450    8.7154   22.6662 C   0  0  0  0  0  0  0  0  0  0  0  0
   10.9154    5.4574   20.5483 C   0  0  0  0  0  0  0  0  0  0  0  0
    7.2709    4.5089   22.7542 C   0  0  0  0  0  0  0  0  0  0  0  0
    5.9698    7.6329   24.6581 C   0  0  0  0  0  0  0  0  0  0  0  0
    4.5542    8.9057   21.7104 O   0  0  0  0  0  0  0  0  0  0  0  0
    6.9895    3.2085   23.0690 C   0  0  0  0  0  0  0  0  0  0  0  0
    7.8391    2.2253   22.7260 N   0  0  0  0  0  0  0  0  0  0  0  0
    8.6968    9.8373   23.6359 C   0  0  0  0  0  0  0  0  0  0  0  0
   12.5135    6.5957   21.8396 C   0  0  0  0  0  0  0  0  0  0  0  0
   10.9406    8.2330   21.1350 C   0  0  0  0  0  0  0  0  0  0  0  0
    9.6648    8.5956   21.7310 C   0  0  0  0  0  0  0  0  0  0  0  0
   10.8829    1.7153   20.9865 C   0  0  0  0  0  0  0  0  0  0  0  0
    5.7768    2.8533   23.7910 C   0  0  0  0  0  0  0  0  0  0  0  0
    9.7977    1.4791   21.6912 N   0  0  0  0  0  0  0  0  0  0  0  0
    6.5976    9.3401   22.6478 N   0  0  0  0  0  0  0  0  0  0  0  0
   11.2031    3.0042   20.6246 C   0  0  0  0  0  0  0  0  0  0  0  0
   12.8688    7.7370   22.7287 C   0  0  0  0  0  0  0  0  0  0  0  0
    7.4487    9.1361   23.6506 C   0  0  0  0  0  0  0  0  0  0  0  0
    8.9772    2.5025   22.0273 C   0  0  0  0  0  0  0  0  0  0  0  0
   10.4859    4.0901   20.9730 C   0  0  0  0  0  0  0  0  0  0  0  0
   11.0962    9.3293   23.5072 C   0  0  0  0  0  0  0  0  0  0  0  0
    5.1273    7.8529   23.6208 N   0  0  0  0  0  0  0  0  0  0  0  0
    9.7552    9.2338   23.0171 N   0  0  0  0  0  0  0  0  0  0  0  0
   11.1797    6.7591   21.3326 N   0  0  0  0  0  0  0  0  0  0  0  0
   11.7728    8.0337   23.7267 C   0  0  0  0  0  0  0  0  0  0  0  0
    7.1194    8.3344   24.6775 C   0  0  0  0  0  0  0  0  0  0  0  0
    8.4311    4.7963   22.0500 C   0  0  0  0  0  0  0  0  0  0  0  0
    8.7393   10.8706   24.1871 O   0  0  0  0  0  0  0  0  0  0  0  0
    9.3093    3.8166   21.6712 C   0  0  0  0  0  0  0  0  0  0  0  0
  1  5  1  0
  1 15  4  0
  1 22  4  0
  2 20  1  0
  2 24  1  0
  3  6  4  0
  3 27  4  0
  4 22  4  0
  4 26  4  0
  6  7  4  0
  6 13  1  0
  7 19  4  0
  8 18  1  0
  8 23  1  0
  8 28  2  0
  9 17  1  0
  9 24  1  0
 10 11  1  0
 10 24  1  0
 11 23  1  0
 12 14  4  0
 12 16  4  0
 14 19  4  0
 15 18  4  0
 16 20  4  0
 17 25  1  0
 18 26  4  0
 19 29  4  0
 20 29  4  0
 21 23  1  0
 21 25  1  0
 27 29  4  0
M  END
$$$$

 Created by Python create_sdf_string function

 29 32  0  0  0  0  0  0  0  0999 V2000
    5.4450    8.7154   22.6662 C   0  0  0  0  0  0  0  0  0  0  0  0
   10.9154    5.4574   20.5483 C   0  0  0  0  0  0  0  0  0  0  0  0
    7.2709    4.5089   22.7542 C   0  0  0  0  0  0  0  0  0  0  0  0
    5.9698    7.6329   24.6581 C   0  0  0  0  0  0  0  0  0  0  0  0
    4.5542    8.9057   21.7104 O   0  0  0  0  0  0  0  0  0  0  0  0
    6.9895    3.2085   23.0690 C   0  0  0  0  0  0  0  0  0  0  0  0
    7.8391    2.2253   22.7260 N   0  0  0  0  0  0  0  0  0  0  0  0
    8.6968    9.8373   23.6359 C   0  0  0  0  0  0  0  0  0  0  0  0
   12.5135    6.5957   21.8396 C   0  0  0  0  0  0  0  0  0  0  0  0
   10.9406    8.2330   21.1350 C   0  0  0  0  0  0  0  0  0  0  0  0
    9.6648    8.5956   21.7310 C   0  0  0  0  0  0  0  0  0  0  0  0
   10.8829    1.7153   20.9865 C   0  0  0  0  0  0  0  0  0  0  0  0
    5.7768    2.8533   23.7910 C   0  0  0  0  0  0  0  0  0  0  0  0
    9.7977    1.4791   21.6912 N   0  0  0  0  0  0  0  0  0  0  0  0
    6.5976    9.3401   22.6478 N   0  0  0  0  0  0  0  0  0  0  0  0
   11.2031    3.0042   20.6246 C   0  0  0  0  0  0  0  0  0  0  0  0
   12.8688    7.7370   22.7287 C   0  0  0  0  0  0  0  0  0  0  0  0
    7.4487    9.1361   23.6506 C   0  0  0  0  0  0  0  0  0  0  0  0
    8.9772    2.5025   22.0273 C   0  0  0  0  0  0  0  0  0  0  0  0
   10.4859    4.0901   20.9730 C   0  0  0  0  0  0  0  0  0  0  0  0
   11.0962    9.3293   23.5072 C   0  0  0  0  0  0  0  0  0  0  0  0
    5.1273    7.8529   23.6208 N   0  0  0  0  0  0  0  0  0  0  0  0
    9.7552    9.2338   23.0171 N   0  0  0  0  0  0  0  0  0  0  0  0
   11.1797    6.7591   21.3326 N   0  0  0  0  0  0  0  0  0  0  0  0
   11.7728    8.0337   23.7267 C   0  0  0  0  0  0  0  0  0  0  0  0
    7.1194    8.3344   24.6775 C   0  0  0  0  0  0  0  0  0  0  0  0
    8.4311    4.7963   22.0500 C   0  0  0  0  0  0  0  0  0  0  0  0
    8.7393   10.8706   24.1871 O   0  0  0  0  0  0  0  0  0  0  0  0
    9.3093    3.8166   21.6712 C   0  0  0  0  0  0  0  0  0  0  0  0
  1  5  1  0
  1 15  4  0
  1 22  4  0
  2 20  1  0
  2 24  1  0
  3  6  4  0
  3 27  4  0
  4 22  4  0
  4 26  4  0
  6  7  4  0
  6 13  1  0
  7 19  4  0
  8 18  1  0
  8 23  1  0
  8 28  2  0
  9 17  1  0
  9 24  1  0
 10 11  1  0
 10 24  1  0
 11 23  1  0
 12 14  4  0
 12 16  4  0
 14 19  4  0
 15 18  4  0
 16 20  4  0
 17 25  1  0
 18 26  4  0
 19 29  4  0
 20 29  4  0
 21 23  1  0
 21 25  1  0
 27 29  4  0
M  END
$$$$

 Created by Python create_sdf_string function

 29 32  0  0  0  0  0  0  0  0999 V2000
    5.4450    8.7154   22.6662 C   0  0  0  0  0  0  0  0  0  0  0  0
   10.9154    5.4574   20.5483 C   0  0  0  0  0  0  0  0  0  0  0  0
    7.2709    4.5089   22.7542 C   0  0  0  0  0  0  0  0  0  0  0  0
    5.9698    7.6329   24.6581 C   0  0  0  0  0  0  0  0  0  0  0  0
    4.5542    8.9057   21.7104 O   0  0  0  0  0  0  0  0  0  0  0  0
    6.9895    3.2085   23.0690 C   0  0  0  0  0  0  0  0  0  0  0  0
    7.8391    2.2253   22.7260 N   0  0  0  0  0  0  0  0  0  0  0  0
    8.6968    9.8373   23.6359 C   0  0  0  0  0  0  0  0  0  0  0  0
   12.5135    6.5957   21.8396 C   0  0  0  0  0  0  0  0  0  0  0  0
   10.9406    8.2330   21.1350 C   0  0  0  0  0  0  0  0  0  0  0  0
    9.6648    8.5956   21.7310 C   0  0  0  0  0  0  0  0  0  0  0  0
   10.8829    1.7153   20.9865 C   0  0  0  0  0  0  0  0  0  0  0  0
    5.7768    2.8533   23.7910 C   0  0  0  0  0  0  0  0  0  0  0  0
    9.7977    1.4791   21.6912 N   0  0  0  0  0  0  0  0  0  0  0  0
    6.5976    9.3401   22.6478 N   0  0  0  0  0  0  0  0  0  0  0  0
   11.2031    3.0042   20.6246 C   0  0  0  0  0  0  0  0  0  0  0  0
   12.8688    7.7370   22.7287 C   0  0  0  0  0  0  0  0  0  0  0  0
    7.4487    9.1361   23.6506 C   0  0  0  0  0  0  0  0  0  0  0  0
    8.9772    2.5025   22.0273 C   0  0  0  0  0  0  0  0  0  0  0  0
   10.4859    4.0901   20.9730 C   0  0  0  0  0  0  0  0  0  0  0  0
   11.0962    9.3293   23.5072 C   0  0  0  0  0  0  0  0  0  0  0  0
    5.1273    7.8529   23.6208 N   0  0  0  0  0  0  0  0  0  0  0  0
    9.7552    9.2338   23.0171 N   0  0  0  0  0  0  0  0  0  0  0  0
   11.1797    6.7591   21.3326 N   0  0  0  0  0  0  0  0  0  0  0  0
   11.7728    8.0337   23.7267 C   0  0  0  0  0  0  0  0  0  0  0  0
    7.1194    8.3344   24.6775 C   0  0  0  0  0  0  0  0  0  0  0  0
    8.4311    4.7963   22.0500 C   0  0  0  0  0  0  0  0  0  0  0  0
    8.7393   10.8706   24.1871 O   0  0  0  0  0  0  0  0  0  0  0  0
    9.3093    3.8166   21.6712 C   0  0  0  0  0  0  0  0  0  0  0  0
  1  5  1  0
  1 15  4  0
  1 22  4  0
  2 20  1  0
  2 24  1  0
  3  6  4  0
  3 27  4  0
  4 22  4  0
  4 26  4  0
  6  7  4  0
  6 13  1  0
  7 19  4  0
  8 18  1  0
  8 23  1  0
  8 28  2  0
  9 17  1  0
  9 24  1  0
 10 11  1  0
 10 24  1  0
 11 23  1  0
 12 14  4  0
 12 16  4  0
 14 19  4  0
 15 18  4  0
 16 20  4  0
 17 25  1  0
 18 26  4  0
 19 29  4  0
 20 29  4  0
 21 23  1  0
 21 25  1  0
 27 29  4  0
M  END
$$$$

 Created by Python create_sdf_string function

 29 32  0  0  0  0  0  0  0  0999 V2000
    5.4450    8.7154   22.6662 C   0  0  0  0  0  0  0  0  0  0  0  0
   10.9154    5.4574   20.5483 C   0  0  0  0  0  0  0  0  0  0  0  0
    7.2709    4.5089   22.7542 C   0  0  0  0  0  0  0  0  0  0  0  0
    5.9698    7.6329   24.6581 C   0  0  0  0  0  0  0  0  0  0  0  0
    4.5542    8.9057   21.7104 O   0  0  0  0  0  0  0  0  0  0  0  0
    6.9895    3.2085   23.0690 C   0  0  0  0  0  0  0  0  0  0  0  0
    7.8391    2.2253   22.7260 N   0  0  0  0  0  0  0  0  0  0  0  0
    8.6968    9.8373   23.6359 C   0  0  0  0  0  0  0  0  0  0  0  0
   12.5135    6.5957   21.8396 C   0  0  0  0  0  0  0  0  0  0  0  0
   10.9406    8.2330   21.1350 C   0  0  0  0  0  0  0  0  0  0  0  0
    9.6648    8.5956   21.7310 C   0  0  0  0  0  0  0  0  0  0  0  0
   10.8829    1.7153   20.9865 C   0  0  0  0  0  0  0  0  0  0  0  0
    5.7768    2.8533   23.7910 C   0  0  0  0  0  0  0  0  0  0  0  0
    9.7977    1.4791   21.6912 N   0  0  0  0  0  0  0  0  0  0  0  0
    6.5976    9.3401   22.6478 N   0  0  0  0  0  0  0  0  0  0  0  0
   11.2031    3.0042   20.6246 C   0  0  0  0  0  0  0  0  0  0  0  0
   12.8688    7.7370   22.7287 C   0  0  0  0  0  0  0  0  0  0  0  0
    7.4487    9.1361   23.6506 C   0  0  0  0  0  0  0  0  0  0  0  0
    8.9772    2.5025   22.0273 C   0  0  0  0  0  0  0  0  0  0  0  0
   10.4859    4.0901   20.9730 C   0  0  0  0  0  0  0  0  0  0  0  0
   11.0962    9.3293   23.5072 C   0  0  0  0  0  0  0  0  0  0  0  0
    5.1273    7.8529   23.6208 N   0  0  0  0  0  0  0  0  0  0  0  0
    9.7552    9.2338   23.0171 N   0  0  0  0  0  0  0  0  0  0  0  0
   11.1797    6.7591   21.3326 N   0  0  0  0  0  0  0  0  0  0  0  0
   11.7728    8.0337   23.7267 C   0  0  0  0  0  0  0  0  0  0  0  0
    7.1194    8.3344   24.6775 C   0  0  0  0  0  0  0  0  0  0  0  0
    8.4311    4.7963   22.0500 C   0  0  0  0  0  0  0  0  0  0  0  0
    8.7393   10.8706   24.1871 O   0  0  0  0  0  0  0  0  0  0  0  0
    9.3093    3.8166   21.6712 C   0  0  0  0  0  0  0  0  0  0  0  0
  1  5  1  0
  1 15  4  0
  1 22  4  0
  2 20  1  0
  2 24  1  0
  3  6  4  0
  3 27  4  0
  4 22  4  0
  4 26  4  0
  6  7  4  0
  6 13  1  0
  7 19  4  0
  8 18  1  0
  8 23  1  0
  8 28  2  0
  9 17  1  0
  9 24  1  0
 10 11  1  0
 10 24  1  0
 11 23  1  0
 12 14  4  0
 12 16  4  0
 14 19  4  0
 15 18  4  0
 16 20  4  0
 17 25  1  0
 18 26  4  0
 19 29  4  0
 20 29  4  0
 21 23  1  0
 21 25  1  0
 27 29  4  0
M  END
$$$$

 Created by Python create_sdf_string function

 29 32  0  0  0  0  0  0  0  0999 V2000
    5.4450    8.7154   22.6662 C   0  0  0  0  0  0  0  0  0  0  0  0
   10.9154    5.4574   20.5483 C   0  0  0  0  0  0  0  0  0  0  0  0
    7.2709    4.5089   22.7542 C   0  0  0  0  0  0  0  0  0  0  0  0
    5.9698    7.6329   24.6581 C   0  0  0  0  0  0  0  0  0  0  0  0
    4.5542    8.9057   21.7104 O   0  0  0  0  0  0  0  0  0  0  0  0
    6.9895    3.2085   23.0690 C   0  0  0  0  0  0  0  0  0  0  0  0
    7.8391    2.2253   22.7260 N   0  0  0  0  0  0  0  0  0  0  0  0
    8.6968    9.8373   23.6359 C   0  0  0  0  0  0  0  0  0  0  0  0
   12.5135    6.5957   21.8396 C   0  0  0  0  0  0  0  0  0  0  0  0
   10.9406    8.2330   21.1350 C   0  0  0  0  0  0  0  0  0  0  0  0
    9.6648    8.5956   21.7310 C   0  0  0  0  0  0  0  0  0  0  0  0
   10.8829    1.7153   20.9865 C   0  0  0  0  0  0  0  0  0  0  0  0
    5.7768    2.8533   23.7910 C   0  0  0  0  0  0  0  0  0  0  0  0
    9.7977    1.4791   21.6912 N   0  0  0  0  0  0  0  0  0  0  0  0
    6.5976    9.3401   22.6478 N   0  0  0  0  0  0  0  0  0  0  0  0
   11.2031    3.0042   20.6246 C   0  0  0  0  0  0  0  0  0  0  0  0
   12.8688    7.7370   22.7287 C   0  0  0  0  0  0  0  0  0  0  0  0
    7.4487    9.1361   23.6506 C   0  0  0  0  0  0  0  0  0  0  0  0
    8.9772    2.5025   22.0273 C   0  0  0  0  0  0  0  0  0  0  0  0
   10.4859    4.0901   20.9730 C   0  0  0  0  0  0  0  0  0  0  0  0
   11.0962    9.3293   23.5072 C   0  0  0  0  0  0  0  0  0  0  0  0
    5.1273    7.8529   23.6208 N   0  0  0  0  0  0  0  0  0  0  0  0
    9.7552    9.2338   23.0171 N   0  0  0  0  0  0  0  0  0  0  0  0
   11.1797    6.7591   21.3326 N   0  0  0  0  0  0  0  0  0  0  0  0
   11.7728    8.0337   23.7267 C   0  0  0  0  0  0  0  0  0  0  0  0
    7.1194    8.3344   24.6775 C   0  0  0  0  0  0  0  0  0  0  0  0
    8.4311    4.7963   22.0500 C   0  0  0  0  0  0  0  0  0  0  0  0
    8.7393   10.8706   24.1871 O   0  0  0  0  0  0  0  0  0  0  0  0
    9.3093    3.8166   21.6712 C   0  0  0  0  0  0  0  0  0  0  0  0
  1  5  1  0
  1 15  4  0
  1 22  4  0
  2 20  1  0
  2 24  1  0
  3  6  4  0
  3 27  4  0
  4 22  4  0
  4 26  4  0
  6  7  4  0
  6 13  1  0
  7 19  4  0
  8 18  1  0
  8 23  1  0
  8 28  2  0
  9 17  1  0
  9 24  1  0
 10 11  1  0
 10 24  1  0
 11 23  1  0
 12 14  4  0
 12 16  4  0
 14 19  4  0
 15 18  4  0
 16 20  4  0
 17 25  1  0
 18 26  4  0
 19 29  4  0
 20 29  4  0
 21 23  1  0
 21 25  1  0
 27 29  4  0
M  END
$$$$

 Created by Python create_sdf_string function

 29 32  0  0  0  0  0  0  0  0999 V2000
    5.4450    8.7154   22.6662 C   0  0  0  0  0  0  0  0  0  0  0  0
   10.9154    5.4574   20.5483 C   0  0  0  0  0  0  0  0  0  0  0  0
    7.2709    4.5089   22.7542 C   0  0  0  0  0  0  0  0  0  0  0  0
    5.9698    7.6329   24.6581 C   0  0  0  0  0  0  0  0  0  0  0  0
    4.5542    8.9057   21.7104 O   0  0  0  0  0  0  0  0  0  0  0  0
    6.9895    3.2085   23.0690 C   0  0  0  0  0  0  0  0  0  0  0  0
    7.8391    2.2253   22.7260 N   0  0  0  0  0  0  0  0  0  0  0  0
    8.6968    9.8373   23.6359 C   0  0  0  0  0  0  0  0  0  0  0  0
   12.5135    6.5957   21.8396 C   0  0  0  0  0  0  0  0  0  0  0  0
   10.9406    8.2330   21.1350 C   0  0  0  0  0  0  0  0  0  0  0  0
    9.6648    8.5956   21.7310 C   0  0  0  0  0  0  0  0  0  0  0  0
   10.8829    1.7153   20.9865 C   0  0  0  0  0  0  0  0  0  0  0  0
    5.7768    2.8533   23.7910 C   0  0  0  0  0  0  0  0  0  0  0  0
    9.7977    1.4791   21.6912 N   0  0  0  0  0  0  0  0  0  0  0  0
    6.5976    9.3401   22.6478 N   0  0  0  0  0  0  0  0  0  0  0  0
   11.2031    3.0042   20.6246 C   0  0  0  0  0  0  0  0  0  0  0  0
   12.8688    7.7370   22.7287 C   0  0  0  0  0  0  0  0  0  0  0  0
    7.4487    9.1361   23.6506 C   0  0  0  0  0  0  0  0  0  0  0  0
    8.9772    2.5025   22.0273 C   0  0  0  0  0  0  0  0  0  0  0  0
   10.4859    4.0901   20.9730 C   0  0  0  0  0  0  0  0  0  0  0  0
   11.0962    9.3293   23.5072 C   0  0  0  0  0  0  0  0  0  0  0  0
    5.1273    7.8529   23.6208 N   0  0  0  0  0  0  0  0  0  0  0  0
    9.7552    9.2338   23.0171 N   0  0  0  0  0  0  0  0  0  0  0  0
   11.1797    6.7591   21.3326 N   0  0  0  0  0  0  0  0  0  0  0  0
   11.7728    8.0337   23.7267 C   0  0  0  0  0  0  0  0  0  0  0  0
    7.1194    8.3344   24.6775 C   0  0  0  0  0  0  0  0  0  0  0  0
    8.4311    4.7963   22.0500 C   0  0  0  0  0  0  0  0  0  0  0  0
    8.7393   10.8706   24.1871 O   0  0  0  0  0  0  0  0  0  0  0  0
    9.3093    3.8166   21.6712 C   0  0  0  0  0  0  0  0  0  0  0  0
  1  5  1  0
  1 15  4  0
  1 22  4  0
  2 20  1  0
  2 24  1  0
  3  6  4  0
  3 27  4  0
  4 22  4  0
  4 26  4  0
  6  7  4  0
  6 13  1  0
  7 19  4  0
  8 18  1  0
  8 23  1  0
  8 28  2  0
  9 17  1  0
  9 24  1  0
 10 11  1  0
 10 24  1  0
 11 23  1  0
 12 14  4  0
 12 16  4  0
 14 19  4  0
 15 18  4  0
 16 20  4  0
 17 25  1  0
 18 26  4  0
 19 29  4  0
 20 29  4  0
 21 23  1  0
 21 25  1  0
 27 29  4  0
M  END
$$$$

 Created by Python create_sdf_string function

 29 32  0  0  0  0  0  0  0  0999 V2000
    5.4450    8.7154   22.6662 C   0  0  0  0  0  0  0  0  0  0  0  0
   10.9154    5.4574   20.5483 C   0  0  0  0  0  0  0  0  0  0  0  0
    7.2709    4.5089   22.7542 C   0  0  0  0  0  0  0  0  0  0  0  0
    5.9698    7.6329   24.6581 C   0  0  0  0  0  0  0  0  0  0  0  0
    4.5542    8.9057   21.7104 O   0  0  0  0  0  0  0  0  0  0  0  0
    6.9895    3.2085   23.0690 C   0  0  0  0  0  0  0  0  0  0  0  0
    7.8391    2.2253   22.7260 N   0  0  0  0  0  0  0  0  0  0  0  0
    8.6968    9.8373   23.6359 C   0  0  0  0  0  0  0  0  0  0  0  0
   12.5135    6.5957   21.8396 C   0  0  0  0  0  0  0  0  0  0  0  0
   10.9406    8.2330   21.1350 C   0  0  0  0  0  0  0  0  0  0  0  0
    9.6648    8.5956   21.7310 C   0  0  0  0  0  0  0  0  0  0  0  0
   10.8829    1.7153   20.9865 C   0  0  0  0  0  0  0  0  0  0  0  0
    5.7768    2.8533   23.7910 C   0  0  0  0  0  0  0  0  0  0  0  0
    9.7977    1.4791   21.6912 N   0  0  0  0  0  0  0  0  0  0  0  0
    6.5976    9.3401   22.6478 N   0  0  0  0  0  0  0  0  0  0  0  0
   11.2031    3.0042   20.6246 C   0  0  0  0  0  0  0  0  0  0  0  0
   12.8688    7.7370   22.7287 C   0  0  0  0  0  0  0  0  0  0  0  0
    7.4487    9.1361   23.6506 C   0  0  0  0  0  0  0  0  0  0  0  0
    8.9772    2.5025   22.0273 C   0  0  0  0  0  0  0  0  0  0  0  0
   10.4859    4.0901   20.9730 C   0  0  0  0  0  0  0  0  0  0  0  0
   11.0962    9.3293   23.5072 C   0  0  0  0  0  0  0  0  0  0  0  0
    5.1273    7.8529   23.6208 N   0  0  0  0  0  0  0  0  0  0  0  0
    9.7552    9.2338   23.0171 N   0  0  0  0  0  0  0  0  0  0  0  0
   11.1797    6.7591   21.3326 N   0  0  0  0  0  0  0  0  0  0  0  0
   11.7728    8.0337   23.7267 C   0  0  0  0  0  0  0  0  0  0  0  0
    7.1194    8.3344   24.6775 C   0  0  0  0  0  0  0  0  0  0  0  0
    8.4311    4.7963   22.0500 C   0  0  0  0  0  0  0  0  0  0  0  0
    8.7393   10.8706   24.1871 O   0  0  0  0  0  0  0  0  0  0  0  0
    9.3093    3.8166   21.6712 C   0  0  0  0  0  0  0  0  0  0  0  0
  1  5  1  0
  1 15  4  0
  1 22  4  0
  2 20  1  0
  2 24  1  0
  3  6  4  0
  3 27  4  0
  4 22  4  0
  4 26  4  0
  6  7  4  0
  6 13  1  0
  7 19  4  0
  8 18  1  0
  8 23  1  0
  8 28  2  0
  9 17  1  0
  9 24  1  0
 10 11  1  0
 10 24  1  0
 11 23  1  0
 12 14  4  0
 12 16  4  0
 14 19  4  0
 15 18  4  0
 16 20  4  0
 17 25  1  0
 18 26  4  0
 19 29  4  0
 20 29  4  0
 21 23  1  0
 21 25  1  0
 27 29  4  0
M  END
$$$$

 Created by Python create_sdf_string function

 29 32  0  0  0  0  0  0  0  0999 V2000
    5.4450    8.7154   22.6662 C   0  0  0  0  0  0  0  0  0  0  0  0
   10.9154    5.4574   20.5483 C   0  0  0  0  0  0  0  0  0  0  0  0
    7.2709    4.5089   22.7542 C   0  0  0  0  0  0  0  0  0  0  0  0
    5.9698    7.6329   24.6581 C   0  0  0  0  0  0  0  0  0  0  0  0
    4.5542    8.9057   21.7104 O   0  0  0  0  0  0  0  0  0  0  0  0
    6.9895    3.2085   23.0690 C   0  0  0  0  0  0  0  0  0  0  0  0
    7.8391    2.2253   22.7260 N   0  0  0  0  0  0  0  0  0  0  0  0
    8.6968    9.8373   23.6359 C   0  0  0  0  0  0  0  0  0  0  0  0
   12.5135    6.5957   21.8396 C   0  0  0  0  0  0  0  0  0  0  0  0
   10.9406    8.2330   21.1350 C   0  0  0  0  0  0  0  0  0  0  0  0
    9.6648    8.5956   21.7310 C   0  0  0  0  0  0  0  0  0  0  0  0
   10.8829    1.7153   20.9865 C   0  0  0  0  0  0  0  0  0  0  0  0
    5.7768    2.8533   23.7910 C   0  0  0  0  0  0  0  0  0  0  0  0
    9.7977    1.4791   21.6912 N   0  0  0  0  0  0  0  0  0  0  0  0
    6.5976    9.3401   22.6478 N   0  0  0  0  0  0  0  0  0  0  0  0
   11.2031    3.0042   20.6246 C   0  0  0  0  0  0  0  0  0  0  0  0
   12.8688    7.7370   22.7287 C   0  0  0  0  0  0  0  0  0  0  0  0
    7.4487    9.1361   23.6506 C   0  0  0  0  0  0  0  0  0  0  0  0
    8.9772    2.5025   22.0273 C   0  0  0  0  0  0  0  0  0  0  0  0
   10.4859    4.0901   20.9730 C   0  0  0  0  0  0  0  0  0  0  0  0
   11.0962    9.3293   23.5072 C   0  0  0  0  0  0  0  0  0  0  0  0
    5.1273    7.8529   23.6208 N   0  0  0  0  0  0  0  0  0  0  0  0
    9.7552    9.2338   23.0171 N   0  0  0  0  0  0  0  0  0  0  0  0
   11.1797    6.7591   21.3326 N   0  0  0  0  0  0  0  0  0  0  0  0
   11.7728    8.0337   23.7267 C   0  0  0  0  0  0  0  0  0  0  0  0
    7.1194    8.3344   24.6775 C   0  0  0  0  0  0  0  0  0  0  0  0
    8.4311    4.7963   22.0500 C   0  0  0  0  0  0  0  0  0  0  0  0
    8.7393   10.8706   24.1871 O   0  0  0  0  0  0  0  0  0  0  0  0
    9.3093    3.8166   21.6712 C   0  0  0  0  0  0  0  0  0  0  0  0
  1  5  1  0
  1 15  4  0
  1 22  4  0
  2 20  1  0
  2 24  1  0
  3  6  4  0
  3 27  4  0
  4 22  4  0
  4 26  4  0
  6  7  4  0
  6 13  1  0
  7 19  4  0
  8 18  1  0
  8 23  1  0
  8 28  2  0
  9 17  1  0
  9 24  1  0
 10 11  1  0
 10 24  1  0
 11 23  1  0
 12 14  4  0
 12 16  4  0
 14 19  4  0
 15 18  4  0
 16 20  4  0
 17 25  1  0
 18 26  4  0
 19 29  4  0
 20 29  4  0
 21 23  1  0
 21 25  1  0
 27 29  4  0
M  END
$$$$

 Created by Python create_sdf_string function

 29 32  0  0  0  0  0  0  0  0999 V2000
    5.4450    8.7154   22.6662 C   0  0  0  0  0  0  0  0  0  0  0  0
   10.9154    5.4574   20.5483 C   0  0  0  0  0  0  0  0  0  0  0  0
    7.2709    4.5089   22.7542 C   0  0  0  0  0  0  0  0  0  0  0  0
    5.9698    7.6329   24.6581 C   0  0  0  0  0  0  0  0  0  0  0  0
    4.5542    8.9057   21.7104 O   0  0  0  0  0  0  0  0  0  0  0  0
    6.9895    3.2085   23.0690 C   0  0  0  0  0  0  0  0  0  0  0  0
    7.8391    2.2253   22.7260 N   0  0  0  0  0  0  0  0  0  0  0  0
    8.6968    9.8373   23.6359 C   0  0  0  0  0  0  0  0  0  0  0  0
   12.5135    6.5957   21.8396 C   0  0  0  0  0  0  0  0  0  0  0  0
   10.9406    8.2330   21.1350 C   0  0  0  0  0  0  0  0  0  0  0  0
    9.6648    8.5956   21.7310 C   0  0  0  0  0  0  0  0  0  0  0  0
   10.8829    1.7153   20.9865 C   0  0  0  0  0  0  0  0  0  0  0  0
    5.7768    2.8533   23.7910 C   0  0  0  0  0  0  0  0  0  0  0  0
    9.7977    1.4791   21.6912 N   0  0  0  0  0  0  0  0  0  0  0  0
    6.5976    9.3401   22.6478 N   0  0  0  0  0  0  0  0  0  0  0  0
   11.2031    3.0042   20.6246 C   0  0  0  0  0  0  0  0  0  0  0  0
   12.8688    7.7370   22.7287 C   0  0  0  0  0  0  0  0  0  0  0  0
    7.4487    9.1361   23.6506 C   0  0  0  0  0  0  0  0  0  0  0  0
    8.9772    2.5025   22.0273 C   0  0  0  0  0  0  0  0  0  0  0  0
   10.4859    4.0901   20.9730 C   0  0  0  0  0  0  0  0  0  0  0  0
   11.0962    9.3293   23.5072 C   0  0  0  0  0  0  0  0  0  0  0  0
    5.1273    7.8529   23.6208 N   0  0  0  0  0  0  0  0  0  0  0  0
    9.7552    9.2338   23.0171 N   0  0  0  0  0  0  0  0  0  0  0  0
   11.1797    6.7591   21.3326 N   0  0  0  0  0  0  0  0  0  0  0  0
   11.7728    8.0337   23.7267 C   0  0  0  0  0  0  0  0  0  0  0  0
    7.1194    8.3344   24.6775 C   0  0  0  0  0  0  0  0  0  0  0  0
    8.4311    4.7963   22.0500 C   0  0  0  0  0  0  0  0  0  0  0  0
    8.7393   10.8706   24.1871 O   0  0  0  0  0  0  0  0  0  0  0  0
    9.3093    3.8166   21.6712 C   0  0  0  0  0  0  0  0  0  0  0  0
  1  5  1  0
  1 15  4  0
  1 22  4  0
  2 20  1  0
  2 24  1  0
  3  6  4  0
  3 27  4  0
  4 22  4  0
  4 26  4  0
  6  7  4  0
  6 13  1  0
  7 19  4  0
  8 18  1  0
  8 23  1  0
  8 28  2  0
  9 17  1  0
  9 24  1  0
 10 11  1  0
 10 24  1  0
 11 23  1  0
 12 14  4  0
 12 16  4  0
 14 19  4  0
 15 18  4  0
 16 20  4  0
 17 25  1  0
 18 26  4  0
 19 29  4  0
 20 29  4  0
 21 23  1  0
 21 25  1  0
 27 29  4  0
M  END
$$$$

 Created by Python create_sdf_string function

 29 32  0  0  0  0  0  0  0  0999 V2000
    5.4450    8.7154   22.6662 C   0  0  0  0  0  0  0  0  0  0  0  0
   10.9154    5.4574   20.5483 C   0  0  0  0  0  0  0  0  0  0  0  0
    7.2709    4.5089   22.7542 C   0  0  0  0  0  0  0  0  0  0  0  0
    5.9698    7.6329   24.6581 C   0  0  0  0  0  0  0  0  0  0  0  0
    4.5542    8.9057   21.7104 O   0  0  0  0  0  0  0  0  0  0  0  0
    6.9895    3.2085   23.0690 C   0  0  0  0  0  0  0  0  0  0  0  0
    7.8391    2.2253   22.7260 N   0  0  0  0  0  0  0  0  0  0  0  0
    8.6968    9.8373   23.6359 C   0  0  0  0  0  0  0  0  0  0  0  0
   12.5135    6.5957   21.8396 C   0  0  0  0  0  0  0  0  0  0  0  0
   10.9406    8.2330   21.1350 C   0  0  0  0  0  0  0  0  0  0  0  0
    9.6648    8.5956   21.7310 C   0  0  0  0  0  0  0  0  0  0  0  0
   10.8829    1.7153   20.9865 C   0  0  0  0  0  0  0  0  0  0  0  0
    5.7768    2.8533   23.7910 C   0  0  0  0  0  0  0  0  0  0  0  0
    9.7977    1.4791   21.6912 N   0  0  0  0  0  0  0  0  0  0  0  0
    6.5976    9.3401   22.6478 N   0  0  0  0  0  0  0  0  0  0  0  0
   11.2031    3.0042   20.6246 C   0  0  0  0  0  0  0  0  0  0  0  0
   12.8688    7.7370   22.7287 C   0  0  0  0  0  0  0  0  0  0  0  0
    7.4487    9.1361   23.6506 C   0  0  0  0  0  0  0  0  0  0  0  0
    8.9772    2.5025   22.0273 C   0  0  0  0  0  0  0  0  0  0  0  0
   10.4859    4.0901   20.9730 C   0  0  0  0  0  0  0  0  0  0  0  0
   11.0962    9.3293   23.5072 C   0  0  0  0  0  0  0  0  0  0  0  0
    5.1273    7.8529   23.6208 N   0  0  0  0  0  0  0  0  0  0  0  0
    9.7552    9.2338   23.0171 N   0  0  0  0  0  0  0  0  0  0  0  0
   11.1797    6.7591   21.3326 N   0  0  0  0  0  0  0  0  0  0  0  0
   11.7728    8.0337   23.7267 C   0  0  0  0  0  0  0  0  0  0  0  0
    7.1194    8.3344   24.6775 C   0  0  0  0  0  0  0  0  0  0  0  0
    8.4311    4.7963   22.0500 C   0  0  0  0  0  0  0  0  0  0  0  0
    8.7393   10.8706   24.1871 O   0  0  0  0  0  0  0  0  0  0  0  0
    9.3093    3.8166   21.6712 C   0  0  0  0  0  0  0  0  0  0  0  0
  1  5  1  0
  1 15  4  0
  1 22  4  0
  2 20  1  0
  2 24  1  0
  3  6  4  0
  3 27  4  0
  4 22  4  0
  4 26  4  0
  6  7  4  0
  6 13  1  0
  7 19  4  0
  8 18  1  0
  8 23  1  0
  8 28  2  0
  9 17  1  0
  9 24  1  0
 10 11  1  0
 10 24  1  0
 11 23  1  0
 12 14  4  0
 12 16  4  0
 14 19  4  0
 15 18  4  0
 16 20  4  0
 17 25  1  0
 18 26  4  0
 19 29  4  0
 20 29  4  0
 21 23  1  0
 21 25  1  0
 27 29  4  0
M  END
$$$$

 Created by Python create_sdf_string function

 29 32  0  0  0  0  0  0  0  0999 V2000
    5.4450    8.7154   22.6662 C   0  0  0  0  0  0  0  0  0  0  0  0
   10.9154    5.4574   20.5483 C   0  0  0  0  0  0  0  0  0  0  0  0
    7.2709    4.5089   22.7542 C   0  0  0  0  0  0  0  0  0  0  0  0
    5.9698    7.6329   24.6581 C   0  0  0  0  0  0  0  0  0  0  0  0
    4.5542    8.9057   21.7104 O   0  0  0  0  0  0  0  0  0  0  0  0
    6.9895    3.2085   23.0690 C   0  0  0  0  0  0  0  0  0  0  0  0
    7.8391    2.2253   22.7260 N   0  0  0  0  0  0  0  0  0  0  0  0
    8.6968    9.8373   23.6359 C   0  0  0  0  0  0  0  0  0  0  0  0
   12.5135    6.5957   21.8396 C   0  0  0  0  0  0  0  0  0  0  0  0
   10.9406    8.2330   21.1350 C   0  0  0  0  0  0  0  0  0  0  0  0
    9.6648    8.5956   21.7310 C   0  0  0  0  0  0  0  0  0  0  0  0
   10.8829    1.7153   20.9865 C   0  0  0  0  0  0  0  0  0  0  0  0
    5.7768    2.8533   23.7910 C   0  0  0  0  0  0  0  0  0  0  0  0
    9.7977    1.4791   21.6912 N   0  0  0  0  0  0  0  0  0  0  0  0
    6.5976    9.3401   22.6478 N   0  0  0  0  0  0  0  0  0  0  0  0
   11.2031    3.0042   20.6246 C   0  0  0  0  0  0  0  0  0  0  0  0
   12.8688    7.7370   22.7287 C   0  0  0  0  0  0  0  0  0  0  0  0
    7.4487    9.1361   23.6506 C   0  0  0  0  0  0  0  0  0  0  0  0
    8.9772    2.5025   22.0273 C   0  0  0  0  0  0  0  0  0  0  0  0
   10.4859    4.0901   20.9730 C   0  0  0  0  0  0  0  0  0  0  0  0
   11.0962    9.3293   23.5072 C   0  0  0  0  0  0  0  0  0  0  0  0
    5.1273    7.8529   23.6208 N   0  0  0  0  0  0  0  0  0  0  0  0
    9.7552    9.2338   23.0171 N   0  0  0  0  0  0  0  0  0  0  0  0
   11.1797    6.7591   21.3326 N   0  0  0  0  0  0  0  0  0  0  0  0
   11.7728    8.0337   23.7267 C   0  0  0  0  0  0  0  0  0  0  0  0
    7.1194    8.3344   24.6775 C   0  0  0  0  0  0  0  0  0  0  0  0
    8.4311    4.7963   22.0500 C   0  0  0  0  0  0  0  0  0  0  0  0
    8.7393   10.8706   24.1871 O   0  0  0  0  0  0  0  0  0  0  0  0
    9.3093    3.8166   21.6712 C   0  0  0  0  0  0  0  0  0  0  0  0
  1  5  1  0
  1 15  4  0
  1 22  4  0
  2 20  1  0
  2 24  1  0
  3  6  4  0
  3 27  4  0
  4 22  4  0
  4 26  4  0
  6  7  4  0
  6 13  1  0
  7 19  4  0
  8 18  1  0
  8 23  1  0
  8 28  2  0
  9 17  1  0
  9 24  1  0
 10 11  1  0
 10 24  1  0
 11 23  1  0
 12 14  4  0
 12 16  4  0
 14 19  4  0
 15 18  4  0
 16 20  4  0
 17 25  1  0
 18 26  4  0
 19 29  4  0
 20 29  4  0
 21 23  1  0
 21 25  1  0
 27 29  4  0
M  END
$$$$

 Created by Python create_sdf_string function

 29 32  0  0  0  0  0  0  0  0999 V2000
    5.4450    8.7154   22.6662 C   0  0  0  0  0  0  0  0  0  0  0  0
   10.9154    5.4574   20.5483 C   0  0  0  0  0  0  0  0  0  0  0  0
    7.2709    4.5089   22.7542 C   0  0  0  0  0  0  0  0  0  0  0  0
    5.9698    7.6329   24.6581 C   0  0  0  0  0  0  0  0  0  0  0  0
    4.5542    8.9057   21.7104 O   0  0  0  0  0  0  0  0  0  0  0  0
    6.9895    3.2085   23.0690 C   0  0  0  0  0  0  0  0  0  0  0  0
    7.8391    2.2253   22.7260 N   0  0  0  0  0  0  0  0  0  0  0  0
    8.6968    9.8373   23.6359 C   0  0  0  0  0  0  0  0  0  0  0  0
   12.5135    6.5957   21.8396 C   0  0  0  0  0  0  0  0  0  0  0  0
   10.9406    8.2330   21.1350 C   0  0  0  0  0  0  0  0  0  0  0  0
    9.6648    8.5956   21.7310 C   0  0  0  0  0  0  0  0  0  0  0  0
   10.8829    1.7153   20.9865 C   0  0  0  0  0  0  0  0  0  0  0  0
    5.7768    2.8533   23.7910 C   0  0  0  0  0  0  0  0  0  0  0  0
    9.7977    1.4791   21.6912 N   0  0  0  0  0  0  0  0  0  0  0  0
    6.5976    9.3401   22.6478 N   0  0  0  0  0  0  0  0  0  0  0  0
   11.2031    3.0042   20.6246 C   0  0  0  0  0  0  0  0  0  0  0  0
   12.8688    7.7370   22.7287 C   0  0  0  0  0  0  0  0  0  0  0  0
    7.4487    9.1361   23.6506 C   0  0  0  0  0  0  0  0  0  0  0  0
    8.9772    2.5025   22.0273 C   0  0  0  0  0  0  0  0  0  0  0  0
   10.4859    4.0901   20.9730 C   0  0  0  0  0  0  0  0  0  0  0  0
   11.0962    9.3293   23.5072 C   0  0  0  0  0  0  0  0  0  0  0  0
    5.1273    7.8529   23.6208 N   0  0  0  0  0  0  0  0  0  0  0  0
    9.7552    9.2338   23.0171 N   0  0  0  0  0  0  0  0  0  0  0  0
   11.1797    6.7591   21.3326 N   0  0  0  0  0  0  0  0  0  0  0  0
   11.7728    8.0337   23.7267 C   0  0  0  0  0  0  0  0  0  0  0  0
    7.1194    8.3344   24.6775 C   0  0  0  0  0  0  0  0  0  0  0  0
    8.4311    4.7963   22.0500 C   0  0  0  0  0  0  0  0  0  0  0  0
    8.7393   10.8706   24.1871 O   0  0  0  0  0  0  0  0  0  0  0  0
    9.3093    3.8166   21.6712 C   0  0  0  0  0  0  0  0  0  0  0  0
  1  5  1  0
  1 15  4  0
  1 22  4  0
  2 20  1  0
  2 24  1  0
  3  6  4  0
  3 27  4  0
  4 22  4  0
  4 26  4  0
  6  7  4  0
  6 13  1  0
  7 19  4  0
  8 18  1  0
  8 23  1  0
  8 28  2  0
  9 17  1  0
  9 24  1  0
 10 11  1  0
 10 24  1  0
 11 23  1  0
 12 14  4  0
 12 16  4  0
 14 19  4  0
 15 18  4  0
 16 20  4  0
 17 25  1  0
 18 26  4  0
 19 29  4  0
 20 29  4  0
 21 23  1  0
 21 25  1  0
 27 29  4  0
M  END
$$$$

 Created by Python create_sdf_string function

 29 32  0  0  0  0  0  0  0  0999 V2000
    5.4450    8.7154   22.6662 C   0  0  0  0  0  0  0  0  0  0  0  0
   10.9154    5.4574   20.5483 C   0  0  0  0  0  0  0  0  0  0  0  0
    7.2709    4.5089   22.7542 C   0  0  0  0  0  0  0  0  0  0  0  0
    5.9698    7.6329   24.6581 C   0  0  0  0  0  0  0  0  0  0  0  0
    4.5542    8.9057   21.7104 O   0  0  0  0  0  0  0  0  0  0  0  0
    6.9895    3.2085   23.0690 C   0  0  0  0  0  0  0  0  0  0  0  0
    7.8391    2.2253   22.7260 N   0  0  0  0  0  0  0  0  0  0  0  0
    8.6968    9.8373   23.6359 C   0  0  0  0  0  0  0  0  0  0  0  0
   12.5135    6.5957   21.8396 C   0  0  0  0  0  0  0  0  0  0  0  0
   10.9406    8.2330   21.1350 C   0  0  0  0  0  0  0  0  0  0  0  0
    9.6648    8.5956   21.7310 C   0  0  0  0  0  0  0  0  0  0  0  0
   10.8829    1.7153   20.9865 C   0  0  0  0  0  0  0  0  0  0  0  0
    5.7768    2.8533   23.7910 C   0  0  0  0  0  0  0  0  0  0  0  0
    9.7977    1.4791   21.6912 N   0  0  0  0  0  0  0  0  0  0  0  0
    6.5976    9.3401   22.6478 N   0  0  0  0  0  0  0  0  0  0  0  0
   11.2031    3.0042   20.6246 C   0  0  0  0  0  0  0  0  0  0  0  0
   12.8688    7.7370   22.7287 C   0  0  0  0  0  0  0  0  0  0  0  0
    7.4487    9.1361   23.6506 C   0  0  0  0  0  0  0  0  0  0  0  0
    8.9772    2.5025   22.0273 C   0  0  0  0  0  0  0  0  0  0  0  0
   10.4859    4.0901   20.9730 C   0  0  0  0  0  0  0  0  0  0  0  0
   11.0962    9.3293   23.5072 C   0  0  0  0  0  0  0  0  0  0  0  0
    5.1273    7.8529   23.6208 N   0  0  0  0  0  0  0  0  0  0  0  0
    9.7552    9.2338   23.0171 N   0  0  0  0  0  0  0  0  0  0  0  0
   11.1797    6.7591   21.3326 N   0  0  0  0  0  0  0  0  0  0  0  0
   11.7728    8.0337   23.7267 C   0  0  0  0  0  0  0  0  0  0  0  0
    7.1194    8.3344   24.6775 C   0  0  0  0  0  0  0  0  0  0  0  0
    8.4311    4.7963   22.0500 C   0  0  0  0  0  0  0  0  0  0  0  0
    8.7393   10.8706   24.1871 O   0  0  0  0  0  0  0  0  0  0  0  0
    9.3093    3.8166   21.6712 C   0  0  0  0  0  0  0  0  0  0  0  0
  1  5  1  0
  1 15  4  0
  1 22  4  0
  2 20  1  0
  2 24  1  0
  3  6  4  0
  3 27  4  0
  4 22  4  0
  4 26  4  0
  6  7  4  0
  6 13  1  0
  7 19  4  0
  8 18  1  0
  8 23  1  0
  8 28  2  0
  9 17  1  0
  9 24  1  0
 10 11  1  0
 10 24  1  0
 11 23  1  0
 12 14  4  0
 12 16  4  0
 14 19  4  0
 15 18  4  0
 16 20  4  0
 17 25  1  0
 18 26  4  0
 19 29  4  0
 20 29  4  0
 21 23  1  0
 21 25  1  0
 27 29  4  0
M  END
$$$$

 Created by Python create_sdf_string function

 29 32  0  0  0  0  0  0  0  0999 V2000
    5.4450    8.7154   22.6662 C   0  0  0  0  0  0  0  0  0  0  0  0
   10.9154    5.4574   20.5483 C   0  0  0  0  0  0  0  0  0  0  0  0
    7.2709    4.5089   22.7542 C   0  0  0  0  0  0  0  0  0  0  0  0
    5.9698    7.6329   24.6581 C   0  0  0  0  0  0  0  0  0  0  0  0
    4.5542    8.9057   21.7104 O   0  0  0  0  0  0  0  0  0  0  0  0
    6.9895    3.2085   23.0690 C   0  0  0  0  0  0  0  0  0  0  0  0
    7.8391    2.2253   22.7260 N   0  0  0  0  0  0  0  0  0  0  0  0
    8.6968    9.8373   23.6359 C   0  0  0  0  0  0  0  0  0  0  0  0
   12.5135    6.5957   21.8396 C   0  0  0  0  0  0  0  0  0  0  0  0
   10.9406    8.2330   21.1350 C   0  0  0  0  0  0  0  0  0  0  0  0
    9.6648    8.5956   21.7310 C   0  0  0  0  0  0  0  0  0  0  0  0
   10.8829    1.7153   20.9865 C   0  0  0  0  0  0  0  0  0  0  0  0
    5.7768    2.8533   23.7910 C   0  0  0  0  0  0  0  0  0  0  0  0
    9.7977    1.4791   21.6912 N   0  0  0  0  0  0  0  0  0  0  0  0
    6.5976    9.3401   22.6478 N   0  0  0  0  0  0  0  0  0  0  0  0
   11.2031    3.0042   20.6246 C   0  0  0  0  0  0  0  0  0  0  0  0
   12.8688    7.7370   22.7287 C   0  0  0  0  0  0  0  0  0  0  0  0
    7.4487    9.1361   23.6506 C   0  0  0  0  0  0  0  0  0  0  0  0
    8.9772    2.5025   22.0273 C   0  0  0  0  0  0  0  0  0  0  0  0
   10.4859    4.0901   20.9730 C   0  0  0  0  0  0  0  0  0  0  0  0
   11.0962    9.3293   23.5072 C   0  0  0  0  0  0  0  0  0  0  0  0
    5.1273    7.8529   23.6208 N   0  0  0  0  0  0  0  0  0  0  0  0
    9.7552    9.2338   23.0171 N   0  0  0  0  0  0  0  0  0  0  0  0
   11.1797    6.7591   21.3326 N   0  0  0  0  0  0  0  0  0  0  0  0
   11.7728    8.0337   23.7267 C   0  0  0  0  0  0  0  0  0  0  0  0
    7.1194    8.3344   24.6775 C   0  0  0  0  0  0  0  0  0  0  0  0
    8.4311    4.7963   22.0500 C   0  0  0  0  0  0  0  0  0  0  0  0
    8.7393   10.8706   24.1871 O   0  0  0  0  0  0  0  0  0  0  0  0
    9.3093    3.8166   21.6712 C   0  0  0  0  0  0  0  0  0  0  0  0
  1  5  1  0
  1 15  4  0
  1 22  4  0
  2 20  1  0
  2 24  1  0
  3  6  4  0
  3 27  4  0
  4 22  4  0
  4 26  4  0
  6  7  4  0
  6 13  1  0
  7 19  4  0
  8 18  1  0
  8 23  1  0
  8 28  2  0
  9 17  1  0
  9 24  1  0
 10 11  1  0
 10 24  1  0
 11 23  1  0
 12 14  4  0
 12 16  4  0
 14 19  4  0
 15 18  4  0
 16 20  4  0
 17 25  1  0
 18 26  4  0
 19 29  4  0
 20 29  4  0
 21 23  1  0
 21 25  1  0
 27 29  4  0
M  END
$$$$

 Created by Python create_sdf_string function

 29 32  0  0  0  0  0  0  0  0999 V2000
    5.4450    8.7154   22.6662 C   0  0  0  0  0  0  0  0  0  0  0  0
   10.9154    5.4574   20.5483 C   0  0  0  0  0  0  0  0  0  0  0  0
    7.2709    4.5089   22.7542 C   0  0  0  0  0  0  0  0  0  0  0  0
    5.9698    7.6329   24.6581 C   0  0  0  0  0  0  0  0  0  0  0  0
    4.5542    8.9057   21.7104 O   0  0  0  0  0  0  0  0  0  0  0  0
    6.9895    3.2085   23.0690 C   0  0  0  0  0  0  0  0  0  0  0  0
    7.8391    2.2253   22.7260 N   0  0  0  0  0  0  0  0  0  0  0  0
    8.6968    9.8373   23.6359 C   0  0  0  0  0  0  0  0  0  0  0  0
   12.5135    6.5957   21.8396 C   0  0  0  0  0  0  0  0  0  0  0  0
   10.9406    8.2330   21.1350 C   0  0  0  0  0  0  0  0  0  0  0  0
    9.6648    8.5956   21.7310 C   0  0  0  0  0  0  0  0  0  0  0  0
   10.8829    1.7153   20.9865 C   0  0  0  0  0  0  0  0  0  0  0  0
    5.7768    2.8533   23.7910 C   0  0  0  0  0  0  0  0  0  0  0  0
    9.7977    1.4791   21.6912 N   0  0  0  0  0  0  0  0  0  0  0  0
    6.5976    9.3401   22.6478 N   0  0  0  0  0  0  0  0  0  0  0  0
   11.2031    3.0042   20.6246 C   0  0  0  0  0  0  0  0  0  0  0  0
   12.8688    7.7370   22.7287 C   0  0  0  0  0  0  0  0  0  0  0  0
    7.4487    9.1361   23.6506 C   0  0  0  0  0  0  0  0  0  0  0  0
    8.9772    2.5025   22.0273 C   0  0  0  0  0  0  0  0  0  0  0  0
   10.4859    4.0901   20.9730 C   0  0  0  0  0  0  0  0  0  0  0  0
   11.0962    9.3293   23.5072 C   0  0  0  0  0  0  0  0  0  0  0  0
    5.1273    7.8529   23.6208 N   0  0  0  0  0  0  0  0  0  0  0  0
    9.7552    9.2338   23.0171 N   0  0  0  0  0  0  0  0  0  0  0  0
   11.1797    6.7591   21.3326 N   0  0  0  0  0  0  0  0  0  0  0  0
   11.7728    8.0337   23.7267 C   0  0  0  0  0  0  0  0  0  0  0  0
    7.1194    8.3344   24.6775 C   0  0  0  0  0  0  0  0  0  0  0  0
    8.4311    4.7963   22.0500 C   0  0  0  0  0  0  0  0  0  0  0  0
    8.7393   10.8706   24.1871 O   0  0  0  0  0  0  0  0  0  0  0  0
    9.3093    3.8166   21.6712 C   0  0  0  0  0  0  0  0  0  0  0  0
  1  5  1  0
  1 15  4  0
  1 22  4  0
  2 20  1  0
  2 24  1  0
  3  6  4  0
  3 27  4  0
  4 22  4  0
  4 26  4  0
  6  7  4  0
  6 13  1  0
  7 19  4  0
  8 18  1  0
  8 23  1  0
  8 28  2  0
  9 17  1  0
  9 24  1  0
 10 11  1  0
 10 24  1  0
 11 23  1  0
 12 14  4  0
 12 16  4  0
 14 19  4  0
 15 18  4  0
 16 20  4  0
 17 25  1  0
 18 26  4  0
 19 29  4  0
 20 29  4  0
 21 23  1  0
 21 25  1  0
 27 29  4  0
M  END
$$$$

 Created by Python create_sdf_string function

 29 32  0  0  0  0  0  0  0  0999 V2000
    5.4450    8.7154   22.6662 C   0  0  0  0  0  0  0  0  0  0  0  0
   10.9154    5.4574   20.5483 C   0  0  0  0  0  0  0  0  0  0  0  0
    7.2709    4.5089   22.7542 C   0  0  0  0  0  0  0  0  0  0  0  0
    5.9698    7.6329   24.6581 C   0  0  0  0  0  0  0  0  0  0  0  0
    4.5542    8.9057   21.7104 O   0  0  0  0  0  0  0  0  0  0  0  0
    6.9895    3.2085   23.0690 C   0  0  0  0  0  0  0  0  0  0  0  0
    7.8391    2.2253   22.7260 N   0  0  0  0  0  0  0  0  0  0  0  0
    8.6968    9.8373   23.6359 C   0  0  0  0  0  0  0  0  0  0  0  0
   12.5135    6.5957   21.8396 C   0  0  0  0  0  0  0  0  0  0  0  0
   10.9406    8.2330   21.1350 C   0  0  0  0  0  0  0  0  0  0  0  0
    9.6648    8.5956   21.7310 C   0  0  0  0  0  0  0  0  0  0  0  0
   10.8829    1.7153   20.9865 C   0  0  0  0  0  0  0  0  0  0  0  0
    5.7768    2.8533   23.7910 C   0  0  0  0  0  0  0  0  0  0  0  0
    9.7977    1.4791   21.6912 N   0  0  0  0  0  0  0  0  0  0  0  0
    6.5976    9.3401   22.6478 N   0  0  0  0  0  0  0  0  0  0  0  0
   11.2031    3.0042   20.6246 C   0  0  0  0  0  0  0  0  0  0  0  0
   12.8688    7.7370   22.7287 C   0  0  0  0  0  0  0  0  0  0  0  0
    7.4487    9.1361   23.6506 C   0  0  0  0  0  0  0  0  0  0  0  0
    8.9772    2.5025   22.0273 C   0  0  0  0  0  0  0  0  0  0  0  0
   10.4859    4.0901   20.9730 C   0  0  0  0  0  0  0  0  0  0  0  0
   11.0962    9.3293   23.5072 C   0  0  0  0  0  0  0  0  0  0  0  0
    5.1273    7.8529   23.6208 N   0  0  0  0  0  0  0  0  0  0  0  0
    9.7552    9.2338   23.0171 N   0  0  0  0  0  0  0  0  0  0  0  0
   11.1797    6.7591   21.3326 N   0  0  0  0  0  0  0  0  0  0  0  0
   11.7728    8.0337   23.7267 C   0  0  0  0  0  0  0  0  0  0  0  0
    7.1194    8.3344   24.6775 C   0  0  0  0  0  0  0  0  0  0  0  0
    8.4311    4.7963   22.0500 C   0  0  0  0  0  0  0  0  0  0  0  0
    8.7393   10.8706   24.1871 O   0  0  0  0  0  0  0  0  0  0  0  0
    9.3093    3.8166   21.6712 C   0  0  0  0  0  0  0  0  0  0  0  0
  1  5  1  0
  1 15  4  0
  1 22  4  0
  2 20  1  0
  2 24  1  0
  3  6  4  0
  3 27  4  0
  4 22  4  0
  4 26  4  0
  6  7  4  0
  6 13  1  0
  7 19  4  0
  8 18  1  0
  8 23  1  0
  8 28  2  0
  9 17  1  0
  9 24  1  0
 10 11  1  0
 10 24  1  0
 11 23  1  0
 12 14  4  0
 12 16  4  0
 14 19  4  0
 15 18  4  0
 16 20  4  0
 17 25  1  0
 18 26  4  0
 19 29  4  0
 20 29  4  0
 21 23  1  0
 21 25  1  0
 27 29  4  0
M  END
$$$$

 Created by Python create_sdf_string function

 29 32  0  0  0  0  0  0  0  0999 V2000
    5.4450    8.7154   22.6662 C   0  0  0  0  0  0  0  0  0  0  0  0
   10.9154    5.4574   20.5483 C   0  0  0  0  0  0  0  0  0  0  0  0
    7.2709    4.5089   22.7542 C   0  0  0  0  0  0  0  0  0  0  0  0
    5.9698    7.6329   24.6581 C   0  0  0  0  0  0  0  0  0  0  0  0
    4.5542    8.9057   21.7104 O   0  0  0  0  0  0  0  0  0  0  0  0
    6.9895    3.2085   23.0690 C   0  0  0  0  0  0  0  0  0  0  0  0
    7.8391    2.2253   22.7260 N   0  0  0  0  0  0  0  0  0  0  0  0
    8.6968    9.8373   23.6359 C   0  0  0  0  0  0  0  0  0  0  0  0
   12.5135    6.5957   21.8396 C   0  0  0  0  0  0  0  0  0  0  0  0
   10.9406    8.2330   21.1350 C   0  0  0  0  0  0  0  0  0  0  0  0
    9.6648    8.5956   21.7310 C   0  0  0  0  0  0  0  0  0  0  0  0
   10.8829    1.7153   20.9865 C   0  0  0  0  0  0  0  0  0  0  0  0
    5.7768    2.8533   23.7910 C   0  0  0  0  0  0  0  0  0  0  0  0
    9.7977    1.4791   21.6912 N   0  0  0  0  0  0  0  0  0  0  0  0
    6.5976    9.3401   22.6478 N   0  0  0  0  0  0  0  0  0  0  0  0
   11.2031    3.0042   20.6246 C   0  0  0  0  0  0  0  0  0  0  0  0
   12.8688    7.7370   22.7287 C   0  0  0  0  0  0  0  0  0  0  0  0
    7.4487    9.1361   23.6506 C   0  0  0  0  0  0  0  0  0  0  0  0
    8.9772    2.5025   22.0273 C   0  0  0  0  0  0  0  0  0  0  0  0
   10.4859    4.0901   20.9730 C   0  0  0  0  0  0  0  0  0  0  0  0
   11.0962    9.3293   23.5072 C   0  0  0  0  0  0  0  0  0  0  0  0
    5.1273    7.8529   23.6208 N   0  0  0  0  0  0  0  0  0  0  0  0
    9.7552    9.2338   23.0171 N   0  0  0  0  0  0  0  0  0  0  0  0
   11.1797    6.7591   21.3326 N   0  0  0  0  0  0  0  0  0  0  0  0
   11.7728    8.0337   23.7267 C   0  0  0  0  0  0  0  0  0  0  0  0
    7.1194    8.3344   24.6775 C   0  0  0  0  0  0  0  0  0  0  0  0
    8.4311    4.7963   22.0500 C   0  0  0  0  0  0  0  0  0  0  0  0
    8.7393   10.8706   24.1871 O   0  0  0  0  0  0  0  0  0  0  0  0
    9.3093    3.8166   21.6712 C   0  0  0  0  0  0  0  0  0  0  0  0
  1  5  1  0
  1 15  4  0
  1 22  4  0
  2 20  1  0
  2 24  1  0
  3  6  4  0
  3 27  4  0
  4 22  4  0
  4 26  4  0
  6  7  4  0
  6 13  1  0
  7 19  4  0
  8 18  1  0
  8 23  1  0
  8 28  2  0
  9 17  1  0
  9 24  1  0
 10 11  1  0
 10 24  1  0
 11 23  1  0
 12 14  4  0
 12 16  4  0
 14 19  4  0
 15 18  4  0
 16 20  4  0
 17 25  1  0
 18 26  4  0
 19 29  4  0
 20 29  4  0
 21 23  1  0
 21 25  1  0
 27 29  4  0
M  END
$$$$

 Created by Python create_sdf_string function

 29 32  0  0  0  0  0  0  0  0999 V2000
    5.4450    8.7154   22.6662 C   0  0  0  0  0  0  0  0  0  0  0  0
   10.9154    5.4574   20.5483 C   0  0  0  0  0  0  0  0  0  0  0  0
    7.2709    4.5089   22.7542 C   0  0  0  0  0  0  0  0  0  0  0  0
    5.9698    7.6329   24.6581 C   0  0  0  0  0  0  0  0  0  0  0  0
    4.5542    8.9057   21.7104 O   0  0  0  0  0  0  0  0  0  0  0  0
    6.9895    3.2085   23.0690 C   0  0  0  0  0  0  0  0  0  0  0  0
    7.8391    2.2253   22.7260 N   0  0  0  0  0  0  0  0  0  0  0  0
    8.6968    9.8373   23.6359 C   0  0  0  0  0  0  0  0  0  0  0  0
   12.5135    6.5957   21.8396 C   0  0  0  0  0  0  0  0  0  0  0  0
   10.9406    8.2330   21.1350 C   0  0  0  0  0  0  0  0  0  0  0  0
    9.6648    8.5956   21.7310 C   0  0  0  0  0  0  0  0  0  0  0  0
   10.8829    1.7153   20.9865 C   0  0  0  0  0  0  0  0  0  0  0  0
    5.7768    2.8533   23.7910 C   0  0  0  0  0  0  0  0  0  0  0  0
    9.7977    1.4791   21.6912 N   0  0  0  0  0  0  0  0  0  0  0  0
    6.5976    9.3401   22.6478 N   0  0  0  0  0  0  0  0  0  0  0  0
   11.2031    3.0042   20.6246 C   0  0  0  0  0  0  0  0  0  0  0  0
   12.8688    7.7370   22.7287 C   0  0  0  0  0  0  0  0  0  0  0  0
    7.4487    9.1361   23.6506 C   0  0  0  0  0  0  0  0  0  0  0  0
    8.9772    2.5025   22.0273 C   0  0  0  0  0  0  0  0  0  0  0  0
   10.4859    4.0901   20.9730 C   0  0  0  0  0  0  0  0  0  0  0  0
   11.0962    9.3293   23.5072 C   0  0  0  0  0  0  0  0  0  0  0  0
    5.1273    7.8529   23.6208 N   0  0  0  0  0  0  0  0  0  0  0  0
    9.7552    9.2338   23.0171 N   0  0  0  0  0  0  0  0  0  0  0  0
   11.1797    6.7591   21.3326 N   0  0  0  0  0  0  0  0  0  0  0  0
   11.7728    8.0337   23.7267 C   0  0  0  0  0  0  0  0  0  0  0  0
    7.1194    8.3344   24.6775 C   0  0  0  0  0  0  0  0  0  0  0  0
    8.4311    4.7963   22.0500 C   0  0  0  0  0  0  0  0  0  0  0  0
    8.7393   10.8706   24.1871 O   0  0  0  0  0  0  0  0  0  0  0  0
    9.3093    3.8166   21.6712 C   0  0  0  0  0  0  0  0  0  0  0  0
  1  5  1  0
  1 15  4  0
  1 22  4  0
  2 20  1  0
  2 24  1  0
  3  6  4  0
  3 27  4  0
  4 22  4  0
  4 26  4  0
  6  7  4  0
  6 13  1  0
  7 19  4  0
  8 18  1  0
  8 23  1  0
  8 28  2  0
  9 17  1  0
  9 24  1  0
 10 11  1  0
 10 24  1  0
 11 23  1  0
 12 14  4  0
 12 16  4  0
 14 19  4  0
 15 18  4  0
 16 20  4  0
 17 25  1  0
 18 26  4  0
 19 29  4  0
 20 29  4  0
 21 23  1  0
 21 25  1  0
 27 29  4  0
M  END
$$$$

 Created by Python create_sdf_string function

 29 32  0  0  0  0  0  0  0  0999 V2000
    5.4450    8.7154   22.6662 C   0  0  0  0  0  0  0  0  0  0  0  0
   10.9154    5.4574   20.5483 C   0  0  0  0  0  0  0  0  0  0  0  0
    7.2709    4.5089   22.7542 C   0  0  0  0  0  0  0  0  0  0  0  0
    5.9698    7.6329   24.6581 C   0  0  0  0  0  0  0  0  0  0  0  0
    4.5542    8.9057   21.7104 O   0  0  0  0  0  0  0  0  0  0  0  0
    6.9895    3.2085   23.0690 C   0  0  0  0  0  0  0  0  0  0  0  0
    7.8391    2.2253   22.7260 N   0  0  0  0  0  0  0  0  0  0  0  0
    8.6968    9.8373   23.6359 C   0  0  0  0  0  0  0  0  0  0  0  0
   12.5135    6.5957   21.8396 C   0  0  0  0  0  0  0  0  0  0  0  0
   10.9406    8.2330   21.1350 C   0  0  0  0  0  0  0  0  0  0  0  0
    9.6648    8.5956   21.7310 C   0  0  0  0  0  0  0  0  0  0  0  0
   10.8829    1.7153   20.9865 C   0  0  0  0  0  0  0  0  0  0  0  0
    5.7768    2.8533   23.7910 C   0  0  0  0  0  0  0  0  0  0  0  0
    9.7977    1.4791   21.6912 N   0  0  0  0  0  0  0  0  0  0  0  0
    6.5976    9.3401   22.6478 N   0  0  0  0  0  0  0  0  0  0  0  0
   11.2031    3.0042   20.6246 C   0  0  0  0  0  0  0  0  0  0  0  0
   12.8688    7.7370   22.7287 C   0  0  0  0  0  0  0  0  0  0  0  0
    7.4487    9.1361   23.6506 C   0  0  0  0  0  0  0  0  0  0  0  0
    8.9772    2.5025   22.0273 C   0  0  0  0  0  0  0  0  0  0  0  0
   10.4859    4.0901   20.9730 C   0  0  0  0  0  0  0  0  0  0  0  0
   11.0962    9.3293   23.5072 C   0  0  0  0  0  0  0  0  0  0  0  0
    5.1273    7.8529   23.6208 N   0  0  0  0  0  0  0  0  0  0  0  0
    9.7552    9.2338   23.0171 N   0  0  0  0  0  0  0  0  0  0  0  0
   11.1797    6.7591   21.3326 N   0  0  0  0  0  0  0  0  0  0  0  0
   11.7728    8.0337   23.7267 C   0  0  0  0  0  0  0  0  0  0  0  0
    7.1194    8.3344   24.6775 C   0  0  0  0  0  0  0  0  0  0  0  0
    8.4311    4.7963   22.0500 C   0  0  0  0  0  0  0  0  0  0  0  0
    8.7393   10.8706   24.1871 O   0  0  0  0  0  0  0  0  0  0  0  0
    9.3093    3.8166   21.6712 C   0  0  0  0  0  0  0  0  0  0  0  0
  1  5  1  0
  1 15  4  0
  1 22  4  0
  2 20  1  0
  2 24  1  0
  3  6  4  0
  3 27  4  0
  4 22  4  0
  4 26  4  0
  6  7  4  0
  6 13  1  0
  7 19  4  0
  8 18  1  0
  8 23  1  0
  8 28  2  0
  9 17  1  0
  9 24  1  0
 10 11  1  0
 10 24  1  0
 11 23  1  0
 12 14  4  0
 12 16  4  0
 14 19  4  0
 15 18  4  0
 16 20  4  0
 17 25  1  0
 18 26  4  0
 19 29  4  0
 20 29  4  0
 21 23  1  0
 21 25  1  0
 27 29  4  0
M  END
$$$$

 Created by Python create_sdf_string function

 29 32  0  0  0  0  0  0  0  0999 V2000
    5.4450    8.7154   22.6662 C   0  0  0  0  0  0  0  0  0  0  0  0
   10.9154    5.4574   20.5483 C   0  0  0  0  0  0  0  0  0  0  0  0
    7.2709    4.5089   22.7542 C   0  0  0  0  0  0  0  0  0  0  0  0
    5.9698    7.6329   24.6581 C   0  0  0  0  0  0  0  0  0  0  0  0
    4.5542    8.9057   21.7104 O   0  0  0  0  0  0  0  0  0  0  0  0
    6.9895    3.2085   23.0690 C   0  0  0  0  0  0  0  0  0  0  0  0
    7.8391    2.2253   22.7260 N   0  0  0  0  0  0  0  0  0  0  0  0
    8.6968    9.8373   23.6359 C   0  0  0  0  0  0  0  0  0  0  0  0
   12.5135    6.5957   21.8396 C   0  0  0  0  0  0  0  0  0  0  0  0
   10.9406    8.2330   21.1350 C   0  0  0  0  0  0  0  0  0  0  0  0
    9.6648    8.5956   21.7310 C   0  0  0  0  0  0  0  0  0  0  0  0
   10.8829    1.7153   20.9865 C   0  0  0  0  0  0  0  0  0  0  0  0
    5.7768    2.8533   23.7910 C   0  0  0  0  0  0  0  0  0  0  0  0
    9.7977    1.4791   21.6912 N   0  0  0  0  0  0  0  0  0  0  0  0
    6.5976    9.3401   22.6478 N   0  0  0  0  0  0  0  0  0  0  0  0
   11.2031    3.0042   20.6246 C   0  0  0  0  0  0  0  0  0  0  0  0
   12.8688    7.7370   22.7287 C   0  0  0  0  0  0  0  0  0  0  0  0
    7.4487    9.1361   23.6506 C   0  0  0  0  0  0  0  0  0  0  0  0
    8.9772    2.5025   22.0273 C   0  0  0  0  0  0  0  0  0  0  0  0
   10.4859    4.0901   20.9730 C   0  0  0  0  0  0  0  0  0  0  0  0
   11.0962    9.3293   23.5072 C   0  0  0  0  0  0  0  0  0  0  0  0
    5.1273    7.8529   23.6208 N   0  0  0  0  0  0  0  0  0  0  0  0
    9.7552    9.2338   23.0171 N   0  0  0  0  0  0  0  0  0  0  0  0
   11.1797    6.7591   21.3326 N   0  0  0  0  0  0  0  0  0  0  0  0
   11.7728    8.0337   23.7267 C   0  0  0  0  0  0  0  0  0  0  0  0
    7.1194    8.3344   24.6775 C   0  0  0  0  0  0  0  0  0  0  0  0
    8.4311    4.7963   22.0500 C   0  0  0  0  0  0  0  0  0  0  0  0
    8.7393   10.8706   24.1871 O   0  0  0  0  0  0  0  0  0  0  0  0
    9.3093    3.8166   21.6712 C   0  0  0  0  0  0  0  0  0  0  0  0
  1  5  1  0
  1 15  4  0
  1 22  4  0
  2 20  1  0
  2 24  1  0
  3  6  4  0
  3 27  4  0
  4 22  4  0
  4 26  4  0
  6  7  4  0
  6 13  1  0
  7 19  4  0
  8 18  1  0
  8 23  1  0
  8 28  2  0
  9 17  1  0
  9 24  1  0
 10 11  1  0
 10 24  1  0
 11 23  1  0
 12 14  4  0
 12 16  4  0
 14 19  4  0
 15 18  4  0
 16 20  4  0
 17 25  1  0
 18 26  4  0
 19 29  4  0
 20 29  4  0
 21 23  1  0
 21 25  1  0
 27 29  4  0
M  END
$$$$

 Created by Python create_sdf_string function

 29 32  0  0  0  0  0  0  0  0999 V2000
    5.4450    8.7154   22.6662 C   0  0  0  0  0  0  0  0  0  0  0  0
   10.9154    5.4574   20.5483 C   0  0  0  0  0  0  0  0  0  0  0  0
    7.2709    4.5089   22.7542 C   0  0  0  0  0  0  0  0  0  0  0  0
    5.9698    7.6329   24.6581 C   0  0  0  0  0  0  0  0  0  0  0  0
    4.5542    8.9057   21.7104 O   0  0  0  0  0  0  0  0  0  0  0  0
    6.9895    3.2085   23.0690 C   0  0  0  0  0  0  0  0  0  0  0  0
    7.8391    2.2253   22.7260 N   0  0  0  0  0  0  0  0  0  0  0  0
    8.6968    9.8373   23.6359 C   0  0  0  0  0  0  0  0  0  0  0  0
   12.5135    6.5957   21.8396 C   0  0  0  0  0  0  0  0  0  0  0  0
   10.9406    8.2330   21.1350 C   0  0  0  0  0  0  0  0  0  0  0  0
    9.6648    8.5956   21.7310 C   0  0  0  0  0  0  0  0  0  0  0  0
   10.8829    1.7153   20.9865 C   0  0  0  0  0  0  0  0  0  0  0  0
    5.7768    2.8533   23.7910 C   0  0  0  0  0  0  0  0  0  0  0  0
    9.7977    1.4791   21.6912 N   0  0  0  0  0  0  0  0  0  0  0  0
    6.5976    9.3401   22.6478 N   0  0  0  0  0  0  0  0  0  0  0  0
   11.2031    3.0042   20.6246 C   0  0  0  0  0  0  0  0  0  0  0  0
   12.8688    7.7370   22.7287 C   0  0  0  0  0  0  0  0  0  0  0  0
    7.4487    9.1361   23.6506 C   0  0  0  0  0  0  0  0  0  0  0  0
    8.9772    2.5025   22.0273 C   0  0  0  0  0  0  0  0  0  0  0  0
   10.4859    4.0901   20.9730 C   0  0  0  0  0  0  0  0  0  0  0  0
   11.0962    9.3293   23.5072 C   0  0  0  0  0  0  0  0  0  0  0  0
    5.1273    7.8529   23.6208 N   0  0  0  0  0  0  0  0  0  0  0  0
    9.7552    9.2338   23.0171 N   0  0  0  0  0  0  0  0  0  0  0  0
   11.1797    6.7591   21.3326 N   0  0  0  0  0  0  0  0  0  0  0  0
   11.7728    8.0337   23.7267 C   0  0  0  0  0  0  0  0  0  0  0  0
    7.1194    8.3344   24.6775 C   0  0  0  0  0  0  0  0  0  0  0  0
    8.4311    4.7963   22.0500 C   0  0  0  0  0  0  0  0  0  0  0  0
    8.7393   10.8706   24.1871 O   0  0  0  0  0  0  0  0  0  0  0  0
    9.3093    3.8166   21.6712 C   0  0  0  0  0  0  0  0  0  0  0  0
  1  5  1  0
  1 15  4  0
  1 22  4  0
  2 20  1  0
  2 24  1  0
  3  6  4  0
  3 27  4  0
  4 22  4  0
  4 26  4  0
  6  7  4  0
  6 13  1  0
  7 19  4  0
  8 18  1  0
  8 23  1  0
  8 28  2  0
  9 17  1  0
  9 24  1  0
 10 11  1  0
 10 24  1  0
 11 23  1  0
 12 14  4  0
 12 16  4  0
 14 19  4  0
 15 18  4  0
 16 20  4  0
 17 25  1  0
 18 26  4  0
 19 29  4  0
 20 29  4  0
 21 23  1  0
 21 25  1  0
 27 29  4  0
M  END
$$$$

 Created by Python create_sdf_string function

 29 32  0  0  0  0  0  0  0  0999 V2000
    5.4450    8.7154   22.6662 C   0  0  0  0  0  0  0  0  0  0  0  0
   10.9154    5.4574   20.5483 C   0  0  0  0  0  0  0  0  0  0  0  0
    7.2709    4.5089   22.7542 C   0  0  0  0  0  0  0  0  0  0  0  0
    5.9698    7.6329   24.6581 C   0  0  0  0  0  0  0  0  0  0  0  0
    4.5542    8.9057   21.7104 O   0  0  0  0  0  0  0  0  0  0  0  0
    6.9895    3.2085   23.0690 C   0  0  0  0  0  0  0  0  0  0  0  0
    7.8391    2.2253   22.7260 N   0  0  0  0  0  0  0  0  0  0  0  0
    8.6968    9.8373   23.6359 C   0  0  0  0  0  0  0  0  0  0  0  0
   12.5135    6.5957   21.8396 C   0  0  0  0  0  0  0  0  0  0  0  0
   10.9406    8.2330   21.1350 C   0  0  0  0  0  0  0  0  0  0  0  0
    9.6648    8.5956   21.7310 C   0  0  0  0  0  0  0  0  0  0  0  0
   10.8829    1.7153   20.9865 C   0  0  0  0  0  0  0  0  0  0  0  0
    5.7768    2.8533   23.7910 C   0  0  0  0  0  0  0  0  0  0  0  0
    9.7977    1.4791   21.6912 N   0  0  0  0  0  0  0  0  0  0  0  0
    6.5976    9.3401   22.6478 N   0  0  0  0  0  0  0  0  0  0  0  0
   11.2031    3.0042   20.6246 C   0  0  0  0  0  0  0  0  0  0  0  0
   12.8688    7.7370   22.7287 C   0  0  0  0  0  0  0  0  0  0  0  0
    7.4487    9.1361   23.6506 C   0  0  0  0  0  0  0  0  0  0  0  0
    8.9772    2.5025   22.0273 C   0  0  0  0  0  0  0  0  0  0  0  0
   10.4859    4.0901   20.9730 C   0  0  0  0  0  0  0  0  0  0  0  0
   11.0962    9.3293   23.5072 C   0  0  0  0  0  0  0  0  0  0  0  0
    5.1273    7.8529   23.6208 N   0  0  0  0  0  0  0  0  0  0  0  0
    9.7552    9.2338   23.0171 N   0  0  0  0  0  0  0  0  0  0  0  0
   11.1797    6.7591   21.3326 N   0  0  0  0  0  0  0  0  0  0  0  0
   11.7728    8.0337   23.7267 C   0  0  0  0  0  0  0  0  0  0  0  0
    7.1194    8.3344   24.6775 C   0  0  0  0  0  0  0  0  0  0  0  0
    8.4311    4.7963   22.0500 C   0  0  0  0  0  0  0  0  0  0  0  0
    8.7393   10.8706   24.1871 O   0  0  0  0  0  0  0  0  0  0  0  0
    9.3093    3.8166   21.6712 C   0  0  0  0  0  0  0  0  0  0  0  0
  1  5  1  0
  1 15  4  0
  1 22  4  0
  2 20  1  0
  2 24  1  0
  3  6  4  0
  3 27  4  0
  4 22  4  0
  4 26  4  0
  6  7  4  0
  6 13  1  0
  7 19  4  0
  8 18  1  0
  8 23  1  0
  8 28  2  0
  9 17  1  0
  9 24  1  0
 10 11  1  0
 10 24  1  0
 11 23  1  0
 12 14  4  0
 12 16  4  0
 14 19  4  0
 15 18  4  0
 16 20  4  0
 17 25  1  0
 18 26  4  0
 19 29  4  0
 20 29  4  0
 21 23  1  0
 21 25  1  0
 27 29  4  0
M  END
$$$$

 Created by Python create_sdf_string function

 29 32  0  0  0  0  0  0  0  0999 V2000
    5.4450    8.7154   22.6662 C   0  0  0  0  0  0  0  0  0  0  0  0
   10.9154    5.4574   20.5483 C   0  0  0  0  0  0  0  0  0  0  0  0
    7.2709    4.5089   22.7542 C   0  0  0  0  0  0  0  0  0  0  0  0
    5.9698    7.6329   24.6581 C   0  0  0  0  0  0  0  0  0  0  0  0
    4.5542    8.9057   21.7104 O   0  0  0  0  0  0  0  0  0  0  0  0
    6.9895    3.2085   23.0690 C   0  0  0  0  0  0  0  0  0  0  0  0
    7.8391    2.2253   22.7260 N   0  0  0  0  0  0  0  0  0  0  0  0
    8.6968    9.8373   23.6359 C   0  0  0  0  0  0  0  0  0  0  0  0
   12.5135    6.5957   21.8396 C   0  0  0  0  0  0  0  0  0  0  0  0
   10.9406    8.2330   21.1350 C   0  0  0  0  0  0  0  0  0  0  0  0
    9.6648    8.5956   21.7310 C   0  0  0  0  0  0  0  0  0  0  0  0
   10.8829    1.7153   20.9865 C   0  0  0  0  0  0  0  0  0  0  0  0
    5.7768    2.8533   23.7910 C   0  0  0  0  0  0  0  0  0  0  0  0
    9.7977    1.4791   21.6912 N   0  0  0  0  0  0  0  0  0  0  0  0
    6.5976    9.3401   22.6478 N   0  0  0  0  0  0  0  0  0  0  0  0
   11.2031    3.0042   20.6246 C   0  0  0  0  0  0  0  0  0  0  0  0
   12.8688    7.7370   22.7287 C   0  0  0  0  0  0  0  0  0  0  0  0
    7.4487    9.1361   23.6506 C   0  0  0  0  0  0  0  0  0  0  0  0
    8.9772    2.5025   22.0273 C   0  0  0  0  0  0  0  0  0  0  0  0
   10.4859    4.0901   20.9730 C   0  0  0  0  0  0  0  0  0  0  0  0
   11.0962    9.3293   23.5072 C   0  0  0  0  0  0  0  0  0  0  0  0
    5.1273    7.8529   23.6208 N   0  0  0  0  0  0  0  0  0  0  0  0
    9.7552    9.2338   23.0171 N   0  0  0  0  0  0  0  0  0  0  0  0
   11.1797    6.7591   21.3326 N   0  0  0  0  0  0  0  0  0  0  0  0
   11.7728    8.0337   23.7267 C   0  0  0  0  0  0  0  0  0  0  0  0
    7.1194    8.3344   24.6775 C   0  0  0  0  0  0  0  0  0  0  0  0
    8.4311    4.7963   22.0500 C   0  0  0  0  0  0  0  0  0  0  0  0
    8.7393   10.8706   24.1871 O   0  0  0  0  0  0  0  0  0  0  0  0
    9.3093    3.8166   21.6712 C   0  0  0  0  0  0  0  0  0  0  0  0
  1  5  1  0
  1 15  4  0
  1 22  4  0
  2 20  1  0
  2 24  1  0
  3  6  4  0
  3 27  4  0
  4 22  4  0
  4 26  4  0
  6  7  4  0
  6 13  1  0
  7 19  4  0
  8 18  1  0
  8 23  1  0
  8 28  2  0
  9 17  1  0
  9 24  1  0
 10 11  1  0
 10 24  1  0
 11 23  1  0
 12 14  4  0
 12 16  4  0
 14 19  4  0
 15 18  4  0
 16 20  4  0
 17 25  1  0
 18 26  4  0
 19 29  4  0
 20 29  4  0
 21 23  1  0
 21 25  1  0
 27 29  4  0
M  END
$$$$

 Created by Python create_sdf_string function

 29 32  0  0  0  0  0  0  0  0999 V2000
    5.4450    8.7154   22.6662 C   0  0  0  0  0  0  0  0  0  0  0  0
   10.9154    5.4574   20.5483 C   0  0  0  0  0  0  0  0  0  0  0  0
    7.2709    4.5089   22.7542 C   0  0  0  0  0  0  0  0  0  0  0  0
    5.9698    7.6329   24.6581 C   0  0  0  0  0  0  0  0  0  0  0  0
    4.5542    8.9057   21.7104 O   0  0  0  0  0  0  0  0  0  0  0  0
    6.9895    3.2085   23.0690 C   0  0  0  0  0  0  0  0  0  0  0  0
    7.8391    2.2253   22.7260 N   0  0  0  0  0  0  0  0  0  0  0  0
    8.6968    9.8373   23.6359 C   0  0  0  0  0  0  0  0  0  0  0  0
   12.5135    6.5957   21.8396 C   0  0  0  0  0  0  0  0  0  0  0  0
   10.9406    8.2330   21.1350 C   0  0  0  0  0  0  0  0  0  0  0  0
    9.6648    8.5956   21.7310 C   0  0  0  0  0  0  0  0  0  0  0  0
   10.8829    1.7153   20.9865 C   0  0  0  0  0  0  0  0  0  0  0  0
    5.7768    2.8533   23.7910 C   0  0  0  0  0  0  0  0  0  0  0  0
    9.7977    1.4791   21.6912 N   0  0  0  0  0  0  0  0  0  0  0  0
    6.5976    9.3401   22.6478 N   0  0  0  0  0  0  0  0  0  0  0  0
   11.2031    3.0042   20.6246 C   0  0  0  0  0  0  0  0  0  0  0  0
   12.8688    7.7370   22.7287 C   0  0  0  0  0  0  0  0  0  0  0  0
    7.4487    9.1361   23.6506 C   0  0  0  0  0  0  0  0  0  0  0  0
    8.9772    2.5025   22.0273 C   0  0  0  0  0  0  0  0  0  0  0  0
   10.4859    4.0901   20.9730 C   0  0  0  0  0  0  0  0  0  0  0  0
   11.0962    9.3293   23.5072 C   0  0  0  0  0  0  0  0  0  0  0  0
    5.1273    7.8529   23.6208 N   0  0  0  0  0  0  0  0  0  0  0  0
    9.7552    9.2338   23.0171 N   0  0  0  0  0  0  0  0  0  0  0  0
   11.1797    6.7591   21.3326 N   0  0  0  0  0  0  0  0  0  0  0  0
   11.7728    8.0337   23.7267 C   0  0  0  0  0  0  0  0  0  0  0  0
    7.1194    8.3344   24.6775 C   0  0  0  0  0  0  0  0  0  0  0  0
    8.4311    4.7963   22.0500 C   0  0  0  0  0  0  0  0  0  0  0  0
    8.7393   10.8706   24.1871 O   0  0  0  0  0  0  0  0  0  0  0  0
    9.3093    3.8166   21.6712 C   0  0  0  0  0  0  0  0  0  0  0  0
  1  5  1  0
  1 15  4  0
  1 22  4  0
  2 20  1  0
  2 24  1  0
  3  6  4  0
  3 27  4  0
  4 22  4  0
  4 26  4  0
  6  7  4  0
  6 13  1  0
  7 19  4  0
  8 18  1  0
  8 23  1  0
  8 28  2  0
  9 17  1  0
  9 24  1  0
 10 11  1  0
 10 24  1  0
 11 23  1  0
 12 14  4  0
 12 16  4  0
 14 19  4  0
 15 18  4  0
 16 20  4  0
 17 25  1  0
 18 26  4  0
 19 29  4  0
 20 29  4  0
 21 23  1  0
 21 25  1  0
 27 29  4  0
M  END
$$$$

 Created by Python create_sdf_string function

 29 32  0  0  0  0  0  0  0  0999 V2000
    5.4450    8.7154   22.6662 C   0  0  0  0  0  0  0  0  0  0  0  0
   10.9154    5.4574   20.5483 C   0  0  0  0  0  0  0  0  0  0  0  0
    7.2709    4.5089   22.7542 C   0  0  0  0  0  0  0  0  0  0  0  0
    5.9698    7.6329   24.6581 C   0  0  0  0  0  0  0  0  0  0  0  0
    4.5542    8.9057   21.7104 O   0  0  0  0  0  0  0  0  0  0  0  0
    6.9895    3.2085   23.0690 C   0  0  0  0  0  0  0  0  0  0  0  0
    7.8391    2.2253   22.7260 N   0  0  0  0  0  0  0  0  0  0  0  0
    8.6968    9.8373   23.6359 C   0  0  0  0  0  0  0  0  0  0  0  0
   12.5135    6.5957   21.8396 C   0  0  0  0  0  0  0  0  0  0  0  0
   10.9406    8.2330   21.1350 C   0  0  0  0  0  0  0  0  0  0  0  0
    9.6648    8.5956   21.7310 C   0  0  0  0  0  0  0  0  0  0  0  0
   10.8829    1.7153   20.9865 C   0  0  0  0  0  0  0  0  0  0  0  0
    5.7768    2.8533   23.7910 C   0  0  0  0  0  0  0  0  0  0  0  0
    9.7977    1.4791   21.6912 N   0  0  0  0  0  0  0  0  0  0  0  0
    6.5976    9.3401   22.6478 N   0  0  0  0  0  0  0  0  0  0  0  0
   11.2031    3.0042   20.6246 C   0  0  0  0  0  0  0  0  0  0  0  0
   12.8688    7.7370   22.7287 C   0  0  0  0  0  0  0  0  0  0  0  0
    7.4487    9.1361   23.6506 C   0  0  0  0  0  0  0  0  0  0  0  0
    8.9772    2.5025   22.0273 C   0  0  0  0  0  0  0  0  0  0  0  0
   10.4859    4.0901   20.9730 C   0  0  0  0  0  0  0  0  0  0  0  0
   11.0962    9.3293   23.5072 C   0  0  0  0  0  0  0  0  0  0  0  0
    5.1273    7.8529   23.6208 N   0  0  0  0  0  0  0  0  0  0  0  0
    9.7552    9.2338   23.0171 N   0  0  0  0  0  0  0  0  0  0  0  0
   11.1797    6.7591   21.3326 N   0  0  0  0  0  0  0  0  0  0  0  0
   11.7728    8.0337   23.7267 C   0  0  0  0  0  0  0  0  0  0  0  0
    7.1194    8.3344   24.6775 C   0  0  0  0  0  0  0  0  0  0  0  0
    8.4311    4.7963   22.0500 C   0  0  0  0  0  0  0  0  0  0  0  0
    8.7393   10.8706   24.1871 O   0  0  0  0  0  0  0  0  0  0  0  0
    9.3093    3.8166   21.6712 C   0  0  0  0  0  0  0  0  0  0  0  0
  1  5  1  0
  1 15  4  0
  1 22  4  0
  2 20  1  0
  2 24  1  0
  3  6  4  0
  3 27  4  0
  4 22  4  0
  4 26  4  0
  6  7  4  0
  6 13  1  0
  7 19  4  0
  8 18  1  0
  8 23  1  0
  8 28  2  0
  9 17  1  0
  9 24  1  0
 10 11  1  0
 10 24  1  0
 11 23  1  0
 12 14  4  0
 12 16  4  0
 14 19  4  0
 15 18  4  0
 16 20  4  0
 17 25  1  0
 18 26  4  0
 19 29  4  0
 20 29  4  0
 21 23  1  0
 21 25  1  0
 27 29  4  0
M  END
$$$$

 Created by Python create_sdf_string function

 29 32  0  0  0  0  0  0  0  0999 V2000
    5.4450    8.7154   22.6662 C   0  0  0  0  0  0  0  0  0  0  0  0
   10.9154    5.4574   20.5483 C   0  0  0  0  0  0  0  0  0  0  0  0
    7.2709    4.5089   22.7542 C   0  0  0  0  0  0  0  0  0  0  0  0
    5.9698    7.6329   24.6581 C   0  0  0  0  0  0  0  0  0  0  0  0
    4.5542    8.9057   21.7104 O   0  0  0  0  0  0  0  0  0  0  0  0
    6.9895    3.2085   23.0690 C   0  0  0  0  0  0  0  0  0  0  0  0
    7.8391    2.2253   22.7260 N   0  0  0  0  0  0  0  0  0  0  0  0
    8.6968    9.8373   23.6359 C   0  0  0  0  0  0  0  0  0  0  0  0
   12.5135    6.5957   21.8396 C   0  0  0  0  0  0  0  0  0  0  0  0
   10.9406    8.2330   21.1350 C   0  0  0  0  0  0  0  0  0  0  0  0
    9.6648    8.5956   21.7310 C   0  0  0  0  0  0  0  0  0  0  0  0
   10.8829    1.7153   20.9865 C   0  0  0  0  0  0  0  0  0  0  0  0
    5.7768    2.8533   23.7910 C   0  0  0  0  0  0  0  0  0  0  0  0
    9.7977    1.4791   21.6912 N   0  0  0  0  0  0  0  0  0  0  0  0
    6.5976    9.3401   22.6478 N   0  0  0  0  0  0  0  0  0  0  0  0
   11.2031    3.0042   20.6246 C   0  0  0  0  0  0  0  0  0  0  0  0
   12.8688    7.7370   22.7287 C   0  0  0  0  0  0  0  0  0  0  0  0
    7.4487    9.1361   23.6506 C   0  0  0  0  0  0  0  0  0  0  0  0
    8.9772    2.5025   22.0273 C   0  0  0  0  0  0  0  0  0  0  0  0
   10.4859    4.0901   20.9730 C   0  0  0  0  0  0  0  0  0  0  0  0
   11.0962    9.3293   23.5072 C   0  0  0  0  0  0  0  0  0  0  0  0
    5.1273    7.8529   23.6208 N   0  0  0  0  0  0  0  0  0  0  0  0
    9.7552    9.2338   23.0171 N   0  0  0  0  0  0  0  0  0  0  0  0
   11.1797    6.7591   21.3326 N   0  0  0  0  0  0  0  0  0  0  0  0
   11.7728    8.0337   23.7267 C   0  0  0  0  0  0  0  0  0  0  0  0
    7.1194    8.3344   24.6775 C   0  0  0  0  0  0  0  0  0  0  0  0
    8.4311    4.7963   22.0500 C   0  0  0  0  0  0  0  0  0  0  0  0
    8.7393   10.8706   24.1871 O   0  0  0  0  0  0  0  0  0  0  0  0
    9.3093    3.8166   21.6712 C   0  0  0  0  0  0  0  0  0  0  0  0
  1  5  1  0
  1 15  4  0
  1 22  4  0
  2 20  1  0
  2 24  1  0
  3  6  4  0
  3 27  4  0
  4 22  4  0
  4 26  4  0
  6  7  4  0
  6 13  1  0
  7 19  4  0
  8 18  1  0
  8 23  1  0
  8 28  2  0
  9 17  1  0
  9 24  1  0
 10 11  1  0
 10 24  1  0
 11 23  1  0
 12 14  4  0
 12 16  4  0
 14 19  4  0
 15 18  4  0
 16 20  4  0
 17 25  1  0
 18 26  4  0
 19 29  4  0
 20 29  4  0
 21 23  1  0
 21 25  1  0
 27 29  4  0
M  END
$$$$

 Created by Python create_sdf_string function

 29 32  0  0  0  0  0  0  0  0999 V2000
    5.4450    8.7154   22.6662 C   0  0  0  0  0  0  0  0  0  0  0  0
   10.9154    5.4574   20.5483 C   0  0  0  0  0  0  0  0  0  0  0  0
    7.2709    4.5089   22.7542 C   0  0  0  0  0  0  0  0  0  0  0  0
    5.9698    7.6329   24.6581 C   0  0  0  0  0  0  0  0  0  0  0  0
    4.5542    8.9057   21.7104 O   0  0  0  0  0  0  0  0  0  0  0  0
    6.9895    3.2085   23.0690 C   0  0  0  0  0  0  0  0  0  0  0  0
    7.8391    2.2253   22.7260 N   0  0  0  0  0  0  0  0  0  0  0  0
    8.6968    9.8373   23.6359 C   0  0  0  0  0  0  0  0  0  0  0  0
   12.5135    6.5957   21.8396 C   0  0  0  0  0  0  0  0  0  0  0  0
   10.9406    8.2330   21.1350 C   0  0  0  0  0  0  0  0  0  0  0  0
    9.6648    8.5956   21.7310 C   0  0  0  0  0  0  0  0  0  0  0  0
   10.8829    1.7153   20.9865 C   0  0  0  0  0  0  0  0  0  0  0  0
    5.7768    2.8533   23.7910 C   0  0  0  0  0  0  0  0  0  0  0  0
    9.7977    1.4791   21.6912 N   0  0  0  0  0  0  0  0  0  0  0  0
    6.5976    9.3401   22.6478 N   0  0  0  0  0  0  0  0  0  0  0  0
   11.2031    3.0042   20.6246 C   0  0  0  0  0  0  0  0  0  0  0  0
   12.8688    7.7370   22.7287 C   0  0  0  0  0  0  0  0  0  0  0  0
    7.4487    9.1361   23.6506 C   0  0  0  0  0  0  0  0  0  0  0  0
    8.9772    2.5025   22.0273 C   0  0  0  0  0  0  0  0  0  0  0  0
   10.4859    4.0901   20.9730 C   0  0  0  0  0  0  0  0  0  0  0  0
   11.0962    9.3293   23.5072 C   0  0  0  0  0  0  0  0  0  0  0  0
    5.1273    7.8529   23.6208 N   0  0  0  0  0  0  0  0  0  0  0  0
    9.7552    9.2338   23.0171 N   0  0  0  0  0  0  0  0  0  0  0  0
   11.1797    6.7591   21.3326 N   0  0  0  0  0  0  0  0  0  0  0  0
   11.7728    8.0337   23.7267 C   0  0  0  0  0  0  0  0  0  0  0  0
    7.1194    8.3344   24.6775 C   0  0  0  0  0  0  0  0  0  0  0  0
    8.4311    4.7963   22.0500 C   0  0  0  0  0  0  0  0  0  0  0  0
    8.7393   10.8706   24.1871 O   0  0  0  0  0  0  0  0  0  0  0  0
    9.3093    3.8166   21.6712 C   0  0  0  0  0  0  0  0  0  0  0  0
  1  5  1  0
  1 15  4  0
  1 22  4  0
  2 20  1  0
  2 24  1  0
  3  6  4  0
  3 27  4  0
  4 22  4  0
  4 26  4  0
  6  7  4  0
  6 13  1  0
  7 19  4  0
  8 18  1  0
  8 23  1  0
  8 28  2  0
  9 17  1  0
  9 24  1  0
 10 11  1  0
 10 24  1  0
 11 23  1  0
 12 14  4  0
 12 16  4  0
 14 19  4  0
 15 18  4  0
 16 20  4  0
 17 25  1  0
 18 26  4  0
 19 29  4  0
 20 29  4  0
 21 23  1  0
 21 25  1  0
 27 29  4  0
M  END
$$$$

 Created by Python create_sdf_string function

 29 32  0  0  0  0  0  0  0  0999 V2000
    5.4450    8.7154   22.6662 C   0  0  0  0  0  0  0  0  0  0  0  0
   10.9154    5.4574   20.5483 C   0  0  0  0  0  0  0  0  0  0  0  0
    7.2709    4.5089   22.7542 C   0  0  0  0  0  0  0  0  0  0  0  0
    5.9698    7.6329   24.6581 C   0  0  0  0  0  0  0  0  0  0  0  0
    4.5542    8.9057   21.7104 O   0  0  0  0  0  0  0  0  0  0  0  0
    6.9895    3.2085   23.0690 C   0  0  0  0  0  0  0  0  0  0  0  0
    7.8391    2.2253   22.7260 N   0  0  0  0  0  0  0  0  0  0  0  0
    8.6968    9.8373   23.6359 C   0  0  0  0  0  0  0  0  0  0  0  0
   12.5135    6.5957   21.8396 C   0  0  0  0  0  0  0  0  0  0  0  0
   10.9406    8.2330   21.1350 C   0  0  0  0  0  0  0  0  0  0  0  0
    9.6648    8.5956   21.7310 C   0  0  0  0  0  0  0  0  0  0  0  0
   10.8829    1.7153   20.9865 C   0  0  0  0  0  0  0  0  0  0  0  0
    5.7768    2.8533   23.7910 C   0  0  0  0  0  0  0  0  0  0  0  0
    9.7977    1.4791   21.6912 N   0  0  0  0  0  0  0  0  0  0  0  0
    6.5976    9.3401   22.6478 N   0  0  0  0  0  0  0  0  0  0  0  0
   11.2031    3.0042   20.6246 C   0  0  0  0  0  0  0  0  0  0  0  0
   12.8688    7.7370   22.7287 C   0  0  0  0  0  0  0  0  0  0  0  0
    7.4487    9.1361   23.6506 C   0  0  0  0  0  0  0  0  0  0  0  0
    8.9772    2.5025   22.0273 C   0  0  0  0  0  0  0  0  0  0  0  0
   10.4859    4.0901   20.9730 C   0  0  0  0  0  0  0  0  0  0  0  0
   11.0962    9.3293   23.5072 C   0  0  0  0  0  0  0  0  0  0  0  0
    5.1273    7.8529   23.6208 N   0  0  0  0  0  0  0  0  0  0  0  0
    9.7552    9.2338   23.0171 N   0  0  0  0  0  0  0  0  0  0  0  0
   11.1797    6.7591   21.3326 N   0  0  0  0  0  0  0  0  0  0  0  0
   11.7728    8.0337   23.7267 C   0  0  0  0  0  0  0  0  0  0  0  0
    7.1194    8.3344   24.6775 C   0  0  0  0  0  0  0  0  0  0  0  0
    8.4311    4.7963   22.0500 C   0  0  0  0  0  0  0  0  0  0  0  0
    8.7393   10.8706   24.1871 O   0  0  0  0  0  0  0  0  0  0  0  0
    9.3093    3.8166   21.6712 C   0  0  0  0  0  0  0  0  0  0  0  0
  1  5  1  0
  1 15  4  0
  1 22  4  0
  2 20  1  0
  2 24  1  0
  3  6  4  0
  3 27  4  0
  4 22  4  0
  4 26  4  0
  6  7  4  0
  6 13  1  0
  7 19  4  0
  8 18  1  0
  8 23  1  0
  8 28  2  0
  9 17  1  0
  9 24  1  0
 10 11  1  0
 10 24  1  0
 11 23  1  0
 12 14  4  0
 12 16  4  0
 14 19  4  0
 15 18  4  0
 16 20  4  0
 17 25  1  0
 18 26  4  0
 19 29  4  0
 20 29  4  0
 21 23  1  0
 21 25  1  0
 27 29  4  0
M  END
$$$$

 Created by Python create_sdf_string function

 29 32  0  0  0  0  0  0  0  0999 V2000
    5.4450    8.7154   22.6662 C   0  0  0  0  0  0  0  0  0  0  0  0
   10.9154    5.4574   20.5483 C   0  0  0  0  0  0  0  0  0  0  0  0
    7.2709    4.5089   22.7542 C   0  0  0  0  0  0  0  0  0  0  0  0
    5.9698    7.6329   24.6581 C   0  0  0  0  0  0  0  0  0  0  0  0
    4.5542    8.9057   21.7104 O   0  0  0  0  0  0  0  0  0  0  0  0
    6.9895    3.2085   23.0690 C   0  0  0  0  0  0  0  0  0  0  0  0
    7.8391    2.2253   22.7260 N   0  0  0  0  0  0  0  0  0  0  0  0
    8.6968    9.8373   23.6359 C   0  0  0  0  0  0  0  0  0  0  0  0
   12.5135    6.5957   21.8396 C   0  0  0  0  0  0  0  0  0  0  0  0
   10.9406    8.2330   21.1350 C   0  0  0  0  0  0  0  0  0  0  0  0
    9.6648    8.5956   21.7310 C   0  0  0  0  0  0  0  0  0  0  0  0
   10.8829    1.7153   20.9865 C   0  0  0  0  0  0  0  0  0  0  0  0
    5.7768    2.8533   23.7910 C   0  0  0  0  0  0  0  0  0  0  0  0
    9.7977    1.4791   21.6912 N   0  0  0  0  0  0  0  0  0  0  0  0
    6.5976    9.3401   22.6478 N   0  0  0  0  0  0  0  0  0  0  0  0
   11.2031    3.0042   20.6246 C   0  0  0  0  0  0  0  0  0  0  0  0
   12.8688    7.7370   22.7287 C   0  0  0  0  0  0  0  0  0  0  0  0
    7.4487    9.1361   23.6506 C   0  0  0  0  0  0  0  0  0  0  0  0
    8.9772    2.5025   22.0273 C   0  0  0  0  0  0  0  0  0  0  0  0
   10.4859    4.0901   20.9730 C   0  0  0  0  0  0  0  0  0  0  0  0
   11.0962    9.3293   23.5072 C   0  0  0  0  0  0  0  0  0  0  0  0
    5.1273    7.8529   23.6208 N   0  0  0  0  0  0  0  0  0  0  0  0
    9.7552    9.2338   23.0171 N   0  0  0  0  0  0  0  0  0  0  0  0
   11.1797    6.7591   21.3326 N   0  0  0  0  0  0  0  0  0  0  0  0
   11.7728    8.0337   23.7267 C   0  0  0  0  0  0  0  0  0  0  0  0
    7.1194    8.3344   24.6775 C   0  0  0  0  0  0  0  0  0  0  0  0
    8.4311    4.7963   22.0500 C   0  0  0  0  0  0  0  0  0  0  0  0
    8.7393   10.8706   24.1871 O   0  0  0  0  0  0  0  0  0  0  0  0
    9.3093    3.8166   21.6712 C   0  0  0  0  0  0  0  0  0  0  0  0
  1  5  1  0
  1 15  4  0
  1 22  4  0
  2 20  1  0
  2 24  1  0
  3  6  4  0
  3 27  4  0
  4 22  4  0
  4 26  4  0
  6  7  4  0
  6 13  1  0
  7 19  4  0
  8 18  1  0
  8 23  1  0
  8 28  2  0
  9 17  1  0
  9 24  1  0
 10 11  1  0
 10 24  1  0
 11 23  1  0
 12 14  4  0
 12 16  4  0
 14 19  4  0
 15 18  4  0
 16 20  4  0
 17 25  1  0
 18 26  4  0
 19 29  4  0
 20 29  4  0
 21 23  1  0
 21 25  1  0
 27 29  4  0
M  END
$$$$

 Created by Python create_sdf_string function

 29 32  0  0  0  0  0  0  0  0999 V2000
    5.4450    8.7154   22.6662 C   0  0  0  0  0  0  0  0  0  0  0  0
   10.9154    5.4574   20.5483 C   0  0  0  0  0  0  0  0  0  0  0  0
    7.2709    4.5089   22.7542 C   0  0  0  0  0  0  0  0  0  0  0  0
    5.9698    7.6329   24.6581 C   0  0  0  0  0  0  0  0  0  0  0  0
    4.5542    8.9057   21.7104 O   0  0  0  0  0  0  0  0  0  0  0  0
    6.9895    3.2085   23.0690 C   0  0  0  0  0  0  0  0  0  0  0  0
    7.8391    2.2253   22.7260 N   0  0  0  0  0  0  0  0  0  0  0  0
    8.6968    9.8373   23.6359 C   0  0  0  0  0  0  0  0  0  0  0  0
   12.5135    6.5957   21.8396 C   0  0  0  0  0  0  0  0  0  0  0  0
   10.9406    8.2330   21.1350 C   0  0  0  0  0  0  0  0  0  0  0  0
    9.6648    8.5956   21.7310 C   0  0  0  0  0  0  0  0  0  0  0  0
   10.8829    1.7153   20.9865 C   0  0  0  0  0  0  0  0  0  0  0  0
    5.7768    2.8533   23.7910 C   0  0  0  0  0  0  0  0  0  0  0  0
    9.7977    1.4791   21.6912 N   0  0  0  0  0  0  0  0  0  0  0  0
    6.5976    9.3401   22.6478 N   0  0  0  0  0  0  0  0  0  0  0  0
   11.2031    3.0042   20.6246 C   0  0  0  0  0  0  0  0  0  0  0  0
   12.8688    7.7370   22.7287 C   0  0  0  0  0  0  0  0  0  0  0  0
    7.4487    9.1361   23.6506 C   0  0  0  0  0  0  0  0  0  0  0  0
    8.9772    2.5025   22.0273 C   0  0  0  0  0  0  0  0  0  0  0  0
   10.4859    4.0901   20.9730 C   0  0  0  0  0  0  0  0  0  0  0  0
   11.0962    9.3293   23.5072 C   0  0  0  0  0  0  0  0  0  0  0  0
    5.1273    7.8529   23.6208 N   0  0  0  0  0  0  0  0  0  0  0  0
    9.7552    9.2338   23.0171 N   0  0  0  0  0  0  0  0  0  0  0  0
   11.1797    6.7591   21.3326 N   0  0  0  0  0  0  0  0  0  0  0  0
   11.7728    8.0337   23.7267 C   0  0  0  0  0  0  0  0  0  0  0  0
    7.1194    8.3344   24.6775 C   0  0  0  0  0  0  0  0  0  0  0  0
    8.4311    4.7963   22.0500 C   0  0  0  0  0  0  0  0  0  0  0  0
    8.7393   10.8706   24.1871 O   0  0  0  0  0  0  0  0  0  0  0  0
    9.3093    3.8166   21.6712 C   0  0  0  0  0  0  0  0  0  0  0  0
  1  5  1  0
  1 15  4  0
  1 22  4  0
  2 20  1  0
  2 24  1  0
  3  6  4  0
  3 27  4  0
  4 22  4  0
  4 26  4  0
  6  7  4  0
  6 13  1  0
  7 19  4  0
  8 18  1  0
  8 23  1  0
  8 28  2  0
  9 17  1  0
  9 24  1  0
 10 11  1  0
 10 24  1  0
 11 23  1  0
 12 14  4  0
 12 16  4  0
 14 19  4  0
 15 18  4  0
 16 20  4  0
 17 25  1  0
 18 26  4  0
 19 29  4  0
 20 29  4  0
 21 23  1  0
 21 25  1  0
 27 29  4  0
M  END
$$$$

 Created by Python create_sdf_string function

 29 32  0  0  0  0  0  0  0  0999 V2000
    5.4450    8.7154   22.6662 C   0  0  0  0  0  0  0  0  0  0  0  0
   10.9154    5.4574   20.5483 C   0  0  0  0  0  0  0  0  0  0  0  0
    7.2709    4.5089   22.7542 C   0  0  0  0  0  0  0  0  0  0  0  0
    5.9698    7.6329   24.6581 C   0  0  0  0  0  0  0  0  0  0  0  0
    4.5542    8.9057   21.7104 O   0  0  0  0  0  0  0  0  0  0  0  0
    6.9895    3.2085   23.0690 C   0  0  0  0  0  0  0  0  0  0  0  0
    7.8391    2.2253   22.7260 N   0  0  0  0  0  0  0  0  0  0  0  0
    8.6968    9.8373   23.6359 C   0  0  0  0  0  0  0  0  0  0  0  0
   12.5135    6.5957   21.8396 C   0  0  0  0  0  0  0  0  0  0  0  0
   10.9406    8.2330   21.1350 C   0  0  0  0  0  0  0  0  0  0  0  0
    9.6648    8.5956   21.7310 C   0  0  0  0  0  0  0  0  0  0  0  0
   10.8829    1.7153   20.9865 C   0  0  0  0  0  0  0  0  0  0  0  0
    5.7768    2.8533   23.7910 C   0  0  0  0  0  0  0  0  0  0  0  0
    9.7977    1.4791   21.6912 N   0  0  0  0  0  0  0  0  0  0  0  0
    6.5976    9.3401   22.6478 N   0  0  0  0  0  0  0  0  0  0  0  0
   11.2031    3.0042   20.6246 C   0  0  0  0  0  0  0  0  0  0  0  0
   12.8688    7.7370   22.7287 C   0  0  0  0  0  0  0  0  0  0  0  0
    7.4487    9.1361   23.6506 C   0  0  0  0  0  0  0  0  0  0  0  0
    8.9772    2.5025   22.0273 C   0  0  0  0  0  0  0  0  0  0  0  0
   10.4859    4.0901   20.9730 C   0  0  0  0  0  0  0  0  0  0  0  0
   11.0962    9.3293   23.5072 C   0  0  0  0  0  0  0  0  0  0  0  0
    5.1273    7.8529   23.6208 N   0  0  0  0  0  0  0  0  0  0  0  0
    9.7552    9.2338   23.0171 N   0  0  0  0  0  0  0  0  0  0  0  0
   11.1797    6.7591   21.3326 N   0  0  0  0  0  0  0  0  0  0  0  0
   11.7728    8.0337   23.7267 C   0  0  0  0  0  0  0  0  0  0  0  0
    7.1194    8.3344   24.6775 C   0  0  0  0  0  0  0  0  0  0  0  0
    8.4311    4.7963   22.0500 C   0  0  0  0  0  0  0  0  0  0  0  0
    8.7393   10.8706   24.1871 O   0  0  0  0  0  0  0  0  0  0  0  0
    9.3093    3.8166   21.6712 C   0  0  0  0  0  0  0  0  0  0  0  0
  1  5  1  0
  1 15  4  0
  1 22  4  0
  2 20  1  0
  2 24  1  0
  3  6  4  0
  3 27  4  0
  4 22  4  0
  4 26  4  0
  6  7  4  0
  6 13  1  0
  7 19  4  0
  8 18  1  0
  8 23  1  0
  8 28  2  0
  9 17  1  0
  9 24  1  0
 10 11  1  0
 10 24  1  0
 11 23  1  0
 12 14  4  0
 12 16  4  0
 14 19  4  0
 15 18  4  0
 16 20  4  0
 17 25  1  0
 18 26  4  0
 19 29  4  0
 20 29  4  0
 21 23  1  0
 21 25  1  0
 27 29  4  0
M  END
$$$$

 Created by Python create_sdf_string function

 29 32  0  0  0  0  0  0  0  0999 V2000
    5.4450    8.7154   22.6662 C   0  0  0  0  0  0  0  0  0  0  0  0
   10.9154    5.4574   20.5483 C   0  0  0  0  0  0  0  0  0  0  0  0
    7.2709    4.5089   22.7542 C   0  0  0  0  0  0  0  0  0  0  0  0
    5.9698    7.6329   24.6581 C   0  0  0  0  0  0  0  0  0  0  0  0
    4.5542    8.9057   21.7104 O   0  0  0  0  0  0  0  0  0  0  0  0
    6.9895    3.2085   23.0690 C   0  0  0  0  0  0  0  0  0  0  0  0
    7.8391    2.2253   22.7260 N   0  0  0  0  0  0  0  0  0  0  0  0
    8.6968    9.8373   23.6359 C   0  0  0  0  0  0  0  0  0  0  0  0
   12.5135    6.5957   21.8396 C   0  0  0  0  0  0  0  0  0  0  0  0
   10.9406    8.2330   21.1350 C   0  0  0  0  0  0  0  0  0  0  0  0
    9.6648    8.5956   21.7310 C   0  0  0  0  0  0  0  0  0  0  0  0
   10.8829    1.7153   20.9865 C   0  0  0  0  0  0  0  0  0  0  0  0
    5.7768    2.8533   23.7910 C   0  0  0  0  0  0  0  0  0  0  0  0
    9.7977    1.4791   21.6912 N   0  0  0  0  0  0  0  0  0  0  0  0
    6.5976    9.3401   22.6478 N   0  0  0  0  0  0  0  0  0  0  0  0
   11.2031    3.0042   20.6246 C   0  0  0  0  0  0  0  0  0  0  0  0
   12.8688    7.7370   22.7287 C   0  0  0  0  0  0  0  0  0  0  0  0
    7.4487    9.1361   23.6506 C   0  0  0  0  0  0  0  0  0  0  0  0
    8.9772    2.5025   22.0273 C   0  0  0  0  0  0  0  0  0  0  0  0
   10.4859    4.0901   20.9730 C   0  0  0  0  0  0  0  0  0  0  0  0
   11.0962    9.3293   23.5072 C   0  0  0  0  0  0  0  0  0  0  0  0
    5.1273    7.8529   23.6208 N   0  0  0  0  0  0  0  0  0  0  0  0
    9.7552    9.2338   23.0171 N   0  0  0  0  0  0  0  0  0  0  0  0
   11.1797    6.7591   21.3326 N   0  0  0  0  0  0  0  0  0  0  0  0
   11.7728    8.0337   23.7267 C   0  0  0  0  0  0  0  0  0  0  0  0
    7.1194    8.3344   24.6775 C   0  0  0  0  0  0  0  0  0  0  0  0
    8.4311    4.7963   22.0500 C   0  0  0  0  0  0  0  0  0  0  0  0
    8.7393   10.8706   24.1871 O   0  0  0  0  0  0  0  0  0  0  0  0
    9.3093    3.8166   21.6712 C   0  0  0  0  0  0  0  0  0  0  0  0
  1  5  1  0
  1 15  4  0
  1 22  4  0
  2 20  1  0
  2 24  1  0
  3  6  4  0
  3 27  4  0
  4 22  4  0
  4 26  4  0
  6  7  4  0
  6 13  1  0
  7 19  4  0
  8 18  1  0
  8 23  1  0
  8 28  2  0
  9 17  1  0
  9 24  1  0
 10 11  1  0
 10 24  1  0
 11 23  1  0
 12 14  4  0
 12 16  4  0
 14 19  4  0
 15 18  4  0
 16 20  4  0
 17 25  1  0
 18 26  4  0
 19 29  4  0
 20 29  4  0
 21 23  1  0
 21 25  1  0
 27 29  4  0
M  END
$$$$

 Created by Python create_sdf_string function

 29 32  0  0  0  0  0  0  0  0999 V2000
    5.4450    8.7154   22.6662 C   0  0  0  0  0  0  0  0  0  0  0  0
   10.9154    5.4574   20.5483 C   0  0  0  0  0  0  0  0  0  0  0  0
    7.2709    4.5089   22.7542 C   0  0  0  0  0  0  0  0  0  0  0  0
    5.9698    7.6329   24.6581 C   0  0  0  0  0  0  0  0  0  0  0  0
    4.5542    8.9057   21.7104 O   0  0  0  0  0  0  0  0  0  0  0  0
    6.9895    3.2085   23.0690 C   0  0  0  0  0  0  0  0  0  0  0  0
    7.8391    2.2253   22.7260 N   0  0  0  0  0  0  0  0  0  0  0  0
    8.6968    9.8373   23.6359 C   0  0  0  0  0  0  0  0  0  0  0  0
   12.5135    6.5957   21.8396 C   0  0  0  0  0  0  0  0  0  0  0  0
   10.9406    8.2330   21.1350 C   0  0  0  0  0  0  0  0  0  0  0  0
    9.6648    8.5956   21.7310 C   0  0  0  0  0  0  0  0  0  0  0  0
   10.8829    1.7153   20.9865 C   0  0  0  0  0  0  0  0  0  0  0  0
    5.7768    2.8533   23.7910 C   0  0  0  0  0  0  0  0  0  0  0  0
    9.7977    1.4791   21.6912 N   0  0  0  0  0  0  0  0  0  0  0  0
    6.5976    9.3401   22.6478 N   0  0  0  0  0  0  0  0  0  0  0  0
   11.2031    3.0042   20.6246 C   0  0  0  0  0  0  0  0  0  0  0  0
   12.8688    7.7370   22.7287 C   0  0  0  0  0  0  0  0  0  0  0  0
    7.4487    9.1361   23.6506 C   0  0  0  0  0  0  0  0  0  0  0  0
    8.9772    2.5025   22.0273 C   0  0  0  0  0  0  0  0  0  0  0  0
   10.4859    4.0901   20.9730 C   0  0  0  0  0  0  0  0  0  0  0  0
   11.0962    9.3293   23.5072 C   0  0  0  0  0  0  0  0  0  0  0  0
    5.1273    7.8529   23.6208 N   0  0  0  0  0  0  0  0  0  0  0  0
    9.7552    9.2338   23.0171 N   0  0  0  0  0  0  0  0  0  0  0  0
   11.1797    6.7591   21.3326 N   0  0  0  0  0  0  0  0  0  0  0  0
   11.7728    8.0337   23.7267 C   0  0  0  0  0  0  0  0  0  0  0  0
    7.1194    8.3344   24.6775 C   0  0  0  0  0  0  0  0  0  0  0  0
    8.4311    4.7963   22.0500 C   0  0  0  0  0  0  0  0  0  0  0  0
    8.7393   10.8706   24.1871 O   0  0  0  0  0  0  0  0  0  0  0  0
    9.3093    3.8166   21.6712 C   0  0  0  0  0  0  0  0  0  0  0  0
  1  5  1  0
  1 15  4  0
  1 22  4  0
  2 20  1  0
  2 24  1  0
  3  6  4  0
  3 27  4  0
  4 22  4  0
  4 26  4  0
  6  7  4  0
  6 13  1  0
  7 19  4  0
  8 18  1  0
  8 23  1  0
  8 28  2  0
  9 17  1  0
  9 24  1  0
 10 11  1  0
 10 24  1  0
 11 23  1  0
 12 14  4  0
 12 16  4  0
 14 19  4  0
 15 18  4  0
 16 20  4  0
 17 25  1  0
 18 26  4  0
 19 29  4  0
 20 29  4  0
 21 23  1  0
 21 25  1  0
 27 29  4  0
M  END
$$$$

 Created by Python create_sdf_string function

 29 32  0  0  0  0  0  0  0  0999 V2000
    5.4450    8.7154   22.6662 C   0  0  0  0  0  0  0  0  0  0  0  0
   10.9154    5.4574   20.5483 C   0  0  0  0  0  0  0  0  0  0  0  0
    7.2709    4.5089   22.7542 C   0  0  0  0  0  0  0  0  0  0  0  0
    5.9698    7.6329   24.6581 C   0  0  0  0  0  0  0  0  0  0  0  0
    4.5542    8.9057   21.7104 O   0  0  0  0  0  0  0  0  0  0  0  0
    6.9895    3.2085   23.0690 C   0  0  0  0  0  0  0  0  0  0  0  0
    7.8391    2.2253   22.7260 N   0  0  0  0  0  0  0  0  0  0  0  0
    8.6968    9.8373   23.6359 C   0  0  0  0  0  0  0  0  0  0  0  0
   12.5135    6.5957   21.8396 C   0  0  0  0  0  0  0  0  0  0  0  0
   10.9406    8.2330   21.1350 C   0  0  0  0  0  0  0  0  0  0  0  0
    9.6648    8.5956   21.7310 C   0  0  0  0  0  0  0  0  0  0  0  0
   10.8829    1.7153   20.9865 C   0  0  0  0  0  0  0  0  0  0  0  0
    5.7768    2.8533   23.7910 C   0  0  0  0  0  0  0  0  0  0  0  0
    9.7977    1.4791   21.6912 N   0  0  0  0  0  0  0  0  0  0  0  0
    6.5976    9.3401   22.6478 N   0  0  0  0  0  0  0  0  0  0  0  0
   11.2031    3.0042   20.6246 C   0  0  0  0  0  0  0  0  0  0  0  0
   12.8688    7.7370   22.7287 C   0  0  0  0  0  0  0  0  0  0  0  0
    7.4487    9.1361   23.6506 C   0  0  0  0  0  0  0  0  0  0  0  0
    8.9772    2.5025   22.0273 C   0  0  0  0  0  0  0  0  0  0  0  0
   10.4859    4.0901   20.9730 C   0  0  0  0  0  0  0  0  0  0  0  0
   11.0962    9.3293   23.5072 C   0  0  0  0  0  0  0  0  0  0  0  0
    5.1273    7.8529   23.6208 N   0  0  0  0  0  0  0  0  0  0  0  0
    9.7552    9.2338   23.0171 N   0  0  0  0  0  0  0  0  0  0  0  0
   11.1797    6.7591   21.3326 N   0  0  0  0  0  0  0  0  0  0  0  0
   11.7728    8.0337   23.7267 C   0  0  0  0  0  0  0  0  0  0  0  0
    7.1194    8.3344   24.6775 C   0  0  0  0  0  0  0  0  0  0  0  0
    8.4311    4.7963   22.0500 C   0  0  0  0  0  0  0  0  0  0  0  0
    8.7393   10.8706   24.1871 O   0  0  0  0  0  0  0  0  0  0  0  0
    9.3093    3.8166   21.6712 C   0  0  0  0  0  0  0  0  0  0  0  0
  1  5  1  0
  1 15  4  0
  1 22  4  0
  2 20  1  0
  2 24  1  0
  3  6  4  0
  3 27  4  0
  4 22  4  0
  4 26  4  0
  6  7  4  0
  6 13  1  0
  7 19  4  0
  8 18  1  0
  8 23  1  0
  8 28  2  0
  9 17  1  0
  9 24  1  0
 10 11  1  0
 10 24  1  0
 11 23  1  0
 12 14  4  0
 12 16  4  0
 14 19  4  0
 15 18  4  0
 16 20  4  0
 17 25  1  0
 18 26  4  0
 19 29  4  0
 20 29  4  0
 21 23  1  0
 21 25  1  0
 27 29  4  0
M  END
$$$$

 Created by Python create_sdf_string function

 29 32  0  0  0  0  0  0  0  0999 V2000
    5.4450    8.7154   22.6662 C   0  0  0  0  0  0  0  0  0  0  0  0
   10.9154    5.4574   20.5483 C   0  0  0  0  0  0  0  0  0  0  0  0
    7.2709    4.5089   22.7542 C   0  0  0  0  0  0  0  0  0  0  0  0
    5.9698    7.6329   24.6581 C   0  0  0  0  0  0  0  0  0  0  0  0
    4.5542    8.9057   21.7104 O   0  0  0  0  0  0  0  0  0  0  0  0
    6.9895    3.2085   23.0690 C   0  0  0  0  0  0  0  0  0  0  0  0
    7.8391    2.2253   22.7260 N   0  0  0  0  0  0  0  0  0  0  0  0
    8.6968    9.8373   23.6359 C   0  0  0  0  0  0  0  0  0  0  0  0
   12.5135    6.5957   21.8396 C   0  0  0  0  0  0  0  0  0  0  0  0
   10.9406    8.2330   21.1350 C   0  0  0  0  0  0  0  0  0  0  0  0
    9.6648    8.5956   21.7310 C   0  0  0  0  0  0  0  0  0  0  0  0
   10.8829    1.7153   20.9865 C   0  0  0  0  0  0  0  0  0  0  0  0
    5.7768    2.8533   23.7910 C   0  0  0  0  0  0  0  0  0  0  0  0
    9.7977    1.4791   21.6912 N   0  0  0  0  0  0  0  0  0  0  0  0
    6.5976    9.3401   22.6478 N   0  0  0  0  0  0  0  0  0  0  0  0
   11.2031    3.0042   20.6246 C   0  0  0  0  0  0  0  0  0  0  0  0
   12.8688    7.7370   22.7287 C   0  0  0  0  0  0  0  0  0  0  0  0
    7.4487    9.1361   23.6506 C   0  0  0  0  0  0  0  0  0  0  0  0
    8.9772    2.5025   22.0273 C   0  0  0  0  0  0  0  0  0  0  0  0
   10.4859    4.0901   20.9730 C   0  0  0  0  0  0  0  0  0  0  0  0
   11.0962    9.3293   23.5072 C   0  0  0  0  0  0  0  0  0  0  0  0
    5.1273    7.8529   23.6208 N   0  0  0  0  0  0  0  0  0  0  0  0
    9.7552    9.2338   23.0171 N   0  0  0  0  0  0  0  0  0  0  0  0
   11.1797    6.7591   21.3326 N   0  0  0  0  0  0  0  0  0  0  0  0
   11.7728    8.0337   23.7267 C   0  0  0  0  0  0  0  0  0  0  0  0
    7.1194    8.3344   24.6775 C   0  0  0  0  0  0  0  0  0  0  0  0
    8.4311    4.7963   22.0500 C   0  0  0  0  0  0  0  0  0  0  0  0
    8.7393   10.8706   24.1871 O   0  0  0  0  0  0  0  0  0  0  0  0
    9.3093    3.8166   21.6712 C   0  0  0  0  0  0  0  0  0  0  0  0
  1  5  1  0
  1 15  4  0
  1 22  4  0
  2 20  1  0
  2 24  1  0
  3  6  4  0
  3 27  4  0
  4 22  4  0
  4 26  4  0
  6  7  4  0
  6 13  1  0
  7 19  4  0
  8 18  1  0
  8 23  1  0
  8 28  2  0
  9 17  1  0
  9 24  1  0
 10 11  1  0
 10 24  1  0
 11 23  1  0
 12 14  4  0
 12 16  4  0
 14 19  4  0
 15 18  4  0
 16 20  4  0
 17 25  1  0
 18 26  4  0
 19 29  4  0
 20 29  4  0
 21 23  1  0
 21 25  1  0
 27 29  4  0
M  END
$$$$

 Created by Python create_sdf_string function

 29 32  0  0  0  0  0  0  0  0999 V2000
    5.4450    8.7154   22.6662 C   0  0  0  0  0  0  0  0  0  0  0  0
   10.9154    5.4574   20.5483 C   0  0  0  0  0  0  0  0  0  0  0  0
    7.2709    4.5089   22.7542 C   0  0  0  0  0  0  0  0  0  0  0  0
    5.9698    7.6329   24.6581 C   0  0  0  0  0  0  0  0  0  0  0  0
    4.5542    8.9057   21.7104 O   0  0  0  0  0  0  0  0  0  0  0  0
    6.9895    3.2085   23.0690 C   0  0  0  0  0  0  0  0  0  0  0  0
    7.8391    2.2253   22.7260 N   0  0  0  0  0  0  0  0  0  0  0  0
    8.6968    9.8373   23.6359 C   0  0  0  0  0  0  0  0  0  0  0  0
   12.5135    6.5957   21.8396 C   0  0  0  0  0  0  0  0  0  0  0  0
   10.9406    8.2330   21.1350 C   0  0  0  0  0  0  0  0  0  0  0  0
    9.6648    8.5956   21.7310 C   0  0  0  0  0  0  0  0  0  0  0  0
   10.8829    1.7153   20.9865 C   0  0  0  0  0  0  0  0  0  0  0  0
    5.7768    2.8533   23.7910 C   0  0  0  0  0  0  0  0  0  0  0  0
    9.7977    1.4791   21.6912 N   0  0  0  0  0  0  0  0  0  0  0  0
    6.5976    9.3401   22.6478 N   0  0  0  0  0  0  0  0  0  0  0  0
   11.2031    3.0042   20.6246 C   0  0  0  0  0  0  0  0  0  0  0  0
   12.8688    7.7370   22.7287 C   0  0  0  0  0  0  0  0  0  0  0  0
    7.4487    9.1361   23.6506 C   0  0  0  0  0  0  0  0  0  0  0  0
    8.9772    2.5025   22.0273 C   0  0  0  0  0  0  0  0  0  0  0  0
   10.4859    4.0901   20.9730 C   0  0  0  0  0  0  0  0  0  0  0  0
   11.0962    9.3293   23.5072 C   0  0  0  0  0  0  0  0  0  0  0  0
    5.1273    7.8529   23.6208 N   0  0  0  0  0  0  0  0  0  0  0  0
    9.7552    9.2338   23.0171 N   0  0  0  0  0  0  0  0  0  0  0  0
   11.1797    6.7591   21.3326 N   0  0  0  0  0  0  0  0  0  0  0  0
   11.7728    8.0337   23.7267 C   0  0  0  0  0  0  0  0  0  0  0  0
    7.1194    8.3344   24.6775 C   0  0  0  0  0  0  0  0  0  0  0  0
    8.4311    4.7963   22.0500 C   0  0  0  0  0  0  0  0  0  0  0  0
    8.7393   10.8706   24.1871 O   0  0  0  0  0  0  0  0  0  0  0  0
    9.3093    3.8166   21.6712 C   0  0  0  0  0  0  0  0  0  0  0  0
  1  5  1  0
  1 15  4  0
  1 22  4  0
  2 20  1  0
  2 24  1  0
  3  6  4  0
  3 27  4  0
  4 22  4  0
  4 26  4  0
  6  7  4  0
  6 13  1  0
  7 19  4  0
  8 18  1  0
  8 23  1  0
  8 28  2  0
  9 17  1  0
  9 24  1  0
 10 11  1  0
 10 24  1  0
 11 23  1  0
 12 14  4  0
 12 16  4  0
 14 19  4  0
 15 18  4  0
 16 20  4  0
 17 25  1  0
 18 26  4  0
 19 29  4  0
 20 29  4  0
 21 23  1  0
 21 25  1  0
 27 29  4  0
M  END
$$$$

 Created by Python create_sdf_string function

 29 32  0  0  0  0  0  0  0  0999 V2000
    5.4450    8.7154   22.6662 C   0  0  0  0  0  0  0  0  0  0  0  0
   10.9154    5.4574   20.5483 C   0  0  0  0  0  0  0  0  0  0  0  0
    7.2709    4.5089   22.7542 C   0  0  0  0  0  0  0  0  0  0  0  0
    5.9698    7.6329   24.6581 C   0  0  0  0  0  0  0  0  0  0  0  0
    4.5542    8.9057   21.7104 O   0  0  0  0  0  0  0  0  0  0  0  0
    6.9895    3.2085   23.0690 C   0  0  0  0  0  0  0  0  0  0  0  0
    7.8391    2.2253   22.7260 N   0  0  0  0  0  0  0  0  0  0  0  0
    8.6968    9.8373   23.6359 C   0  0  0  0  0  0  0  0  0  0  0  0
   12.5135    6.5957   21.8396 C   0  0  0  0  0  0  0  0  0  0  0  0
   10.9406    8.2330   21.1350 C   0  0  0  0  0  0  0  0  0  0  0  0
    9.6648    8.5956   21.7310 C   0  0  0  0  0  0  0  0  0  0  0  0
   10.8829    1.7153   20.9865 C   0  0  0  0  0  0  0  0  0  0  0  0
    5.7768    2.8533   23.7910 C   0  0  0  0  0  0  0  0  0  0  0  0
    9.7977    1.4791   21.6912 N   0  0  0  0  0  0  0  0  0  0  0  0
    6.5976    9.3401   22.6478 N   0  0  0  0  0  0  0  0  0  0  0  0
   11.2031    3.0042   20.6246 C   0  0  0  0  0  0  0  0  0  0  0  0
   12.8688    7.7370   22.7287 C   0  0  0  0  0  0  0  0  0  0  0  0
    7.4487    9.1361   23.6506 C   0  0  0  0  0  0  0  0  0  0  0  0
    8.9772    2.5025   22.0273 C   0  0  0  0  0  0  0  0  0  0  0  0
   10.4859    4.0901   20.9730 C   0  0  0  0  0  0  0  0  0  0  0  0
   11.0962    9.3293   23.5072 C   0  0  0  0  0  0  0  0  0  0  0  0
    5.1273    7.8529   23.6208 N   0  0  0  0  0  0  0  0  0  0  0  0
    9.7552    9.2338   23.0171 N   0  0  0  0  0  0  0  0  0  0  0  0
   11.1797    6.7591   21.3326 N   0  0  0  0  0  0  0  0  0  0  0  0
   11.7728    8.0337   23.7267 C   0  0  0  0  0  0  0  0  0  0  0  0
    7.1194    8.3344   24.6775 C   0  0  0  0  0  0  0  0  0  0  0  0
    8.4311    4.7963   22.0500 C   0  0  0  0  0  0  0  0  0  0  0  0
    8.7393   10.8706   24.1871 O   0  0  0  0  0  0  0  0  0  0  0  0
    9.3093    3.8166   21.6712 C   0  0  0  0  0  0  0  0  0  0  0  0
  1  5  1  0
  1 15  4  0
  1 22  4  0
  2 20  1  0
  2 24  1  0
  3  6  4  0
  3 27  4  0
  4 22  4  0
  4 26  4  0
  6  7  4  0
  6 13  1  0
  7 19  4  0
  8 18  1  0
  8 23  1  0
  8 28  2  0
  9 17  1  0
  9 24  1  0
 10 11  1  0
 10 24  1  0
 11 23  1  0
 12 14  4  0
 12 16  4  0
 14 19  4  0
 15 18  4  0
 16 20  4  0
 17 25  1  0
 18 26  4  0
 19 29  4  0
 20 29  4  0
 21 23  1  0
 21 25  1  0
 27 29  4  0
M  END
$$$$

 Created by Python create_sdf_string function

 29 32  0  0  0  0  0  0  0  0999 V2000
    5.4450    8.7154   22.6662 C   0  0  0  0  0  0  0  0  0  0  0  0
   10.9154    5.4574   20.5483 C   0  0  0  0  0  0  0  0  0  0  0  0
    7.2709    4.5089   22.7542 C   0  0  0  0  0  0  0  0  0  0  0  0
    5.9698    7.6329   24.6581 C   0  0  0  0  0  0  0  0  0  0  0  0
    4.5542    8.9057   21.7104 O   0  0  0  0  0  0  0  0  0  0  0  0
    6.9895    3.2085   23.0690 C   0  0  0  0  0  0  0  0  0  0  0  0
    7.8391    2.2253   22.7260 N   0  0  0  0  0  0  0  0  0  0  0  0
    8.6968    9.8373   23.6359 C   0  0  0  0  0  0  0  0  0  0  0  0
   12.5135    6.5957   21.8396 C   0  0  0  0  0  0  0  0  0  0  0  0
   10.9406    8.2330   21.1350 C   0  0  0  0  0  0  0  0  0  0  0  0
    9.6648    8.5956   21.7310 C   0  0  0  0  0  0  0  0  0  0  0  0
   10.8829    1.7153   20.9865 C   0  0  0  0  0  0  0  0  0  0  0  0
    5.7768    2.8533   23.7910 C   0  0  0  0  0  0  0  0  0  0  0  0
    9.7977    1.4791   21.6912 N   0  0  0  0  0  0  0  0  0  0  0  0
    6.5976    9.3401   22.6478 N   0  0  0  0  0  0  0  0  0  0  0  0
   11.2031    3.0042   20.6246 C   0  0  0  0  0  0  0  0  0  0  0  0
   12.8688    7.7370   22.7287 C   0  0  0  0  0  0  0  0  0  0  0  0
    7.4487    9.1361   23.6506 C   0  0  0  0  0  0  0  0  0  0  0  0
    8.9772    2.5025   22.0273 C   0  0  0  0  0  0  0  0  0  0  0  0
   10.4859    4.0901   20.9730 C   0  0  0  0  0  0  0  0  0  0  0  0
   11.0962    9.3293   23.5072 C   0  0  0  0  0  0  0  0  0  0  0  0
    5.1273    7.8529   23.6208 N   0  0  0  0  0  0  0  0  0  0  0  0
    9.7552    9.2338   23.0171 N   0  0  0  0  0  0  0  0  0  0  0  0
   11.1797    6.7591   21.3326 N   0  0  0  0  0  0  0  0  0  0  0  0
   11.7728    8.0337   23.7267 C   0  0  0  0  0  0  0  0  0  0  0  0
    7.1194    8.3344   24.6775 C   0  0  0  0  0  0  0  0  0  0  0  0
    8.4311    4.7963   22.0500 C   0  0  0  0  0  0  0  0  0  0  0  0
    8.7393   10.8706   24.1871 O   0  0  0  0  0  0  0  0  0  0  0  0
    9.3093    3.8166   21.6712 C   0  0  0  0  0  0  0  0  0  0  0  0
  1  5  1  0
  1 15  4  0
  1 22  4  0
  2 20  1  0
  2 24  1  0
  3  6  4  0
  3 27  4  0
  4 22  4  0
  4 26  4  0
  6  7  4  0
  6 13  1  0
  7 19  4  0
  8 18  1  0
  8 23  1  0
  8 28  2  0
  9 17  1  0
  9 24  1  0
 10 11  1  0
 10 24  1  0
 11 23  1  0
 12 14  4  0
 12 16  4  0
 14 19  4  0
 15 18  4  0
 16 20  4  0
 17 25  1  0
 18 26  4  0
 19 29  4  0
 20 29  4  0
 21 23  1  0
 21 25  1  0
 27 29  4  0
M  END
$$$$

 Created by Python create_sdf_string function

 29 32  0  0  0  0  0  0  0  0999 V2000
    5.4450    8.7154   22.6662 C   0  0  0  0  0  0  0  0  0  0  0  0
   10.9154    5.4574   20.5483 C   0  0  0  0  0  0  0  0  0  0  0  0
    7.2709    4.5089   22.7542 C   0  0  0  0  0  0  0  0  0  0  0  0
    5.9698    7.6329   24.6581 C   0  0  0  0  0  0  0  0  0  0  0  0
    4.5542    8.9057   21.7104 O   0  0  0  0  0  0  0  0  0  0  0  0
    6.9895    3.2085   23.0690 C   0  0  0  0  0  0  0  0  0  0  0  0
    7.8391    2.2253   22.7260 N   0  0  0  0  0  0  0  0  0  0  0  0
    8.6968    9.8373   23.6359 C   0  0  0  0  0  0  0  0  0  0  0  0
   12.5135    6.5957   21.8396 C   0  0  0  0  0  0  0  0  0  0  0  0
   10.9406    8.2330   21.1350 C   0  0  0  0  0  0  0  0  0  0  0  0
    9.6648    8.5956   21.7310 C   0  0  0  0  0  0  0  0  0  0  0  0
   10.8829    1.7153   20.9865 C   0  0  0  0  0  0  0  0  0  0  0  0
    5.7768    2.8533   23.7910 C   0  0  0  0  0  0  0  0  0  0  0  0
    9.7977    1.4791   21.6912 N   0  0  0  0  0  0  0  0  0  0  0  0
    6.5976    9.3401   22.6478 N   0  0  0  0  0  0  0  0  0  0  0  0
   11.2031    3.0042   20.6246 C   0  0  0  0  0  0  0  0  0  0  0  0
   12.8688    7.7370   22.7287 C   0  0  0  0  0  0  0  0  0  0  0  0
    7.4487    9.1361   23.6506 C   0  0  0  0  0  0  0  0  0  0  0  0
    8.9772    2.5025   22.0273 C   0  0  0  0  0  0  0  0  0  0  0  0
   10.4859    4.0901   20.9730 C   0  0  0  0  0  0  0  0  0  0  0  0
   11.0962    9.3293   23.5072 C   0  0  0  0  0  0  0  0  0  0  0  0
    5.1273    7.8529   23.6208 N   0  0  0  0  0  0  0  0  0  0  0  0
    9.7552    9.2338   23.0171 N   0  0  0  0  0  0  0  0  0  0  0  0
   11.1797    6.7591   21.3326 N   0  0  0  0  0  0  0  0  0  0  0  0
   11.7728    8.0337   23.7267 C   0  0  0  0  0  0  0  0  0  0  0  0
    7.1194    8.3344   24.6775 C   0  0  0  0  0  0  0  0  0  0  0  0
    8.4311    4.7963   22.0500 C   0  0  0  0  0  0  0  0  0  0  0  0
    8.7393   10.8706   24.1871 O   0  0  0  0  0  0  0  0  0  0  0  0
    9.3093    3.8166   21.6712 C   0  0  0  0  0  0  0  0  0  0  0  0
  1  5  1  0
  1 15  4  0
  1 22  4  0
  2 20  1  0
  2 24  1  0
  3  6  4  0
  3 27  4  0
  4 22  4  0
  4 26  4  0
  6  7  4  0
  6 13  1  0
  7 19  4  0
  8 18  1  0
  8 23  1  0
  8 28  2  0
  9 17  1  0
  9 24  1  0
 10 11  1  0
 10 24  1  0
 11 23  1  0
 12 14  4  0
 12 16  4  0
 14 19  4  0
 15 18  4  0
 16 20  4  0
 17 25  1  0
 18 26  4  0
 19 29  4  0
 20 29  4  0
 21 23  1  0
 21 25  1  0
 27 29  4  0
M  END
$$$$

 Created by Python create_sdf_string function

 29 32  0  0  0  0  0  0  0  0999 V2000
    5.4450    8.7154   22.6662 C   0  0  0  0  0  0  0  0  0  0  0  0
   10.9154    5.4574   20.5483 C   0  0  0  0  0  0  0  0  0  0  0  0
    7.2709    4.5089   22.7542 C   0  0  0  0  0  0  0  0  0  0  0  0
    5.9698    7.6329   24.6581 C   0  0  0  0  0  0  0  0  0  0  0  0
    4.5542    8.9057   21.7104 O   0  0  0  0  0  0  0  0  0  0  0  0
    6.9895    3.2085   23.0690 C   0  0  0  0  0  0  0  0  0  0  0  0
    7.8391    2.2253   22.7260 N   0  0  0  0  0  0  0  0  0  0  0  0
    8.6968    9.8373   23.6359 C   0  0  0  0  0  0  0  0  0  0  0  0
   12.5135    6.5957   21.8396 C   0  0  0  0  0  0  0  0  0  0  0  0
   10.9406    8.2330   21.1350 C   0  0  0  0  0  0  0  0  0  0  0  0
    9.6648    8.5956   21.7310 C   0  0  0  0  0  0  0  0  0  0  0  0
   10.8829    1.7153   20.9865 C   0  0  0  0  0  0  0  0  0  0  0  0
    5.7768    2.8533   23.7910 C   0  0  0  0  0  0  0  0  0  0  0  0
    9.7977    1.4791   21.6912 N   0  0  0  0  0  0  0  0  0  0  0  0
    6.5976    9.3401   22.6478 N   0  0  0  0  0  0  0  0  0  0  0  0
   11.2031    3.0042   20.6246 C   0  0  0  0  0  0  0  0  0  0  0  0
   12.8688    7.7370   22.7287 C   0  0  0  0  0  0  0  0  0  0  0  0
    7.4487    9.1361   23.6506 C   0  0  0  0  0  0  0  0  0  0  0  0
    8.9772    2.5025   22.0273 C   0  0  0  0  0  0  0  0  0  0  0  0
   10.4859    4.0901   20.9730 C   0  0  0  0  0  0  0  0  0  0  0  0
   11.0962    9.3293   23.5072 C   0  0  0  0  0  0  0  0  0  0  0  0
    5.1273    7.8529   23.6208 N   0  0  0  0  0  0  0  0  0  0  0  0
    9.7552    9.2338   23.0171 N   0  0  0  0  0  0  0  0  0  0  0  0
   11.1797    6.7591   21.3326 N   0  0  0  0  0  0  0  0  0  0  0  0
   11.7728    8.0337   23.7267 C   0  0  0  0  0  0  0  0  0  0  0  0
    7.1194    8.3344   24.6775 C   0  0  0  0  0  0  0  0  0  0  0  0
    8.4311    4.7963   22.0500 C   0  0  0  0  0  0  0  0  0  0  0  0
    8.7393   10.8706   24.1871 O   0  0  0  0  0  0  0  0  0  0  0  0
    9.3093    3.8166   21.6712 C   0  0  0  0  0  0  0  0  0  0  0  0
  1  5  1  0
  1 15  4  0
  1 22  4  0
  2 20  1  0
  2 24  1  0
  3  6  4  0
  3 27  4  0
  4 22  4  0
  4 26  4  0
  6  7  4  0
  6 13  1  0
  7 19  4  0
  8 18  1  0
  8 23  1  0
  8 28  2  0
  9 17  1  0
  9 24  1  0
 10 11  1  0
 10 24  1  0
 11 23  1  0
 12 14  4  0
 12 16  4  0
 14 19  4  0
 15 18  4  0
 16 20  4  0
 17 25  1  0
 18 26  4  0
 19 29  4  0
 20 29  4  0
 21 23  1  0
 21 25  1  0
 27 29  4  0
M  END
$$$$

 Created by Python create_sdf_string function

 29 32  0  0  0  0  0  0  0  0999 V2000
    5.4450    8.7154   22.6662 C   0  0  0  0  0  0  0  0  0  0  0  0
   10.9154    5.4574   20.5483 C   0  0  0  0  0  0  0  0  0  0  0  0
    7.2709    4.5089   22.7542 C   0  0  0  0  0  0  0  0  0  0  0  0
    5.9698    7.6329   24.6581 C   0  0  0  0  0  0  0  0  0  0  0  0
    4.5542    8.9057   21.7104 O   0  0  0  0  0  0  0  0  0  0  0  0
    6.9895    3.2085   23.0690 C   0  0  0  0  0  0  0  0  0  0  0  0
    7.8391    2.2253   22.7260 N   0  0  0  0  0  0  0  0  0  0  0  0
    8.6968    9.8373   23.6359 C   0  0  0  0  0  0  0  0  0  0  0  0
   12.5135    6.5957   21.8396 C   0  0  0  0  0  0  0  0  0  0  0  0
   10.9406    8.2330   21.1350 C   0  0  0  0  0  0  0  0  0  0  0  0
    9.6648    8.5956   21.7310 C   0  0  0  0  0  0  0  0  0  0  0  0
   10.8829    1.7153   20.9865 C   0  0  0  0  0  0  0  0  0  0  0  0
    5.7768    2.8533   23.7910 C   0  0  0  0  0  0  0  0  0  0  0  0
    9.7977    1.4791   21.6912 N   0  0  0  0  0  0  0  0  0  0  0  0
    6.5976    9.3401   22.6478 N   0  0  0  0  0  0  0  0  0  0  0  0
   11.2031    3.0042   20.6246 C   0  0  0  0  0  0  0  0  0  0  0  0
   12.8688    7.7370   22.7287 C   0  0  0  0  0  0  0  0  0  0  0  0
    7.4487    9.1361   23.6506 C   0  0  0  0  0  0  0  0  0  0  0  0
    8.9772    2.5025   22.0273 C   0  0  0  0  0  0  0  0  0  0  0  0
   10.4859    4.0901   20.9730 C   0  0  0  0  0  0  0  0  0  0  0  0
   11.0962    9.3293   23.5072 C   0  0  0  0  0  0  0  0  0  0  0  0
    5.1273    7.8529   23.6208 N   0  0  0  0  0  0  0  0  0  0  0  0
    9.7552    9.2338   23.0171 N   0  0  0  0  0  0  0  0  0  0  0  0
   11.1797    6.7591   21.3326 N   0  0  0  0  0  0  0  0  0  0  0  0
   11.7728    8.0337   23.7267 C   0  0  0  0  0  0  0  0  0  0  0  0
    7.1194    8.3344   24.6775 C   0  0  0  0  0  0  0  0  0  0  0  0
    8.4311    4.7963   22.0500 C   0  0  0  0  0  0  0  0  0  0  0  0
    8.7393   10.8706   24.1871 O   0  0  0  0  0  0  0  0  0  0  0  0
    9.3093    3.8166   21.6712 C   0  0  0  0  0  0  0  0  0  0  0  0
  1  5  1  0
  1 15  4  0
  1 22  4  0
  2 20  1  0
  2 24  1  0
  3  6  4  0
  3 27  4  0
  4 22  4  0
  4 26  4  0
  6  7  4  0
  6 13  1  0
  7 19  4  0
  8 18  1  0
  8 23  1  0
  8 28  2  0
  9 17  1  0
  9 24  1  0
 10 11  1  0
 10 24  1  0
 11 23  1  0
 12 14  4  0
 12 16  4  0
 14 19  4  0
 15 18  4  0
 16 20  4  0
 17 25  1  0
 18 26  4  0
 19 29  4  0
 20 29  4  0
 21 23  1  0
 21 25  1  0
 27 29  4  0
M  END
$$$$

 Created by Python create_sdf_string function

 29 32  0  0  0  0  0  0  0  0999 V2000
    5.4450    8.7154   22.6662 C   0  0  0  0  0  0  0  0  0  0  0  0
   10.9154    5.4574   20.5483 C   0  0  0  0  0  0  0  0  0  0  0  0
    7.2709    4.5089   22.7542 C   0  0  0  0  0  0  0  0  0  0  0  0
    5.9698    7.6329   24.6581 C   0  0  0  0  0  0  0  0  0  0  0  0
    4.5542    8.9057   21.7104 O   0  0  0  0  0  0  0  0  0  0  0  0
    6.9895    3.2085   23.0690 C   0  0  0  0  0  0  0  0  0  0  0  0
    7.8391    2.2253   22.7260 N   0  0  0  0  0  0  0  0  0  0  0  0
    8.6968    9.8373   23.6359 C   0  0  0  0  0  0  0  0  0  0  0  0
   12.5135    6.5957   21.8396 C   0  0  0  0  0  0  0  0  0  0  0  0
   10.9406    8.2330   21.1350 C   0  0  0  0  0  0  0  0  0  0  0  0
    9.6648    8.5956   21.7310 C   0  0  0  0  0  0  0  0  0  0  0  0
   10.8829    1.7153   20.9865 C   0  0  0  0  0  0  0  0  0  0  0  0
    5.7768    2.8533   23.7910 C   0  0  0  0  0  0  0  0  0  0  0  0
    9.7977    1.4791   21.6912 N   0  0  0  0  0  0  0  0  0  0  0  0
    6.5976    9.3401   22.6478 N   0  0  0  0  0  0  0  0  0  0  0  0
   11.2031    3.0042   20.6246 C   0  0  0  0  0  0  0  0  0  0  0  0
   12.8688    7.7370   22.7287 C   0  0  0  0  0  0  0  0  0  0  0  0
    7.4487    9.1361   23.6506 C   0  0  0  0  0  0  0  0  0  0  0  0
    8.9772    2.5025   22.0273 C   0  0  0  0  0  0  0  0  0  0  0  0
   10.4859    4.0901   20.9730 C   0  0  0  0  0  0  0  0  0  0  0  0
   11.0962    9.3293   23.5072 C   0  0  0  0  0  0  0  0  0  0  0  0
    5.1273    7.8529   23.6208 N   0  0  0  0  0  0  0  0  0  0  0  0
    9.7552    9.2338   23.0171 N   0  0  0  0  0  0  0  0  0  0  0  0
   11.1797    6.7591   21.3326 N   0  0  0  0  0  0  0  0  0  0  0  0
   11.7728    8.0337   23.7267 C   0  0  0  0  0  0  0  0  0  0  0  0
    7.1194    8.3344   24.6775 C   0  0  0  0  0  0  0  0  0  0  0  0
    8.4311    4.7963   22.0500 C   0  0  0  0  0  0  0  0  0  0  0  0
    8.7393   10.8706   24.1871 O   0  0  0  0  0  0  0  0  0  0  0  0
    9.3093    3.8166   21.6712 C   0  0  0  0  0  0  0  0  0  0  0  0
  1  5  1  0
  1 15  4  0
  1 22  4  0
  2 20  1  0
  2 24  1  0
  3  6  4  0
  3 27  4  0
  4 22  4  0
  4 26  4  0
  6  7  4  0
  6 13  1  0
  7 19  4  0
  8 18  1  0
  8 23  1  0
  8 28  2  0
  9 17  1  0
  9 24  1  0
 10 11  1  0
 10 24  1  0
 11 23  1  0
 12 14  4  0
 12 16  4  0
 14 19  4  0
 15 18  4  0
 16 20  4  0
 17 25  1  0
 18 26  4  0
 19 29  4  0
 20 29  4  0
 21 23  1  0
 21 25  1  0
 27 29  4  0
M  END
$$$$

 Created by Python create_sdf_string function

 29 32  0  0  0  0  0  0  0  0999 V2000
    5.4450    8.7154   22.6662 C   0  0  0  0  0  0  0  0  0  0  0  0
   10.9154    5.4574   20.5483 C   0  0  0  0  0  0  0  0  0  0  0  0
    7.2709    4.5089   22.7542 C   0  0  0  0  0  0  0  0  0  0  0  0
    5.9698    7.6329   24.6581 C   0  0  0  0  0  0  0  0  0  0  0  0
    4.5542    8.9057   21.7104 O   0  0  0  0  0  0  0  0  0  0  0  0
    6.9895    3.2085   23.0690 C   0  0  0  0  0  0  0  0  0  0  0  0
    7.8391    2.2253   22.7260 N   0  0  0  0  0  0  0  0  0  0  0  0
    8.6968    9.8373   23.6359 C   0  0  0  0  0  0  0  0  0  0  0  0
   12.5135    6.5957   21.8396 C   0  0  0  0  0  0  0  0  0  0  0  0
   10.9406    8.2330   21.1350 C   0  0  0  0  0  0  0  0  0  0  0  0
    9.6648    8.5956   21.7310 C   0  0  0  0  0  0  0  0  0  0  0  0
   10.8829    1.7153   20.9865 C   0  0  0  0  0  0  0  0  0  0  0  0
    5.7768    2.8533   23.7910 C   0  0  0  0  0  0  0  0  0  0  0  0
    9.7977    1.4791   21.6912 N   0  0  0  0  0  0  0  0  0  0  0  0
    6.5976    9.3401   22.6478 N   0  0  0  0  0  0  0  0  0  0  0  0
   11.2031    3.0042   20.6246 C   0  0  0  0  0  0  0  0  0  0  0  0
   12.8688    7.7370   22.7287 C   0  0  0  0  0  0  0  0  0  0  0  0
    7.4487    9.1361   23.6506 C   0  0  0  0  0  0  0  0  0  0  0  0
    8.9772    2.5025   22.0273 C   0  0  0  0  0  0  0  0  0  0  0  0
   10.4859    4.0901   20.9730 C   0  0  0  0  0  0  0  0  0  0  0  0
   11.0962    9.3293   23.5072 C   0  0  0  0  0  0  0  0  0  0  0  0
    5.1273    7.8529   23.6208 N   0  0  0  0  0  0  0  0  0  0  0  0
    9.7552    9.2338   23.0171 N   0  0  0  0  0  0  0  0  0  0  0  0
   11.1797    6.7591   21.3326 N   0  0  0  0  0  0  0  0  0  0  0  0
   11.7728    8.0337   23.7267 C   0  0  0  0  0  0  0  0  0  0  0  0
    7.1194    8.3344   24.6775 C   0  0  0  0  0  0  0  0  0  0  0  0
    8.4311    4.7963   22.0500 C   0  0  0  0  0  0  0  0  0  0  0  0
    8.7393   10.8706   24.1871 O   0  0  0  0  0  0  0  0  0  0  0  0
    9.3093    3.8166   21.6712 C   0  0  0  0  0  0  0  0  0  0  0  0
  1  5  1  0
  1 15  4  0
  1 22  4  0
  2 20  1  0
  2 24  1  0
  3  6  4  0
  3 27  4  0
  4 22  4  0
  4 26  4  0
  6  7  4  0
  6 13  1  0
  7 19  4  0
  8 18  1  0
  8 23  1  0
  8 28  2  0
  9 17  1  0
  9 24  1  0
 10 11  1  0
 10 24  1  0
 11 23  1  0
 12 14  4  0
 12 16  4  0
 14 19  4  0
 15 18  4  0
 16 20  4  0
 17 25  1  0
 18 26  4  0
 19 29  4  0
 20 29  4  0
 21 23  1  0
 21 25  1  0
 27 29  4  0
M  END
$$$$

 Created by Python create_sdf_string function

 29 32  0  0  0  0  0  0  0  0999 V2000
    5.4450    8.7154   22.6662 C   0  0  0  0  0  0  0  0  0  0  0  0
   10.9154    5.4574   20.5483 C   0  0  0  0  0  0  0  0  0  0  0  0
    7.2709    4.5089   22.7542 C   0  0  0  0  0  0  0  0  0  0  0  0
    5.9698    7.6329   24.6581 C   0  0  0  0  0  0  0  0  0  0  0  0
    4.5542    8.9057   21.7104 O   0  0  0  0  0  0  0  0  0  0  0  0
    6.9895    3.2085   23.0690 C   0  0  0  0  0  0  0  0  0  0  0  0
    7.8391    2.2253   22.7260 N   0  0  0  0  0  0  0  0  0  0  0  0
    8.6968    9.8373   23.6359 C   0  0  0  0  0  0  0  0  0  0  0  0
   12.5135    6.5957   21.8396 C   0  0  0  0  0  0  0  0  0  0  0  0
   10.9406    8.2330   21.1350 C   0  0  0  0  0  0  0  0  0  0  0  0
    9.6648    8.5956   21.7310 C   0  0  0  0  0  0  0  0  0  0  0  0
   10.8829    1.7153   20.9865 C   0  0  0  0  0  0  0  0  0  0  0  0
    5.7768    2.8533   23.7910 C   0  0  0  0  0  0  0  0  0  0  0  0
    9.7977    1.4791   21.6912 N   0  0  0  0  0  0  0  0  0  0  0  0
    6.5976    9.3401   22.6478 N   0  0  0  0  0  0  0  0  0  0  0  0
   11.2031    3.0042   20.6246 C   0  0  0  0  0  0  0  0  0  0  0  0
   12.8688    7.7370   22.7287 C   0  0  0  0  0  0  0  0  0  0  0  0
    7.4487    9.1361   23.6506 C   0  0  0  0  0  0  0  0  0  0  0  0
    8.9772    2.5025   22.0273 C   0  0  0  0  0  0  0  0  0  0  0  0
   10.4859    4.0901   20.9730 C   0  0  0  0  0  0  0  0  0  0  0  0
   11.0962    9.3293   23.5072 C   0  0  0  0  0  0  0  0  0  0  0  0
    5.1273    7.8529   23.6208 N   0  0  0  0  0  0  0  0  0  0  0  0
    9.7552    9.2338   23.0171 N   0  0  0  0  0  0  0  0  0  0  0  0
   11.1797    6.7591   21.3326 N   0  0  0  0  0  0  0  0  0  0  0  0
   11.7728    8.0337   23.7267 C   0  0  0  0  0  0  0  0  0  0  0  0
    7.1194    8.3344   24.6775 C   0  0  0  0  0  0  0  0  0  0  0  0
    8.4311    4.7963   22.0500 C   0  0  0  0  0  0  0  0  0  0  0  0
    8.7393   10.8706   24.1871 O   0  0  0  0  0  0  0  0  0  0  0  0
    9.3093    3.8166   21.6712 C   0  0  0  0  0  0  0  0  0  0  0  0
  1  5  1  0
  1 15  4  0
  1 22  4  0
  2 20  1  0
  2 24  1  0
  3  6  4  0
  3 27  4  0
  4 22  4  0
  4 26  4  0
  6  7  4  0
  6 13  1  0
  7 19  4  0
  8 18  1  0
  8 23  1  0
  8 28  2  0
  9 17  1  0
  9 24  1  0
 10 11  1  0
 10 24  1  0
 11 23  1  0
 12 14  4  0
 12 16  4  0
 14 19  4  0
 15 18  4  0
 16 20  4  0
 17 25  1  0
 18 26  4  0
 19 29  4  0
 20 29  4  0
 21 23  1  0
 21 25  1  0
 27 29  4  0
M  END
$$$$

 Created by Python create_sdf_string function

 29 32  0  0  0  0  0  0  0  0999 V2000
    5.4450    8.7154   22.6662 C   0  0  0  0  0  0  0  0  0  0  0  0
   10.9154    5.4574   20.5483 C   0  0  0  0  0  0  0  0  0  0  0  0
    7.2709    4.5089   22.7542 C   0  0  0  0  0  0  0  0  0  0  0  0
    5.9698    7.6329   24.6581 C   0  0  0  0  0  0  0  0  0  0  0  0
    4.5542    8.9057   21.7104 O   0  0  0  0  0  0  0  0  0  0  0  0
    6.9895    3.2085   23.0690 C   0  0  0  0  0  0  0  0  0  0  0  0
    7.8391    2.2253   22.7260 N   0  0  0  0  0  0  0  0  0  0  0  0
    8.6968    9.8373   23.6359 C   0  0  0  0  0  0  0  0  0  0  0  0
   12.5135    6.5957   21.8396 C   0  0  0  0  0  0  0  0  0  0  0  0
   10.9406    8.2330   21.1350 C   0  0  0  0  0  0  0  0  0  0  0  0
    9.6648    8.5956   21.7310 C   0  0  0  0  0  0  0  0  0  0  0  0
   10.8829    1.7153   20.9865 C   0  0  0  0  0  0  0  0  0  0  0  0
    5.7768    2.8533   23.7910 C   0  0  0  0  0  0  0  0  0  0  0  0
    9.7977    1.4791   21.6912 N   0  0  0  0  0  0  0  0  0  0  0  0
    6.5976    9.3401   22.6478 N   0  0  0  0  0  0  0  0  0  0  0  0
   11.2031    3.0042   20.6246 C   0  0  0  0  0  0  0  0  0  0  0  0
   12.8688    7.7370   22.7287 C   0  0  0  0  0  0  0  0  0  0  0  0
    7.4487    9.1361   23.6506 C   0  0  0  0  0  0  0  0  0  0  0  0
    8.9772    2.5025   22.0273 C   0  0  0  0  0  0  0  0  0  0  0  0
   10.4859    4.0901   20.9730 C   0  0  0  0  0  0  0  0  0  0  0  0
   11.0962    9.3293   23.5072 C   0  0  0  0  0  0  0  0  0  0  0  0
    5.1273    7.8529   23.6208 N   0  0  0  0  0  0  0  0  0  0  0  0
    9.7552    9.2338   23.0171 N   0  0  0  0  0  0  0  0  0  0  0  0
   11.1797    6.7591   21.3326 N   0  0  0  0  0  0  0  0  0  0  0  0
   11.7728    8.0337   23.7267 C   0  0  0  0  0  0  0  0  0  0  0  0
    7.1194    8.3344   24.6775 C   0  0  0  0  0  0  0  0  0  0  0  0
    8.4311    4.7963   22.0500 C   0  0  0  0  0  0  0  0  0  0  0  0
    8.7393   10.8706   24.1871 O   0  0  0  0  0  0  0  0  0  0  0  0
    9.3093    3.8166   21.6712 C   0  0  0  0  0  0  0  0  0  0  0  0
  1  5  1  0
  1 15  4  0
  1 22  4  0
  2 20  1  0
  2 24  1  0
  3  6  4  0
  3 27  4  0
  4 22  4  0
  4 26  4  0
  6  7  4  0
  6 13  1  0
  7 19  4  0
  8 18  1  0
  8 23  1  0
  8 28  2  0
  9 17  1  0
  9 24  1  0
 10 11  1  0
 10 24  1  0
 11 23  1  0
 12 14  4  0
 12 16  4  0
 14 19  4  0
 15 18  4  0
 16 20  4  0
 17 25  1  0
 18 26  4  0
 19 29  4  0
 20 29  4  0
 21 23  1  0
 21 25  1  0
 27 29  4  0
M  END
$$$$

 Created by Python create_sdf_string function

 29 32  0  0  0  0  0  0  0  0999 V2000
    5.4450    8.7154   22.6662 C   0  0  0  0  0  0  0  0  0  0  0  0
   10.9154    5.4574   20.5483 C   0  0  0  0  0  0  0  0  0  0  0  0
    7.2709    4.5089   22.7542 C   0  0  0  0  0  0  0  0  0  0  0  0
    5.9698    7.6329   24.6581 C   0  0  0  0  0  0  0  0  0  0  0  0
    4.5542    8.9057   21.7104 O   0  0  0  0  0  0  0  0  0  0  0  0
    6.9895    3.2085   23.0690 C   0  0  0  0  0  0  0  0  0  0  0  0
    7.8391    2.2253   22.7260 N   0  0  0  0  0  0  0  0  0  0  0  0
    8.6968    9.8373   23.6359 C   0  0  0  0  0  0  0  0  0  0  0  0
   12.5135    6.5957   21.8396 C   0  0  0  0  0  0  0  0  0  0  0  0
   10.9406    8.2330   21.1350 C   0  0  0  0  0  0  0  0  0  0  0  0
    9.6648    8.5956   21.7310 C   0  0  0  0  0  0  0  0  0  0  0  0
   10.8829    1.7153   20.9865 C   0  0  0  0  0  0  0  0  0  0  0  0
    5.7768    2.8533   23.7910 C   0  0  0  0  0  0  0  0  0  0  0  0
    9.7977    1.4791   21.6912 N   0  0  0  0  0  0  0  0  0  0  0  0
    6.5976    9.3401   22.6478 N   0  0  0  0  0  0  0  0  0  0  0  0
   11.2031    3.0042   20.6246 C   0  0  0  0  0  0  0  0  0  0  0  0
   12.8688    7.7370   22.7287 C   0  0  0  0  0  0  0  0  0  0  0  0
    7.4487    9.1361   23.6506 C   0  0  0  0  0  0  0  0  0  0  0  0
    8.9772    2.5025   22.0273 C   0  0  0  0  0  0  0  0  0  0  0  0
   10.4859    4.0901   20.9730 C   0  0  0  0  0  0  0  0  0  0  0  0
   11.0962    9.3293   23.5072 C   0  0  0  0  0  0  0  0  0  0  0  0
    5.1273    7.8529   23.6208 N   0  0  0  0  0  0  0  0  0  0  0  0
    9.7552    9.2338   23.0171 N   0  0  0  0  0  0  0  0  0  0  0  0
   11.1797    6.7591   21.3326 N   0  0  0  0  0  0  0  0  0  0  0  0
   11.7728    8.0337   23.7267 C   0  0  0  0  0  0  0  0  0  0  0  0
    7.1194    8.3344   24.6775 C   0  0  0  0  0  0  0  0  0  0  0  0
    8.4311    4.7963   22.0500 C   0  0  0  0  0  0  0  0  0  0  0  0
    8.7393   10.8706   24.1871 O   0  0  0  0  0  0  0  0  0  0  0  0
    9.3093    3.8166   21.6712 C   0  0  0  0  0  0  0  0  0  0  0  0
  1  5  1  0
  1 15  4  0
  1 22  4  0
  2 20  1  0
  2 24  1  0
  3  6  4  0
  3 27  4  0
  4 22  4  0
  4 26  4  0
  6  7  4  0
  6 13  1  0
  7 19  4  0
  8 18  1  0
  8 23  1  0
  8 28  2  0
  9 17  1  0
  9 24  1  0
 10 11  1  0
 10 24  1  0
 11 23  1  0
 12 14  4  0
 12 16  4  0
 14 19  4  0
 15 18  4  0
 16 20  4  0
 17 25  1  0
 18 26  4  0
 19 29  4  0
 20 29  4  0
 21 23  1  0
 21 25  1  0
 27 29  4  0
M  END
$$$$

 Created by Python create_sdf_string function

 29 32  0  0  0  0  0  0  0  0999 V2000
    5.4450    8.7154   22.6662 C   0  0  0  0  0  0  0  0  0  0  0  0
   10.9154    5.4574   20.5483 C   0  0  0  0  0  0  0  0  0  0  0  0
    7.2709    4.5089   22.7542 C   0  0  0  0  0  0  0  0  0  0  0  0
    5.9698    7.6329   24.6581 C   0  0  0  0  0  0  0  0  0  0  0  0
    4.5542    8.9057   21.7104 O   0  0  0  0  0  0  0  0  0  0  0  0
    6.9895    3.2085   23.0690 C   0  0  0  0  0  0  0  0  0  0  0  0
    7.8391    2.2253   22.7260 N   0  0  0  0  0  0  0  0  0  0  0  0
    8.6968    9.8373   23.6359 C   0  0  0  0  0  0  0  0  0  0  0  0
   12.5135    6.5957   21.8396 C   0  0  0  0  0  0  0  0  0  0  0  0
   10.9406    8.2330   21.1350 C   0  0  0  0  0  0  0  0  0  0  0  0
    9.6648    8.5956   21.7310 C   0  0  0  0  0  0  0  0  0  0  0  0
   10.8829    1.7153   20.9865 C   0  0  0  0  0  0  0  0  0  0  0  0
    5.7768    2.8533   23.7910 C   0  0  0  0  0  0  0  0  0  0  0  0
    9.7977    1.4791   21.6912 N   0  0  0  0  0  0  0  0  0  0  0  0
    6.5976    9.3401   22.6478 N   0  0  0  0  0  0  0  0  0  0  0  0
   11.2031    3.0042   20.6246 C   0  0  0  0  0  0  0  0  0  0  0  0
   12.8688    7.7370   22.7287 C   0  0  0  0  0  0  0  0  0  0  0  0
    7.4487    9.1361   23.6506 C   0  0  0  0  0  0  0  0  0  0  0  0
    8.9772    2.5025   22.0273 C   0  0  0  0  0  0  0  0  0  0  0  0
   10.4859    4.0901   20.9730 C   0  0  0  0  0  0  0  0  0  0  0  0
   11.0962    9.3293   23.5072 C   0  0  0  0  0  0  0  0  0  0  0  0
    5.1273    7.8529   23.6208 N   0  0  0  0  0  0  0  0  0  0  0  0
    9.7552    9.2338   23.0171 N   0  0  0  0  0  0  0  0  0  0  0  0
   11.1797    6.7591   21.3326 N   0  0  0  0  0  0  0  0  0  0  0  0
   11.7728    8.0337   23.7267 C   0  0  0  0  0  0  0  0  0  0  0  0
    7.1194    8.3344   24.6775 C   0  0  0  0  0  0  0  0  0  0  0  0
    8.4311    4.7963   22.0500 C   0  0  0  0  0  0  0  0  0  0  0  0
    8.7393   10.8706   24.1871 O   0  0  0  0  0  0  0  0  0  0  0  0
    9.3093    3.8166   21.6712 C   0  0  0  0  0  0  0  0  0  0  0  0
  1  5  1  0
  1 15  4  0
  1 22  4  0
  2 20  1  0
  2 24  1  0
  3  6  4  0
  3 27  4  0
  4 22  4  0
  4 26  4  0
  6  7  4  0
  6 13  1  0
  7 19  4  0
  8 18  1  0
  8 23  1  0
  8 28  2  0
  9 17  1  0
  9 24  1  0
 10 11  1  0
 10 24  1  0
 11 23  1  0
 12 14  4  0
 12 16  4  0
 14 19  4  0
 15 18  4  0
 16 20  4  0
 17 25  1  0
 18 26  4  0
 19 29  4  0
 20 29  4  0
 21 23  1  0
 21 25  1  0
 27 29  4  0
M  END
$$$$

 Created by Python create_sdf_string function

 29 32  0  0  0  0  0  0  0  0999 V2000
    5.4450    8.7154   22.6662 C   0  0  0  0  0  0  0  0  0  0  0  0
   10.9154    5.4574   20.5483 C   0  0  0  0  0  0  0  0  0  0  0  0
    7.2709    4.5089   22.7542 C   0  0  0  0  0  0  0  0  0  0  0  0
    5.9698    7.6329   24.6581 C   0  0  0  0  0  0  0  0  0  0  0  0
    4.5542    8.9057   21.7104 O   0  0  0  0  0  0  0  0  0  0  0  0
    6.9895    3.2085   23.0690 C   0  0  0  0  0  0  0  0  0  0  0  0
    7.8391    2.2253   22.7260 N   0  0  0  0  0  0  0  0  0  0  0  0
    8.6968    9.8373   23.6359 C   0  0  0  0  0  0  0  0  0  0  0  0
   12.5135    6.5957   21.8396 C   0  0  0  0  0  0  0  0  0  0  0  0
   10.9406    8.2330   21.1350 C   0  0  0  0  0  0  0  0  0  0  0  0
    9.6648    8.5956   21.7310 C   0  0  0  0  0  0  0  0  0  0  0  0
   10.8829    1.7153   20.9865 C   0  0  0  0  0  0  0  0  0  0  0  0
    5.7768    2.8533   23.7910 C   0  0  0  0  0  0  0  0  0  0  0  0
    9.7977    1.4791   21.6912 N   0  0  0  0  0  0  0  0  0  0  0  0
    6.5976    9.3401   22.6478 N   0  0  0  0  0  0  0  0  0  0  0  0
   11.2031    3.0042   20.6246 C   0  0  0  0  0  0  0  0  0  0  0  0
   12.8688    7.7370   22.7287 C   0  0  0  0  0  0  0  0  0  0  0  0
    7.4487    9.1361   23.6506 C   0  0  0  0  0  0  0  0  0  0  0  0
    8.9772    2.5025   22.0273 C   0  0  0  0  0  0  0  0  0  0  0  0
   10.4859    4.0901   20.9730 C   0  0  0  0  0  0  0  0  0  0  0  0
   11.0962    9.3293   23.5072 C   0  0  0  0  0  0  0  0  0  0  0  0
    5.1273    7.8529   23.6208 N   0  0  0  0  0  0  0  0  0  0  0  0
    9.7552    9.2338   23.0171 N   0  0  0  0  0  0  0  0  0  0  0  0
   11.1797    6.7591   21.3326 N   0  0  0  0  0  0  0  0  0  0  0  0
   11.7728    8.0337   23.7267 C   0  0  0  0  0  0  0  0  0  0  0  0
    7.1194    8.3344   24.6775 C   0  0  0  0  0  0  0  0  0  0  0  0
    8.4311    4.7963   22.0500 C   0  0  0  0  0  0  0  0  0  0  0  0
    8.7393   10.8706   24.1871 O   0  0  0  0  0  0  0  0  0  0  0  0
    9.3093    3.8166   21.6712 C   0  0  0  0  0  0  0  0  0  0  0  0
  1  5  1  0
  1 15  4  0
  1 22  4  0
  2 20  1  0
  2 24  1  0
  3  6  4  0
  3 27  4  0
  4 22  4  0
  4 26  4  0
  6  7  4  0
  6 13  1  0
  7 19  4  0
  8 18  1  0
  8 23  1  0
  8 28  2  0
  9 17  1  0
  9 24  1  0
 10 11  1  0
 10 24  1  0
 11 23  1  0
 12 14  4  0
 12 16  4  0
 14 19  4  0
 15 18  4  0
 16 20  4  0
 17 25  1  0
 18 26  4  0
 19 29  4  0
 20 29  4  0
 21 23  1  0
 21 25  1  0
 27 29  4  0
M  END
$$$$

 Created by Python create_sdf_string function

 29 32  0  0  0  0  0  0  0  0999 V2000
    5.4450    8.7154   22.6662 C   0  0  0  0  0  0  0  0  0  0  0  0
   10.9154    5.4574   20.5483 C   0  0  0  0  0  0  0  0  0  0  0  0
    7.2709    4.5089   22.7542 C   0  0  0  0  0  0  0  0  0  0  0  0
    5.9698    7.6329   24.6581 C   0  0  0  0  0  0  0  0  0  0  0  0
    4.5542    8.9057   21.7104 O   0  0  0  0  0  0  0  0  0  0  0  0
    6.9895    3.2085   23.0690 C   0  0  0  0  0  0  0  0  0  0  0  0
    7.8391    2.2253   22.7260 N   0  0  0  0  0  0  0  0  0  0  0  0
    8.6968    9.8373   23.6359 C   0  0  0  0  0  0  0  0  0  0  0  0
   12.5135    6.5957   21.8396 C   0  0  0  0  0  0  0  0  0  0  0  0
   10.9406    8.2330   21.1350 C   0  0  0  0  0  0  0  0  0  0  0  0
    9.6648    8.5956   21.7310 C   0  0  0  0  0  0  0  0  0  0  0  0
   10.8829    1.7153   20.9865 C   0  0  0  0  0  0  0  0  0  0  0  0
    5.7768    2.8533   23.7910 C   0  0  0  0  0  0  0  0  0  0  0  0
    9.7977    1.4791   21.6912 N   0  0  0  0  0  0  0  0  0  0  0  0
    6.5976    9.3401   22.6478 N   0  0  0  0  0  0  0  0  0  0  0  0
   11.2031    3.0042   20.6246 C   0  0  0  0  0  0  0  0  0  0  0  0
   12.8688    7.7370   22.7287 C   0  0  0  0  0  0  0  0  0  0  0  0
    7.4487    9.1361   23.6506 C   0  0  0  0  0  0  0  0  0  0  0  0
    8.9772    2.5025   22.0273 C   0  0  0  0  0  0  0  0  0  0  0  0
   10.4859    4.0901   20.9730 C   0  0  0  0  0  0  0  0  0  0  0  0
   11.0962    9.3293   23.5072 C   0  0  0  0  0  0  0  0  0  0  0  0
    5.1273    7.8529   23.6208 N   0  0  0  0  0  0  0  0  0  0  0  0
    9.7552    9.2338   23.0171 N   0  0  0  0  0  0  0  0  0  0  0  0
   11.1797    6.7591   21.3326 N   0  0  0  0  0  0  0  0  0  0  0  0
   11.7728    8.0337   23.7267 C   0  0  0  0  0  0  0  0  0  0  0  0
    7.1194    8.3344   24.6775 C   0  0  0  0  0  0  0  0  0  0  0  0
    8.4311    4.7963   22.0500 C   0  0  0  0  0  0  0  0  0  0  0  0
    8.7393   10.8706   24.1871 O   0  0  0  0  0  0  0  0  0  0  0  0
    9.3093    3.8166   21.6712 C   0  0  0  0  0  0  0  0  0  0  0  0
  1  5  1  0
  1 15  4  0
  1 22  4  0
  2 20  1  0
  2 24  1  0
  3  6  4  0
  3 27  4  0
  4 22  4  0
  4 26  4  0
  6  7  4  0
  6 13  1  0
  7 19  4  0
  8 18  1  0
  8 23  1  0
  8 28  2  0
  9 17  1  0
  9 24  1  0
 10 11  1  0
 10 24  1  0
 11 23  1  0
 12 14  4  0
 12 16  4  0
 14 19  4  0
 15 18  4  0
 16 20  4  0
 17 25  1  0
 18 26  4  0
 19 29  4  0
 20 29  4  0
 21 23  1  0
 21 25  1  0
 27 29  4  0
M  END
$$$$

 Created by Python create_sdf_string function

 29 32  0  0  0  0  0  0  0  0999 V2000
    5.4450    8.7154   22.6662 C   0  0  0  0  0  0  0  0  0  0  0  0
   10.9154    5.4574   20.5483 C   0  0  0  0  0  0  0  0  0  0  0  0
    7.2709    4.5089   22.7542 C   0  0  0  0  0  0  0  0  0  0  0  0
    5.9698    7.6329   24.6581 C   0  0  0  0  0  0  0  0  0  0  0  0
    4.5542    8.9057   21.7104 O   0  0  0  0  0  0  0  0  0  0  0  0
    6.9895    3.2085   23.0690 C   0  0  0  0  0  0  0  0  0  0  0  0
    7.8391    2.2253   22.7260 N   0  0  0  0  0  0  0  0  0  0  0  0
    8.6968    9.8373   23.6359 C   0  0  0  0  0  0  0  0  0  0  0  0
   12.5135    6.5957   21.8396 C   0  0  0  0  0  0  0  0  0  0  0  0
   10.9406    8.2330   21.1350 C   0  0  0  0  0  0  0  0  0  0  0  0
    9.6648    8.5956   21.7310 C   0  0  0  0  0  0  0  0  0  0  0  0
   10.8829    1.7153   20.9865 C   0  0  0  0  0  0  0  0  0  0  0  0
    5.7768    2.8533   23.7910 C   0  0  0  0  0  0  0  0  0  0  0  0
    9.7977    1.4791   21.6912 N   0  0  0  0  0  0  0  0  0  0  0  0
    6.5976    9.3401   22.6478 N   0  0  0  0  0  0  0  0  0  0  0  0
   11.2031    3.0042   20.6246 C   0  0  0  0  0  0  0  0  0  0  0  0
   12.8688    7.7370   22.7287 C   0  0  0  0  0  0  0  0  0  0  0  0
    7.4487    9.1361   23.6506 C   0  0  0  0  0  0  0  0  0  0  0  0
    8.9772    2.5025   22.0273 C   0  0  0  0  0  0  0  0  0  0  0  0
   10.4859    4.0901   20.9730 C   0  0  0  0  0  0  0  0  0  0  0  0
   11.0962    9.3293   23.5072 C   0  0  0  0  0  0  0  0  0  0  0  0
    5.1273    7.8529   23.6208 N   0  0  0  0  0  0  0  0  0  0  0  0
    9.7552    9.2338   23.0171 N   0  0  0  0  0  0  0  0  0  0  0  0
   11.1797    6.7591   21.3326 N   0  0  0  0  0  0  0  0  0  0  0  0
   11.7728    8.0337   23.7267 C   0  0  0  0  0  0  0  0  0  0  0  0
    7.1194    8.3344   24.6775 C   0  0  0  0  0  0  0  0  0  0  0  0
    8.4311    4.7963   22.0500 C   0  0  0  0  0  0  0  0  0  0  0  0
    8.7393   10.8706   24.1871 O   0  0  0  0  0  0  0  0  0  0  0  0
    9.3093    3.8166   21.6712 C   0  0  0  0  0  0  0  0  0  0  0  0
  1  5  1  0
  1 15  4  0
  1 22  4  0
  2 20  1  0
  2 24  1  0
  3  6  4  0
  3 27  4  0
  4 22  4  0
  4 26  4  0
  6  7  4  0
  6 13  1  0
  7 19  4  0
  8 18  1  0
  8 23  1  0
  8 28  2  0
  9 17  1  0
  9 24  1  0
 10 11  1  0
 10 24  1  0
 11 23  1  0
 12 14  4  0
 12 16  4  0
 14 19  4  0
 15 18  4  0
 16 20  4  0
 17 25  1  0
 18 26  4  0
 19 29  4  0
 20 29  4  0
 21 23  1  0
 21 25  1  0
 27 29  4  0
M  END
$$$$

 Created by Python create_sdf_string function

 29 32  0  0  0  0  0  0  0  0999 V2000
    5.4450    8.7154   22.6662 C   0  0  0  0  0  0  0  0  0  0  0  0
   10.9154    5.4574   20.5483 C   0  0  0  0  0  0  0  0  0  0  0  0
    7.2709    4.5089   22.7542 C   0  0  0  0  0  0  0  0  0  0  0  0
    5.9698    7.6329   24.6581 C   0  0  0  0  0  0  0  0  0  0  0  0
    4.5542    8.9057   21.7104 O   0  0  0  0  0  0  0  0  0  0  0  0
    6.9895    3.2085   23.0690 C   0  0  0  0  0  0  0  0  0  0  0  0
    7.8391    2.2253   22.7260 N   0  0  0  0  0  0  0  0  0  0  0  0
    8.6968    9.8373   23.6359 C   0  0  0  0  0  0  0  0  0  0  0  0
   12.5135    6.5957   21.8396 C   0  0  0  0  0  0  0  0  0  0  0  0
   10.9406    8.2330   21.1350 C   0  0  0  0  0  0  0  0  0  0  0  0
    9.6648    8.5956   21.7310 C   0  0  0  0  0  0  0  0  0  0  0  0
   10.8829    1.7153   20.9865 C   0  0  0  0  0  0  0  0  0  0  0  0
    5.7768    2.8533   23.7910 C   0  0  0  0  0  0  0  0  0  0  0  0
    9.7977    1.4791   21.6912 N   0  0  0  0  0  0  0  0  0  0  0  0
    6.5976    9.3401   22.6478 N   0  0  0  0  0  0  0  0  0  0  0  0
   11.2031    3.0042   20.6246 C   0  0  0  0  0  0  0  0  0  0  0  0
   12.8688    7.7370   22.7287 C   0  0  0  0  0  0  0  0  0  0  0  0
    7.4487    9.1361   23.6506 C   0  0  0  0  0  0  0  0  0  0  0  0
    8.9772    2.5025   22.0273 C   0  0  0  0  0  0  0  0  0  0  0  0
   10.4859    4.0901   20.9730 C   0  0  0  0  0  0  0  0  0  0  0  0
   11.0962    9.3293   23.5072 C   0  0  0  0  0  0  0  0  0  0  0  0
    5.1273    7.8529   23.6208 N   0  0  0  0  0  0  0  0  0  0  0  0
    9.7552    9.2338   23.0171 N   0  0  0  0  0  0  0  0  0  0  0  0
   11.1797    6.7591   21.3326 N   0  0  0  0  0  0  0  0  0  0  0  0
   11.7728    8.0337   23.7267 C   0  0  0  0  0  0  0  0  0  0  0  0
    7.1194    8.3344   24.6775 C   0  0  0  0  0  0  0  0  0  0  0  0
    8.4311    4.7963   22.0500 C   0  0  0  0  0  0  0  0  0  0  0  0
    8.7393   10.8706   24.1871 O   0  0  0  0  0  0  0  0  0  0  0  0
    9.3093    3.8166   21.6712 C   0  0  0  0  0  0  0  0  0  0  0  0
  1  5  1  0
  1 15  4  0
  1 22  4  0
  2 20  1  0
  2 24  1  0
  3  6  4  0
  3 27  4  0
  4 22  4  0
  4 26  4  0
  6  7  4  0
  6 13  1  0
  7 19  4  0
  8 18  1  0
  8 23  1  0
  8 28  2  0
  9 17  1  0
  9 24  1  0
 10 11  1  0
 10 24  1  0
 11 23  1  0
 12 14  4  0
 12 16  4  0
 14 19  4  0
 15 18  4  0
 16 20  4  0
 17 25  1  0
 18 26  4  0
 19 29  4  0
 20 29  4  0
 21 23  1  0
 21 25  1  0
 27 29  4  0
M  END
$$$$

 Created by Python create_sdf_string function

 29 32  0  0  0  0  0  0  0  0999 V2000
    5.4450    8.7154   22.6662 C   0  0  0  0  0  0  0  0  0  0  0  0
   10.9154    5.4574   20.5483 C   0  0  0  0  0  0  0  0  0  0  0  0
    7.2709    4.5089   22.7542 C   0  0  0  0  0  0  0  0  0  0  0  0
    5.9698    7.6329   24.6581 C   0  0  0  0  0  0  0  0  0  0  0  0
    4.5542    8.9057   21.7104 O   0  0  0  0  0  0  0  0  0  0  0  0
    6.9895    3.2085   23.0690 C   0  0  0  0  0  0  0  0  0  0  0  0
    7.8391    2.2253   22.7260 N   0  0  0  0  0  0  0  0  0  0  0  0
    8.6968    9.8373   23.6359 C   0  0  0  0  0  0  0  0  0  0  0  0
   12.5135    6.5957   21.8396 C   0  0  0  0  0  0  0  0  0  0  0  0
   10.9406    8.2330   21.1350 C   0  0  0  0  0  0  0  0  0  0  0  0
    9.6648    8.5956   21.7310 C   0  0  0  0  0  0  0  0  0  0  0  0
   10.8829    1.7153   20.9865 C   0  0  0  0  0  0  0  0  0  0  0  0
    5.7768    2.8533   23.7910 C   0  0  0  0  0  0  0  0  0  0  0  0
    9.7977    1.4791   21.6912 N   0  0  0  0  0  0  0  0  0  0  0  0
    6.5976    9.3401   22.6478 N   0  0  0  0  0  0  0  0  0  0  0  0
   11.2031    3.0042   20.6246 C   0  0  0  0  0  0  0  0  0  0  0  0
   12.8688    7.7370   22.7287 C   0  0  0  0  0  0  0  0  0  0  0  0
    7.4487    9.1361   23.6506 C   0  0  0  0  0  0  0  0  0  0  0  0
    8.9772    2.5025   22.0273 C   0  0  0  0  0  0  0  0  0  0  0  0
   10.4859    4.0901   20.9730 C   0  0  0  0  0  0  0  0  0  0  0  0
   11.0962    9.3293   23.5072 C   0  0  0  0  0  0  0  0  0  0  0  0
    5.1273    7.8529   23.6208 N   0  0  0  0  0  0  0  0  0  0  0  0
    9.7552    9.2338   23.0171 N   0  0  0  0  0  0  0  0  0  0  0  0
   11.1797    6.7591   21.3326 N   0  0  0  0  0  0  0  0  0  0  0  0
   11.7728    8.0337   23.7267 C   0  0  0  0  0  0  0  0  0  0  0  0
    7.1194    8.3344   24.6775 C   0  0  0  0  0  0  0  0  0  0  0  0
    8.4311    4.7963   22.0500 C   0  0  0  0  0  0  0  0  0  0  0  0
    8.7393   10.8706   24.1871 O   0  0  0  0  0  0  0  0  0  0  0  0
    9.3093    3.8166   21.6712 C   0  0  0  0  0  0  0  0  0  0  0  0
  1  5  1  0
  1 15  4  0
  1 22  4  0
  2 20  1  0
  2 24  1  0
  3  6  4  0
  3 27  4  0
  4 22  4  0
  4 26  4  0
  6  7  4  0
  6 13  1  0
  7 19  4  0
  8 18  1  0
  8 23  1  0
  8 28  2  0
  9 17  1  0
  9 24  1  0
 10 11  1  0
 10 24  1  0
 11 23  1  0
 12 14  4  0
 12 16  4  0
 14 19  4  0
 15 18  4  0
 16 20  4  0
 17 25  1  0
 18 26  4  0
 19 29  4  0
 20 29  4  0
 21 23  1  0
 21 25  1  0
 27 29  4  0
M  END
$$$$

 Created by Python create_sdf_string function

 29 32  0  0  0  0  0  0  0  0999 V2000
    5.4450    8.7154   22.6662 C   0  0  0  0  0  0  0  0  0  0  0  0
   10.9154    5.4574   20.5483 C   0  0  0  0  0  0  0  0  0  0  0  0
    7.2709    4.5089   22.7542 C   0  0  0  0  0  0  0  0  0  0  0  0
    5.9698    7.6329   24.6581 C   0  0  0  0  0  0  0  0  0  0  0  0
    4.5542    8.9057   21.7104 O   0  0  0  0  0  0  0  0  0  0  0  0
    6.9895    3.2085   23.0690 C   0  0  0  0  0  0  0  0  0  0  0  0
    7.8391    2.2253   22.7260 N   0  0  0  0  0  0  0  0  0  0  0  0
    8.6968    9.8373   23.6359 C   0  0  0  0  0  0  0  0  0  0  0  0
   12.5135    6.5957   21.8396 C   0  0  0  0  0  0  0  0  0  0  0  0
   10.9406    8.2330   21.1350 C   0  0  0  0  0  0  0  0  0  0  0  0
    9.6648    8.5956   21.7310 C   0  0  0  0  0  0  0  0  0  0  0  0
   10.8829    1.7153   20.9865 C   0  0  0  0  0  0  0  0  0  0  0  0
    5.7768    2.8533   23.7910 C   0  0  0  0  0  0  0  0  0  0  0  0
    9.7977    1.4791   21.6912 N   0  0  0  0  0  0  0  0  0  0  0  0
    6.5976    9.3401   22.6478 N   0  0  0  0  0  0  0  0  0  0  0  0
   11.2031    3.0042   20.6246 C   0  0  0  0  0  0  0  0  0  0  0  0
   12.8688    7.7370   22.7287 C   0  0  0  0  0  0  0  0  0  0  0  0
    7.4487    9.1361   23.6506 C   0  0  0  0  0  0  0  0  0  0  0  0
    8.9772    2.5025   22.0273 C   0  0  0  0  0  0  0  0  0  0  0  0
   10.4859    4.0901   20.9730 C   0  0  0  0  0  0  0  0  0  0  0  0
   11.0962    9.3293   23.5072 C   0  0  0  0  0  0  0  0  0  0  0  0
    5.1273    7.8529   23.6208 N   0  0  0  0  0  0  0  0  0  0  0  0
    9.7552    9.2338   23.0171 N   0  0  0  0  0  0  0  0  0  0  0  0
   11.1797    6.7591   21.3326 N   0  0  0  0  0  0  0  0  0  0  0  0
   11.7728    8.0337   23.7267 C   0  0  0  0  0  0  0  0  0  0  0  0
    7.1194    8.3344   24.6775 C   0  0  0  0  0  0  0  0  0  0  0  0
    8.4311    4.7963   22.0500 C   0  0  0  0  0  0  0  0  0  0  0  0
    8.7393   10.8706   24.1871 O   0  0  0  0  0  0  0  0  0  0  0  0
    9.3093    3.8166   21.6712 C   0  0  0  0  0  0  0  0  0  0  0  0
  1  5  1  0
  1 15  4  0
  1 22  4  0
  2 20  1  0
  2 24  1  0
  3  6  4  0
  3 27  4  0
  4 22  4  0
  4 26  4  0
  6  7  4  0
  6 13  1  0
  7 19  4  0
  8 18  1  0
  8 23  1  0
  8 28  2  0
  9 17  1  0
  9 24  1  0
 10 11  1  0
 10 24  1  0
 11 23  1  0
 12 14  4  0
 12 16  4  0
 14 19  4  0
 15 18  4  0
 16 20  4  0
 17 25  1  0
 18 26  4  0
 19 29  4  0
 20 29  4  0
 21 23  1  0
 21 25  1  0
 27 29  4  0
M  END
$$$$

 Created by Python create_sdf_string function

 29 32  0  0  0  0  0  0  0  0999 V2000
    5.4450    8.7154   22.6662 C   0  0  0  0  0  0  0  0  0  0  0  0
   10.9154    5.4574   20.5483 C   0  0  0  0  0  0  0  0  0  0  0  0
    7.2709    4.5089   22.7542 C   0  0  0  0  0  0  0  0  0  0  0  0
    5.9698    7.6329   24.6581 C   0  0  0  0  0  0  0  0  0  0  0  0
    4.5542    8.9057   21.7104 O   0  0  0  0  0  0  0  0  0  0  0  0
    6.9895    3.2085   23.0690 C   0  0  0  0  0  0  0  0  0  0  0  0
    7.8391    2.2253   22.7260 N   0  0  0  0  0  0  0  0  0  0  0  0
    8.6968    9.8373   23.6359 C   0  0  0  0  0  0  0  0  0  0  0  0
   12.5135    6.5957   21.8396 C   0  0  0  0  0  0  0  0  0  0  0  0
   10.9406    8.2330   21.1350 C   0  0  0  0  0  0  0  0  0  0  0  0
    9.6648    8.5956   21.7310 C   0  0  0  0  0  0  0  0  0  0  0  0
   10.8829    1.7153   20.9865 C   0  0  0  0  0  0  0  0  0  0  0  0
    5.7768    2.8533   23.7910 C   0  0  0  0  0  0  0  0  0  0  0  0
    9.7977    1.4791   21.6912 N   0  0  0  0  0  0  0  0  0  0  0  0
    6.5976    9.3401   22.6478 N   0  0  0  0  0  0  0  0  0  0  0  0
   11.2031    3.0042   20.6246 C   0  0  0  0  0  0  0  0  0  0  0  0
   12.8688    7.7370   22.7287 C   0  0  0  0  0  0  0  0  0  0  0  0
    7.4487    9.1361   23.6506 C   0  0  0  0  0  0  0  0  0  0  0  0
    8.9772    2.5025   22.0273 C   0  0  0  0  0  0  0  0  0  0  0  0
   10.4859    4.0901   20.9730 C   0  0  0  0  0  0  0  0  0  0  0  0
   11.0962    9.3293   23.5072 C   0  0  0  0  0  0  0  0  0  0  0  0
    5.1273    7.8529   23.6208 N   0  0  0  0  0  0  0  0  0  0  0  0
    9.7552    9.2338   23.0171 N   0  0  0  0  0  0  0  0  0  0  0  0
   11.1797    6.7591   21.3326 N   0  0  0  0  0  0  0  0  0  0  0  0
   11.7728    8.0337   23.7267 C   0  0  0  0  0  0  0  0  0  0  0  0
    7.1194    8.3344   24.6775 C   0  0  0  0  0  0  0  0  0  0  0  0
    8.4311    4.7963   22.0500 C   0  0  0  0  0  0  0  0  0  0  0  0
    8.7393   10.8706   24.1871 O   0  0  0  0  0  0  0  0  0  0  0  0
    9.3093    3.8166   21.6712 C   0  0  0  0  0  0  0  0  0  0  0  0
  1  5  1  0
  1 15  4  0
  1 22  4  0
  2 20  1  0
  2 24  1  0
  3  6  4  0
  3 27  4  0
  4 22  4  0
  4 26  4  0
  6  7  4  0
  6 13  1  0
  7 19  4  0
  8 18  1  0
  8 23  1  0
  8 28  2  0
  9 17  1  0
  9 24  1  0
 10 11  1  0
 10 24  1  0
 11 23  1  0
 12 14  4  0
 12 16  4  0
 14 19  4  0
 15 18  4  0
 16 20  4  0
 17 25  1  0
 18 26  4  0
 19 29  4  0
 20 29  4  0
 21 23  1  0
 21 25  1  0
 27 29  4  0
M  END
$$$$

 Created by Python create_sdf_string function

 29 32  0  0  0  0  0  0  0  0999 V2000
    5.4450    8.7154   22.6662 C   0  0  0  0  0  0  0  0  0  0  0  0
   10.9154    5.4574   20.5483 C   0  0  0  0  0  0  0  0  0  0  0  0
    7.2709    4.5089   22.7542 C   0  0  0  0  0  0  0  0  0  0  0  0
    5.9698    7.6329   24.6581 C   0  0  0  0  0  0  0  0  0  0  0  0
    4.5542    8.9057   21.7104 O   0  0  0  0  0  0  0  0  0  0  0  0
    6.9895    3.2085   23.0690 C   0  0  0  0  0  0  0  0  0  0  0  0
    7.8391    2.2253   22.7260 N   0  0  0  0  0  0  0  0  0  0  0  0
    8.6968    9.8373   23.6359 C   0  0  0  0  0  0  0  0  0  0  0  0
   12.5135    6.5957   21.8396 C   0  0  0  0  0  0  0  0  0  0  0  0
   10.9406    8.2330   21.1350 C   0  0  0  0  0  0  0  0  0  0  0  0
    9.6648    8.5956   21.7310 C   0  0  0  0  0  0  0  0  0  0  0  0
   10.8829    1.7153   20.9865 C   0  0  0  0  0  0  0  0  0  0  0  0
    5.7768    2.8533   23.7910 C   0  0  0  0  0  0  0  0  0  0  0  0
    9.7977    1.4791   21.6912 N   0  0  0  0  0  0  0  0  0  0  0  0
    6.5976    9.3401   22.6478 N   0  0  0  0  0  0  0  0  0  0  0  0
   11.2031    3.0042   20.6246 C   0  0  0  0  0  0  0  0  0  0  0  0
   12.8688    7.7370   22.7287 C   0  0  0  0  0  0  0  0  0  0  0  0
    7.4487    9.1361   23.6506 C   0  0  0  0  0  0  0  0  0  0  0  0
    8.9772    2.5025   22.0273 C   0  0  0  0  0  0  0  0  0  0  0  0
   10.4859    4.0901   20.9730 C   0  0  0  0  0  0  0  0  0  0  0  0
   11.0962    9.3293   23.5072 C   0  0  0  0  0  0  0  0  0  0  0  0
    5.1273    7.8529   23.6208 N   0  0  0  0  0  0  0  0  0  0  0  0
    9.7552    9.2338   23.0171 N   0  0  0  0  0  0  0  0  0  0  0  0
   11.1797    6.7591   21.3326 N   0  0  0  0  0  0  0  0  0  0  0  0
   11.7728    8.0337   23.7267 C   0  0  0  0  0  0  0  0  0  0  0  0
    7.1194    8.3344   24.6775 C   0  0  0  0  0  0  0  0  0  0  0  0
    8.4311    4.7963   22.0500 C   0  0  0  0  0  0  0  0  0  0  0  0
    8.7393   10.8706   24.1871 O   0  0  0  0  0  0  0  0  0  0  0  0
    9.3093    3.8166   21.6712 C   0  0  0  0  0  0  0  0  0  0  0  0
  1  5  1  0
  1 15  4  0
  1 22  4  0
  2 20  1  0
  2 24  1  0
  3  6  4  0
  3 27  4  0
  4 22  4  0
  4 26  4  0
  6  7  4  0
  6 13  1  0
  7 19  4  0
  8 18  1  0
  8 23  1  0
  8 28  2  0
  9 17  1  0
  9 24  1  0
 10 11  1  0
 10 24  1  0
 11 23  1  0
 12 14  4  0
 12 16  4  0
 14 19  4  0
 15 18  4  0
 16 20  4  0
 17 25  1  0
 18 26  4  0
 19 29  4  0
 20 29  4  0
 21 23  1  0
 21 25  1  0
 27 29  4  0
M  END
$$$$

 Created by Python create_sdf_string function

 29 32  0  0  0  0  0  0  0  0999 V2000
    5.4450    8.7154   22.6662 C   0  0  0  0  0  0  0  0  0  0  0  0
   10.9154    5.4574   20.5483 C   0  0  0  0  0  0  0  0  0  0  0  0
    7.2709    4.5089   22.7542 C   0  0  0  0  0  0  0  0  0  0  0  0
    5.9698    7.6329   24.6581 C   0  0  0  0  0  0  0  0  0  0  0  0
    4.5542    8.9057   21.7104 O   0  0  0  0  0  0  0  0  0  0  0  0
    6.9895    3.2085   23.0690 C   0  0  0  0  0  0  0  0  0  0  0  0
    7.8391    2.2253   22.7260 N   0  0  0  0  0  0  0  0  0  0  0  0
    8.6968    9.8373   23.6359 C   0  0  0  0  0  0  0  0  0  0  0  0
   12.5135    6.5957   21.8396 C   0  0  0  0  0  0  0  0  0  0  0  0
   10.9406    8.2330   21.1350 C   0  0  0  0  0  0  0  0  0  0  0  0
    9.6648    8.5956   21.7310 C   0  0  0  0  0  0  0  0  0  0  0  0
   10.8829    1.7153   20.9865 C   0  0  0  0  0  0  0  0  0  0  0  0
    5.7768    2.8533   23.7910 C   0  0  0  0  0  0  0  0  0  0  0  0
    9.7977    1.4791   21.6912 N   0  0  0  0  0  0  0  0  0  0  0  0
    6.5976    9.3401   22.6478 N   0  0  0  0  0  0  0  0  0  0  0  0
   11.2031    3.0042   20.6246 C   0  0  0  0  0  0  0  0  0  0  0  0
   12.8688    7.7370   22.7287 C   0  0  0  0  0  0  0  0  0  0  0  0
    7.4487    9.1361   23.6506 C   0  0  0  0  0  0  0  0  0  0  0  0
    8.9772    2.5025   22.0273 C   0  0  0  0  0  0  0  0  0  0  0  0
   10.4859    4.0901   20.9730 C   0  0  0  0  0  0  0  0  0  0  0  0
   11.0962    9.3293   23.5072 C   0  0  0  0  0  0  0  0  0  0  0  0
    5.1273    7.8529   23.6208 N   0  0  0  0  0  0  0  0  0  0  0  0
    9.7552    9.2338   23.0171 N   0  0  0  0  0  0  0  0  0  0  0  0
   11.1797    6.7591   21.3326 N   0  0  0  0  0  0  0  0  0  0  0  0
   11.7728    8.0337   23.7267 C   0  0  0  0  0  0  0  0  0  0  0  0
    7.1194    8.3344   24.6775 C   0  0  0  0  0  0  0  0  0  0  0  0
    8.4311    4.7963   22.0500 C   0  0  0  0  0  0  0  0  0  0  0  0
    8.7393   10.8706   24.1871 O   0  0  0  0  0  0  0  0  0  0  0  0
    9.3093    3.8166   21.6712 C   0  0  0  0  0  0  0  0  0  0  0  0
  1  5  1  0
  1 15  4  0
  1 22  4  0
  2 20  1  0
  2 24  1  0
  3  6  4  0
  3 27  4  0
  4 22  4  0
  4 26  4  0
  6  7  4  0
  6 13  1  0
  7 19  4  0
  8 18  1  0
  8 23  1  0
  8 28  2  0
  9 17  1  0
  9 24  1  0
 10 11  1  0
 10 24  1  0
 11 23  1  0
 12 14  4  0
 12 16  4  0
 14 19  4  0
 15 18  4  0
 16 20  4  0
 17 25  1  0
 18 26  4  0
 19 29  4  0
 20 29  4  0
 21 23  1  0
 21 25  1  0
 27 29  4  0
M  END
$$$$

 Created by Python create_sdf_string function

 29 32  0  0  0  0  0  0  0  0999 V2000
    5.4450    8.7154   22.6662 C   0  0  0  0  0  0  0  0  0  0  0  0
   10.9154    5.4574   20.5483 C   0  0  0  0  0  0  0  0  0  0  0  0
    7.2709    4.5089   22.7542 C   0  0  0  0  0  0  0  0  0  0  0  0
    5.9698    7.6329   24.6581 C   0  0  0  0  0  0  0  0  0  0  0  0
    4.5542    8.9057   21.7104 O   0  0  0  0  0  0  0  0  0  0  0  0
    6.9895    3.2085   23.0690 C   0  0  0  0  0  0  0  0  0  0  0  0
    7.8391    2.2253   22.7260 N   0  0  0  0  0  0  0  0  0  0  0  0
    8.6968    9.8373   23.6359 C   0  0  0  0  0  0  0  0  0  0  0  0
   12.5135    6.5957   21.8396 C   0  0  0  0  0  0  0  0  0  0  0  0
   10.9406    8.2330   21.1350 C   0  0  0  0  0  0  0  0  0  0  0  0
    9.6648    8.5956   21.7310 C   0  0  0  0  0  0  0  0  0  0  0  0
   10.8829    1.7153   20.9865 C   0  0  0  0  0  0  0  0  0  0  0  0
    5.7768    2.8533   23.7910 C   0  0  0  0  0  0  0  0  0  0  0  0
    9.7977    1.4791   21.6912 N   0  0  0  0  0  0  0  0  0  0  0  0
    6.5976    9.3401   22.6478 N   0  0  0  0  0  0  0  0  0  0  0  0
   11.2031    3.0042   20.6246 C   0  0  0  0  0  0  0  0  0  0  0  0
   12.8688    7.7370   22.7287 C   0  0  0  0  0  0  0  0  0  0  0  0
    7.4487    9.1361   23.6506 C   0  0  0  0  0  0  0  0  0  0  0  0
    8.9772    2.5025   22.0273 C   0  0  0  0  0  0  0  0  0  0  0  0
   10.4859    4.0901   20.9730 C   0  0  0  0  0  0  0  0  0  0  0  0
   11.0962    9.3293   23.5072 C   0  0  0  0  0  0  0  0  0  0  0  0
    5.1273    7.8529   23.6208 N   0  0  0  0  0  0  0  0  0  0  0  0
    9.7552    9.2338   23.0171 N   0  0  0  0  0  0  0  0  0  0  0  0
   11.1797    6.7591   21.3326 N   0  0  0  0  0  0  0  0  0  0  0  0
   11.7728    8.0337   23.7267 C   0  0  0  0  0  0  0  0  0  0  0  0
    7.1194    8.3344   24.6775 C   0  0  0  0  0  0  0  0  0  0  0  0
    8.4311    4.7963   22.0500 C   0  0  0  0  0  0  0  0  0  0  0  0
    8.7393   10.8706   24.1871 O   0  0  0  0  0  0  0  0  0  0  0  0
    9.3093    3.8166   21.6712 C   0  0  0  0  0  0  0  0  0  0  0  0
  1  5  1  0
  1 15  4  0
  1 22  4  0
  2 20  1  0
  2 24  1  0
  3  6  4  0
  3 27  4  0
  4 22  4  0
  4 26  4  0
  6  7  4  0
  6 13  1  0
  7 19  4  0
  8 18  1  0
  8 23  1  0
  8 28  2  0
  9 17  1  0
  9 24  1  0
 10 11  1  0
 10 24  1  0
 11 23  1  0
 12 14  4  0
 12 16  4  0
 14 19  4  0
 15 18  4  0
 16 20  4  0
 17 25  1  0
 18 26  4  0
 19 29  4  0
 20 29  4  0
 21 23  1  0
 21 25  1  0
 27 29  4  0
M  END
$$$$

 Created by Python create_sdf_string function

 29 32  0  0  0  0  0  0  0  0999 V2000
    5.4450    8.7154   22.6662 C   0  0  0  0  0  0  0  0  0  0  0  0
   10.9154    5.4574   20.5483 C   0  0  0  0  0  0  0  0  0  0  0  0
    7.2709    4.5089   22.7542 C   0  0  0  0  0  0  0  0  0  0  0  0
    5.9698    7.6329   24.6581 C   0  0  0  0  0  0  0  0  0  0  0  0
    4.5542    8.9057   21.7104 O   0  0  0  0  0  0  0  0  0  0  0  0
    6.9895    3.2085   23.0690 C   0  0  0  0  0  0  0  0  0  0  0  0
    7.8391    2.2253   22.7260 N   0  0  0  0  0  0  0  0  0  0  0  0
    8.6968    9.8373   23.6359 C   0  0  0  0  0  0  0  0  0  0  0  0
   12.5135    6.5957   21.8396 C   0  0  0  0  0  0  0  0  0  0  0  0
   10.9406    8.2330   21.1350 C   0  0  0  0  0  0  0  0  0  0  0  0
    9.6648    8.5956   21.7310 C   0  0  0  0  0  0  0  0  0  0  0  0
   10.8829    1.7153   20.9865 C   0  0  0  0  0  0  0  0  0  0  0  0
    5.7768    2.8533   23.7910 C   0  0  0  0  0  0  0  0  0  0  0  0
    9.7977    1.4791   21.6912 N   0  0  0  0  0  0  0  0  0  0  0  0
    6.5976    9.3401   22.6478 N   0  0  0  0  0  0  0  0  0  0  0  0
   11.2031    3.0042   20.6246 C   0  0  0  0  0  0  0  0  0  0  0  0
   12.8688    7.7370   22.7287 C   0  0  0  0  0  0  0  0  0  0  0  0
    7.4487    9.1361   23.6506 C   0  0  0  0  0  0  0  0  0  0  0  0
    8.9772    2.5025   22.0273 C   0  0  0  0  0  0  0  0  0  0  0  0
   10.4859    4.0901   20.9730 C   0  0  0  0  0  0  0  0  0  0  0  0
   11.0962    9.3293   23.5072 C   0  0  0  0  0  0  0  0  0  0  0  0
    5.1273    7.8529   23.6208 N   0  0  0  0  0  0  0  0  0  0  0  0
    9.7552    9.2338   23.0171 N   0  0  0  0  0  0  0  0  0  0  0  0
   11.1797    6.7591   21.3326 N   0  0  0  0  0  0  0  0  0  0  0  0
   11.7728    8.0337   23.7267 C   0  0  0  0  0  0  0  0  0  0  0  0
    7.1194    8.3344   24.6775 C   0  0  0  0  0  0  0  0  0  0  0  0
    8.4311    4.7963   22.0500 C   0  0  0  0  0  0  0  0  0  0  0  0
    8.7393   10.8706   24.1871 O   0  0  0  0  0  0  0  0  0  0  0  0
    9.3093    3.8166   21.6712 C   0  0  0  0  0  0  0  0  0  0  0  0
  1  5  1  0
  1 15  4  0
  1 22  4  0
  2 20  1  0
  2 24  1  0
  3  6  4  0
  3 27  4  0
  4 22  4  0
  4 26  4  0
  6  7  4  0
  6 13  1  0
  7 19  4  0
  8 18  1  0
  8 23  1  0
  8 28  2  0
  9 17  1  0
  9 24  1  0
 10 11  1  0
 10 24  1  0
 11 23  1  0
 12 14  4  0
 12 16  4  0
 14 19  4  0
 15 18  4  0
 16 20  4  0
 17 25  1  0
 18 26  4  0
 19 29  4  0
 20 29  4  0
 21 23  1  0
 21 25  1  0
 27 29  4  0
M  END
$$$$

 Created by Python create_sdf_string function

 29 32  0  0  0  0  0  0  0  0999 V2000
    5.4450    8.7154   22.6662 C   0  0  0  0  0  0  0  0  0  0  0  0
   10.9154    5.4574   20.5483 C   0  0  0  0  0  0  0  0  0  0  0  0
    7.2709    4.5089   22.7542 C   0  0  0  0  0  0  0  0  0  0  0  0
    5.9698    7.6329   24.6581 C   0  0  0  0  0  0  0  0  0  0  0  0
    4.5542    8.9057   21.7104 O   0  0  0  0  0  0  0  0  0  0  0  0
    6.9895    3.2085   23.0690 C   0  0  0  0  0  0  0  0  0  0  0  0
    7.8391    2.2253   22.7260 N   0  0  0  0  0  0  0  0  0  0  0  0
    8.6968    9.8373   23.6359 C   0  0  0  0  0  0  0  0  0  0  0  0
   12.5135    6.5957   21.8396 C   0  0  0  0  0  0  0  0  0  0  0  0
   10.9406    8.2330   21.1350 C   0  0  0  0  0  0  0  0  0  0  0  0
    9.6648    8.5956   21.7310 C   0  0  0  0  0  0  0  0  0  0  0  0
   10.8829    1.7153   20.9865 C   0  0  0  0  0  0  0  0  0  0  0  0
    5.7768    2.8533   23.7910 C   0  0  0  0  0  0  0  0  0  0  0  0
    9.7977    1.4791   21.6912 N   0  0  0  0  0  0  0  0  0  0  0  0
    6.5976    9.3401   22.6478 N   0  0  0  0  0  0  0  0  0  0  0  0
   11.2031    3.0042   20.6246 C   0  0  0  0  0  0  0  0  0  0  0  0
   12.8688    7.7370   22.7287 C   0  0  0  0  0  0  0  0  0  0  0  0
    7.4487    9.1361   23.6506 C   0  0  0  0  0  0  0  0  0  0  0  0
    8.9772    2.5025   22.0273 C   0  0  0  0  0  0  0  0  0  0  0  0
   10.4859    4.0901   20.9730 C   0  0  0  0  0  0  0  0  0  0  0  0
   11.0962    9.3293   23.5072 C   0  0  0  0  0  0  0  0  0  0  0  0
    5.1273    7.8529   23.6208 N   0  0  0  0  0  0  0  0  0  0  0  0
    9.7552    9.2338   23.0171 N   0  0  0  0  0  0  0  0  0  0  0  0
   11.1797    6.7591   21.3326 N   0  0  0  0  0  0  0  0  0  0  0  0
   11.7728    8.0337   23.7267 C   0  0  0  0  0  0  0  0  0  0  0  0
    7.1194    8.3344   24.6775 C   0  0  0  0  0  0  0  0  0  0  0  0
    8.4311    4.7963   22.0500 C   0  0  0  0  0  0  0  0  0  0  0  0
    8.7393   10.8706   24.1871 O   0  0  0  0  0  0  0  0  0  0  0  0
    9.3093    3.8166   21.6712 C   0  0  0  0  0  0  0  0  0  0  0  0
  1  5  1  0
  1 15  4  0
  1 22  4  0
  2 20  1  0
  2 24  1  0
  3  6  4  0
  3 27  4  0
  4 22  4  0
  4 26  4  0
  6  7  4  0
  6 13  1  0
  7 19  4  0
  8 18  1  0
  8 23  1  0
  8 28  2  0
  9 17  1  0
  9 24  1  0
 10 11  1  0
 10 24  1  0
 11 23  1  0
 12 14  4  0
 12 16  4  0
 14 19  4  0
 15 18  4  0
 16 20  4  0
 17 25  1  0
 18 26  4  0
 19 29  4  0
 20 29  4  0
 21 23  1  0
 21 25  1  0
 27 29  4  0
M  END
$$$$

 Created by Python create_sdf_string function

 29 32  0  0  0  0  0  0  0  0999 V2000
    5.4450    8.7154   22.6662 C   0  0  0  0  0  0  0  0  0  0  0  0
   10.9154    5.4574   20.5483 C   0  0  0  0  0  0  0  0  0  0  0  0
    7.2709    4.5089   22.7542 C   0  0  0  0  0  0  0  0  0  0  0  0
    5.9698    7.6329   24.6581 C   0  0  0  0  0  0  0  0  0  0  0  0
    4.5542    8.9057   21.7104 O   0  0  0  0  0  0  0  0  0  0  0  0
    6.9895    3.2085   23.0690 C   0  0  0  0  0  0  0  0  0  0  0  0
    7.8391    2.2253   22.7260 N   0  0  0  0  0  0  0  0  0  0  0  0
    8.6968    9.8373   23.6359 C   0  0  0  0  0  0  0  0  0  0  0  0
   12.5135    6.5957   21.8396 C   0  0  0  0  0  0  0  0  0  0  0  0
   10.9406    8.2330   21.1350 C   0  0  0  0  0  0  0  0  0  0  0  0
    9.6648    8.5956   21.7310 C   0  0  0  0  0  0  0  0  0  0  0  0
   10.8829    1.7153   20.9865 C   0  0  0  0  0  0  0  0  0  0  0  0
    5.7768    2.8533   23.7910 C   0  0  0  0  0  0  0  0  0  0  0  0
    9.7977    1.4791   21.6912 N   0  0  0  0  0  0  0  0  0  0  0  0
    6.5976    9.3401   22.6478 N   0  0  0  0  0  0  0  0  0  0  0  0
   11.2031    3.0042   20.6246 C   0  0  0  0  0  0  0  0  0  0  0  0
   12.8688    7.7370   22.7287 C   0  0  0  0  0  0  0  0  0  0  0  0
    7.4487    9.1361   23.6506 C   0  0  0  0  0  0  0  0  0  0  0  0
    8.9772    2.5025   22.0273 C   0  0  0  0  0  0  0  0  0  0  0  0
   10.4859    4.0901   20.9730 C   0  0  0  0  0  0  0  0  0  0  0  0
   11.0962    9.3293   23.5072 C   0  0  0  0  0  0  0  0  0  0  0  0
    5.1273    7.8529   23.6208 N   0  0  0  0  0  0  0  0  0  0  0  0
    9.7552    9.2338   23.0171 N   0  0  0  0  0  0  0  0  0  0  0  0
   11.1797    6.7591   21.3326 N   0  0  0  0  0  0  0  0  0  0  0  0
   11.7728    8.0337   23.7267 C   0  0  0  0  0  0  0  0  0  0  0  0
    7.1194    8.3344   24.6775 C   0  0  0  0  0  0  0  0  0  0  0  0
    8.4311    4.7963   22.0500 C   0  0  0  0  0  0  0  0  0  0  0  0
    8.7393   10.8706   24.1871 O   0  0  0  0  0  0  0  0  0  0  0  0
    9.3093    3.8166   21.6712 C   0  0  0  0  0  0  0  0  0  0  0  0
  1  5  1  0
  1 15  4  0
  1 22  4  0
  2 20  1  0
  2 24  1  0
  3  6  4  0
  3 27  4  0
  4 22  4  0
  4 26  4  0
  6  7  4  0
  6 13  1  0
  7 19  4  0
  8 18  1  0
  8 23  1  0
  8 28  2  0
  9 17  1  0
  9 24  1  0
 10 11  1  0
 10 24  1  0
 11 23  1  0
 12 14  4  0
 12 16  4  0
 14 19  4  0
 15 18  4  0
 16 20  4  0
 17 25  1  0
 18 26  4  0
 19 29  4  0
 20 29  4  0
 21 23  1  0
 21 25  1  0
 27 29  4  0
M  END
$$$$

 Created by Python create_sdf_string function

 29 32  0  0  0  0  0  0  0  0999 V2000
    5.4450    8.7154   22.6662 C   0  0  0  0  0  0  0  0  0  0  0  0
   10.9154    5.4574   20.5483 C   0  0  0  0  0  0  0  0  0  0  0  0
    7.2709    4.5089   22.7542 C   0  0  0  0  0  0  0  0  0  0  0  0
    5.9698    7.6329   24.6581 C   0  0  0  0  0  0  0  0  0  0  0  0
    4.5542    8.9057   21.7104 O   0  0  0  0  0  0  0  0  0  0  0  0
    6.9895    3.2085   23.0690 C   0  0  0  0  0  0  0  0  0  0  0  0
    7.8391    2.2253   22.7260 N   0  0  0  0  0  0  0  0  0  0  0  0
    8.6968    9.8373   23.6359 C   0  0  0  0  0  0  0  0  0  0  0  0
   12.5135    6.5957   21.8396 C   0  0  0  0  0  0  0  0  0  0  0  0
   10.9406    8.2330   21.1350 C   0  0  0  0  0  0  0  0  0  0  0  0
    9.6648    8.5956   21.7310 C   0  0  0  0  0  0  0  0  0  0  0  0
   10.8829    1.7153   20.9865 C   0  0  0  0  0  0  0  0  0  0  0  0
    5.7768    2.8533   23.7910 C   0  0  0  0  0  0  0  0  0  0  0  0
    9.7977    1.4791   21.6912 N   0  0  0  0  0  0  0  0  0  0  0  0
    6.5976    9.3401   22.6478 N   0  0  0  0  0  0  0  0  0  0  0  0
   11.2031    3.0042   20.6246 C   0  0  0  0  0  0  0  0  0  0  0  0
   12.8688    7.7370   22.7287 C   0  0  0  0  0  0  0  0  0  0  0  0
    7.4487    9.1361   23.6506 C   0  0  0  0  0  0  0  0  0  0  0  0
    8.9772    2.5025   22.0273 C   0  0  0  0  0  0  0  0  0  0  0  0
   10.4859    4.0901   20.9730 C   0  0  0  0  0  0  0  0  0  0  0  0
   11.0962    9.3293   23.5072 C   0  0  0  0  0  0  0  0  0  0  0  0
    5.1273    7.8529   23.6208 N   0  0  0  0  0  0  0  0  0  0  0  0
    9.7552    9.2338   23.0171 N   0  0  0  0  0  0  0  0  0  0  0  0
   11.1797    6.7591   21.3326 N   0  0  0  0  0  0  0  0  0  0  0  0
   11.7728    8.0337   23.7267 C   0  0  0  0  0  0  0  0  0  0  0  0
    7.1194    8.3344   24.6775 C   0  0  0  0  0  0  0  0  0  0  0  0
    8.4311    4.7963   22.0500 C   0  0  0  0  0  0  0  0  0  0  0  0
    8.7393   10.8706   24.1871 O   0  0  0  0  0  0  0  0  0  0  0  0
    9.3093    3.8166   21.6712 C   0  0  0  0  0  0  0  0  0  0  0  0
  1  5  1  0
  1 15  4  0
  1 22  4  0
  2 20  1  0
  2 24  1  0
  3  6  4  0
  3 27  4  0
  4 22  4  0
  4 26  4  0
  6  7  4  0
  6 13  1  0
  7 19  4  0
  8 18  1  0
  8 23  1  0
  8 28  2  0
  9 17  1  0
  9 24  1  0
 10 11  1  0
 10 24  1  0
 11 23  1  0
 12 14  4  0
 12 16  4  0
 14 19  4  0
 15 18  4  0
 16 20  4  0
 17 25  1  0
 18 26  4  0
 19 29  4  0
 20 29  4  0
 21 23  1  0
 21 25  1  0
 27 29  4  0
M  END
$$$$

 Created by Python create_sdf_string function

 29 32  0  0  0  0  0  0  0  0999 V2000
    5.4450    8.7154   22.6662 C   0  0  0  0  0  0  0  0  0  0  0  0
   10.9154    5.4574   20.5483 C   0  0  0  0  0  0  0  0  0  0  0  0
    7.2709    4.5089   22.7542 C   0  0  0  0  0  0  0  0  0  0  0  0
    5.9698    7.6329   24.6581 C   0  0  0  0  0  0  0  0  0  0  0  0
    4.5542    8.9057   21.7104 O   0  0  0  0  0  0  0  0  0  0  0  0
    6.9895    3.2085   23.0690 C   0  0  0  0  0  0  0  0  0  0  0  0
    7.8391    2.2253   22.7260 N   0  0  0  0  0  0  0  0  0  0  0  0
    8.6968    9.8373   23.6359 C   0  0  0  0  0  0  0  0  0  0  0  0
   12.5135    6.5957   21.8396 C   0  0  0  0  0  0  0  0  0  0  0  0
   10.9406    8.2330   21.1350 C   0  0  0  0  0  0  0  0  0  0  0  0
    9.6648    8.5956   21.7310 C   0  0  0  0  0  0  0  0  0  0  0  0
   10.8829    1.7153   20.9865 C   0  0  0  0  0  0  0  0  0  0  0  0
    5.7768    2.8533   23.7910 C   0  0  0  0  0  0  0  0  0  0  0  0
    9.7977    1.4791   21.6912 N   0  0  0  0  0  0  0  0  0  0  0  0
    6.5976    9.3401   22.6478 N   0  0  0  0  0  0  0  0  0  0  0  0
   11.2031    3.0042   20.6246 C   0  0  0  0  0  0  0  0  0  0  0  0
   12.8688    7.7370   22.7287 C   0  0  0  0  0  0  0  0  0  0  0  0
    7.4487    9.1361   23.6506 C   0  0  0  0  0  0  0  0  0  0  0  0
    8.9772    2.5025   22.0273 C   0  0  0  0  0  0  0  0  0  0  0  0
   10.4859    4.0901   20.9730 C   0  0  0  0  0  0  0  0  0  0  0  0
   11.0962    9.3293   23.5072 C   0  0  0  0  0  0  0  0  0  0  0  0
    5.1273    7.8529   23.6208 N   0  0  0  0  0  0  0  0  0  0  0  0
    9.7552    9.2338   23.0171 N   0  0  0  0  0  0  0  0  0  0  0  0
   11.1797    6.7591   21.3326 N   0  0  0  0  0  0  0  0  0  0  0  0
   11.7728    8.0337   23.7267 C   0  0  0  0  0  0  0  0  0  0  0  0
    7.1194    8.3344   24.6775 C   0  0  0  0  0  0  0  0  0  0  0  0
    8.4311    4.7963   22.0500 C   0  0  0  0  0  0  0  0  0  0  0  0
    8.7393   10.8706   24.1871 O   0  0  0  0  0  0  0  0  0  0  0  0
    9.3093    3.8166   21.6712 C   0  0  0  0  0  0  0  0  0  0  0  0
  1  5  1  0
  1 15  4  0
  1 22  4  0
  2 20  1  0
  2 24  1  0
  3  6  4  0
  3 27  4  0
  4 22  4  0
  4 26  4  0
  6  7  4  0
  6 13  1  0
  7 19  4  0
  8 18  1  0
  8 23  1  0
  8 28  2  0
  9 17  1  0
  9 24  1  0
 10 11  1  0
 10 24  1  0
 11 23  1  0
 12 14  4  0
 12 16  4  0
 14 19  4  0
 15 18  4  0
 16 20  4  0
 17 25  1  0
 18 26  4  0
 19 29  4  0
 20 29  4  0
 21 23  1  0
 21 25  1  0
 27 29  4  0
M  END
$$$$

 Created by Python create_sdf_string function

 29 32  0  0  0  0  0  0  0  0999 V2000
    5.4450    8.7154   22.6662 C   0  0  0  0  0  0  0  0  0  0  0  0
   10.9154    5.4574   20.5483 C   0  0  0  0  0  0  0  0  0  0  0  0
    7.2709    4.5089   22.7542 C   0  0  0  0  0  0  0  0  0  0  0  0
    5.9698    7.6329   24.6581 C   0  0  0  0  0  0  0  0  0  0  0  0
    4.5542    8.9057   21.7104 O   0  0  0  0  0  0  0  0  0  0  0  0
    6.9895    3.2085   23.0690 C   0  0  0  0  0  0  0  0  0  0  0  0
    7.8391    2.2253   22.7260 N   0  0  0  0  0  0  0  0  0  0  0  0
    8.6968    9.8373   23.6359 C   0  0  0  0  0  0  0  0  0  0  0  0
   12.5135    6.5957   21.8396 C   0  0  0  0  0  0  0  0  0  0  0  0
   10.9406    8.2330   21.1350 C   0  0  0  0  0  0  0  0  0  0  0  0
    9.6648    8.5956   21.7310 C   0  0  0  0  0  0  0  0  0  0  0  0
   10.8829    1.7153   20.9865 C   0  0  0  0  0  0  0  0  0  0  0  0
    5.7768    2.8533   23.7910 C   0  0  0  0  0  0  0  0  0  0  0  0
    9.7977    1.4791   21.6912 N   0  0  0  0  0  0  0  0  0  0  0  0
    6.5976    9.3401   22.6478 N   0  0  0  0  0  0  0  0  0  0  0  0
   11.2031    3.0042   20.6246 C   0  0  0  0  0  0  0  0  0  0  0  0
   12.8688    7.7370   22.7287 C   0  0  0  0  0  0  0  0  0  0  0  0
    7.4487    9.1361   23.6506 C   0  0  0  0  0  0  0  0  0  0  0  0
    8.9772    2.5025   22.0273 C   0  0  0  0  0  0  0  0  0  0  0  0
   10.4859    4.0901   20.9730 C   0  0  0  0  0  0  0  0  0  0  0  0
   11.0962    9.3293   23.5072 C   0  0  0  0  0  0  0  0  0  0  0  0
    5.1273    7.8529   23.6208 N   0  0  0  0  0  0  0  0  0  0  0  0
    9.7552    9.2338   23.0171 N   0  0  0  0  0  0  0  0  0  0  0  0
   11.1797    6.7591   21.3326 N   0  0  0  0  0  0  0  0  0  0  0  0
   11.7728    8.0337   23.7267 C   0  0  0  0  0  0  0  0  0  0  0  0
    7.1194    8.3344   24.6775 C   0  0  0  0  0  0  0  0  0  0  0  0
    8.4311    4.7963   22.0500 C   0  0  0  0  0  0  0  0  0  0  0  0
    8.7393   10.8706   24.1871 O   0  0  0  0  0  0  0  0  0  0  0  0
    9.3093    3.8166   21.6712 C   0  0  0  0  0  0  0  0  0  0  0  0
  1  5  1  0
  1 15  4  0
  1 22  4  0
  2 20  1  0
  2 24  1  0
  3  6  4  0
  3 27  4  0
  4 22  4  0
  4 26  4  0
  6  7  4  0
  6 13  1  0
  7 19  4  0
  8 18  1  0
  8 23  1  0
  8 28  2  0
  9 17  1  0
  9 24  1  0
 10 11  1  0
 10 24  1  0
 11 23  1  0
 12 14  4  0
 12 16  4  0
 14 19  4  0
 15 18  4  0
 16 20  4  0
 17 25  1  0
 18 26  4  0
 19 29  4  0
 20 29  4  0
 21 23  1  0
 21 25  1  0
 27 29  4  0
M  END
$$$$

 Created by Python create_sdf_string function

 29 32  0  0  0  0  0  0  0  0999 V2000
    5.4450    8.7154   22.6662 C   0  0  0  0  0  0  0  0  0  0  0  0
   10.9154    5.4574   20.5483 C   0  0  0  0  0  0  0  0  0  0  0  0
    7.2709    4.5089   22.7542 C   0  0  0  0  0  0  0  0  0  0  0  0
    5.9698    7.6329   24.6581 C   0  0  0  0  0  0  0  0  0  0  0  0
    4.5542    8.9057   21.7104 O   0  0  0  0  0  0  0  0  0  0  0  0
    6.9895    3.2085   23.0690 C   0  0  0  0  0  0  0  0  0  0  0  0
    7.8391    2.2253   22.7260 N   0  0  0  0  0  0  0  0  0  0  0  0
    8.6968    9.8373   23.6359 C   0  0  0  0  0  0  0  0  0  0  0  0
   12.5135    6.5957   21.8396 C   0  0  0  0  0  0  0  0  0  0  0  0
   10.9406    8.2330   21.1350 C   0  0  0  0  0  0  0  0  0  0  0  0
    9.6648    8.5956   21.7310 C   0  0  0  0  0  0  0  0  0  0  0  0
   10.8829    1.7153   20.9865 C   0  0  0  0  0  0  0  0  0  0  0  0
    5.7768    2.8533   23.7910 C   0  0  0  0  0  0  0  0  0  0  0  0
    9.7977    1.4791   21.6912 N   0  0  0  0  0  0  0  0  0  0  0  0
    6.5976    9.3401   22.6478 N   0  0  0  0  0  0  0  0  0  0  0  0
   11.2031    3.0042   20.6246 C   0  0  0  0  0  0  0  0  0  0  0  0
   12.8688    7.7370   22.7287 C   0  0  0  0  0  0  0  0  0  0  0  0
    7.4487    9.1361   23.6506 C   0  0  0  0  0  0  0  0  0  0  0  0
    8.9772    2.5025   22.0273 C   0  0  0  0  0  0  0  0  0  0  0  0
   10.4859    4.0901   20.9730 C   0  0  0  0  0  0  0  0  0  0  0  0
   11.0962    9.3293   23.5072 C   0  0  0  0  0  0  0  0  0  0  0  0
    5.1273    7.8529   23.6208 N   0  0  0  0  0  0  0  0  0  0  0  0
    9.7552    9.2338   23.0171 N   0  0  0  0  0  0  0  0  0  0  0  0
   11.1797    6.7591   21.3326 N   0  0  0  0  0  0  0  0  0  0  0  0
   11.7728    8.0337   23.7267 C   0  0  0  0  0  0  0  0  0  0  0  0
    7.1194    8.3344   24.6775 C   0  0  0  0  0  0  0  0  0  0  0  0
    8.4311    4.7963   22.0500 C   0  0  0  0  0  0  0  0  0  0  0  0
    8.7393   10.8706   24.1871 O   0  0  0  0  0  0  0  0  0  0  0  0
    9.3093    3.8166   21.6712 C   0  0  0  0  0  0  0  0  0  0  0  0
  1  5  1  0
  1 15  4  0
  1 22  4  0
  2 20  1  0
  2 24  1  0
  3  6  4  0
  3 27  4  0
  4 22  4  0
  4 26  4  0
  6  7  4  0
  6 13  1  0
  7 19  4  0
  8 18  1  0
  8 23  1  0
  8 28  2  0
  9 17  1  0
  9 24  1  0
 10 11  1  0
 10 24  1  0
 11 23  1  0
 12 14  4  0
 12 16  4  0
 14 19  4  0
 15 18  4  0
 16 20  4  0
 17 25  1  0
 18 26  4  0
 19 29  4  0
 20 29  4  0
 21 23  1  0
 21 25  1  0
 27 29  4  0
M  END
$$$$

 Created by Python create_sdf_string function

 29 32  0  0  0  0  0  0  0  0999 V2000
    5.4450    8.7154   22.6662 C   0  0  0  0  0  0  0  0  0  0  0  0
   10.9154    5.4574   20.5483 C   0  0  0  0  0  0  0  0  0  0  0  0
    7.2709    4.5089   22.7542 C   0  0  0  0  0  0  0  0  0  0  0  0
    5.9698    7.6329   24.6581 C   0  0  0  0  0  0  0  0  0  0  0  0
    4.5542    8.9057   21.7104 O   0  0  0  0  0  0  0  0  0  0  0  0
    6.9895    3.2085   23.0690 C   0  0  0  0  0  0  0  0  0  0  0  0
    7.8391    2.2253   22.7260 N   0  0  0  0  0  0  0  0  0  0  0  0
    8.6968    9.8373   23.6359 C   0  0  0  0  0  0  0  0  0  0  0  0
   12.5135    6.5957   21.8396 C   0  0  0  0  0  0  0  0  0  0  0  0
   10.9406    8.2330   21.1350 C   0  0  0  0  0  0  0  0  0  0  0  0
    9.6648    8.5956   21.7310 C   0  0  0  0  0  0  0  0  0  0  0  0
   10.8829    1.7153   20.9865 C   0  0  0  0  0  0  0  0  0  0  0  0
    5.7768    2.8533   23.7910 C   0  0  0  0  0  0  0  0  0  0  0  0
    9.7977    1.4791   21.6912 N   0  0  0  0  0  0  0  0  0  0  0  0
    6.5976    9.3401   22.6478 N   0  0  0  0  0  0  0  0  0  0  0  0
   11.2031    3.0042   20.6246 C   0  0  0  0  0  0  0  0  0  0  0  0
   12.8688    7.7370   22.7287 C   0  0  0  0  0  0  0  0  0  0  0  0
    7.4487    9.1361   23.6506 C   0  0  0  0  0  0  0  0  0  0  0  0
    8.9772    2.5025   22.0273 C   0  0  0  0  0  0  0  0  0  0  0  0
   10.4859    4.0901   20.9730 C   0  0  0  0  0  0  0  0  0  0  0  0
   11.0962    9.3293   23.5072 C   0  0  0  0  0  0  0  0  0  0  0  0
    5.1273    7.8529   23.6208 N   0  0  0  0  0  0  0  0  0  0  0  0
    9.7552    9.2338   23.0171 N   0  0  0  0  0  0  0  0  0  0  0  0
   11.1797    6.7591   21.3326 N   0  0  0  0  0  0  0  0  0  0  0  0
   11.7728    8.0337   23.7267 C   0  0  0  0  0  0  0  0  0  0  0  0
    7.1194    8.3344   24.6775 C   0  0  0  0  0  0  0  0  0  0  0  0
    8.4311    4.7963   22.0500 C   0  0  0  0  0  0  0  0  0  0  0  0
    8.7393   10.8706   24.1871 O   0  0  0  0  0  0  0  0  0  0  0  0
    9.3093    3.8166   21.6712 C   0  0  0  0  0  0  0  0  0  0  0  0
  1  5  1  0
  1 15  4  0
  1 22  4  0
  2 20  1  0
  2 24  1  0
  3  6  4  0
  3 27  4  0
  4 22  4  0
  4 26  4  0
  6  7  4  0
  6 13  1  0
  7 19  4  0
  8 18  1  0
  8 23  1  0
  8 28  2  0
  9 17  1  0
  9 24  1  0
 10 11  1  0
 10 24  1  0
 11 23  1  0
 12 14  4  0
 12 16  4  0
 14 19  4  0
 15 18  4  0
 16 20  4  0
 17 25  1  0
 18 26  4  0
 19 29  4  0
 20 29  4  0
 21 23  1  0
 21 25  1  0
 27 29  4  0
M  END
$$$$

 Created by Python create_sdf_string function

 29 32  0  0  0  0  0  0  0  0999 V2000
    5.4450    8.7154   22.6662 C   0  0  0  0  0  0  0  0  0  0  0  0
   10.9154    5.4574   20.5483 C   0  0  0  0  0  0  0  0  0  0  0  0
    7.2709    4.5089   22.7542 C   0  0  0  0  0  0  0  0  0  0  0  0
    5.9698    7.6329   24.6581 C   0  0  0  0  0  0  0  0  0  0  0  0
    4.5542    8.9057   21.7104 O   0  0  0  0  0  0  0  0  0  0  0  0
    6.9895    3.2085   23.0690 C   0  0  0  0  0  0  0  0  0  0  0  0
    7.8391    2.2253   22.7260 N   0  0  0  0  0  0  0  0  0  0  0  0
    8.6968    9.8373   23.6359 C   0  0  0  0  0  0  0  0  0  0  0  0
   12.5135    6.5957   21.8396 C   0  0  0  0  0  0  0  0  0  0  0  0
   10.9406    8.2330   21.1350 C   0  0  0  0  0  0  0  0  0  0  0  0
    9.6648    8.5956   21.7310 C   0  0  0  0  0  0  0  0  0  0  0  0
   10.8829    1.7153   20.9865 C   0  0  0  0  0  0  0  0  0  0  0  0
    5.7768    2.8533   23.7910 C   0  0  0  0  0  0  0  0  0  0  0  0
    9.7977    1.4791   21.6912 N   0  0  0  0  0  0  0  0  0  0  0  0
    6.5976    9.3401   22.6478 N   0  0  0  0  0  0  0  0  0  0  0  0
   11.2031    3.0042   20.6246 C   0  0  0  0  0  0  0  0  0  0  0  0
   12.8688    7.7370   22.7287 C   0  0  0  0  0  0  0  0  0  0  0  0
    7.4487    9.1361   23.6506 C   0  0  0  0  0  0  0  0  0  0  0  0
    8.9772    2.5025   22.0273 C   0  0  0  0  0  0  0  0  0  0  0  0
   10.4859    4.0901   20.9730 C   0  0  0  0  0  0  0  0  0  0  0  0
   11.0962    9.3293   23.5072 C   0  0  0  0  0  0  0  0  0  0  0  0
    5.1273    7.8529   23.6208 N   0  0  0  0  0  0  0  0  0  0  0  0
    9.7552    9.2338   23.0171 N   0  0  0  0  0  0  0  0  0  0  0  0
   11.1797    6.7591   21.3326 N   0  0  0  0  0  0  0  0  0  0  0  0
   11.7728    8.0337   23.7267 C   0  0  0  0  0  0  0  0  0  0  0  0
    7.1194    8.3344   24.6775 C   0  0  0  0  0  0  0  0  0  0  0  0
    8.4311    4.7963   22.0500 C   0  0  0  0  0  0  0  0  0  0  0  0
    8.7393   10.8706   24.1871 O   0  0  0  0  0  0  0  0  0  0  0  0
    9.3093    3.8166   21.6712 C   0  0  0  0  0  0  0  0  0  0  0  0
  1  5  1  0
  1 15  4  0
  1 22  4  0
  2 20  1  0
  2 24  1  0
  3  6  4  0
  3 27  4  0
  4 22  4  0
  4 26  4  0
  6  7  4  0
  6 13  1  0
  7 19  4  0
  8 18  1  0
  8 23  1  0
  8 28  2  0
  9 17  1  0
  9 24  1  0
 10 11  1  0
 10 24  1  0
 11 23  1  0
 12 14  4  0
 12 16  4  0
 14 19  4  0
 15 18  4  0
 16 20  4  0
 17 25  1  0
 18 26  4  0
 19 29  4  0
 20 29  4  0
 21 23  1  0
 21 25  1  0
 27 29  4  0
M  END
$$$$

 Created by Python create_sdf_string function

 29 32  0  0  0  0  0  0  0  0999 V2000
    5.4450    8.7154   22.6662 C   0  0  0  0  0  0  0  0  0  0  0  0
   10.9154    5.4574   20.5483 C   0  0  0  0  0  0  0  0  0  0  0  0
    7.2709    4.5089   22.7542 C   0  0  0  0  0  0  0  0  0  0  0  0
    5.9698    7.6329   24.6581 C   0  0  0  0  0  0  0  0  0  0  0  0
    4.5542    8.9057   21.7104 O   0  0  0  0  0  0  0  0  0  0  0  0
    6.9895    3.2085   23.0690 C   0  0  0  0  0  0  0  0  0  0  0  0
    7.8391    2.2253   22.7260 N   0  0  0  0  0  0  0  0  0  0  0  0
    8.6968    9.8373   23.6359 C   0  0  0  0  0  0  0  0  0  0  0  0
   12.5135    6.5957   21.8396 C   0  0  0  0  0  0  0  0  0  0  0  0
   10.9406    8.2330   21.1350 C   0  0  0  0  0  0  0  0  0  0  0  0
    9.6648    8.5956   21.7310 C   0  0  0  0  0  0  0  0  0  0  0  0
   10.8829    1.7153   20.9865 C   0  0  0  0  0  0  0  0  0  0  0  0
    5.7768    2.8533   23.7910 C   0  0  0  0  0  0  0  0  0  0  0  0
    9.7977    1.4791   21.6912 N   0  0  0  0  0  0  0  0  0  0  0  0
    6.5976    9.3401   22.6478 N   0  0  0  0  0  0  0  0  0  0  0  0
   11.2031    3.0042   20.6246 C   0  0  0  0  0  0  0  0  0  0  0  0
   12.8688    7.7370   22.7287 C   0  0  0  0  0  0  0  0  0  0  0  0
    7.4487    9.1361   23.6506 C   0  0  0  0  0  0  0  0  0  0  0  0
    8.9772    2.5025   22.0273 C   0  0  0  0  0  0  0  0  0  0  0  0
   10.4859    4.0901   20.9730 C   0  0  0  0  0  0  0  0  0  0  0  0
   11.0962    9.3293   23.5072 C   0  0  0  0  0  0  0  0  0  0  0  0
    5.1273    7.8529   23.6208 N   0  0  0  0  0  0  0  0  0  0  0  0
    9.7552    9.2338   23.0171 N   0  0  0  0  0  0  0  0  0  0  0  0
   11.1797    6.7591   21.3326 N   0  0  0  0  0  0  0  0  0  0  0  0
   11.7728    8.0337   23.7267 C   0  0  0  0  0  0  0  0  0  0  0  0
    7.1194    8.3344   24.6775 C   0  0  0  0  0  0  0  0  0  0  0  0
    8.4311    4.7963   22.0500 C   0  0  0  0  0  0  0  0  0  0  0  0
    8.7393   10.8706   24.1871 O   0  0  0  0  0  0  0  0  0  0  0  0
    9.3093    3.8166   21.6712 C   0  0  0  0  0  0  0  0  0  0  0  0
  1  5  1  0
  1 15  4  0
  1 22  4  0
  2 20  1  0
  2 24  1  0
  3  6  4  0
  3 27  4  0
  4 22  4  0
  4 26  4  0
  6  7  4  0
  6 13  1  0
  7 19  4  0
  8 18  1  0
  8 23  1  0
  8 28  2  0
  9 17  1  0
  9 24  1  0
 10 11  1  0
 10 24  1  0
 11 23  1  0
 12 14  4  0
 12 16  4  0
 14 19  4  0
 15 18  4  0
 16 20  4  0
 17 25  1  0
 18 26  4  0
 19 29  4  0
 20 29  4  0
 21 23  1  0
 21 25  1  0
 27 29  4  0
M  END
$$$$

 Created by Python create_sdf_string function

 29 32  0  0  0  0  0  0  0  0999 V2000
    5.4450    8.7154   22.6662 C   0  0  0  0  0  0  0  0  0  0  0  0
   10.9154    5.4574   20.5483 C   0  0  0  0  0  0  0  0  0  0  0  0
    7.2709    4.5089   22.7542 C   0  0  0  0  0  0  0  0  0  0  0  0
    5.9698    7.6329   24.6581 C   0  0  0  0  0  0  0  0  0  0  0  0
    4.5542    8.9057   21.7104 O   0  0  0  0  0  0  0  0  0  0  0  0
    6.9895    3.2085   23.0690 C   0  0  0  0  0  0  0  0  0  0  0  0
    7.8391    2.2253   22.7260 N   0  0  0  0  0  0  0  0  0  0  0  0
    8.6968    9.8373   23.6359 C   0  0  0  0  0  0  0  0  0  0  0  0
   12.5135    6.5957   21.8396 C   0  0  0  0  0  0  0  0  0  0  0  0
   10.9406    8.2330   21.1350 C   0  0  0  0  0  0  0  0  0  0  0  0
    9.6648    8.5956   21.7310 C   0  0  0  0  0  0  0  0  0  0  0  0
   10.8829    1.7153   20.9865 C   0  0  0  0  0  0  0  0  0  0  0  0
    5.7768    2.8533   23.7910 C   0  0  0  0  0  0  0  0  0  0  0  0
    9.7977    1.4791   21.6912 N   0  0  0  0  0  0  0  0  0  0  0  0
    6.5976    9.3401   22.6478 N   0  0  0  0  0  0  0  0  0  0  0  0
   11.2031    3.0042   20.6246 C   0  0  0  0  0  0  0  0  0  0  0  0
   12.8688    7.7370   22.7287 C   0  0  0  0  0  0  0  0  0  0  0  0
    7.4487    9.1361   23.6506 C   0  0  0  0  0  0  0  0  0  0  0  0
    8.9772    2.5025   22.0273 C   0  0  0  0  0  0  0  0  0  0  0  0
   10.4859    4.0901   20.9730 C   0  0  0  0  0  0  0  0  0  0  0  0
   11.0962    9.3293   23.5072 C   0  0  0  0  0  0  0  0  0  0  0  0
    5.1273    7.8529   23.6208 N   0  0  0  0  0  0  0  0  0  0  0  0
    9.7552    9.2338   23.0171 N   0  0  0  0  0  0  0  0  0  0  0  0
   11.1797    6.7591   21.3326 N   0  0  0  0  0  0  0  0  0  0  0  0
   11.7728    8.0337   23.7267 C   0  0  0  0  0  0  0  0  0  0  0  0
    7.1194    8.3344   24.6775 C   0  0  0  0  0  0  0  0  0  0  0  0
    8.4311    4.7963   22.0500 C   0  0  0  0  0  0  0  0  0  0  0  0
    8.7393   10.8706   24.1871 O   0  0  0  0  0  0  0  0  0  0  0  0
    9.3093    3.8166   21.6712 C   0  0  0  0  0  0  0  0  0  0  0  0
  1  5  1  0
  1 15  4  0
  1 22  4  0
  2 20  1  0
  2 24  1  0
  3  6  4  0
  3 27  4  0
  4 22  4  0
  4 26  4  0
  6  7  4  0
  6 13  1  0
  7 19  4  0
  8 18  1  0
  8 23  1  0
  8 28  2  0
  9 17  1  0
  9 24  1  0
 10 11  1  0
 10 24  1  0
 11 23  1  0
 12 14  4  0
 12 16  4  0
 14 19  4  0
 15 18  4  0
 16 20  4  0
 17 25  1  0
 18 26  4  0
 19 29  4  0
 20 29  4  0
 21 23  1  0
 21 25  1  0
 27 29  4  0
M  END
$$$$

 Created by Python create_sdf_string function

 29 32  0  0  0  0  0  0  0  0999 V2000
    5.4450    8.7154   22.6662 C   0  0  0  0  0  0  0  0  0  0  0  0
   10.9154    5.4574   20.5483 C   0  0  0  0  0  0  0  0  0  0  0  0
    7.2709    4.5089   22.7542 C   0  0  0  0  0  0  0  0  0  0  0  0
    5.9698    7.6329   24.6581 C   0  0  0  0  0  0  0  0  0  0  0  0
    4.5542    8.9057   21.7104 O   0  0  0  0  0  0  0  0  0  0  0  0
    6.9895    3.2085   23.0690 C   0  0  0  0  0  0  0  0  0  0  0  0
    7.8391    2.2253   22.7260 N   0  0  0  0  0  0  0  0  0  0  0  0
    8.6968    9.8373   23.6359 C   0  0  0  0  0  0  0  0  0  0  0  0
   12.5135    6.5957   21.8396 C   0  0  0  0  0  0  0  0  0  0  0  0
   10.9406    8.2330   21.1350 C   0  0  0  0  0  0  0  0  0  0  0  0
    9.6648    8.5956   21.7310 C   0  0  0  0  0  0  0  0  0  0  0  0
   10.8829    1.7153   20.9865 C   0  0  0  0  0  0  0  0  0  0  0  0
    5.7768    2.8533   23.7910 C   0  0  0  0  0  0  0  0  0  0  0  0
    9.7977    1.4791   21.6912 N   0  0  0  0  0  0  0  0  0  0  0  0
    6.5976    9.3401   22.6478 N   0  0  0  0  0  0  0  0  0  0  0  0
   11.2031    3.0042   20.6246 C   0  0  0  0  0  0  0  0  0  0  0  0
   12.8688    7.7370   22.7287 C   0  0  0  0  0  0  0  0  0  0  0  0
    7.4487    9.1361   23.6506 C   0  0  0  0  0  0  0  0  0  0  0  0
    8.9772    2.5025   22.0273 C   0  0  0  0  0  0  0  0  0  0  0  0
   10.4859    4.0901   20.9730 C   0  0  0  0  0  0  0  0  0  0  0  0
   11.0962    9.3293   23.5072 C   0  0  0  0  0  0  0  0  0  0  0  0
    5.1273    7.8529   23.6208 N   0  0  0  0  0  0  0  0  0  0  0  0
    9.7552    9.2338   23.0171 N   0  0  0  0  0  0  0  0  0  0  0  0
   11.1797    6.7591   21.3326 N   0  0  0  0  0  0  0  0  0  0  0  0
   11.7728    8.0337   23.7267 C   0  0  0  0  0  0  0  0  0  0  0  0
    7.1194    8.3344   24.6775 C   0  0  0  0  0  0  0  0  0  0  0  0
    8.4311    4.7963   22.0500 C   0  0  0  0  0  0  0  0  0  0  0  0
    8.7393   10.8706   24.1871 O   0  0  0  0  0  0  0  0  0  0  0  0
    9.3093    3.8166   21.6712 C   0  0  0  0  0  0  0  0  0  0  0  0
  1  5  1  0
  1 15  4  0
  1 22  4  0
  2 20  1  0
  2 24  1  0
  3  6  4  0
  3 27  4  0
  4 22  4  0
  4 26  4  0
  6  7  4  0
  6 13  1  0
  7 19  4  0
  8 18  1  0
  8 23  1  0
  8 28  2  0
  9 17  1  0
  9 24  1  0
 10 11  1  0
 10 24  1  0
 11 23  1  0
 12 14  4  0
 12 16  4  0
 14 19  4  0
 15 18  4  0
 16 20  4  0
 17 25  1  0
 18 26  4  0
 19 29  4  0
 20 29  4  0
 21 23  1  0
 21 25  1  0
 27 29  4  0
M  END
$$$$

 Created by Python create_sdf_string function

 29 32  0  0  0  0  0  0  0  0999 V2000
    5.4450    8.7154   22.6662 C   0  0  0  0  0  0  0  0  0  0  0  0
   10.9154    5.4574   20.5483 C   0  0  0  0  0  0  0  0  0  0  0  0
    7.2709    4.5089   22.7542 C   0  0  0  0  0  0  0  0  0  0  0  0
    5.9698    7.6329   24.6581 C   0  0  0  0  0  0  0  0  0  0  0  0
    4.5542    8.9057   21.7104 O   0  0  0  0  0  0  0  0  0  0  0  0
    6.9895    3.2085   23.0690 C   0  0  0  0  0  0  0  0  0  0  0  0
    7.8391    2.2253   22.7260 N   0  0  0  0  0  0  0  0  0  0  0  0
    8.6968    9.8373   23.6359 C   0  0  0  0  0  0  0  0  0  0  0  0
   12.5135    6.5957   21.8396 C   0  0  0  0  0  0  0  0  0  0  0  0
   10.9406    8.2330   21.1350 C   0  0  0  0  0  0  0  0  0  0  0  0
    9.6648    8.5956   21.7310 C   0  0  0  0  0  0  0  0  0  0  0  0
   10.8829    1.7153   20.9865 C   0  0  0  0  0  0  0  0  0  0  0  0
    5.7768    2.8533   23.7910 C   0  0  0  0  0  0  0  0  0  0  0  0
    9.7977    1.4791   21.6912 N   0  0  0  0  0  0  0  0  0  0  0  0
    6.5976    9.3401   22.6478 N   0  0  0  0  0  0  0  0  0  0  0  0
   11.2031    3.0042   20.6246 C   0  0  0  0  0  0  0  0  0  0  0  0
   12.8688    7.7370   22.7287 C   0  0  0  0  0  0  0  0  0  0  0  0
    7.4487    9.1361   23.6506 C   0  0  0  0  0  0  0  0  0  0  0  0
    8.9772    2.5025   22.0273 C   0  0  0  0  0  0  0  0  0  0  0  0
   10.4859    4.0901   20.9730 C   0  0  0  0  0  0  0  0  0  0  0  0
   11.0962    9.3293   23.5072 C   0  0  0  0  0  0  0  0  0  0  0  0
    5.1273    7.8529   23.6208 N   0  0  0  0  0  0  0  0  0  0  0  0
    9.7552    9.2338   23.0171 N   0  0  0  0  0  0  0  0  0  0  0  0
   11.1797    6.7591   21.3326 N   0  0  0  0  0  0  0  0  0  0  0  0
   11.7728    8.0337   23.7267 C   0  0  0  0  0  0  0  0  0  0  0  0
    7.1194    8.3344   24.6775 C   0  0  0  0  0  0  0  0  0  0  0  0
    8.4311    4.7963   22.0500 C   0  0  0  0  0  0  0  0  0  0  0  0
    8.7393   10.8706   24.1871 O   0  0  0  0  0  0  0  0  0  0  0  0
    9.3093    3.8166   21.6712 C   0  0  0  0  0  0  0  0  0  0  0  0
  1  5  1  0
  1 15  4  0
  1 22  4  0
  2 20  1  0
  2 24  1  0
  3  6  4  0
  3 27  4  0
  4 22  4  0
  4 26  4  0
  6  7  4  0
  6 13  1  0
  7 19  4  0
  8 18  1  0
  8 23  1  0
  8 28  2  0
  9 17  1  0
  9 24  1  0
 10 11  1  0
 10 24  1  0
 11 23  1  0
 12 14  4  0
 12 16  4  0
 14 19  4  0
 15 18  4  0
 16 20  4  0
 17 25  1  0
 18 26  4  0
 19 29  4  0
 20 29  4  0
 21 23  1  0
 21 25  1  0
 27 29  4  0
M  END
$$$$

 Created by Python create_sdf_string function

 29 32  0  0  0  0  0  0  0  0999 V2000
    5.4450    8.7154   22.6662 C   0  0  0  0  0  0  0  0  0  0  0  0
   10.9154    5.4574   20.5483 C   0  0  0  0  0  0  0  0  0  0  0  0
    7.2709    4.5089   22.7542 C   0  0  0  0  0  0  0  0  0  0  0  0
    5.9698    7.6329   24.6581 C   0  0  0  0  0  0  0  0  0  0  0  0
    4.5542    8.9057   21.7104 O   0  0  0  0  0  0  0  0  0  0  0  0
    6.9895    3.2085   23.0690 C   0  0  0  0  0  0  0  0  0  0  0  0
    7.8391    2.2253   22.7260 N   0  0  0  0  0  0  0  0  0  0  0  0
    8.6968    9.8373   23.6359 C   0  0  0  0  0  0  0  0  0  0  0  0
   12.5135    6.5957   21.8396 C   0  0  0  0  0  0  0  0  0  0  0  0
   10.9406    8.2330   21.1350 C   0  0  0  0  0  0  0  0  0  0  0  0
    9.6648    8.5956   21.7310 C   0  0  0  0  0  0  0  0  0  0  0  0
   10.8829    1.7153   20.9865 C   0  0  0  0  0  0  0  0  0  0  0  0
    5.7768    2.8533   23.7910 C   0  0  0  0  0  0  0  0  0  0  0  0
    9.7977    1.4791   21.6912 N   0  0  0  0  0  0  0  0  0  0  0  0
    6.5976    9.3401   22.6478 N   0  0  0  0  0  0  0  0  0  0  0  0
   11.2031    3.0042   20.6246 C   0  0  0  0  0  0  0  0  0  0  0  0
   12.8688    7.7370   22.7287 C   0  0  0  0  0  0  0  0  0  0  0  0
    7.4487    9.1361   23.6506 C   0  0  0  0  0  0  0  0  0  0  0  0
    8.9772    2.5025   22.0273 C   0  0  0  0  0  0  0  0  0  0  0  0
   10.4859    4.0901   20.9730 C   0  0  0  0  0  0  0  0  0  0  0  0
   11.0962    9.3293   23.5072 C   0  0  0  0  0  0  0  0  0  0  0  0
    5.1273    7.8529   23.6208 N   0  0  0  0  0  0  0  0  0  0  0  0
    9.7552    9.2338   23.0171 N   0  0  0  0  0  0  0  0  0  0  0  0
   11.1797    6.7591   21.3326 N   0  0  0  0  0  0  0  0  0  0  0  0
   11.7728    8.0337   23.7267 C   0  0  0  0  0  0  0  0  0  0  0  0
    7.1194    8.3344   24.6775 C   0  0  0  0  0  0  0  0  0  0  0  0
    8.4311    4.7963   22.0500 C   0  0  0  0  0  0  0  0  0  0  0  0
    8.7393   10.8706   24.1871 O   0  0  0  0  0  0  0  0  0  0  0  0
    9.3093    3.8166   21.6712 C   0  0  0  0  0  0  0  0  0  0  0  0
  1  5  1  0
  1 15  4  0
  1 22  4  0
  2 20  1  0
  2 24  1  0
  3  6  4  0
  3 27  4  0
  4 22  4  0
  4 26  4  0
  6  7  4  0
  6 13  1  0
  7 19  4  0
  8 18  1  0
  8 23  1  0
  8 28  2  0
  9 17  1  0
  9 24  1  0
 10 11  1  0
 10 24  1  0
 11 23  1  0
 12 14  4  0
 12 16  4  0
 14 19  4  0
 15 18  4  0
 16 20  4  0
 17 25  1  0
 18 26  4  0
 19 29  4  0
 20 29  4  0
 21 23  1  0
 21 25  1  0
 27 29  4  0
M  END
$$$$

 Created by Python create_sdf_string function

 29 32  0  0  0  0  0  0  0  0999 V2000
    5.4450    8.7154   22.6662 C   0  0  0  0  0  0  0  0  0  0  0  0
   10.9154    5.4574   20.5483 C   0  0  0  0  0  0  0  0  0  0  0  0
    7.2709    4.5089   22.7542 C   0  0  0  0  0  0  0  0  0  0  0  0
    5.9698    7.6329   24.6581 C   0  0  0  0  0  0  0  0  0  0  0  0
    4.5542    8.9057   21.7104 O   0  0  0  0  0  0  0  0  0  0  0  0
    6.9895    3.2085   23.0690 C   0  0  0  0  0  0  0  0  0  0  0  0
    7.8391    2.2253   22.7260 N   0  0  0  0  0  0  0  0  0  0  0  0
    8.6968    9.8373   23.6359 C   0  0  0  0  0  0  0  0  0  0  0  0
   12.5135    6.5957   21.8396 C   0  0  0  0  0  0  0  0  0  0  0  0
   10.9406    8.2330   21.1350 C   0  0  0  0  0  0  0  0  0  0  0  0
    9.6648    8.5956   21.7310 C   0  0  0  0  0  0  0  0  0  0  0  0
   10.8829    1.7153   20.9865 C   0  0  0  0  0  0  0  0  0  0  0  0
    5.7768    2.8533   23.7910 C   0  0  0  0  0  0  0  0  0  0  0  0
    9.7977    1.4791   21.6912 N   0  0  0  0  0  0  0  0  0  0  0  0
    6.5976    9.3401   22.6478 N   0  0  0  0  0  0  0  0  0  0  0  0
   11.2031    3.0042   20.6246 C   0  0  0  0  0  0  0  0  0  0  0  0
   12.8688    7.7370   22.7287 C   0  0  0  0  0  0  0  0  0  0  0  0
    7.4487    9.1361   23.6506 C   0  0  0  0  0  0  0  0  0  0  0  0
    8.9772    2.5025   22.0273 C   0  0  0  0  0  0  0  0  0  0  0  0
   10.4859    4.0901   20.9730 C   0  0  0  0  0  0  0  0  0  0  0  0
   11.0962    9.3293   23.5072 C   0  0  0  0  0  0  0  0  0  0  0  0
    5.1273    7.8529   23.6208 N   0  0  0  0  0  0  0  0  0  0  0  0
    9.7552    9.2338   23.0171 N   0  0  0  0  0  0  0  0  0  0  0  0
   11.1797    6.7591   21.3326 N   0  0  0  0  0  0  0  0  0  0  0  0
   11.7728    8.0337   23.7267 C   0  0  0  0  0  0  0  0  0  0  0  0
    7.1194    8.3344   24.6775 C   0  0  0  0  0  0  0  0  0  0  0  0
    8.4311    4.7963   22.0500 C   0  0  0  0  0  0  0  0  0  0  0  0
    8.7393   10.8706   24.1871 O   0  0  0  0  0  0  0  0  0  0  0  0
    9.3093    3.8166   21.6712 C   0  0  0  0  0  0  0  0  0  0  0  0
  1  5  1  0
  1 15  4  0
  1 22  4  0
  2 20  1  0
  2 24  1  0
  3  6  4  0
  3 27  4  0
  4 22  4  0
  4 26  4  0
  6  7  4  0
  6 13  1  0
  7 19  4  0
  8 18  1  0
  8 23  1  0
  8 28  2  0
  9 17  1  0
  9 24  1  0
 10 11  1  0
 10 24  1  0
 11 23  1  0
 12 14  4  0
 12 16  4  0
 14 19  4  0
 15 18  4  0
 16 20  4  0
 17 25  1  0
 18 26  4  0
 19 29  4  0
 20 29  4  0
 21 23  1  0
 21 25  1  0
 27 29  4  0
M  END
$$$$

 Created by Python create_sdf_string function

 29 32  0  0  0  0  0  0  0  0999 V2000
    5.4450    8.7154   22.6662 C   0  0  0  0  0  0  0  0  0  0  0  0
   10.9154    5.4574   20.5483 C   0  0  0  0  0  0  0  0  0  0  0  0
    7.2709    4.5089   22.7542 C   0  0  0  0  0  0  0  0  0  0  0  0
    5.9698    7.6329   24.6581 C   0  0  0  0  0  0  0  0  0  0  0  0
    4.5542    8.9057   21.7104 O   0  0  0  0  0  0  0  0  0  0  0  0
    6.9895    3.2085   23.0690 C   0  0  0  0  0  0  0  0  0  0  0  0
    7.8391    2.2253   22.7260 N   0  0  0  0  0  0  0  0  0  0  0  0
    8.6968    9.8373   23.6359 C   0  0  0  0  0  0  0  0  0  0  0  0
   12.5135    6.5957   21.8396 C   0  0  0  0  0  0  0  0  0  0  0  0
   10.9406    8.2330   21.1350 C   0  0  0  0  0  0  0  0  0  0  0  0
    9.6648    8.5956   21.7310 C   0  0  0  0  0  0  0  0  0  0  0  0
   10.8829    1.7153   20.9865 C   0  0  0  0  0  0  0  0  0  0  0  0
    5.7768    2.8533   23.7910 C   0  0  0  0  0  0  0  0  0  0  0  0
    9.7977    1.4791   21.6912 N   0  0  0  0  0  0  0  0  0  0  0  0
    6.5976    9.3401   22.6478 N   0  0  0  0  0  0  0  0  0  0  0  0
   11.2031    3.0042   20.6246 C   0  0  0  0  0  0  0  0  0  0  0  0
   12.8688    7.7370   22.7287 C   0  0  0  0  0  0  0  0  0  0  0  0
    7.4487    9.1361   23.6506 C   0  0  0  0  0  0  0  0  0  0  0  0
    8.9772    2.5025   22.0273 C   0  0  0  0  0  0  0  0  0  0  0  0
   10.4859    4.0901   20.9730 C   0  0  0  0  0  0  0  0  0  0  0  0
   11.0962    9.3293   23.5072 C   0  0  0  0  0  0  0  0  0  0  0  0
    5.1273    7.8529   23.6208 N   0  0  0  0  0  0  0  0  0  0  0  0
    9.7552    9.2338   23.0171 N   0  0  0  0  0  0  0  0  0  0  0  0
   11.1797    6.7591   21.3326 N   0  0  0  0  0  0  0  0  0  0  0  0
   11.7728    8.0337   23.7267 C   0  0  0  0  0  0  0  0  0  0  0  0
    7.1194    8.3344   24.6775 C   0  0  0  0  0  0  0  0  0  0  0  0
    8.4311    4.7963   22.0500 C   0  0  0  0  0  0  0  0  0  0  0  0
    8.7393   10.8706   24.1871 O   0  0  0  0  0  0  0  0  0  0  0  0
    9.3093    3.8166   21.6712 C   0  0  0  0  0  0  0  0  0  0  0  0
  1  5  1  0
  1 15  4  0
  1 22  4  0
  2 20  1  0
  2 24  1  0
  3  6  4  0
  3 27  4  0
  4 22  4  0
  4 26  4  0
  6  7  4  0
  6 13  1  0
  7 19  4  0
  8 18  1  0
  8 23  1  0
  8 28  2  0
  9 17  1  0
  9 24  1  0
 10 11  1  0
 10 24  1  0
 11 23  1  0
 12 14  4  0
 12 16  4  0
 14 19  4  0
 15 18  4  0
 16 20  4  0
 17 25  1  0
 18 26  4  0
 19 29  4  0
 20 29  4  0
 21 23  1  0
 21 25  1  0
 27 29  4  0
M  END
$$$$

 Created by Python create_sdf_string function

 29 32  0  0  0  0  0  0  0  0999 V2000
    5.4450    8.7154   22.6662 C   0  0  0  0  0  0  0  0  0  0  0  0
   10.9154    5.4574   20.5483 C   0  0  0  0  0  0  0  0  0  0  0  0
    7.2709    4.5089   22.7542 C   0  0  0  0  0  0  0  0  0  0  0  0
    5.9698    7.6329   24.6581 C   0  0  0  0  0  0  0  0  0  0  0  0
    4.5542    8.9057   21.7104 O   0  0  0  0  0  0  0  0  0  0  0  0
    6.9895    3.2085   23.0690 C   0  0  0  0  0  0  0  0  0  0  0  0
    7.8391    2.2253   22.7260 N   0  0  0  0  0  0  0  0  0  0  0  0
    8.6968    9.8373   23.6359 C   0  0  0  0  0  0  0  0  0  0  0  0
   12.5135    6.5957   21.8396 C   0  0  0  0  0  0  0  0  0  0  0  0
   10.9406    8.2330   21.1350 C   0  0  0  0  0  0  0  0  0  0  0  0
    9.6648    8.5956   21.7310 C   0  0  0  0  0  0  0  0  0  0  0  0
   10.8829    1.7153   20.9865 C   0  0  0  0  0  0  0  0  0  0  0  0
    5.7768    2.8533   23.7910 C   0  0  0  0  0  0  0  0  0  0  0  0
    9.7977    1.4791   21.6912 N   0  0  0  0  0  0  0  0  0  0  0  0
    6.5976    9.3401   22.6478 N   0  0  0  0  0  0  0  0  0  0  0  0
   11.2031    3.0042   20.6246 C   0  0  0  0  0  0  0  0  0  0  0  0
   12.8688    7.7370   22.7287 C   0  0  0  0  0  0  0  0  0  0  0  0
    7.4487    9.1361   23.6506 C   0  0  0  0  0  0  0  0  0  0  0  0
    8.9772    2.5025   22.0273 C   0  0  0  0  0  0  0  0  0  0  0  0
   10.4859    4.0901   20.9730 C   0  0  0  0  0  0  0  0  0  0  0  0
   11.0962    9.3293   23.5072 C   0  0  0  0  0  0  0  0  0  0  0  0
    5.1273    7.8529   23.6208 N   0  0  0  0  0  0  0  0  0  0  0  0
    9.7552    9.2338   23.0171 N   0  0  0  0  0  0  0  0  0  0  0  0
   11.1797    6.7591   21.3326 N   0  0  0  0  0  0  0  0  0  0  0  0
   11.7728    8.0337   23.7267 C   0  0  0  0  0  0  0  0  0  0  0  0
    7.1194    8.3344   24.6775 C   0  0  0  0  0  0  0  0  0  0  0  0
    8.4311    4.7963   22.0500 C   0  0  0  0  0  0  0  0  0  0  0  0
    8.7393   10.8706   24.1871 O   0  0  0  0  0  0  0  0  0  0  0  0
    9.3093    3.8166   21.6712 C   0  0  0  0  0  0  0  0  0  0  0  0
  1  5  1  0
  1 15  4  0
  1 22  4  0
  2 20  1  0
  2 24  1  0
  3  6  4  0
  3 27  4  0
  4 22  4  0
  4 26  4  0
  6  7  4  0
  6 13  1  0
  7 19  4  0
  8 18  1  0
  8 23  1  0
  8 28  2  0
  9 17  1  0
  9 24  1  0
 10 11  1  0
 10 24  1  0
 11 23  1  0
 12 14  4  0
 12 16  4  0
 14 19  4  0
 15 18  4  0
 16 20  4  0
 17 25  1  0
 18 26  4  0
 19 29  4  0
 20 29  4  0
 21 23  1  0
 21 25  1  0
 27 29  4  0
M  END
$$$$

 Created by Python create_sdf_string function

 29 32  0  0  0  0  0  0  0  0999 V2000
    5.4450    8.7154   22.6662 C   0  0  0  0  0  0  0  0  0  0  0  0
   10.9154    5.4574   20.5483 C   0  0  0  0  0  0  0  0  0  0  0  0
    7.2709    4.5089   22.7542 C   0  0  0  0  0  0  0  0  0  0  0  0
    5.9698    7.6329   24.6581 C   0  0  0  0  0  0  0  0  0  0  0  0
    4.5542    8.9057   21.7104 O   0  0  0  0  0  0  0  0  0  0  0  0
    6.9895    3.2085   23.0690 C   0  0  0  0  0  0  0  0  0  0  0  0
    7.8391    2.2253   22.7260 N   0  0  0  0  0  0  0  0  0  0  0  0
    8.6968    9.8373   23.6359 C   0  0  0  0  0  0  0  0  0  0  0  0
   12.5135    6.5957   21.8396 C   0  0  0  0  0  0  0  0  0  0  0  0
   10.9406    8.2330   21.1350 C   0  0  0  0  0  0  0  0  0  0  0  0
    9.6648    8.5956   21.7310 C   0  0  0  0  0  0  0  0  0  0  0  0
   10.8829    1.7153   20.9865 C   0  0  0  0  0  0  0  0  0  0  0  0
    5.7768    2.8533   23.7910 C   0  0  0  0  0  0  0  0  0  0  0  0
    9.7977    1.4791   21.6912 N   0  0  0  0  0  0  0  0  0  0  0  0
    6.5976    9.3401   22.6478 N   0  0  0  0  0  0  0  0  0  0  0  0
   11.2031    3.0042   20.6246 C   0  0  0  0  0  0  0  0  0  0  0  0
   12.8688    7.7370   22.7287 C   0  0  0  0  0  0  0  0  0  0  0  0
    7.4487    9.1361   23.6506 C   0  0  0  0  0  0  0  0  0  0  0  0
    8.9772    2.5025   22.0273 C   0  0  0  0  0  0  0  0  0  0  0  0
   10.4859    4.0901   20.9730 C   0  0  0  0  0  0  0  0  0  0  0  0
   11.0962    9.3293   23.5072 C   0  0  0  0  0  0  0  0  0  0  0  0
    5.1273    7.8529   23.6208 N   0  0  0  0  0  0  0  0  0  0  0  0
    9.7552    9.2338   23.0171 N   0  0  0  0  0  0  0  0  0  0  0  0
   11.1797    6.7591   21.3326 N   0  0  0  0  0  0  0  0  0  0  0  0
   11.7728    8.0337   23.7267 C   0  0  0  0  0  0  0  0  0  0  0  0
    7.1194    8.3344   24.6775 C   0  0  0  0  0  0  0  0  0  0  0  0
    8.4311    4.7963   22.0500 C   0  0  0  0  0  0  0  0  0  0  0  0
    8.7393   10.8706   24.1871 O   0  0  0  0  0  0  0  0  0  0  0  0
    9.3093    3.8166   21.6712 C   0  0  0  0  0  0  0  0  0  0  0  0
  1  5  1  0
  1 15  4  0
  1 22  4  0
  2 20  1  0
  2 24  1  0
  3  6  4  0
  3 27  4  0
  4 22  4  0
  4 26  4  0
  6  7  4  0
  6 13  1  0
  7 19  4  0
  8 18  1  0
  8 23  1  0
  8 28  2  0
  9 17  1  0
  9 24  1  0
 10 11  1  0
 10 24  1  0
 11 23  1  0
 12 14  4  0
 12 16  4  0
 14 19  4  0
 15 18  4  0
 16 20  4  0
 17 25  1  0
 18 26  4  0
 19 29  4  0
 20 29  4  0
 21 23  1  0
 21 25  1  0
 27 29  4  0
M  END
$$$$

 Created by Python create_sdf_string function

 29 32  0  0  0  0  0  0  0  0999 V2000
    5.4450    8.7154   22.6662 C   0  0  0  0  0  0  0  0  0  0  0  0
   10.9154    5.4574   20.5483 C   0  0  0  0  0  0  0  0  0  0  0  0
    7.2709    4.5089   22.7542 C   0  0  0  0  0  0  0  0  0  0  0  0
    5.9698    7.6329   24.6581 C   0  0  0  0  0  0  0  0  0  0  0  0
    4.5542    8.9057   21.7104 O   0  0  0  0  0  0  0  0  0  0  0  0
    6.9895    3.2085   23.0690 C   0  0  0  0  0  0  0  0  0  0  0  0
    7.8391    2.2253   22.7260 N   0  0  0  0  0  0  0  0  0  0  0  0
    8.6968    9.8373   23.6359 C   0  0  0  0  0  0  0  0  0  0  0  0
   12.5135    6.5957   21.8396 C   0  0  0  0  0  0  0  0  0  0  0  0
   10.9406    8.2330   21.1350 C   0  0  0  0  0  0  0  0  0  0  0  0
    9.6648    8.5956   21.7310 C   0  0  0  0  0  0  0  0  0  0  0  0
   10.8829    1.7153   20.9865 C   0  0  0  0  0  0  0  0  0  0  0  0
    5.7768    2.8533   23.7910 C   0  0  0  0  0  0  0  0  0  0  0  0
    9.7977    1.4791   21.6912 N   0  0  0  0  0  0  0  0  0  0  0  0
    6.5976    9.3401   22.6478 N   0  0  0  0  0  0  0  0  0  0  0  0
   11.2031    3.0042   20.6246 C   0  0  0  0  0  0  0  0  0  0  0  0
   12.8688    7.7370   22.7287 C   0  0  0  0  0  0  0  0  0  0  0  0
    7.4487    9.1361   23.6506 C   0  0  0  0  0  0  0  0  0  0  0  0
    8.9772    2.5025   22.0273 C   0  0  0  0  0  0  0  0  0  0  0  0
   10.4859    4.0901   20.9730 C   0  0  0  0  0  0  0  0  0  0  0  0
   11.0962    9.3293   23.5072 C   0  0  0  0  0  0  0  0  0  0  0  0
    5.1273    7.8529   23.6208 N   0  0  0  0  0  0  0  0  0  0  0  0
    9.7552    9.2338   23.0171 N   0  0  0  0  0  0  0  0  0  0  0  0
   11.1797    6.7591   21.3326 N   0  0  0  0  0  0  0  0  0  0  0  0
   11.7728    8.0337   23.7267 C   0  0  0  0  0  0  0  0  0  0  0  0
    7.1194    8.3344   24.6775 C   0  0  0  0  0  0  0  0  0  0  0  0
    8.4311    4.7963   22.0500 C   0  0  0  0  0  0  0  0  0  0  0  0
    8.7393   10.8706   24.1871 O   0  0  0  0  0  0  0  0  0  0  0  0
    9.3093    3.8166   21.6712 C   0  0  0  0  0  0  0  0  0  0  0  0
  1  5  1  0
  1 15  4  0
  1 22  4  0
  2 20  1  0
  2 24  1  0
  3  6  4  0
  3 27  4  0
  4 22  4  0
  4 26  4  0
  6  7  4  0
  6 13  1  0
  7 19  4  0
  8 18  1  0
  8 23  1  0
  8 28  2  0
  9 17  1  0
  9 24  1  0
 10 11  1  0
 10 24  1  0
 11 23  1  0
 12 14  4  0
 12 16  4  0
 14 19  4  0
 15 18  4  0
 16 20  4  0
 17 25  1  0
 18 26  4  0
 19 29  4  0
 20 29  4  0
 21 23  1  0
 21 25  1  0
 27 29  4  0
M  END
$$$$

 Created by Python create_sdf_string function

 29 32  0  0  0  0  0  0  0  0999 V2000
    5.4450    8.7154   22.6662 C   0  0  0  0  0  0  0  0  0  0  0  0
   10.9154    5.4574   20.5483 C   0  0  0  0  0  0  0  0  0  0  0  0
    7.2709    4.5089   22.7542 C   0  0  0  0  0  0  0  0  0  0  0  0
    5.9698    7.6329   24.6581 C   0  0  0  0  0  0  0  0  0  0  0  0
    4.5542    8.9057   21.7104 O   0  0  0  0  0  0  0  0  0  0  0  0
    6.9895    3.2085   23.0690 C   0  0  0  0  0  0  0  0  0  0  0  0
    7.8391    2.2253   22.7260 N   0  0  0  0  0  0  0  0  0  0  0  0
    8.6968    9.8373   23.6359 C   0  0  0  0  0  0  0  0  0  0  0  0
   12.5135    6.5957   21.8396 C   0  0  0  0  0  0  0  0  0  0  0  0
   10.9406    8.2330   21.1350 C   0  0  0  0  0  0  0  0  0  0  0  0
    9.6648    8.5956   21.7310 C   0  0  0  0  0  0  0  0  0  0  0  0
   10.8829    1.7153   20.9865 C   0  0  0  0  0  0  0  0  0  0  0  0
    5.7768    2.8533   23.7910 C   0  0  0  0  0  0  0  0  0  0  0  0
    9.7977    1.4791   21.6912 N   0  0  0  0  0  0  0  0  0  0  0  0
    6.5976    9.3401   22.6478 N   0  0  0  0  0  0  0  0  0  0  0  0
   11.2031    3.0042   20.6246 C   0  0  0  0  0  0  0  0  0  0  0  0
   12.8688    7.7370   22.7287 C   0  0  0  0  0  0  0  0  0  0  0  0
    7.4487    9.1361   23.6506 C   0  0  0  0  0  0  0  0  0  0  0  0
    8.9772    2.5025   22.0273 C   0  0  0  0  0  0  0  0  0  0  0  0
   10.4859    4.0901   20.9730 C   0  0  0  0  0  0  0  0  0  0  0  0
   11.0962    9.3293   23.5072 C   0  0  0  0  0  0  0  0  0  0  0  0
    5.1273    7.8529   23.6208 N   0  0  0  0  0  0  0  0  0  0  0  0
    9.7552    9.2338   23.0171 N   0  0  0  0  0  0  0  0  0  0  0  0
   11.1797    6.7591   21.3326 N   0  0  0  0  0  0  0  0  0  0  0  0
   11.7728    8.0337   23.7267 C   0  0  0  0  0  0  0  0  0  0  0  0
    7.1194    8.3344   24.6775 C   0  0  0  0  0  0  0  0  0  0  0  0
    8.4311    4.7963   22.0500 C   0  0  0  0  0  0  0  0  0  0  0  0
    8.7393   10.8706   24.1871 O   0  0  0  0  0  0  0  0  0  0  0  0
    9.3093    3.8166   21.6712 C   0  0  0  0  0  0  0  0  0  0  0  0
  1  5  1  0
  1 15  4  0
  1 22  4  0
  2 20  1  0
  2 24  1  0
  3  6  4  0
  3 27  4  0
  4 22  4  0
  4 26  4  0
  6  7  4  0
  6 13  1  0
  7 19  4  0
  8 18  1  0
  8 23  1  0
  8 28  2  0
  9 17  1  0
  9 24  1  0
 10 11  1  0
 10 24  1  0
 11 23  1  0
 12 14  4  0
 12 16  4  0
 14 19  4  0
 15 18  4  0
 16 20  4  0
 17 25  1  0
 18 26  4  0
 19 29  4  0
 20 29  4  0
 21 23  1  0
 21 25  1  0
 27 29  4  0
M  END
$$$$

 Created by Python create_sdf_string function

 29 32  0  0  0  0  0  0  0  0999 V2000
    5.4450    8.7154   22.6662 C   0  0  0  0  0  0  0  0  0  0  0  0
   10.9154    5.4574   20.5483 C   0  0  0  0  0  0  0  0  0  0  0  0
    7.2709    4.5089   22.7542 C   0  0  0  0  0  0  0  0  0  0  0  0
    5.9698    7.6329   24.6581 C   0  0  0  0  0  0  0  0  0  0  0  0
    4.5542    8.9057   21.7104 O   0  0  0  0  0  0  0  0  0  0  0  0
    6.9895    3.2085   23.0690 C   0  0  0  0  0  0  0  0  0  0  0  0
    7.8391    2.2253   22.7260 N   0  0  0  0  0  0  0  0  0  0  0  0
    8.6968    9.8373   23.6359 C   0  0  0  0  0  0  0  0  0  0  0  0
   12.5135    6.5957   21.8396 C   0  0  0  0  0  0  0  0  0  0  0  0
   10.9406    8.2330   21.1350 C   0  0  0  0  0  0  0  0  0  0  0  0
    9.6648    8.5956   21.7310 C   0  0  0  0  0  0  0  0  0  0  0  0
   10.8829    1.7153   20.9865 C   0  0  0  0  0  0  0  0  0  0  0  0
    5.7768    2.8533   23.7910 C   0  0  0  0  0  0  0  0  0  0  0  0
    9.7977    1.4791   21.6912 N   0  0  0  0  0  0  0  0  0  0  0  0
    6.5976    9.3401   22.6478 N   0  0  0  0  0  0  0  0  0  0  0  0
   11.2031    3.0042   20.6246 C   0  0  0  0  0  0  0  0  0  0  0  0
   12.8688    7.7370   22.7287 C   0  0  0  0  0  0  0  0  0  0  0  0
    7.4487    9.1361   23.6506 C   0  0  0  0  0  0  0  0  0  0  0  0
    8.9772    2.5025   22.0273 C   0  0  0  0  0  0  0  0  0  0  0  0
   10.4859    4.0901   20.9730 C   0  0  0  0  0  0  0  0  0  0  0  0
   11.0962    9.3293   23.5072 C   0  0  0  0  0  0  0  0  0  0  0  0
    5.1273    7.8529   23.6208 N   0  0  0  0  0  0  0  0  0  0  0  0
    9.7552    9.2338   23.0171 N   0  0  0  0  0  0  0  0  0  0  0  0
   11.1797    6.7591   21.3326 N   0  0  0  0  0  0  0  0  0  0  0  0
   11.7728    8.0337   23.7267 C   0  0  0  0  0  0  0  0  0  0  0  0
    7.1194    8.3344   24.6775 C   0  0  0  0  0  0  0  0  0  0  0  0
    8.4311    4.7963   22.0500 C   0  0  0  0  0  0  0  0  0  0  0  0
    8.7393   10.8706   24.1871 O   0  0  0  0  0  0  0  0  0  0  0  0
    9.3093    3.8166   21.6712 C   0  0  0  0  0  0  0  0  0  0  0  0
  1  5  1  0
  1 15  4  0
  1 22  4  0
  2 20  1  0
  2 24  1  0
  3  6  4  0
  3 27  4  0
  4 22  4  0
  4 26  4  0
  6  7  4  0
  6 13  1  0
  7 19  4  0
  8 18  1  0
  8 23  1  0
  8 28  2  0
  9 17  1  0
  9 24  1  0
 10 11  1  0
 10 24  1  0
 11 23  1  0
 12 14  4  0
 12 16  4  0
 14 19  4  0
 15 18  4  0
 16 20  4  0
 17 25  1  0
 18 26  4  0
 19 29  4  0
 20 29  4  0
 21 23  1  0
 21 25  1  0
 27 29  4  0
M  END
$$$$

 Created by Python create_sdf_string function

 29 32  0  0  0  0  0  0  0  0999 V2000
    5.4450    8.7154   22.6662 C   0  0  0  0  0  0  0  0  0  0  0  0
   10.9154    5.4574   20.5483 C   0  0  0  0  0  0  0  0  0  0  0  0
    7.2709    4.5089   22.7542 C   0  0  0  0  0  0  0  0  0  0  0  0
    5.9698    7.6329   24.6581 C   0  0  0  0  0  0  0  0  0  0  0  0
    4.5542    8.9057   21.7104 O   0  0  0  0  0  0  0  0  0  0  0  0
    6.9895    3.2085   23.0690 C   0  0  0  0  0  0  0  0  0  0  0  0
    7.8391    2.2253   22.7260 N   0  0  0  0  0  0  0  0  0  0  0  0
    8.6968    9.8373   23.6359 C   0  0  0  0  0  0  0  0  0  0  0  0
   12.5135    6.5957   21.8396 C   0  0  0  0  0  0  0  0  0  0  0  0
   10.9406    8.2330   21.1350 C   0  0  0  0  0  0  0  0  0  0  0  0
    9.6648    8.5956   21.7310 C   0  0  0  0  0  0  0  0  0  0  0  0
   10.8829    1.7153   20.9865 C   0  0  0  0  0  0  0  0  0  0  0  0
    5.7768    2.8533   23.7910 C   0  0  0  0  0  0  0  0  0  0  0  0
    9.7977    1.4791   21.6912 N   0  0  0  0  0  0  0  0  0  0  0  0
    6.5976    9.3401   22.6478 N   0  0  0  0  0  0  0  0  0  0  0  0
   11.2031    3.0042   20.6246 C   0  0  0  0  0  0  0  0  0  0  0  0
   12.8688    7.7370   22.7287 C   0  0  0  0  0  0  0  0  0  0  0  0
    7.4487    9.1361   23.6506 C   0  0  0  0  0  0  0  0  0  0  0  0
    8.9772    2.5025   22.0273 C   0  0  0  0  0  0  0  0  0  0  0  0
   10.4859    4.0901   20.9730 C   0  0  0  0  0  0  0  0  0  0  0  0
   11.0962    9.3293   23.5072 C   0  0  0  0  0  0  0  0  0  0  0  0
    5.1273    7.8529   23.6208 N   0  0  0  0  0  0  0  0  0  0  0  0
    9.7552    9.2338   23.0171 N   0  0  0  0  0  0  0  0  0  0  0  0
   11.1797    6.7591   21.3326 N   0  0  0  0  0  0  0  0  0  0  0  0
   11.7728    8.0337   23.7267 C   0  0  0  0  0  0  0  0  0  0  0  0
    7.1194    8.3344   24.6775 C   0  0  0  0  0  0  0  0  0  0  0  0
    8.4311    4.7963   22.0500 C   0  0  0  0  0  0  0  0  0  0  0  0
    8.7393   10.8706   24.1871 O   0  0  0  0  0  0  0  0  0  0  0  0
    9.3093    3.8166   21.6712 C   0  0  0  0  0  0  0  0  0  0  0  0
  1  5  1  0
  1 15  4  0
  1 22  4  0
  2 20  1  0
  2 24  1  0
  3  6  4  0
  3 27  4  0
  4 22  4  0
  4 26  4  0
  6  7  4  0
  6 13  1  0
  7 19  4  0
  8 18  1  0
  8 23  1  0
  8 28  2  0
  9 17  1  0
  9 24  1  0
 10 11  1  0
 10 24  1  0
 11 23  1  0
 12 14  4  0
 12 16  4  0
 14 19  4  0
 15 18  4  0
 16 20  4  0
 17 25  1  0
 18 26  4  0
 19 29  4  0
 20 29  4  0
 21 23  1  0
 21 25  1  0
 27 29  4  0
M  END
$$$$

 Created by Python create_sdf_string function

 29 32  0  0  0  0  0  0  0  0999 V2000
    5.4450    8.7154   22.6662 C   0  0  0  0  0  0  0  0  0  0  0  0
   10.9154    5.4574   20.5483 C   0  0  0  0  0  0  0  0  0  0  0  0
    7.2709    4.5089   22.7542 C   0  0  0  0  0  0  0  0  0  0  0  0
    5.9698    7.6329   24.6581 C   0  0  0  0  0  0  0  0  0  0  0  0
    4.5542    8.9057   21.7104 O   0  0  0  0  0  0  0  0  0  0  0  0
    6.9895    3.2085   23.0690 C   0  0  0  0  0  0  0  0  0  0  0  0
    7.8391    2.2253   22.7260 N   0  0  0  0  0  0  0  0  0  0  0  0
    8.6968    9.8373   23.6359 C   0  0  0  0  0  0  0  0  0  0  0  0
   12.5135    6.5957   21.8396 C   0  0  0  0  0  0  0  0  0  0  0  0
   10.9406    8.2330   21.1350 C   0  0  0  0  0  0  0  0  0  0  0  0
    9.6648    8.5956   21.7310 C   0  0  0  0  0  0  0  0  0  0  0  0
   10.8829    1.7153   20.9865 C   0  0  0  0  0  0  0  0  0  0  0  0
    5.7768    2.8533   23.7910 C   0  0  0  0  0  0  0  0  0  0  0  0
    9.7977    1.4791   21.6912 N   0  0  0  0  0  0  0  0  0  0  0  0
    6.5976    9.3401   22.6478 N   0  0  0  0  0  0  0  0  0  0  0  0
   11.2031    3.0042   20.6246 C   0  0  0  0  0  0  0  0  0  0  0  0
   12.8688    7.7370   22.7287 C   0  0  0  0  0  0  0  0  0  0  0  0
    7.4487    9.1361   23.6506 C   0  0  0  0  0  0  0  0  0  0  0  0
    8.9772    2.5025   22.0273 C   0  0  0  0  0  0  0  0  0  0  0  0
   10.4859    4.0901   20.9730 C   0  0  0  0  0  0  0  0  0  0  0  0
   11.0962    9.3293   23.5072 C   0  0  0  0  0  0  0  0  0  0  0  0
    5.1273    7.8529   23.6208 N   0  0  0  0  0  0  0  0  0  0  0  0
    9.7552    9.2338   23.0171 N   0  0  0  0  0  0  0  0  0  0  0  0
   11.1797    6.7591   21.3326 N   0  0  0  0  0  0  0  0  0  0  0  0
   11.7728    8.0337   23.7267 C   0  0  0  0  0  0  0  0  0  0  0  0
    7.1194    8.3344   24.6775 C   0  0  0  0  0  0  0  0  0  0  0  0
    8.4311    4.7963   22.0500 C   0  0  0  0  0  0  0  0  0  0  0  0
    8.7393   10.8706   24.1871 O   0  0  0  0  0  0  0  0  0  0  0  0
    9.3093    3.8166   21.6712 C   0  0  0  0  0  0  0  0  0  0  0  0
  1  5  1  0
  1 15  4  0
  1 22  4  0
  2 20  1  0
  2 24  1  0
  3  6  4  0
  3 27  4  0
  4 22  4  0
  4 26  4  0
  6  7  4  0
  6 13  1  0
  7 19  4  0
  8 18  1  0
  8 23  1  0
  8 28  2  0
  9 17  1  0
  9 24  1  0
 10 11  1  0
 10 24  1  0
 11 23  1  0
 12 14  4  0
 12 16  4  0
 14 19  4  0
 15 18  4  0
 16 20  4  0
 17 25  1  0
 18 26  4  0
 19 29  4  0
 20 29  4  0
 21 23  1  0
 21 25  1  0
 27 29  4  0
M  END
$$$$

 Created by Python create_sdf_string function

 29 32  0  0  0  0  0  0  0  0999 V2000
    5.4450    8.7154   22.6662 C   0  0  0  0  0  0  0  0  0  0  0  0
   10.9154    5.4574   20.5483 C   0  0  0  0  0  0  0  0  0  0  0  0
    7.2709    4.5089   22.7542 C   0  0  0  0  0  0  0  0  0  0  0  0
    5.9698    7.6329   24.6581 C   0  0  0  0  0  0  0  0  0  0  0  0
    4.5542    8.9057   21.7104 O   0  0  0  0  0  0  0  0  0  0  0  0
    6.9895    3.2085   23.0690 C   0  0  0  0  0  0  0  0  0  0  0  0
    7.8391    2.2253   22.7260 N   0  0  0  0  0  0  0  0  0  0  0  0
    8.6968    9.8373   23.6359 C   0  0  0  0  0  0  0  0  0  0  0  0
   12.5135    6.5957   21.8396 C   0  0  0  0  0  0  0  0  0  0  0  0
   10.9406    8.2330   21.1350 C   0  0  0  0  0  0  0  0  0  0  0  0
    9.6648    8.5956   21.7310 C   0  0  0  0  0  0  0  0  0  0  0  0
   10.8829    1.7153   20.9865 C   0  0  0  0  0  0  0  0  0  0  0  0
    5.7768    2.8533   23.7910 C   0  0  0  0  0  0  0  0  0  0  0  0
    9.7977    1.4791   21.6912 N   0  0  0  0  0  0  0  0  0  0  0  0
    6.5976    9.3401   22.6478 N   0  0  0  0  0  0  0  0  0  0  0  0
   11.2031    3.0042   20.6246 C   0  0  0  0  0  0  0  0  0  0  0  0
   12.8688    7.7370   22.7287 C   0  0  0  0  0  0  0  0  0  0  0  0
    7.4487    9.1361   23.6506 C   0  0  0  0  0  0  0  0  0  0  0  0
    8.9772    2.5025   22.0273 C   0  0  0  0  0  0  0  0  0  0  0  0
   10.4859    4.0901   20.9730 C   0  0  0  0  0  0  0  0  0  0  0  0
   11.0962    9.3293   23.5072 C   0  0  0  0  0  0  0  0  0  0  0  0
    5.1273    7.8529   23.6208 N   0  0  0  0  0  0  0  0  0  0  0  0
    9.7552    9.2338   23.0171 N   0  0  0  0  0  0  0  0  0  0  0  0
   11.1797    6.7591   21.3326 N   0  0  0  0  0  0  0  0  0  0  0  0
   11.7728    8.0337   23.7267 C   0  0  0  0  0  0  0  0  0  0  0  0
    7.1194    8.3344   24.6775 C   0  0  0  0  0  0  0  0  0  0  0  0
    8.4311    4.7963   22.0500 C   0  0  0  0  0  0  0  0  0  0  0  0
    8.7393   10.8706   24.1871 O   0  0  0  0  0  0  0  0  0  0  0  0
    9.3093    3.8166   21.6712 C   0  0  0  0  0  0  0  0  0  0  0  0
  1  5  1  0
  1 15  4  0
  1 22  4  0
  2 20  1  0
  2 24  1  0
  3  6  4  0
  3 27  4  0
  4 22  4  0
  4 26  4  0
  6  7  4  0
  6 13  1  0
  7 19  4  0
  8 18  1  0
  8 23  1  0
  8 28  2  0
  9 17  1  0
  9 24  1  0
 10 11  1  0
 10 24  1  0
 11 23  1  0
 12 14  4  0
 12 16  4  0
 14 19  4  0
 15 18  4  0
 16 20  4  0
 17 25  1  0
 18 26  4  0
 19 29  4  0
 20 29  4  0
 21 23  1  0
 21 25  1  0
 27 29  4  0
M  END
$$$$

 Created by Python create_sdf_string function

 29 32  0  0  0  0  0  0  0  0999 V2000
    5.4450    8.7154   22.6662 C   0  0  0  0  0  0  0  0  0  0  0  0
   10.9154    5.4574   20.5483 C   0  0  0  0  0  0  0  0  0  0  0  0
    7.2709    4.5089   22.7542 C   0  0  0  0  0  0  0  0  0  0  0  0
    5.9698    7.6329   24.6581 C   0  0  0  0  0  0  0  0  0  0  0  0
    4.5542    8.9057   21.7104 O   0  0  0  0  0  0  0  0  0  0  0  0
    6.9895    3.2085   23.0690 C   0  0  0  0  0  0  0  0  0  0  0  0
    7.8391    2.2253   22.7260 N   0  0  0  0  0  0  0  0  0  0  0  0
    8.6968    9.8373   23.6359 C   0  0  0  0  0  0  0  0  0  0  0  0
   12.5135    6.5957   21.8396 C   0  0  0  0  0  0  0  0  0  0  0  0
   10.9406    8.2330   21.1350 C   0  0  0  0  0  0  0  0  0  0  0  0
    9.6648    8.5956   21.7310 C   0  0  0  0  0  0  0  0  0  0  0  0
   10.8829    1.7153   20.9865 C   0  0  0  0  0  0  0  0  0  0  0  0
    5.7768    2.8533   23.7910 C   0  0  0  0  0  0  0  0  0  0  0  0
    9.7977    1.4791   21.6912 N   0  0  0  0  0  0  0  0  0  0  0  0
    6.5976    9.3401   22.6478 N   0  0  0  0  0  0  0  0  0  0  0  0
   11.2031    3.0042   20.6246 C   0  0  0  0  0  0  0  0  0  0  0  0
   12.8688    7.7370   22.7287 C   0  0  0  0  0  0  0  0  0  0  0  0
    7.4487    9.1361   23.6506 C   0  0  0  0  0  0  0  0  0  0  0  0
    8.9772    2.5025   22.0273 C   0  0  0  0  0  0  0  0  0  0  0  0
   10.4859    4.0901   20.9730 C   0  0  0  0  0  0  0  0  0  0  0  0
   11.0962    9.3293   23.5072 C   0  0  0  0  0  0  0  0  0  0  0  0
    5.1273    7.8529   23.6208 N   0  0  0  0  0  0  0  0  0  0  0  0
    9.7552    9.2338   23.0171 N   0  0  0  0  0  0  0  0  0  0  0  0
   11.1797    6.7591   21.3326 N   0  0  0  0  0  0  0  0  0  0  0  0
   11.7728    8.0337   23.7267 C   0  0  0  0  0  0  0  0  0  0  0  0
    7.1194    8.3344   24.6775 C   0  0  0  0  0  0  0  0  0  0  0  0
    8.4311    4.7963   22.0500 C   0  0  0  0  0  0  0  0  0  0  0  0
    8.7393   10.8706   24.1871 O   0  0  0  0  0  0  0  0  0  0  0  0
    9.3093    3.8166   21.6712 C   0  0  0  0  0  0  0  0  0  0  0  0
  1  5  1  0
  1 15  4  0
  1 22  4  0
  2 20  1  0
  2 24  1  0
  3  6  4  0
  3 27  4  0
  4 22  4  0
  4 26  4  0
  6  7  4  0
  6 13  1  0
  7 19  4  0
  8 18  1  0
  8 23  1  0
  8 28  2  0
  9 17  1  0
  9 24  1  0
 10 11  1  0
 10 24  1  0
 11 23  1  0
 12 14  4  0
 12 16  4  0
 14 19  4  0
 15 18  4  0
 16 20  4  0
 17 25  1  0
 18 26  4  0
 19 29  4  0
 20 29  4  0
 21 23  1  0
 21 25  1  0
 27 29  4  0
M  END
$$$$

 Created by Python create_sdf_string function

 29 32  0  0  0  0  0  0  0  0999 V2000
    5.4450    8.7154   22.6662 C   0  0  0  0  0  0  0  0  0  0  0  0
   10.9154    5.4574   20.5483 C   0  0  0  0  0  0  0  0  0  0  0  0
    7.2709    4.5089   22.7542 C   0  0  0  0  0  0  0  0  0  0  0  0
    5.9698    7.6329   24.6581 C   0  0  0  0  0  0  0  0  0  0  0  0
    4.5542    8.9057   21.7104 O   0  0  0  0  0  0  0  0  0  0  0  0
    6.9895    3.2085   23.0690 C   0  0  0  0  0  0  0  0  0  0  0  0
    7.8391    2.2253   22.7260 N   0  0  0  0  0  0  0  0  0  0  0  0
    8.6968    9.8373   23.6359 C   0  0  0  0  0  0  0  0  0  0  0  0
   12.5135    6.5957   21.8396 C   0  0  0  0  0  0  0  0  0  0  0  0
   10.9406    8.2330   21.1350 C   0  0  0  0  0  0  0  0  0  0  0  0
    9.6648    8.5956   21.7310 C   0  0  0  0  0  0  0  0  0  0  0  0
   10.8829    1.7153   20.9865 C   0  0  0  0  0  0  0  0  0  0  0  0
    5.7768    2.8533   23.7910 C   0  0  0  0  0  0  0  0  0  0  0  0
    9.7977    1.4791   21.6912 N   0  0  0  0  0  0  0  0  0  0  0  0
    6.5976    9.3401   22.6478 N   0  0  0  0  0  0  0  0  0  0  0  0
   11.2031    3.0042   20.6246 C   0  0  0  0  0  0  0  0  0  0  0  0
   12.8688    7.7370   22.7287 C   0  0  0  0  0  0  0  0  0  0  0  0
    7.4487    9.1361   23.6506 C   0  0  0  0  0  0  0  0  0  0  0  0
    8.9772    2.5025   22.0273 C   0  0  0  0  0  0  0  0  0  0  0  0
   10.4859    4.0901   20.9730 C   0  0  0  0  0  0  0  0  0  0  0  0
   11.0962    9.3293   23.5072 C   0  0  0  0  0  0  0  0  0  0  0  0
    5.1273    7.8529   23.6208 N   0  0  0  0  0  0  0  0  0  0  0  0
    9.7552    9.2338   23.0171 N   0  0  0  0  0  0  0  0  0  0  0  0
   11.1797    6.7591   21.3326 N   0  0  0  0  0  0  0  0  0  0  0  0
   11.7728    8.0337   23.7267 C   0  0  0  0  0  0  0  0  0  0  0  0
    7.1194    8.3344   24.6775 C   0  0  0  0  0  0  0  0  0  0  0  0
    8.4311    4.7963   22.0500 C   0  0  0  0  0  0  0  0  0  0  0  0
    8.7393   10.8706   24.1871 O   0  0  0  0  0  0  0  0  0  0  0  0
    9.3093    3.8166   21.6712 C   0  0  0  0  0  0  0  0  0  0  0  0
  1  5  1  0
  1 15  4  0
  1 22  4  0
  2 20  1  0
  2 24  1  0
  3  6  4  0
  3 27  4  0
  4 22  4  0
  4 26  4  0
  6  7  4  0
  6 13  1  0
  7 19  4  0
  8 18  1  0
  8 23  1  0
  8 28  2  0
  9 17  1  0
  9 24  1  0
 10 11  1  0
 10 24  1  0
 11 23  1  0
 12 14  4  0
 12 16  4  0
 14 19  4  0
 15 18  4  0
 16 20  4  0
 17 25  1  0
 18 26  4  0
 19 29  4  0
 20 29  4  0
 21 23  1  0
 21 25  1  0
 27 29  4  0
M  END
$$$$

 Created by Python create_sdf_string function

 29 32  0  0  0  0  0  0  0  0999 V2000
    5.4450    8.7154   22.6662 C   0  0  0  0  0  0  0  0  0  0  0  0
   10.9154    5.4574   20.5483 C   0  0  0  0  0  0  0  0  0  0  0  0
    7.2709    4.5089   22.7542 C   0  0  0  0  0  0  0  0  0  0  0  0
    5.9698    7.6329   24.6581 C   0  0  0  0  0  0  0  0  0  0  0  0
    4.5542    8.9057   21.7104 O   0  0  0  0  0  0  0  0  0  0  0  0
    6.9895    3.2085   23.0690 C   0  0  0  0  0  0  0  0  0  0  0  0
    7.8391    2.2253   22.7260 N   0  0  0  0  0  0  0  0  0  0  0  0
    8.6968    9.8373   23.6359 C   0  0  0  0  0  0  0  0  0  0  0  0
   12.5135    6.5957   21.8396 C   0  0  0  0  0  0  0  0  0  0  0  0
   10.9406    8.2330   21.1350 C   0  0  0  0  0  0  0  0  0  0  0  0
    9.6648    8.5956   21.7310 C   0  0  0  0  0  0  0  0  0  0  0  0
   10.8829    1.7153   20.9865 C   0  0  0  0  0  0  0  0  0  0  0  0
    5.7768    2.8533   23.7910 C   0  0  0  0  0  0  0  0  0  0  0  0
    9.7977    1.4791   21.6912 N   0  0  0  0  0  0  0  0  0  0  0  0
    6.5976    9.3401   22.6478 N   0  0  0  0  0  0  0  0  0  0  0  0
   11.2031    3.0042   20.6246 C   0  0  0  0  0  0  0  0  0  0  0  0
   12.8688    7.7370   22.7287 C   0  0  0  0  0  0  0  0  0  0  0  0
    7.4487    9.1361   23.6506 C   0  0  0  0  0  0  0  0  0  0  0  0
    8.9772    2.5025   22.0273 C   0  0  0  0  0  0  0  0  0  0  0  0
   10.4859    4.0901   20.9730 C   0  0  0  0  0  0  0  0  0  0  0  0
   11.0962    9.3293   23.5072 C   0  0  0  0  0  0  0  0  0  0  0  0
    5.1273    7.8529   23.6208 N   0  0  0  0  0  0  0  0  0  0  0  0
    9.7552    9.2338   23.0171 N   0  0  0  0  0  0  0  0  0  0  0  0
   11.1797    6.7591   21.3326 N   0  0  0  0  0  0  0  0  0  0  0  0
   11.7728    8.0337   23.7267 C   0  0  0  0  0  0  0  0  0  0  0  0
    7.1194    8.3344   24.6775 C   0  0  0  0  0  0  0  0  0  0  0  0
    8.4311    4.7963   22.0500 C   0  0  0  0  0  0  0  0  0  0  0  0
    8.7393   10.8706   24.1871 O   0  0  0  0  0  0  0  0  0  0  0  0
    9.3093    3.8166   21.6712 C   0  0  0  0  0  0  0  0  0  0  0  0
  1  5  1  0
  1 15  4  0
  1 22  4  0
  2 20  1  0
  2 24  1  0
  3  6  4  0
  3 27  4  0
  4 22  4  0
  4 26  4  0
  6  7  4  0
  6 13  1  0
  7 19  4  0
  8 18  1  0
  8 23  1  0
  8 28  2  0
  9 17  1  0
  9 24  1  0
 10 11  1  0
 10 24  1  0
 11 23  1  0
 12 14  4  0
 12 16  4  0
 14 19  4  0
 15 18  4  0
 16 20  4  0
 17 25  1  0
 18 26  4  0
 19 29  4  0
 20 29  4  0
 21 23  1  0
 21 25  1  0
 27 29  4  0
M  END
$$$$

 Created by Python create_sdf_string function

 29 32  0  0  0  0  0  0  0  0999 V2000
    5.4450    8.7154   22.6662 C   0  0  0  0  0  0  0  0  0  0  0  0
   10.9154    5.4574   20.5483 C   0  0  0  0  0  0  0  0  0  0  0  0
    7.2709    4.5089   22.7542 C   0  0  0  0  0  0  0  0  0  0  0  0
    5.9698    7.6329   24.6581 C   0  0  0  0  0  0  0  0  0  0  0  0
    4.5542    8.9057   21.7104 O   0  0  0  0  0  0  0  0  0  0  0  0
    6.9895    3.2085   23.0690 C   0  0  0  0  0  0  0  0  0  0  0  0
    7.8391    2.2253   22.7260 N   0  0  0  0  0  0  0  0  0  0  0  0
    8.6968    9.8373   23.6359 C   0  0  0  0  0  0  0  0  0  0  0  0
   12.5135    6.5957   21.8396 C   0  0  0  0  0  0  0  0  0  0  0  0
   10.9406    8.2330   21.1350 C   0  0  0  0  0  0  0  0  0  0  0  0
    9.6648    8.5956   21.7310 C   0  0  0  0  0  0  0  0  0  0  0  0
   10.8829    1.7153   20.9865 C   0  0  0  0  0  0  0  0  0  0  0  0
    5.7768    2.8533   23.7910 C   0  0  0  0  0  0  0  0  0  0  0  0
    9.7977    1.4791   21.6912 N   0  0  0  0  0  0  0  0  0  0  0  0
    6.5976    9.3401   22.6478 N   0  0  0  0  0  0  0  0  0  0  0  0
   11.2031    3.0042   20.6246 C   0  0  0  0  0  0  0  0  0  0  0  0
   12.8688    7.7370   22.7287 C   0  0  0  0  0  0  0  0  0  0  0  0
    7.4487    9.1361   23.6506 C   0  0  0  0  0  0  0  0  0  0  0  0
    8.9772    2.5025   22.0273 C   0  0  0  0  0  0  0  0  0  0  0  0
   10.4859    4.0901   20.9730 C   0  0  0  0  0  0  0  0  0  0  0  0
   11.0962    9.3293   23.5072 C   0  0  0  0  0  0  0  0  0  0  0  0
    5.1273    7.8529   23.6208 N   0  0  0  0  0  0  0  0  0  0  0  0
    9.7552    9.2338   23.0171 N   0  0  0  0  0  0  0  0  0  0  0  0
   11.1797    6.7591   21.3326 N   0  0  0  0  0  0  0  0  0  0  0  0
   11.7728    8.0337   23.7267 C   0  0  0  0  0  0  0  0  0  0  0  0
    7.1194    8.3344   24.6775 C   0  0  0  0  0  0  0  0  0  0  0  0
    8.4311    4.7963   22.0500 C   0  0  0  0  0  0  0  0  0  0  0  0
    8.7393   10.8706   24.1871 O   0  0  0  0  0  0  0  0  0  0  0  0
    9.3093    3.8166   21.6712 C   0  0  0  0  0  0  0  0  0  0  0  0
  1  5  1  0
  1 15  4  0
  1 22  4  0
  2 20  1  0
  2 24  1  0
  3  6  4  0
  3 27  4  0
  4 22  4  0
  4 26  4  0
  6  7  4  0
  6 13  1  0
  7 19  4  0
  8 18  1  0
  8 23  1  0
  8 28  2  0
  9 17  1  0
  9 24  1  0
 10 11  1  0
 10 24  1  0
 11 23  1  0
 12 14  4  0
 12 16  4  0
 14 19  4  0
 15 18  4  0
 16 20  4  0
 17 25  1  0
 18 26  4  0
 19 29  4  0
 20 29  4  0
 21 23  1  0
 21 25  1  0
 27 29  4  0
M  END
$$$$

 Created by Python create_sdf_string function

 29 32  0  0  0  0  0  0  0  0999 V2000
    5.4450    8.7154   22.6662 C   0  0  0  0  0  0  0  0  0  0  0  0
   10.9154    5.4574   20.5483 C   0  0  0  0  0  0  0  0  0  0  0  0
    7.2709    4.5089   22.7542 C   0  0  0  0  0  0  0  0  0  0  0  0
    5.9698    7.6329   24.6581 C   0  0  0  0  0  0  0  0  0  0  0  0
    4.5542    8.9057   21.7104 O   0  0  0  0  0  0  0  0  0  0  0  0
    6.9895    3.2085   23.0690 C   0  0  0  0  0  0  0  0  0  0  0  0
    7.8391    2.2253   22.7260 N   0  0  0  0  0  0  0  0  0  0  0  0
    8.6968    9.8373   23.6359 C   0  0  0  0  0  0  0  0  0  0  0  0
   12.5135    6.5957   21.8396 C   0  0  0  0  0  0  0  0  0  0  0  0
   10.9406    8.2330   21.1350 C   0  0  0  0  0  0  0  0  0  0  0  0
    9.6648    8.5956   21.7310 C   0  0  0  0  0  0  0  0  0  0  0  0
   10.8829    1.7153   20.9865 C   0  0  0  0  0  0  0  0  0  0  0  0
    5.7768    2.8533   23.7910 C   0  0  0  0  0  0  0  0  0  0  0  0
    9.7977    1.4791   21.6912 N   0  0  0  0  0  0  0  0  0  0  0  0
    6.5976    9.3401   22.6478 N   0  0  0  0  0  0  0  0  0  0  0  0
   11.2031    3.0042   20.6246 C   0  0  0  0  0  0  0  0  0  0  0  0
   12.8688    7.7370   22.7287 C   0  0  0  0  0  0  0  0  0  0  0  0
    7.4487    9.1361   23.6506 C   0  0  0  0  0  0  0  0  0  0  0  0
    8.9772    2.5025   22.0273 C   0  0  0  0  0  0  0  0  0  0  0  0
   10.4859    4.0901   20.9730 C   0  0  0  0  0  0  0  0  0  0  0  0
   11.0962    9.3293   23.5072 C   0  0  0  0  0  0  0  0  0  0  0  0
    5.1273    7.8529   23.6208 N   0  0  0  0  0  0  0  0  0  0  0  0
    9.7552    9.2338   23.0171 N   0  0  0  0  0  0  0  0  0  0  0  0
   11.1797    6.7591   21.3326 N   0  0  0  0  0  0  0  0  0  0  0  0
   11.7728    8.0337   23.7267 C   0  0  0  0  0  0  0  0  0  0  0  0
    7.1194    8.3344   24.6775 C   0  0  0  0  0  0  0  0  0  0  0  0
    8.4311    4.7963   22.0500 C   0  0  0  0  0  0  0  0  0  0  0  0
    8.7393   10.8706   24.1871 O   0  0  0  0  0  0  0  0  0  0  0  0
    9.3093    3.8166   21.6712 C   0  0  0  0  0  0  0  0  0  0  0  0
  1  5  1  0
  1 15  4  0
  1 22  4  0
  2 20  1  0
  2 24  1  0
  3  6  4  0
  3 27  4  0
  4 22  4  0
  4 26  4  0
  6  7  4  0
  6 13  1  0
  7 19  4  0
  8 18  1  0
  8 23  1  0
  8 28  2  0
  9 17  1  0
  9 24  1  0
 10 11  1  0
 10 24  1  0
 11 23  1  0
 12 14  4  0
 12 16  4  0
 14 19  4  0
 15 18  4  0
 16 20  4  0
 17 25  1  0
 18 26  4  0
 19 29  4  0
 20 29  4  0
 21 23  1  0
 21 25  1  0
 27 29  4  0
M  END
$$$$

 Created by Python create_sdf_string function

 29 32  0  0  0  0  0  0  0  0999 V2000
    5.4450    8.7154   22.6662 C   0  0  0  0  0  0  0  0  0  0  0  0
   10.9154    5.4574   20.5483 C   0  0  0  0  0  0  0  0  0  0  0  0
    7.2709    4.5089   22.7542 C   0  0  0  0  0  0  0  0  0  0  0  0
    5.9698    7.6329   24.6581 C   0  0  0  0  0  0  0  0  0  0  0  0
    4.5542    8.9057   21.7104 O   0  0  0  0  0  0  0  0  0  0  0  0
    6.9895    3.2085   23.0690 C   0  0  0  0  0  0  0  0  0  0  0  0
    7.8391    2.2253   22.7260 N   0  0  0  0  0  0  0  0  0  0  0  0
    8.6968    9.8373   23.6359 C   0  0  0  0  0  0  0  0  0  0  0  0
   12.5135    6.5957   21.8396 C   0  0  0  0  0  0  0  0  0  0  0  0
   10.9406    8.2330   21.1350 C   0  0  0  0  0  0  0  0  0  0  0  0
    9.6648    8.5956   21.7310 C   0  0  0  0  0  0  0  0  0  0  0  0
   10.8829    1.7153   20.9865 C   0  0  0  0  0  0  0  0  0  0  0  0
    5.7768    2.8533   23.7910 C   0  0  0  0  0  0  0  0  0  0  0  0
    9.7977    1.4791   21.6912 N   0  0  0  0  0  0  0  0  0  0  0  0
    6.5976    9.3401   22.6478 N   0  0  0  0  0  0  0  0  0  0  0  0
   11.2031    3.0042   20.6246 C   0  0  0  0  0  0  0  0  0  0  0  0
   12.8688    7.7370   22.7287 C   0  0  0  0  0  0  0  0  0  0  0  0
    7.4487    9.1361   23.6506 C   0  0  0  0  0  0  0  0  0  0  0  0
    8.9772    2.5025   22.0273 C   0  0  0  0  0  0  0  0  0  0  0  0
   10.4859    4.0901   20.9730 C   0  0  0  0  0  0  0  0  0  0  0  0
   11.0962    9.3293   23.5072 C   0  0  0  0  0  0  0  0  0  0  0  0
    5.1273    7.8529   23.6208 N   0  0  0  0  0  0  0  0  0  0  0  0
    9.7552    9.2338   23.0171 N   0  0  0  0  0  0  0  0  0  0  0  0
   11.1797    6.7591   21.3326 N   0  0  0  0  0  0  0  0  0  0  0  0
   11.7728    8.0337   23.7267 C   0  0  0  0  0  0  0  0  0  0  0  0
    7.1194    8.3344   24.6775 C   0  0  0  0  0  0  0  0  0  0  0  0
    8.4311    4.7963   22.0500 C   0  0  0  0  0  0  0  0  0  0  0  0
    8.7393   10.8706   24.1871 O   0  0  0  0  0  0  0  0  0  0  0  0
    9.3093    3.8166   21.6712 C   0  0  0  0  0  0  0  0  0  0  0  0
  1  5  1  0
  1 15  4  0
  1 22  4  0
  2 20  1  0
  2 24  1  0
  3  6  4  0
  3 27  4  0
  4 22  4  0
  4 26  4  0
  6  7  4  0
  6 13  1  0
  7 19  4  0
  8 18  1  0
  8 23  1  0
  8 28  2  0
  9 17  1  0
  9 24  1  0
 10 11  1  0
 10 24  1  0
 11 23  1  0
 12 14  4  0
 12 16  4  0
 14 19  4  0
 15 18  4  0
 16 20  4  0
 17 25  1  0
 18 26  4  0
 19 29  4  0
 20 29  4  0
 21 23  1  0
 21 25  1  0
 27 29  4  0
M  END
$$$$

 Created by Python create_sdf_string function

 29 32  0  0  0  0  0  0  0  0999 V2000
    5.4450    8.7154   22.6662 C   0  0  0  0  0  0  0  0  0  0  0  0
   10.9154    5.4574   20.5483 C   0  0  0  0  0  0  0  0  0  0  0  0
    7.2709    4.5089   22.7542 C   0  0  0  0  0  0  0  0  0  0  0  0
    5.9698    7.6329   24.6581 C   0  0  0  0  0  0  0  0  0  0  0  0
    4.5542    8.9057   21.7104 O   0  0  0  0  0  0  0  0  0  0  0  0
    6.9895    3.2085   23.0690 C   0  0  0  0  0  0  0  0  0  0  0  0
    7.8391    2.2253   22.7260 N   0  0  0  0  0  0  0  0  0  0  0  0
    8.6968    9.8373   23.6359 C   0  0  0  0  0  0  0  0  0  0  0  0
   12.5135    6.5957   21.8396 C   0  0  0  0  0  0  0  0  0  0  0  0
   10.9406    8.2330   21.1350 C   0  0  0  0  0  0  0  0  0  0  0  0
    9.6648    8.5956   21.7310 C   0  0  0  0  0  0  0  0  0  0  0  0
   10.8829    1.7153   20.9865 C   0  0  0  0  0  0  0  0  0  0  0  0
    5.7768    2.8533   23.7910 C   0  0  0  0  0  0  0  0  0  0  0  0
    9.7977    1.4791   21.6912 N   0  0  0  0  0  0  0  0  0  0  0  0
    6.5976    9.3401   22.6478 N   0  0  0  0  0  0  0  0  0  0  0  0
   11.2031    3.0042   20.6246 C   0  0  0  0  0  0  0  0  0  0  0  0
   12.8688    7.7370   22.7287 C   0  0  0  0  0  0  0  0  0  0  0  0
    7.4487    9.1361   23.6506 C   0  0  0  0  0  0  0  0  0  0  0  0
    8.9772    2.5025   22.0273 C   0  0  0  0  0  0  0  0  0  0  0  0
   10.4859    4.0901   20.9730 C   0  0  0  0  0  0  0  0  0  0  0  0
   11.0962    9.3293   23.5072 C   0  0  0  0  0  0  0  0  0  0  0  0
    5.1273    7.8529   23.6208 N   0  0  0  0  0  0  0  0  0  0  0  0
    9.7552    9.2338   23.0171 N   0  0  0  0  0  0  0  0  0  0  0  0
   11.1797    6.7591   21.3326 N   0  0  0  0  0  0  0  0  0  0  0  0
   11.7728    8.0337   23.7267 C   0  0  0  0  0  0  0  0  0  0  0  0
    7.1194    8.3344   24.6775 C   0  0  0  0  0  0  0  0  0  0  0  0
    8.4311    4.7963   22.0500 C   0  0  0  0  0  0  0  0  0  0  0  0
    8.7393   10.8706   24.1871 O   0  0  0  0  0  0  0  0  0  0  0  0
    9.3093    3.8166   21.6712 C   0  0  0  0  0  0  0  0  0  0  0  0
  1  5  1  0
  1 15  4  0
  1 22  4  0
  2 20  1  0
  2 24  1  0
  3  6  4  0
  3 27  4  0
  4 22  4  0
  4 26  4  0
  6  7  4  0
  6 13  1  0
  7 19  4  0
  8 18  1  0
  8 23  1  0
  8 28  2  0
  9 17  1  0
  9 24  1  0
 10 11  1  0
 10 24  1  0
 11 23  1  0
 12 14  4  0
 12 16  4  0
 14 19  4  0
 15 18  4  0
 16 20  4  0
 17 25  1  0
 18 26  4  0
 19 29  4  0
 20 29  4  0
 21 23  1  0
 21 25  1  0
 27 29  4  0
M  END
$$$$

 Created by Python create_sdf_string function

 29 32  0  0  0  0  0  0  0  0999 V2000
    5.4450    8.7154   22.6662 C   0  0  0  0  0  0  0  0  0  0  0  0
   10.9154    5.4574   20.5483 C   0  0  0  0  0  0  0  0  0  0  0  0
    7.2709    4.5089   22.7542 C   0  0  0  0  0  0  0  0  0  0  0  0
    5.9698    7.6329   24.6581 C   0  0  0  0  0  0  0  0  0  0  0  0
    4.5542    8.9057   21.7104 O   0  0  0  0  0  0  0  0  0  0  0  0
    6.9895    3.2085   23.0690 C   0  0  0  0  0  0  0  0  0  0  0  0
    7.8391    2.2253   22.7260 N   0  0  0  0  0  0  0  0  0  0  0  0
    8.6968    9.8373   23.6359 C   0  0  0  0  0  0  0  0  0  0  0  0
   12.5135    6.5957   21.8396 C   0  0  0  0  0  0  0  0  0  0  0  0
   10.9406    8.2330   21.1350 C   0  0  0  0  0  0  0  0  0  0  0  0
    9.6648    8.5956   21.7310 C   0  0  0  0  0  0  0  0  0  0  0  0
   10.8829    1.7153   20.9865 C   0  0  0  0  0  0  0  0  0  0  0  0
    5.7768    2.8533   23.7910 C   0  0  0  0  0  0  0  0  0  0  0  0
    9.7977    1.4791   21.6912 N   0  0  0  0  0  0  0  0  0  0  0  0
    6.5976    9.3401   22.6478 N   0  0  0  0  0  0  0  0  0  0  0  0
   11.2031    3.0042   20.6246 C   0  0  0  0  0  0  0  0  0  0  0  0
   12.8688    7.7370   22.7287 C   0  0  0  0  0  0  0  0  0  0  0  0
    7.4487    9.1361   23.6506 C   0  0  0  0  0  0  0  0  0  0  0  0
    8.9772    2.5025   22.0273 C   0  0  0  0  0  0  0  0  0  0  0  0
   10.4859    4.0901   20.9730 C   0  0  0  0  0  0  0  0  0  0  0  0
   11.0962    9.3293   23.5072 C   0  0  0  0  0  0  0  0  0  0  0  0
    5.1273    7.8529   23.6208 N   0  0  0  0  0  0  0  0  0  0  0  0
    9.7552    9.2338   23.0171 N   0  0  0  0  0  0  0  0  0  0  0  0
   11.1797    6.7591   21.3326 N   0  0  0  0  0  0  0  0  0  0  0  0
   11.7728    8.0337   23.7267 C   0  0  0  0  0  0  0  0  0  0  0  0
    7.1194    8.3344   24.6775 C   0  0  0  0  0  0  0  0  0  0  0  0
    8.4311    4.7963   22.0500 C   0  0  0  0  0  0  0  0  0  0  0  0
    8.7393   10.8706   24.1871 O   0  0  0  0  0  0  0  0  0  0  0  0
    9.3093    3.8166   21.6712 C   0  0  0  0  0  0  0  0  0  0  0  0
  1  5  1  0
  1 15  4  0
  1 22  4  0
  2 20  1  0
  2 24  1  0
  3  6  4  0
  3 27  4  0
  4 22  4  0
  4 26  4  0
  6  7  4  0
  6 13  1  0
  7 19  4  0
  8 18  1  0
  8 23  1  0
  8 28  2  0
  9 17  1  0
  9 24  1  0
 10 11  1  0
 10 24  1  0
 11 23  1  0
 12 14  4  0
 12 16  4  0
 14 19  4  0
 15 18  4  0
 16 20  4  0
 17 25  1  0
 18 26  4  0
 19 29  4  0
 20 29  4  0
 21 23  1  0
 21 25  1  0
 27 29  4  0
M  END
$$$$

 Created by Python create_sdf_string function

 29 32  0  0  0  0  0  0  0  0999 V2000
    5.4450    8.7154   22.6662 C   0  0  0  0  0  0  0  0  0  0  0  0
   10.9154    5.4574   20.5483 C   0  0  0  0  0  0  0  0  0  0  0  0
    7.2709    4.5089   22.7542 C   0  0  0  0  0  0  0  0  0  0  0  0
    5.9698    7.6329   24.6581 C   0  0  0  0  0  0  0  0  0  0  0  0
    4.5542    8.9057   21.7104 O   0  0  0  0  0  0  0  0  0  0  0  0
    6.9895    3.2085   23.0690 C   0  0  0  0  0  0  0  0  0  0  0  0
    7.8391    2.2253   22.7260 N   0  0  0  0  0  0  0  0  0  0  0  0
    8.6968    9.8373   23.6359 C   0  0  0  0  0  0  0  0  0  0  0  0
   12.5135    6.5957   21.8396 C   0  0  0  0  0  0  0  0  0  0  0  0
   10.9406    8.2330   21.1350 C   0  0  0  0  0  0  0  0  0  0  0  0
    9.6648    8.5956   21.7310 C   0  0  0  0  0  0  0  0  0  0  0  0
   10.8829    1.7153   20.9865 C   0  0  0  0  0  0  0  0  0  0  0  0
    5.7768    2.8533   23.7910 C   0  0  0  0  0  0  0  0  0  0  0  0
    9.7977    1.4791   21.6912 N   0  0  0  0  0  0  0  0  0  0  0  0
    6.5976    9.3401   22.6478 N   0  0  0  0  0  0  0  0  0  0  0  0
   11.2031    3.0042   20.6246 C   0  0  0  0  0  0  0  0  0  0  0  0
   12.8688    7.7370   22.7287 C   0  0  0  0  0  0  0  0  0  0  0  0
    7.4487    9.1361   23.6506 C   0  0  0  0  0  0  0  0  0  0  0  0
    8.9772    2.5025   22.0273 C   0  0  0  0  0  0  0  0  0  0  0  0
   10.4859    4.0901   20.9730 C   0  0  0  0  0  0  0  0  0  0  0  0
   11.0962    9.3293   23.5072 C   0  0  0  0  0  0  0  0  0  0  0  0
    5.1273    7.8529   23.6208 N   0  0  0  0  0  0  0  0  0  0  0  0
    9.7552    9.2338   23.0171 N   0  0  0  0  0  0  0  0  0  0  0  0
   11.1797    6.7591   21.3326 N   0  0  0  0  0  0  0  0  0  0  0  0
   11.7728    8.0337   23.7267 C   0  0  0  0  0  0  0  0  0  0  0  0
    7.1194    8.3344   24.6775 C   0  0  0  0  0  0  0  0  0  0  0  0
    8.4311    4.7963   22.0500 C   0  0  0  0  0  0  0  0  0  0  0  0
    8.7393   10.8706   24.1871 O   0  0  0  0  0  0  0  0  0  0  0  0
    9.3093    3.8166   21.6712 C   0  0  0  0  0  0  0  0  0  0  0  0
  1  5  1  0
  1 15  4  0
  1 22  4  0
  2 20  1  0
  2 24  1  0
  3  6  4  0
  3 27  4  0
  4 22  4  0
  4 26  4  0
  6  7  4  0
  6 13  1  0
  7 19  4  0
  8 18  1  0
  8 23  1  0
  8 28  2  0
  9 17  1  0
  9 24  1  0
 10 11  1  0
 10 24  1  0
 11 23  1  0
 12 14  4  0
 12 16  4  0
 14 19  4  0
 15 18  4  0
 16 20  4  0
 17 25  1  0
 18 26  4  0
 19 29  4  0
 20 29  4  0
 21 23  1  0
 21 25  1  0
 27 29  4  0
M  END
$$$$

 Created by Python create_sdf_string function

 29 32  0  0  0  0  0  0  0  0999 V2000
    5.4450    8.7154   22.6662 C   0  0  0  0  0  0  0  0  0  0  0  0
   10.9154    5.4574   20.5483 C   0  0  0  0  0  0  0  0  0  0  0  0
    7.2709    4.5089   22.7542 C   0  0  0  0  0  0  0  0  0  0  0  0
    5.9698    7.6329   24.6581 C   0  0  0  0  0  0  0  0  0  0  0  0
    4.5542    8.9057   21.7104 O   0  0  0  0  0  0  0  0  0  0  0  0
    6.9895    3.2085   23.0690 C   0  0  0  0  0  0  0  0  0  0  0  0
    7.8391    2.2253   22.7260 N   0  0  0  0  0  0  0  0  0  0  0  0
    8.6968    9.8373   23.6359 C   0  0  0  0  0  0  0  0  0  0  0  0
   12.5135    6.5957   21.8396 C   0  0  0  0  0  0  0  0  0  0  0  0
   10.9406    8.2330   21.1350 C   0  0  0  0  0  0  0  0  0  0  0  0
    9.6648    8.5956   21.7310 C   0  0  0  0  0  0  0  0  0  0  0  0
   10.8829    1.7153   20.9865 C   0  0  0  0  0  0  0  0  0  0  0  0
    5.7768    2.8533   23.7910 C   0  0  0  0  0  0  0  0  0  0  0  0
    9.7977    1.4791   21.6912 N   0  0  0  0  0  0  0  0  0  0  0  0
    6.5976    9.3401   22.6478 N   0  0  0  0  0  0  0  0  0  0  0  0
   11.2031    3.0042   20.6246 C   0  0  0  0  0  0  0  0  0  0  0  0
   12.8688    7.7370   22.7287 C   0  0  0  0  0  0  0  0  0  0  0  0
    7.4487    9.1361   23.6506 C   0  0  0  0  0  0  0  0  0  0  0  0
    8.9772    2.5025   22.0273 C   0  0  0  0  0  0  0  0  0  0  0  0
   10.4859    4.0901   20.9730 C   0  0  0  0  0  0  0  0  0  0  0  0
   11.0962    9.3293   23.5072 C   0  0  0  0  0  0  0  0  0  0  0  0
    5.1273    7.8529   23.6208 N   0  0  0  0  0  0  0  0  0  0  0  0
    9.7552    9.2338   23.0171 N   0  0  0  0  0  0  0  0  0  0  0  0
   11.1797    6.7591   21.3326 N   0  0  0  0  0  0  0  0  0  0  0  0
   11.7728    8.0337   23.7267 C   0  0  0  0  0  0  0  0  0  0  0  0
    7.1194    8.3344   24.6775 C   0  0  0  0  0  0  0  0  0  0  0  0
    8.4311    4.7963   22.0500 C   0  0  0  0  0  0  0  0  0  0  0  0
    8.7393   10.8706   24.1871 O   0  0  0  0  0  0  0  0  0  0  0  0
    9.3093    3.8166   21.6712 C   0  0  0  0  0  0  0  0  0  0  0  0
  1  5  1  0
  1 15  4  0
  1 22  4  0
  2 20  1  0
  2 24  1  0
  3  6  4  0
  3 27  4  0
  4 22  4  0
  4 26  4  0
  6  7  4  0
  6 13  1  0
  7 19  4  0
  8 18  1  0
  8 23  1  0
  8 28  2  0
  9 17  1  0
  9 24  1  0
 10 11  1  0
 10 24  1  0
 11 23  1  0
 12 14  4  0
 12 16  4  0
 14 19  4  0
 15 18  4  0
 16 20  4  0
 17 25  1  0
 18 26  4  0
 19 29  4  0
 20 29  4  0
 21 23  1  0
 21 25  1  0
 27 29  4  0
M  END
$$$$

 Created by Python create_sdf_string function

 29 32  0  0  0  0  0  0  0  0999 V2000
    5.4450    8.7154   22.6662 C   0  0  0  0  0  0  0  0  0  0  0  0
   10.9154    5.4574   20.5483 C   0  0  0  0  0  0  0  0  0  0  0  0
    7.2709    4.5089   22.7542 C   0  0  0  0  0  0  0  0  0  0  0  0
    5.9698    7.6329   24.6581 C   0  0  0  0  0  0  0  0  0  0  0  0
    4.5542    8.9057   21.7104 O   0  0  0  0  0  0  0  0  0  0  0  0
    6.9895    3.2085   23.0690 C   0  0  0  0  0  0  0  0  0  0  0  0
    7.8391    2.2253   22.7260 N   0  0  0  0  0  0  0  0  0  0  0  0
    8.6968    9.8373   23.6359 C   0  0  0  0  0  0  0  0  0  0  0  0
   12.5135    6.5957   21.8396 C   0  0  0  0  0  0  0  0  0  0  0  0
   10.9406    8.2330   21.1350 C   0  0  0  0  0  0  0  0  0  0  0  0
    9.6648    8.5956   21.7310 C   0  0  0  0  0  0  0  0  0  0  0  0
   10.8829    1.7153   20.9865 C   0  0  0  0  0  0  0  0  0  0  0  0
    5.7768    2.8533   23.7910 C   0  0  0  0  0  0  0  0  0  0  0  0
    9.7977    1.4791   21.6912 N   0  0  0  0  0  0  0  0  0  0  0  0
    6.5976    9.3401   22.6478 N   0  0  0  0  0  0  0  0  0  0  0  0
   11.2031    3.0042   20.6246 C   0  0  0  0  0  0  0  0  0  0  0  0
   12.8688    7.7370   22.7287 C   0  0  0  0  0  0  0  0  0  0  0  0
    7.4487    9.1361   23.6506 C   0  0  0  0  0  0  0  0  0  0  0  0
    8.9772    2.5025   22.0273 C   0  0  0  0  0  0  0  0  0  0  0  0
   10.4859    4.0901   20.9730 C   0  0  0  0  0  0  0  0  0  0  0  0
   11.0962    9.3293   23.5072 C   0  0  0  0  0  0  0  0  0  0  0  0
    5.1273    7.8529   23.6208 N   0  0  0  0  0  0  0  0  0  0  0  0
    9.7552    9.2338   23.0171 N   0  0  0  0  0  0  0  0  0  0  0  0
   11.1797    6.7591   21.3326 N   0  0  0  0  0  0  0  0  0  0  0  0
   11.7728    8.0337   23.7267 C   0  0  0  0  0  0  0  0  0  0  0  0
    7.1194    8.3344   24.6775 C   0  0  0  0  0  0  0  0  0  0  0  0
    8.4311    4.7963   22.0500 C   0  0  0  0  0  0  0  0  0  0  0  0
    8.7393   10.8706   24.1871 O   0  0  0  0  0  0  0  0  0  0  0  0
    9.3093    3.8166   21.6712 C   0  0  0  0  0  0  0  0  0  0  0  0
  1  5  1  0
  1 15  4  0
  1 22  4  0
  2 20  1  0
  2 24  1  0
  3  6  4  0
  3 27  4  0
  4 22  4  0
  4 26  4  0
  6  7  4  0
  6 13  1  0
  7 19  4  0
  8 18  1  0
  8 23  1  0
  8 28  2  0
  9 17  1  0
  9 24  1  0
 10 11  1  0
 10 24  1  0
 11 23  1  0
 12 14  4  0
 12 16  4  0
 14 19  4  0
 15 18  4  0
 16 20  4  0
 17 25  1  0
 18 26  4  0
 19 29  4  0
 20 29  4  0
 21 23  1  0
 21 25  1  0
 27 29  4  0
M  END
$$$$

 Created by Python create_sdf_string function

 29 32  0  0  0  0  0  0  0  0999 V2000
    5.4450    8.7154   22.6662 C   0  0  0  0  0  0  0  0  0  0  0  0
   10.9154    5.4574   20.5483 C   0  0  0  0  0  0  0  0  0  0  0  0
    7.2709    4.5089   22.7542 C   0  0  0  0  0  0  0  0  0  0  0  0
    5.9698    7.6329   24.6581 C   0  0  0  0  0  0  0  0  0  0  0  0
    4.5542    8.9057   21.7104 O   0  0  0  0  0  0  0  0  0  0  0  0
    6.9895    3.2085   23.0690 C   0  0  0  0  0  0  0  0  0  0  0  0
    7.8391    2.2253   22.7260 N   0  0  0  0  0  0  0  0  0  0  0  0
    8.6968    9.8373   23.6359 C   0  0  0  0  0  0  0  0  0  0  0  0
   12.5135    6.5957   21.8396 C   0  0  0  0  0  0  0  0  0  0  0  0
   10.9406    8.2330   21.1350 C   0  0  0  0  0  0  0  0  0  0  0  0
    9.6648    8.5956   21.7310 C   0  0  0  0  0  0  0  0  0  0  0  0
   10.8829    1.7153   20.9865 C   0  0  0  0  0  0  0  0  0  0  0  0
    5.7768    2.8533   23.7910 C   0  0  0  0  0  0  0  0  0  0  0  0
    9.7977    1.4791   21.6912 N   0  0  0  0  0  0  0  0  0  0  0  0
    6.5976    9.3401   22.6478 N   0  0  0  0  0  0  0  0  0  0  0  0
   11.2031    3.0042   20.6246 C   0  0  0  0  0  0  0  0  0  0  0  0
   12.8688    7.7370   22.7287 C   0  0  0  0  0  0  0  0  0  0  0  0
    7.4487    9.1361   23.6506 C   0  0  0  0  0  0  0  0  0  0  0  0
    8.9772    2.5025   22.0273 C   0  0  0  0  0  0  0  0  0  0  0  0
   10.4859    4.0901   20.9730 C   0  0  0  0  0  0  0  0  0  0  0  0
   11.0962    9.3293   23.5072 C   0  0  0  0  0  0  0  0  0  0  0  0
    5.1273    7.8529   23.6208 N   0  0  0  0  0  0  0  0  0  0  0  0
    9.7552    9.2338   23.0171 N   0  0  0  0  0  0  0  0  0  0  0  0
   11.1797    6.7591   21.3326 N   0  0  0  0  0  0  0  0  0  0  0  0
   11.7728    8.0337   23.7267 C   0  0  0  0  0  0  0  0  0  0  0  0
    7.1194    8.3344   24.6775 C   0  0  0  0  0  0  0  0  0  0  0  0
    8.4311    4.7963   22.0500 C   0  0  0  0  0  0  0  0  0  0  0  0
    8.7393   10.8706   24.1871 O   0  0  0  0  0  0  0  0  0  0  0  0
    9.3093    3.8166   21.6712 C   0  0  0  0  0  0  0  0  0  0  0  0
  1  5  1  0
  1 15  4  0
  1 22  4  0
  2 20  1  0
  2 24  1  0
  3  6  4  0
  3 27  4  0
  4 22  4  0
  4 26  4  0
  6  7  4  0
  6 13  1  0
  7 19  4  0
  8 18  1  0
  8 23  1  0
  8 28  2  0
  9 17  1  0
  9 24  1  0
 10 11  1  0
 10 24  1  0
 11 23  1  0
 12 14  4  0
 12 16  4  0
 14 19  4  0
 15 18  4  0
 16 20  4  0
 17 25  1  0
 18 26  4  0
 19 29  4  0
 20 29  4  0
 21 23  1  0
 21 25  1  0
 27 29  4  0
M  END
$$$$

 Created by Python create_sdf_string function

 29 32  0  0  0  0  0  0  0  0999 V2000
    5.4450    8.7154   22.6662 C   0  0  0  0  0  0  0  0  0  0  0  0
   10.9154    5.4574   20.5483 C   0  0  0  0  0  0  0  0  0  0  0  0
    7.2709    4.5089   22.7542 C   0  0  0  0  0  0  0  0  0  0  0  0
    5.9698    7.6329   24.6581 C   0  0  0  0  0  0  0  0  0  0  0  0
    4.5542    8.9057   21.7104 O   0  0  0  0  0  0  0  0  0  0  0  0
    6.9895    3.2085   23.0690 C   0  0  0  0  0  0  0  0  0  0  0  0
    7.8391    2.2253   22.7260 N   0  0  0  0  0  0  0  0  0  0  0  0
    8.6968    9.8373   23.6359 C   0  0  0  0  0  0  0  0  0  0  0  0
   12.5135    6.5957   21.8396 C   0  0  0  0  0  0  0  0  0  0  0  0
   10.9406    8.2330   21.1350 C   0  0  0  0  0  0  0  0  0  0  0  0
    9.6648    8.5956   21.7310 C   0  0  0  0  0  0  0  0  0  0  0  0
   10.8829    1.7153   20.9865 C   0  0  0  0  0  0  0  0  0  0  0  0
    5.7768    2.8533   23.7910 C   0  0  0  0  0  0  0  0  0  0  0  0
    9.7977    1.4791   21.6912 N   0  0  0  0  0  0  0  0  0  0  0  0
    6.5976    9.3401   22.6478 N   0  0  0  0  0  0  0  0  0  0  0  0
   11.2031    3.0042   20.6246 C   0  0  0  0  0  0  0  0  0  0  0  0
   12.8688    7.7370   22.7287 C   0  0  0  0  0  0  0  0  0  0  0  0
    7.4487    9.1361   23.6506 C   0  0  0  0  0  0  0  0  0  0  0  0
    8.9772    2.5025   22.0273 C   0  0  0  0  0  0  0  0  0  0  0  0
   10.4859    4.0901   20.9730 C   0  0  0  0  0  0  0  0  0  0  0  0
   11.0962    9.3293   23.5072 C   0  0  0  0  0  0  0  0  0  0  0  0
    5.1273    7.8529   23.6208 N   0  0  0  0  0  0  0  0  0  0  0  0
    9.7552    9.2338   23.0171 N   0  0  0  0  0  0  0  0  0  0  0  0
   11.1797    6.7591   21.3326 N   0  0  0  0  0  0  0  0  0  0  0  0
   11.7728    8.0337   23.7267 C   0  0  0  0  0  0  0  0  0  0  0  0
    7.1194    8.3344   24.6775 C   0  0  0  0  0  0  0  0  0  0  0  0
    8.4311    4.7963   22.0500 C   0  0  0  0  0  0  0  0  0  0  0  0
    8.7393   10.8706   24.1871 O   0  0  0  0  0  0  0  0  0  0  0  0
    9.3093    3.8166   21.6712 C   0  0  0  0  0  0  0  0  0  0  0  0
  1  5  1  0
  1 15  4  0
  1 22  4  0
  2 20  1  0
  2 24  1  0
  3  6  4  0
  3 27  4  0
  4 22  4  0
  4 26  4  0
  6  7  4  0
  6 13  1  0
  7 19  4  0
  8 18  1  0
  8 23  1  0
  8 28  2  0
  9 17  1  0
  9 24  1  0
 10 11  1  0
 10 24  1  0
 11 23  1  0
 12 14  4  0
 12 16  4  0
 14 19  4  0
 15 18  4  0
 16 20  4  0
 17 25  1  0
 18 26  4  0
 19 29  4  0
 20 29  4  0
 21 23  1  0
 21 25  1  0
 27 29  4  0
M  END
$$$$

 Created by Python create_sdf_string function

 29 32  0  0  0  0  0  0  0  0999 V2000
    5.4450    8.7154   22.6662 C   0  0  0  0  0  0  0  0  0  0  0  0
   10.9154    5.4574   20.5483 C   0  0  0  0  0  0  0  0  0  0  0  0
    7.2709    4.5089   22.7542 C   0  0  0  0  0  0  0  0  0  0  0  0
    5.9698    7.6329   24.6581 C   0  0  0  0  0  0  0  0  0  0  0  0
    4.5542    8.9057   21.7104 O   0  0  0  0  0  0  0  0  0  0  0  0
    6.9895    3.2085   23.0690 C   0  0  0  0  0  0  0  0  0  0  0  0
    7.8391    2.2253   22.7260 N   0  0  0  0  0  0  0  0  0  0  0  0
    8.6968    9.8373   23.6359 C   0  0  0  0  0  0  0  0  0  0  0  0
   12.5135    6.5957   21.8396 C   0  0  0  0  0  0  0  0  0  0  0  0
   10.9406    8.2330   21.1350 C   0  0  0  0  0  0  0  0  0  0  0  0
    9.6648    8.5956   21.7310 C   0  0  0  0  0  0  0  0  0  0  0  0
   10.8829    1.7153   20.9865 C   0  0  0  0  0  0  0  0  0  0  0  0
    5.7768    2.8533   23.7910 C   0  0  0  0  0  0  0  0  0  0  0  0
    9.7977    1.4791   21.6912 N   0  0  0  0  0  0  0  0  0  0  0  0
    6.5976    9.3401   22.6478 N   0  0  0  0  0  0  0  0  0  0  0  0
   11.2031    3.0042   20.6246 C   0  0  0  0  0  0  0  0  0  0  0  0
   12.8688    7.7370   22.7287 C   0  0  0  0  0  0  0  0  0  0  0  0
    7.4487    9.1361   23.6506 C   0  0  0  0  0  0  0  0  0  0  0  0
    8.9772    2.5025   22.0273 C   0  0  0  0  0  0  0  0  0  0  0  0
   10.4859    4.0901   20.9730 C   0  0  0  0  0  0  0  0  0  0  0  0
   11.0962    9.3293   23.5072 C   0  0  0  0  0  0  0  0  0  0  0  0
    5.1273    7.8529   23.6208 N   0  0  0  0  0  0  0  0  0  0  0  0
    9.7552    9.2338   23.0171 N   0  0  0  0  0  0  0  0  0  0  0  0
   11.1797    6.7591   21.3326 N   0  0  0  0  0  0  0  0  0  0  0  0
   11.7728    8.0337   23.7267 C   0  0  0  0  0  0  0  0  0  0  0  0
    7.1194    8.3344   24.6775 C   0  0  0  0  0  0  0  0  0  0  0  0
    8.4311    4.7963   22.0500 C   0  0  0  0  0  0  0  0  0  0  0  0
    8.7393   10.8706   24.1871 O   0  0  0  0  0  0  0  0  0  0  0  0
    9.3093    3.8166   21.6712 C   0  0  0  0  0  0  0  0  0  0  0  0
  1  5  1  0
  1 15  4  0
  1 22  4  0
  2 20  1  0
  2 24  1  0
  3  6  4  0
  3 27  4  0
  4 22  4  0
  4 26  4  0
  6  7  4  0
  6 13  1  0
  7 19  4  0
  8 18  1  0
  8 23  1  0
  8 28  2  0
  9 17  1  0
  9 24  1  0
 10 11  1  0
 10 24  1  0
 11 23  1  0
 12 14  4  0
 12 16  4  0
 14 19  4  0
 15 18  4  0
 16 20  4  0
 17 25  1  0
 18 26  4  0
 19 29  4  0
 20 29  4  0
 21 23  1  0
 21 25  1  0
 27 29  4  0
M  END
$$$$

 Created by Python create_sdf_string function

 29 32  0  0  0  0  0  0  0  0999 V2000
    5.4450    8.7154   22.6662 C   0  0  0  0  0  0  0  0  0  0  0  0
   10.9154    5.4574   20.5483 C   0  0  0  0  0  0  0  0  0  0  0  0
    7.2709    4.5089   22.7542 C   0  0  0  0  0  0  0  0  0  0  0  0
    5.9698    7.6329   24.6581 C   0  0  0  0  0  0  0  0  0  0  0  0
    4.5542    8.9057   21.7104 O   0  0  0  0  0  0  0  0  0  0  0  0
    6.9895    3.2085   23.0690 C   0  0  0  0  0  0  0  0  0  0  0  0
    7.8391    2.2253   22.7260 N   0  0  0  0  0  0  0  0  0  0  0  0
    8.6968    9.8373   23.6359 C   0  0  0  0  0  0  0  0  0  0  0  0
   12.5135    6.5957   21.8396 C   0  0  0  0  0  0  0  0  0  0  0  0
   10.9406    8.2330   21.1350 C   0  0  0  0  0  0  0  0  0  0  0  0
    9.6648    8.5956   21.7310 C   0  0  0  0  0  0  0  0  0  0  0  0
   10.8829    1.7153   20.9865 C   0  0  0  0  0  0  0  0  0  0  0  0
    5.7768    2.8533   23.7910 C   0  0  0  0  0  0  0  0  0  0  0  0
    9.7977    1.4791   21.6912 N   0  0  0  0  0  0  0  0  0  0  0  0
    6.5976    9.3401   22.6478 N   0  0  0  0  0  0  0  0  0  0  0  0
   11.2031    3.0042   20.6246 C   0  0  0  0  0  0  0  0  0  0  0  0
   12.8688    7.7370   22.7287 C   0  0  0  0  0  0  0  0  0  0  0  0
    7.4487    9.1361   23.6506 C   0  0  0  0  0  0  0  0  0  0  0  0
    8.9772    2.5025   22.0273 C   0  0  0  0  0  0  0  0  0  0  0  0
   10.4859    4.0901   20.9730 C   0  0  0  0  0  0  0  0  0  0  0  0
   11.0962    9.3293   23.5072 C   0  0  0  0  0  0  0  0  0  0  0  0
    5.1273    7.8529   23.6208 N   0  0  0  0  0  0  0  0  0  0  0  0
    9.7552    9.2338   23.0171 N   0  0  0  0  0  0  0  0  0  0  0  0
   11.1797    6.7591   21.3326 N   0  0  0  0  0  0  0  0  0  0  0  0
   11.7728    8.0337   23.7267 C   0  0  0  0  0  0  0  0  0  0  0  0
    7.1194    8.3344   24.6775 C   0  0  0  0  0  0  0  0  0  0  0  0
    8.4311    4.7963   22.0500 C   0  0  0  0  0  0  0  0  0  0  0  0
    8.7393   10.8706   24.1871 O   0  0  0  0  0  0  0  0  0  0  0  0
    9.3093    3.8166   21.6712 C   0  0  0  0  0  0  0  0  0  0  0  0
  1  5  1  0
  1 15  4  0
  1 22  4  0
  2 20  1  0
  2 24  1  0
  3  6  4  0
  3 27  4  0
  4 22  4  0
  4 26  4  0
  6  7  4  0
  6 13  1  0
  7 19  4  0
  8 18  1  0
  8 23  1  0
  8 28  2  0
  9 17  1  0
  9 24  1  0
 10 11  1  0
 10 24  1  0
 11 23  1  0
 12 14  4  0
 12 16  4  0
 14 19  4  0
 15 18  4  0
 16 20  4  0
 17 25  1  0
 18 26  4  0
 19 29  4  0
 20 29  4  0
 21 23  1  0
 21 25  1  0
 27 29  4  0
M  END
$$$$

 Created by Python create_sdf_string function

 29 32  0  0  0  0  0  0  0  0999 V2000
    5.4450    8.7154   22.6662 C   0  0  0  0  0  0  0  0  0  0  0  0
   10.9154    5.4574   20.5483 C   0  0  0  0  0  0  0  0  0  0  0  0
    7.2709    4.5089   22.7542 C   0  0  0  0  0  0  0  0  0  0  0  0
    5.9698    7.6329   24.6581 C   0  0  0  0  0  0  0  0  0  0  0  0
    4.5542    8.9057   21.7104 O   0  0  0  0  0  0  0  0  0  0  0  0
    6.9895    3.2085   23.0690 C   0  0  0  0  0  0  0  0  0  0  0  0
    7.8391    2.2253   22.7260 N   0  0  0  0  0  0  0  0  0  0  0  0
    8.6968    9.8373   23.6359 C   0  0  0  0  0  0  0  0  0  0  0  0
   12.5135    6.5957   21.8396 C   0  0  0  0  0  0  0  0  0  0  0  0
   10.9406    8.2330   21.1350 C   0  0  0  0  0  0  0  0  0  0  0  0
    9.6648    8.5956   21.7310 C   0  0  0  0  0  0  0  0  0  0  0  0
   10.8829    1.7153   20.9865 C   0  0  0  0  0  0  0  0  0  0  0  0
    5.7768    2.8533   23.7910 C   0  0  0  0  0  0  0  0  0  0  0  0
    9.7977    1.4791   21.6912 N   0  0  0  0  0  0  0  0  0  0  0  0
    6.5976    9.3401   22.6478 N   0  0  0  0  0  0  0  0  0  0  0  0
   11.2031    3.0042   20.6246 C   0  0  0  0  0  0  0  0  0  0  0  0
   12.8688    7.7370   22.7287 C   0  0  0  0  0  0  0  0  0  0  0  0
    7.4487    9.1361   23.6506 C   0  0  0  0  0  0  0  0  0  0  0  0
    8.9772    2.5025   22.0273 C   0  0  0  0  0  0  0  0  0  0  0  0
   10.4859    4.0901   20.9730 C   0  0  0  0  0  0  0  0  0  0  0  0
   11.0962    9.3293   23.5072 C   0  0  0  0  0  0  0  0  0  0  0  0
    5.1273    7.8529   23.6208 N   0  0  0  0  0  0  0  0  0  0  0  0
    9.7552    9.2338   23.0171 N   0  0  0  0  0  0  0  0  0  0  0  0
   11.1797    6.7591   21.3326 N   0  0  0  0  0  0  0  0  0  0  0  0
   11.7728    8.0337   23.7267 C   0  0  0  0  0  0  0  0  0  0  0  0
    7.1194    8.3344   24.6775 C   0  0  0  0  0  0  0  0  0  0  0  0
    8.4311    4.7963   22.0500 C   0  0  0  0  0  0  0  0  0  0  0  0
    8.7393   10.8706   24.1871 O   0  0  0  0  0  0  0  0  0  0  0  0
    9.3093    3.8166   21.6712 C   0  0  0  0  0  0  0  0  0  0  0  0
  1  5  1  0
  1 15  4  0
  1 22  4  0
  2 20  1  0
  2 24  1  0
  3  6  4  0
  3 27  4  0
  4 22  4  0
  4 26  4  0
  6  7  4  0
  6 13  1  0
  7 19  4  0
  8 18  1  0
  8 23  1  0
  8 28  2  0
  9 17  1  0
  9 24  1  0
 10 11  1  0
 10 24  1  0
 11 23  1  0
 12 14  4  0
 12 16  4  0
 14 19  4  0
 15 18  4  0
 16 20  4  0
 17 25  1  0
 18 26  4  0
 19 29  4  0
 20 29  4  0
 21 23  1  0
 21 25  1  0
 27 29  4  0
M  END
$$$$

 Created by Python create_sdf_string function

 29 32  0  0  0  0  0  0  0  0999 V2000
    5.4450    8.7154   22.6662 C   0  0  0  0  0  0  0  0  0  0  0  0
   10.9154    5.4574   20.5483 C   0  0  0  0  0  0  0  0  0  0  0  0
    7.2709    4.5089   22.7542 C   0  0  0  0  0  0  0  0  0  0  0  0
    5.9698    7.6329   24.6581 C   0  0  0  0  0  0  0  0  0  0  0  0
    4.5542    8.9057   21.7104 O   0  0  0  0  0  0  0  0  0  0  0  0
    6.9895    3.2085   23.0690 C   0  0  0  0  0  0  0  0  0  0  0  0
    7.8391    2.2253   22.7260 N   0  0  0  0  0  0  0  0  0  0  0  0
    8.6968    9.8373   23.6359 C   0  0  0  0  0  0  0  0  0  0  0  0
   12.5135    6.5957   21.8396 C   0  0  0  0  0  0  0  0  0  0  0  0
   10.9406    8.2330   21.1350 C   0  0  0  0  0  0  0  0  0  0  0  0
    9.6648    8.5956   21.7310 C   0  0  0  0  0  0  0  0  0  0  0  0
   10.8829    1.7153   20.9865 C   0  0  0  0  0  0  0  0  0  0  0  0
    5.7768    2.8533   23.7910 C   0  0  0  0  0  0  0  0  0  0  0  0
    9.7977    1.4791   21.6912 N   0  0  0  0  0  0  0  0  0  0  0  0
    6.5976    9.3401   22.6478 N   0  0  0  0  0  0  0  0  0  0  0  0
   11.2031    3.0042   20.6246 C   0  0  0  0  0  0  0  0  0  0  0  0
   12.8688    7.7370   22.7287 C   0  0  0  0  0  0  0  0  0  0  0  0
    7.4487    9.1361   23.6506 C   0  0  0  0  0  0  0  0  0  0  0  0
    8.9772    2.5025   22.0273 C   0  0  0  0  0  0  0  0  0  0  0  0
   10.4859    4.0901   20.9730 C   0  0  0  0  0  0  0  0  0  0  0  0
   11.0962    9.3293   23.5072 C   0  0  0  0  0  0  0  0  0  0  0  0
    5.1273    7.8529   23.6208 N   0  0  0  0  0  0  0  0  0  0  0  0
    9.7552    9.2338   23.0171 N   0  0  0  0  0  0  0  0  0  0  0  0
   11.1797    6.7591   21.3326 N   0  0  0  0  0  0  0  0  0  0  0  0
   11.7728    8.0337   23.7267 C   0  0  0  0  0  0  0  0  0  0  0  0
    7.1194    8.3344   24.6775 C   0  0  0  0  0  0  0  0  0  0  0  0
    8.4311    4.7963   22.0500 C   0  0  0  0  0  0  0  0  0  0  0  0
    8.7393   10.8706   24.1871 O   0  0  0  0  0  0  0  0  0  0  0  0
    9.3093    3.8166   21.6712 C   0  0  0  0  0  0  0  0  0  0  0  0
  1  5  1  0
  1 15  4  0
  1 22  4  0
  2 20  1  0
  2 24  1  0
  3  6  4  0
  3 27  4  0
  4 22  4  0
  4 26  4  0
  6  7  4  0
  6 13  1  0
  7 19  4  0
  8 18  1  0
  8 23  1  0
  8 28  2  0
  9 17  1  0
  9 24  1  0
 10 11  1  0
 10 24  1  0
 11 23  1  0
 12 14  4  0
 12 16  4  0
 14 19  4  0
 15 18  4  0
 16 20  4  0
 17 25  1  0
 18 26  4  0
 19 29  4  0
 20 29  4  0
 21 23  1  0
 21 25  1  0
 27 29  4  0
M  END
$$$$

 Created by Python create_sdf_string function

 29 32  0  0  0  0  0  0  0  0999 V2000
    5.4450    8.7154   22.6662 C   0  0  0  0  0  0  0  0  0  0  0  0
   10.9154    5.4574   20.5483 C   0  0  0  0  0  0  0  0  0  0  0  0
    7.2709    4.5089   22.7542 C   0  0  0  0  0  0  0  0  0  0  0  0
    5.9698    7.6329   24.6581 C   0  0  0  0  0  0  0  0  0  0  0  0
    4.5542    8.9057   21.7104 O   0  0  0  0  0  0  0  0  0  0  0  0
    6.9895    3.2085   23.0690 C   0  0  0  0  0  0  0  0  0  0  0  0
    7.8391    2.2253   22.7260 N   0  0  0  0  0  0  0  0  0  0  0  0
    8.6968    9.8373   23.6359 C   0  0  0  0  0  0  0  0  0  0  0  0
   12.5135    6.5957   21.8396 C   0  0  0  0  0  0  0  0  0  0  0  0
   10.9406    8.2330   21.1350 C   0  0  0  0  0  0  0  0  0  0  0  0
    9.6648    8.5956   21.7310 C   0  0  0  0  0  0  0  0  0  0  0  0
   10.8829    1.7153   20.9865 C   0  0  0  0  0  0  0  0  0  0  0  0
    5.7768    2.8533   23.7910 C   0  0  0  0  0  0  0  0  0  0  0  0
    9.7977    1.4791   21.6912 N   0  0  0  0  0  0  0  0  0  0  0  0
    6.5976    9.3401   22.6478 N   0  0  0  0  0  0  0  0  0  0  0  0
   11.2031    3.0042   20.6246 C   0  0  0  0  0  0  0  0  0  0  0  0
   12.8688    7.7370   22.7287 C   0  0  0  0  0  0  0  0  0  0  0  0
    7.4487    9.1361   23.6506 C   0  0  0  0  0  0  0  0  0  0  0  0
    8.9772    2.5025   22.0273 C   0  0  0  0  0  0  0  0  0  0  0  0
   10.4859    4.0901   20.9730 C   0  0  0  0  0  0  0  0  0  0  0  0
   11.0962    9.3293   23.5072 C   0  0  0  0  0  0  0  0  0  0  0  0
    5.1273    7.8529   23.6208 N   0  0  0  0  0  0  0  0  0  0  0  0
    9.7552    9.2338   23.0171 N   0  0  0  0  0  0  0  0  0  0  0  0
   11.1797    6.7591   21.3326 N   0  0  0  0  0  0  0  0  0  0  0  0
   11.7728    8.0337   23.7267 C   0  0  0  0  0  0  0  0  0  0  0  0
    7.1194    8.3344   24.6775 C   0  0  0  0  0  0  0  0  0  0  0  0
    8.4311    4.7963   22.0500 C   0  0  0  0  0  0  0  0  0  0  0  0
    8.7393   10.8706   24.1871 O   0  0  0  0  0  0  0  0  0  0  0  0
    9.3093    3.8166   21.6712 C   0  0  0  0  0  0  0  0  0  0  0  0
  1  5  1  0
  1 15  4  0
  1 22  4  0
  2 20  1  0
  2 24  1  0
  3  6  4  0
  3 27  4  0
  4 22  4  0
  4 26  4  0
  6  7  4  0
  6 13  1  0
  7 19  4  0
  8 18  1  0
  8 23  1  0
  8 28  2  0
  9 17  1  0
  9 24  1  0
 10 11  1  0
 10 24  1  0
 11 23  1  0
 12 14  4  0
 12 16  4  0
 14 19  4  0
 15 18  4  0
 16 20  4  0
 17 25  1  0
 18 26  4  0
 19 29  4  0
 20 29  4  0
 21 23  1  0
 21 25  1  0
 27 29  4  0
M  END
$$$$

 Created by Python create_sdf_string function

 29 32  0  0  0  0  0  0  0  0999 V2000
    5.4450    8.7154   22.6662 C   0  0  0  0  0  0  0  0  0  0  0  0
   10.9154    5.4574   20.5483 C   0  0  0  0  0  0  0  0  0  0  0  0
    7.2709    4.5089   22.7542 C   0  0  0  0  0  0  0  0  0  0  0  0
    5.9698    7.6329   24.6581 C   0  0  0  0  0  0  0  0  0  0  0  0
    4.5542    8.9057   21.7104 O   0  0  0  0  0  0  0  0  0  0  0  0
    6.9895    3.2085   23.0690 C   0  0  0  0  0  0  0  0  0  0  0  0
    7.8391    2.2253   22.7260 N   0  0  0  0  0  0  0  0  0  0  0  0
    8.6968    9.8373   23.6359 C   0  0  0  0  0  0  0  0  0  0  0  0
   12.5135    6.5957   21.8396 C   0  0  0  0  0  0  0  0  0  0  0  0
   10.9406    8.2330   21.1350 C   0  0  0  0  0  0  0  0  0  0  0  0
    9.6648    8.5956   21.7310 C   0  0  0  0  0  0  0  0  0  0  0  0
   10.8829    1.7153   20.9865 C   0  0  0  0  0  0  0  0  0  0  0  0
    5.7768    2.8533   23.7910 C   0  0  0  0  0  0  0  0  0  0  0  0
    9.7977    1.4791   21.6912 N   0  0  0  0  0  0  0  0  0  0  0  0
    6.5976    9.3401   22.6478 N   0  0  0  0  0  0  0  0  0  0  0  0
   11.2031    3.0042   20.6246 C   0  0  0  0  0  0  0  0  0  0  0  0
   12.8688    7.7370   22.7287 C   0  0  0  0  0  0  0  0  0  0  0  0
    7.4487    9.1361   23.6506 C   0  0  0  0  0  0  0  0  0  0  0  0
    8.9772    2.5025   22.0273 C   0  0  0  0  0  0  0  0  0  0  0  0
   10.4859    4.0901   20.9730 C   0  0  0  0  0  0  0  0  0  0  0  0
   11.0962    9.3293   23.5072 C   0  0  0  0  0  0  0  0  0  0  0  0
    5.1273    7.8529   23.6208 N   0  0  0  0  0  0  0  0  0  0  0  0
    9.7552    9.2338   23.0171 N   0  0  0  0  0  0  0  0  0  0  0  0
   11.1797    6.7591   21.3326 N   0  0  0  0  0  0  0  0  0  0  0  0
   11.7728    8.0337   23.7267 C   0  0  0  0  0  0  0  0  0  0  0  0
    7.1194    8.3344   24.6775 C   0  0  0  0  0  0  0  0  0  0  0  0
    8.4311    4.7963   22.0500 C   0  0  0  0  0  0  0  0  0  0  0  0
    8.7393   10.8706   24.1871 O   0  0  0  0  0  0  0  0  0  0  0  0
    9.3093    3.8166   21.6712 C   0  0  0  0  0  0  0  0  0  0  0  0
  1  5  1  0
  1 15  4  0
  1 22  4  0
  2 20  1  0
  2 24  1  0
  3  6  4  0
  3 27  4  0
  4 22  4  0
  4 26  4  0
  6  7  4  0
  6 13  1  0
  7 19  4  0
  8 18  1  0
  8 23  1  0
  8 28  2  0
  9 17  1  0
  9 24  1  0
 10 11  1  0
 10 24  1  0
 11 23  1  0
 12 14  4  0
 12 16  4  0
 14 19  4  0
 15 18  4  0
 16 20  4  0
 17 25  1  0
 18 26  4  0
 19 29  4  0
 20 29  4  0
 21 23  1  0
 21 25  1  0
 27 29  4  0
M  END
$$$$

 Created by Python create_sdf_string function

 29 32  0  0  0  0  0  0  0  0999 V2000
    5.4450    8.7154   22.6662 C   0  0  0  0  0  0  0  0  0  0  0  0
   10.9154    5.4574   20.5483 C   0  0  0  0  0  0  0  0  0  0  0  0
    7.2709    4.5089   22.7542 C   0  0  0  0  0  0  0  0  0  0  0  0
    5.9698    7.6329   24.6581 C   0  0  0  0  0  0  0  0  0  0  0  0
    4.5542    8.9057   21.7104 O   0  0  0  0  0  0  0  0  0  0  0  0
    6.9895    3.2085   23.0690 C   0  0  0  0  0  0  0  0  0  0  0  0
    7.8391    2.2253   22.7260 N   0  0  0  0  0  0  0  0  0  0  0  0
    8.6968    9.8373   23.6359 C   0  0  0  0  0  0  0  0  0  0  0  0
   12.5135    6.5957   21.8396 C   0  0  0  0  0  0  0  0  0  0  0  0
   10.9406    8.2330   21.1350 C   0  0  0  0  0  0  0  0  0  0  0  0
    9.6648    8.5956   21.7310 C   0  0  0  0  0  0  0  0  0  0  0  0
   10.8829    1.7153   20.9865 C   0  0  0  0  0  0  0  0  0  0  0  0
    5.7768    2.8533   23.7910 C   0  0  0  0  0  0  0  0  0  0  0  0
    9.7977    1.4791   21.6912 N   0  0  0  0  0  0  0  0  0  0  0  0
    6.5976    9.3401   22.6478 N   0  0  0  0  0  0  0  0  0  0  0  0
   11.2031    3.0042   20.6246 C   0  0  0  0  0  0  0  0  0  0  0  0
   12.8688    7.7370   22.7287 C   0  0  0  0  0  0  0  0  0  0  0  0
    7.4487    9.1361   23.6506 C   0  0  0  0  0  0  0  0  0  0  0  0
    8.9772    2.5025   22.0273 C   0  0  0  0  0  0  0  0  0  0  0  0
   10.4859    4.0901   20.9730 C   0  0  0  0  0  0  0  0  0  0  0  0
   11.0962    9.3293   23.5072 C   0  0  0  0  0  0  0  0  0  0  0  0
    5.1273    7.8529   23.6208 N   0  0  0  0  0  0  0  0  0  0  0  0
    9.7552    9.2338   23.0171 N   0  0  0  0  0  0  0  0  0  0  0  0
   11.1797    6.7591   21.3326 N   0  0  0  0  0  0  0  0  0  0  0  0
   11.7728    8.0337   23.7267 C   0  0  0  0  0  0  0  0  0  0  0  0
    7.1194    8.3344   24.6775 C   0  0  0  0  0  0  0  0  0  0  0  0
    8.4311    4.7963   22.0500 C   0  0  0  0  0  0  0  0  0  0  0  0
    8.7393   10.8706   24.1871 O   0  0  0  0  0  0  0  0  0  0  0  0
    9.3093    3.8166   21.6712 C   0  0  0  0  0  0  0  0  0  0  0  0
  1  5  1  0
  1 15  4  0
  1 22  4  0
  2 20  1  0
  2 24  1  0
  3  6  4  0
  3 27  4  0
  4 22  4  0
  4 26  4  0
  6  7  4  0
  6 13  1  0
  7 19  4  0
  8 18  1  0
  8 23  1  0
  8 28  2  0
  9 17  1  0
  9 24  1  0
 10 11  1  0
 10 24  1  0
 11 23  1  0
 12 14  4  0
 12 16  4  0
 14 19  4  0
 15 18  4  0
 16 20  4  0
 17 25  1  0
 18 26  4  0
 19 29  4  0
 20 29  4  0
 21 23  1  0
 21 25  1  0
 27 29  4  0
M  END
$$$$

 Created by Python create_sdf_string function

 29 32  0  0  0  0  0  0  0  0999 V2000
    5.4450    8.7154   22.6662 C   0  0  0  0  0  0  0  0  0  0  0  0
   10.9154    5.4574   20.5483 C   0  0  0  0  0  0  0  0  0  0  0  0
    7.2709    4.5089   22.7542 C   0  0  0  0  0  0  0  0  0  0  0  0
    5.9698    7.6329   24.6581 C   0  0  0  0  0  0  0  0  0  0  0  0
    4.5542    8.9057   21.7104 O   0  0  0  0  0  0  0  0  0  0  0  0
    6.9895    3.2085   23.0690 C   0  0  0  0  0  0  0  0  0  0  0  0
    7.8391    2.2253   22.7260 N   0  0  0  0  0  0  0  0  0  0  0  0
    8.6968    9.8373   23.6359 C   0  0  0  0  0  0  0  0  0  0  0  0
   12.5135    6.5957   21.8396 C   0  0  0  0  0  0  0  0  0  0  0  0
   10.9406    8.2330   21.1350 C   0  0  0  0  0  0  0  0  0  0  0  0
    9.6648    8.5956   21.7310 C   0  0  0  0  0  0  0  0  0  0  0  0
   10.8829    1.7153   20.9865 C   0  0  0  0  0  0  0  0  0  0  0  0
    5.7768    2.8533   23.7910 C   0  0  0  0  0  0  0  0  0  0  0  0
    9.7977    1.4791   21.6912 N   0  0  0  0  0  0  0  0  0  0  0  0
    6.5976    9.3401   22.6478 N   0  0  0  0  0  0  0  0  0  0  0  0
   11.2031    3.0042   20.6246 C   0  0  0  0  0  0  0  0  0  0  0  0
   12.8688    7.7370   22.7287 C   0  0  0  0  0  0  0  0  0  0  0  0
    7.4487    9.1361   23.6506 C   0  0  0  0  0  0  0  0  0  0  0  0
    8.9772    2.5025   22.0273 C   0  0  0  0  0  0  0  0  0  0  0  0
   10.4859    4.0901   20.9730 C   0  0  0  0  0  0  0  0  0  0  0  0
   11.0962    9.3293   23.5072 C   0  0  0  0  0  0  0  0  0  0  0  0
    5.1273    7.8529   23.6208 N   0  0  0  0  0  0  0  0  0  0  0  0
    9.7552    9.2338   23.0171 N   0  0  0  0  0  0  0  0  0  0  0  0
   11.1797    6.7591   21.3326 N   0  0  0  0  0  0  0  0  0  0  0  0
   11.7728    8.0337   23.7267 C   0  0  0  0  0  0  0  0  0  0  0  0
    7.1194    8.3344   24.6775 C   0  0  0  0  0  0  0  0  0  0  0  0
    8.4311    4.7963   22.0500 C   0  0  0  0  0  0  0  0  0  0  0  0
    8.7393   10.8706   24.1871 O   0  0  0  0  0  0  0  0  0  0  0  0
    9.3093    3.8166   21.6712 C   0  0  0  0  0  0  0  0  0  0  0  0
  1  5  1  0
  1 15  4  0
  1 22  4  0
  2 20  1  0
  2 24  1  0
  3  6  4  0
  3 27  4  0
  4 22  4  0
  4 26  4  0
  6  7  4  0
  6 13  1  0
  7 19  4  0
  8 18  1  0
  8 23  1  0
  8 28  2  0
  9 17  1  0
  9 24  1  0
 10 11  1  0
 10 24  1  0
 11 23  1  0
 12 14  4  0
 12 16  4  0
 14 19  4  0
 15 18  4  0
 16 20  4  0
 17 25  1  0
 18 26  4  0
 19 29  4  0
 20 29  4  0
 21 23  1  0
 21 25  1  0
 27 29  4  0
M  END
$$$$

 Created by Python create_sdf_string function

 29 32  0  0  0  0  0  0  0  0999 V2000
    5.4450    8.7154   22.6662 C   0  0  0  0  0  0  0  0  0  0  0  0
   10.9154    5.4574   20.5483 C   0  0  0  0  0  0  0  0  0  0  0  0
    7.2709    4.5089   22.7542 C   0  0  0  0  0  0  0  0  0  0  0  0
    5.9698    7.6329   24.6581 C   0  0  0  0  0  0  0  0  0  0  0  0
    4.5542    8.9057   21.7104 O   0  0  0  0  0  0  0  0  0  0  0  0
    6.9895    3.2085   23.0690 C   0  0  0  0  0  0  0  0  0  0  0  0
    7.8391    2.2253   22.7260 N   0  0  0  0  0  0  0  0  0  0  0  0
    8.6968    9.8373   23.6359 C   0  0  0  0  0  0  0  0  0  0  0  0
   12.5135    6.5957   21.8396 C   0  0  0  0  0  0  0  0  0  0  0  0
   10.9406    8.2330   21.1350 C   0  0  0  0  0  0  0  0  0  0  0  0
    9.6648    8.5956   21.7310 C   0  0  0  0  0  0  0  0  0  0  0  0
   10.8829    1.7153   20.9865 C   0  0  0  0  0  0  0  0  0  0  0  0
    5.7768    2.8533   23.7910 C   0  0  0  0  0  0  0  0  0  0  0  0
    9.7977    1.4791   21.6912 N   0  0  0  0  0  0  0  0  0  0  0  0
    6.5976    9.3401   22.6478 N   0  0  0  0  0  0  0  0  0  0  0  0
   11.2031    3.0042   20.6246 C   0  0  0  0  0  0  0  0  0  0  0  0
   12.8688    7.7370   22.7287 C   0  0  0  0  0  0  0  0  0  0  0  0
    7.4487    9.1361   23.6506 C   0  0  0  0  0  0  0  0  0  0  0  0
    8.9772    2.5025   22.0273 C   0  0  0  0  0  0  0  0  0  0  0  0
   10.4859    4.0901   20.9730 C   0  0  0  0  0  0  0  0  0  0  0  0
   11.0962    9.3293   23.5072 C   0  0  0  0  0  0  0  0  0  0  0  0
    5.1273    7.8529   23.6208 N   0  0  0  0  0  0  0  0  0  0  0  0
    9.7552    9.2338   23.0171 N   0  0  0  0  0  0  0  0  0  0  0  0
   11.1797    6.7591   21.3326 N   0  0  0  0  0  0  0  0  0  0  0  0
   11.7728    8.0337   23.7267 C   0  0  0  0  0  0  0  0  0  0  0  0
    7.1194    8.3344   24.6775 C   0  0  0  0  0  0  0  0  0  0  0  0
    8.4311    4.7963   22.0500 C   0  0  0  0  0  0  0  0  0  0  0  0
    8.7393   10.8706   24.1871 O   0  0  0  0  0  0  0  0  0  0  0  0
    9.3093    3.8166   21.6712 C   0  0  0  0  0  0  0  0  0  0  0  0
  1  5  1  0
  1 15  4  0
  1 22  4  0
  2 20  1  0
  2 24  1  0
  3  6  4  0
  3 27  4  0
  4 22  4  0
  4 26  4  0
  6  7  4  0
  6 13  1  0
  7 19  4  0
  8 18  1  0
  8 23  1  0
  8 28  2  0
  9 17  1  0
  9 24  1  0
 10 11  1  0
 10 24  1  0
 11 23  1  0
 12 14  4  0
 12 16  4  0
 14 19  4  0
 15 18  4  0
 16 20  4  0
 17 25  1  0
 18 26  4  0
 19 29  4  0
 20 29  4  0
 21 23  1  0
 21 25  1  0
 27 29  4  0
M  END
$$$$

 Created by Python create_sdf_string function

 29 32  0  0  0  0  0  0  0  0999 V2000
    5.4450    8.7154   22.6662 C   0  0  0  0  0  0  0  0  0  0  0  0
   10.9154    5.4574   20.5483 C   0  0  0  0  0  0  0  0  0  0  0  0
    7.2709    4.5089   22.7542 C   0  0  0  0  0  0  0  0  0  0  0  0
    5.9698    7.6329   24.6581 C   0  0  0  0  0  0  0  0  0  0  0  0
    4.5542    8.9057   21.7104 O   0  0  0  0  0  0  0  0  0  0  0  0
    6.9895    3.2085   23.0690 C   0  0  0  0  0  0  0  0  0  0  0  0
    7.8391    2.2253   22.7260 N   0  0  0  0  0  0  0  0  0  0  0  0
    8.6968    9.8373   23.6359 C   0  0  0  0  0  0  0  0  0  0  0  0
   12.5135    6.5957   21.8396 C   0  0  0  0  0  0  0  0  0  0  0  0
   10.9406    8.2330   21.1350 C   0  0  0  0  0  0  0  0  0  0  0  0
    9.6648    8.5956   21.7310 C   0  0  0  0  0  0  0  0  0  0  0  0
   10.8829    1.7153   20.9865 C   0  0  0  0  0  0  0  0  0  0  0  0
    5.7768    2.8533   23.7910 C   0  0  0  0  0  0  0  0  0  0  0  0
    9.7977    1.4791   21.6912 N   0  0  0  0  0  0  0  0  0  0  0  0
    6.5976    9.3401   22.6478 N   0  0  0  0  0  0  0  0  0  0  0  0
   11.2031    3.0042   20.6246 C   0  0  0  0  0  0  0  0  0  0  0  0
   12.8688    7.7370   22.7287 C   0  0  0  0  0  0  0  0  0  0  0  0
    7.4487    9.1361   23.6506 C   0  0  0  0  0  0  0  0  0  0  0  0
    8.9772    2.5025   22.0273 C   0  0  0  0  0  0  0  0  0  0  0  0
   10.4859    4.0901   20.9730 C   0  0  0  0  0  0  0  0  0  0  0  0
   11.0962    9.3293   23.5072 C   0  0  0  0  0  0  0  0  0  0  0  0
    5.1273    7.8529   23.6208 N   0  0  0  0  0  0  0  0  0  0  0  0
    9.7552    9.2338   23.0171 N   0  0  0  0  0  0  0  0  0  0  0  0
   11.1797    6.7591   21.3326 N   0  0  0  0  0  0  0  0  0  0  0  0
   11.7728    8.0337   23.7267 C   0  0  0  0  0  0  0  0  0  0  0  0
    7.1194    8.3344   24.6775 C   0  0  0  0  0  0  0  0  0  0  0  0
    8.4311    4.7963   22.0500 C   0  0  0  0  0  0  0  0  0  0  0  0
    8.7393   10.8706   24.1871 O   0  0  0  0  0  0  0  0  0  0  0  0
    9.3093    3.8166   21.6712 C   0  0  0  0  0  0  0  0  0  0  0  0
  1  5  1  0
  1 15  4  0
  1 22  4  0
  2 20  1  0
  2 24  1  0
  3  6  4  0
  3 27  4  0
  4 22  4  0
  4 26  4  0
  6  7  4  0
  6 13  1  0
  7 19  4  0
  8 18  1  0
  8 23  1  0
  8 28  2  0
  9 17  1  0
  9 24  1  0
 10 11  1  0
 10 24  1  0
 11 23  1  0
 12 14  4  0
 12 16  4  0
 14 19  4  0
 15 18  4  0
 16 20  4  0
 17 25  1  0
 18 26  4  0
 19 29  4  0
 20 29  4  0
 21 23  1  0
 21 25  1  0
 27 29  4  0
M  END
$$$$

 Created by Python create_sdf_string function

 29 32  0  0  0  0  0  0  0  0999 V2000
    5.4450    8.7154   22.6662 C   0  0  0  0  0  0  0  0  0  0  0  0
   10.9154    5.4574   20.5483 C   0  0  0  0  0  0  0  0  0  0  0  0
    7.2709    4.5089   22.7542 C   0  0  0  0  0  0  0  0  0  0  0  0
    5.9698    7.6329   24.6581 C   0  0  0  0  0  0  0  0  0  0  0  0
    4.5542    8.9057   21.7104 O   0  0  0  0  0  0  0  0  0  0  0  0
    6.9895    3.2085   23.0690 C   0  0  0  0  0  0  0  0  0  0  0  0
    7.8391    2.2253   22.7260 N   0  0  0  0  0  0  0  0  0  0  0  0
    8.6968    9.8373   23.6359 C   0  0  0  0  0  0  0  0  0  0  0  0
   12.5135    6.5957   21.8396 C   0  0  0  0  0  0  0  0  0  0  0  0
   10.9406    8.2330   21.1350 C   0  0  0  0  0  0  0  0  0  0  0  0
    9.6648    8.5956   21.7310 C   0  0  0  0  0  0  0  0  0  0  0  0
   10.8829    1.7153   20.9865 C   0  0  0  0  0  0  0  0  0  0  0  0
    5.7768    2.8533   23.7910 C   0  0  0  0  0  0  0  0  0  0  0  0
    9.7977    1.4791   21.6912 N   0  0  0  0  0  0  0  0  0  0  0  0
    6.5976    9.3401   22.6478 N   0  0  0  0  0  0  0  0  0  0  0  0
   11.2031    3.0042   20.6246 C   0  0  0  0  0  0  0  0  0  0  0  0
   12.8688    7.7370   22.7287 C   0  0  0  0  0  0  0  0  0  0  0  0
    7.4487    9.1361   23.6506 C   0  0  0  0  0  0  0  0  0  0  0  0
    8.9772    2.5025   22.0273 C   0  0  0  0  0  0  0  0  0  0  0  0
   10.4859    4.0901   20.9730 C   0  0  0  0  0  0  0  0  0  0  0  0
   11.0962    9.3293   23.5072 C   0  0  0  0  0  0  0  0  0  0  0  0
    5.1273    7.8529   23.6208 N   0  0  0  0  0  0  0  0  0  0  0  0
    9.7552    9.2338   23.0171 N   0  0  0  0  0  0  0  0  0  0  0  0
   11.1797    6.7591   21.3326 N   0  0  0  0  0  0  0  0  0  0  0  0
   11.7728    8.0337   23.7267 C   0  0  0  0  0  0  0  0  0  0  0  0
    7.1194    8.3344   24.6775 C   0  0  0  0  0  0  0  0  0  0  0  0
    8.4311    4.7963   22.0500 C   0  0  0  0  0  0  0  0  0  0  0  0
    8.7393   10.8706   24.1871 O   0  0  0  0  0  0  0  0  0  0  0  0
    9.3093    3.8166   21.6712 C   0  0  0  0  0  0  0  0  0  0  0  0
  1  5  1  0
  1 15  4  0
  1 22  4  0
  2 20  1  0
  2 24  1  0
  3  6  4  0
  3 27  4  0
  4 22  4  0
  4 26  4  0
  6  7  4  0
  6 13  1  0
  7 19  4  0
  8 18  1  0
  8 23  1  0
  8 28  2  0
  9 17  1  0
  9 24  1  0
 10 11  1  0
 10 24  1  0
 11 23  1  0
 12 14  4  0
 12 16  4  0
 14 19  4  0
 15 18  4  0
 16 20  4  0
 17 25  1  0
 18 26  4  0
 19 29  4  0
 20 29  4  0
 21 23  1  0
 21 25  1  0
 27 29  4  0
M  END
$$$$

 Created by Python create_sdf_string function

 29 32  0  0  0  0  0  0  0  0999 V2000
    5.4450    8.7154   22.6662 C   0  0  0  0  0  0  0  0  0  0  0  0
   10.9154    5.4574   20.5483 C   0  0  0  0  0  0  0  0  0  0  0  0
    7.2709    4.5089   22.7542 C   0  0  0  0  0  0  0  0  0  0  0  0
    5.9698    7.6329   24.6581 C   0  0  0  0  0  0  0  0  0  0  0  0
    4.5542    8.9057   21.7104 O   0  0  0  0  0  0  0  0  0  0  0  0
    6.9895    3.2085   23.0690 C   0  0  0  0  0  0  0  0  0  0  0  0
    7.8391    2.2253   22.7260 N   0  0  0  0  0  0  0  0  0  0  0  0
    8.6968    9.8373   23.6359 C   0  0  0  0  0  0  0  0  0  0  0  0
   12.5135    6.5957   21.8396 C   0  0  0  0  0  0  0  0  0  0  0  0
   10.9406    8.2330   21.1350 C   0  0  0  0  0  0  0  0  0  0  0  0
    9.6648    8.5956   21.7310 C   0  0  0  0  0  0  0  0  0  0  0  0
   10.8829    1.7153   20.9865 C   0  0  0  0  0  0  0  0  0  0  0  0
    5.7768    2.8533   23.7910 C   0  0  0  0  0  0  0  0  0  0  0  0
    9.7977    1.4791   21.6912 N   0  0  0  0  0  0  0  0  0  0  0  0
    6.5976    9.3401   22.6478 N   0  0  0  0  0  0  0  0  0  0  0  0
   11.2031    3.0042   20.6246 C   0  0  0  0  0  0  0  0  0  0  0  0
   12.8688    7.7370   22.7287 C   0  0  0  0  0  0  0  0  0  0  0  0
    7.4487    9.1361   23.6506 C   0  0  0  0  0  0  0  0  0  0  0  0
    8.9772    2.5025   22.0273 C   0  0  0  0  0  0  0  0  0  0  0  0
   10.4859    4.0901   20.9730 C   0  0  0  0  0  0  0  0  0  0  0  0
   11.0962    9.3293   23.5072 C   0  0  0  0  0  0  0  0  0  0  0  0
    5.1273    7.8529   23.6208 N   0  0  0  0  0  0  0  0  0  0  0  0
    9.7552    9.2338   23.0171 N   0  0  0  0  0  0  0  0  0  0  0  0
   11.1797    6.7591   21.3326 N   0  0  0  0  0  0  0  0  0  0  0  0
   11.7728    8.0337   23.7267 C   0  0  0  0  0  0  0  0  0  0  0  0
    7.1194    8.3344   24.6775 C   0  0  0  0  0  0  0  0  0  0  0  0
    8.4311    4.7963   22.0500 C   0  0  0  0  0  0  0  0  0  0  0  0
    8.7393   10.8706   24.1871 O   0  0  0  0  0  0  0  0  0  0  0  0
    9.3093    3.8166   21.6712 C   0  0  0  0  0  0  0  0  0  0  0  0
  1  5  1  0
  1 15  4  0
  1 22  4  0
  2 20  1  0
  2 24  1  0
  3  6  4  0
  3 27  4  0
  4 22  4  0
  4 26  4  0
  6  7  4  0
  6 13  1  0
  7 19  4  0
  8 18  1  0
  8 23  1  0
  8 28  2  0
  9 17  1  0
  9 24  1  0
 10 11  1  0
 10 24  1  0
 11 23  1  0
 12 14  4  0
 12 16  4  0
 14 19  4  0
 15 18  4  0
 16 20  4  0
 17 25  1  0
 18 26  4  0
 19 29  4  0
 20 29  4  0
 21 23  1  0
 21 25  1  0
 27 29  4  0
M  END
$$$$

 Created by Python create_sdf_string function

 29 32  0  0  0  0  0  0  0  0999 V2000
    5.4450    8.7154   22.6662 C   0  0  0  0  0  0  0  0  0  0  0  0
   10.9154    5.4574   20.5483 C   0  0  0  0  0  0  0  0  0  0  0  0
    7.2709    4.5089   22.7542 C   0  0  0  0  0  0  0  0  0  0  0  0
    5.9698    7.6329   24.6581 C   0  0  0  0  0  0  0  0  0  0  0  0
    4.5542    8.9057   21.7104 O   0  0  0  0  0  0  0  0  0  0  0  0
    6.9895    3.2085   23.0690 C   0  0  0  0  0  0  0  0  0  0  0  0
    7.8391    2.2253   22.7260 N   0  0  0  0  0  0  0  0  0  0  0  0
    8.6968    9.8373   23.6359 C   0  0  0  0  0  0  0  0  0  0  0  0
   12.5135    6.5957   21.8396 C   0  0  0  0  0  0  0  0  0  0  0  0
   10.9406    8.2330   21.1350 C   0  0  0  0  0  0  0  0  0  0  0  0
    9.6648    8.5956   21.7310 C   0  0  0  0  0  0  0  0  0  0  0  0
   10.8829    1.7153   20.9865 C   0  0  0  0  0  0  0  0  0  0  0  0
    5.7768    2.8533   23.7910 C   0  0  0  0  0  0  0  0  0  0  0  0
    9.7977    1.4791   21.6912 N   0  0  0  0  0  0  0  0  0  0  0  0
    6.5976    9.3401   22.6478 N   0  0  0  0  0  0  0  0  0  0  0  0
   11.2031    3.0042   20.6246 C   0  0  0  0  0  0  0  0  0  0  0  0
   12.8688    7.7370   22.7287 C   0  0  0  0  0  0  0  0  0  0  0  0
    7.4487    9.1361   23.6506 C   0  0  0  0  0  0  0  0  0  0  0  0
    8.9772    2.5025   22.0273 C   0  0  0  0  0  0  0  0  0  0  0  0
   10.4859    4.0901   20.9730 C   0  0  0  0  0  0  0  0  0  0  0  0
   11.0962    9.3293   23.5072 C   0  0  0  0  0  0  0  0  0  0  0  0
    5.1273    7.8529   23.6208 N   0  0  0  0  0  0  0  0  0  0  0  0
    9.7552    9.2338   23.0171 N   0  0  0  0  0  0  0  0  0  0  0  0
   11.1797    6.7591   21.3326 N   0  0  0  0  0  0  0  0  0  0  0  0
   11.7728    8.0337   23.7267 C   0  0  0  0  0  0  0  0  0  0  0  0
    7.1194    8.3344   24.6775 C   0  0  0  0  0  0  0  0  0  0  0  0
    8.4311    4.7963   22.0500 C   0  0  0  0  0  0  0  0  0  0  0  0
    8.7393   10.8706   24.1871 O   0  0  0  0  0  0  0  0  0  0  0  0
    9.3093    3.8166   21.6712 C   0  0  0  0  0  0  0  0  0  0  0  0
  1  5  1  0
  1 15  4  0
  1 22  4  0
  2 20  1  0
  2 24  1  0
  3  6  4  0
  3 27  4  0
  4 22  4  0
  4 26  4  0
  6  7  4  0
  6 13  1  0
  7 19  4  0
  8 18  1  0
  8 23  1  0
  8 28  2  0
  9 17  1  0
  9 24  1  0
 10 11  1  0
 10 24  1  0
 11 23  1  0
 12 14  4  0
 12 16  4  0
 14 19  4  0
 15 18  4  0
 16 20  4  0
 17 25  1  0
 18 26  4  0
 19 29  4  0
 20 29  4  0
 21 23  1  0
 21 25  1  0
 27 29  4  0
M  END
$$$$

 Created by Python create_sdf_string function

 29 32  0  0  0  0  0  0  0  0999 V2000
    5.4450    8.7154   22.6662 C   0  0  0  0  0  0  0  0  0  0  0  0
   10.9154    5.4574   20.5483 C   0  0  0  0  0  0  0  0  0  0  0  0
    7.2709    4.5089   22.7542 C   0  0  0  0  0  0  0  0  0  0  0  0
    5.9698    7.6329   24.6581 C   0  0  0  0  0  0  0  0  0  0  0  0
    4.5542    8.9057   21.7104 O   0  0  0  0  0  0  0  0  0  0  0  0
    6.9895    3.2085   23.0690 C   0  0  0  0  0  0  0  0  0  0  0  0
    7.8391    2.2253   22.7260 N   0  0  0  0  0  0  0  0  0  0  0  0
    8.6968    9.8373   23.6359 C   0  0  0  0  0  0  0  0  0  0  0  0
   12.5135    6.5957   21.8396 C   0  0  0  0  0  0  0  0  0  0  0  0
   10.9406    8.2330   21.1350 C   0  0  0  0  0  0  0  0  0  0  0  0
    9.6648    8.5956   21.7310 C   0  0  0  0  0  0  0  0  0  0  0  0
   10.8829    1.7153   20.9865 C   0  0  0  0  0  0  0  0  0  0  0  0
    5.7768    2.8533   23.7910 C   0  0  0  0  0  0  0  0  0  0  0  0
    9.7977    1.4791   21.6912 N   0  0  0  0  0  0  0  0  0  0  0  0
    6.5976    9.3401   22.6478 N   0  0  0  0  0  0  0  0  0  0  0  0
   11.2031    3.0042   20.6246 C   0  0  0  0  0  0  0  0  0  0  0  0
   12.8688    7.7370   22.7287 C   0  0  0  0  0  0  0  0  0  0  0  0
    7.4487    9.1361   23.6506 C   0  0  0  0  0  0  0  0  0  0  0  0
    8.9772    2.5025   22.0273 C   0  0  0  0  0  0  0  0  0  0  0  0
   10.4859    4.0901   20.9730 C   0  0  0  0  0  0  0  0  0  0  0  0
   11.0962    9.3293   23.5072 C   0  0  0  0  0  0  0  0  0  0  0  0
    5.1273    7.8529   23.6208 N   0  0  0  0  0  0  0  0  0  0  0  0
    9.7552    9.2338   23.0171 N   0  0  0  0  0  0  0  0  0  0  0  0
   11.1797    6.7591   21.3326 N   0  0  0  0  0  0  0  0  0  0  0  0
   11.7728    8.0337   23.7267 C   0  0  0  0  0  0  0  0  0  0  0  0
    7.1194    8.3344   24.6775 C   0  0  0  0  0  0  0  0  0  0  0  0
    8.4311    4.7963   22.0500 C   0  0  0  0  0  0  0  0  0  0  0  0
    8.7393   10.8706   24.1871 O   0  0  0  0  0  0  0  0  0  0  0  0
    9.3093    3.8166   21.6712 C   0  0  0  0  0  0  0  0  0  0  0  0
  1  5  1  0
  1 15  4  0
  1 22  4  0
  2 20  1  0
  2 24  1  0
  3  6  4  0
  3 27  4  0
  4 22  4  0
  4 26  4  0
  6  7  4  0
  6 13  1  0
  7 19  4  0
  8 18  1  0
  8 23  1  0
  8 28  2  0
  9 17  1  0
  9 24  1  0
 10 11  1  0
 10 24  1  0
 11 23  1  0
 12 14  4  0
 12 16  4  0
 14 19  4  0
 15 18  4  0
 16 20  4  0
 17 25  1  0
 18 26  4  0
 19 29  4  0
 20 29  4  0
 21 23  1  0
 21 25  1  0
 27 29  4  0
M  END
$$$$

 Created by Python create_sdf_string function

 29 32  0  0  0  0  0  0  0  0999 V2000
    5.4450    8.7154   22.6662 C   0  0  0  0  0  0  0  0  0  0  0  0
   10.9154    5.4574   20.5483 C   0  0  0  0  0  0  0  0  0  0  0  0
    7.2709    4.5089   22.7542 C   0  0  0  0  0  0  0  0  0  0  0  0
    5.9698    7.6329   24.6581 C   0  0  0  0  0  0  0  0  0  0  0  0
    4.5542    8.9057   21.7104 O   0  0  0  0  0  0  0  0  0  0  0  0
    6.9895    3.2085   23.0690 C   0  0  0  0  0  0  0  0  0  0  0  0
    7.8391    2.2253   22.7260 N   0  0  0  0  0  0  0  0  0  0  0  0
    8.6968    9.8373   23.6359 C   0  0  0  0  0  0  0  0  0  0  0  0
   12.5135    6.5957   21.8396 C   0  0  0  0  0  0  0  0  0  0  0  0
   10.9406    8.2330   21.1350 C   0  0  0  0  0  0  0  0  0  0  0  0
    9.6648    8.5956   21.7310 C   0  0  0  0  0  0  0  0  0  0  0  0
   10.8829    1.7153   20.9865 C   0  0  0  0  0  0  0  0  0  0  0  0
    5.7768    2.8533   23.7910 C   0  0  0  0  0  0  0  0  0  0  0  0
    9.7977    1.4791   21.6912 N   0  0  0  0  0  0  0  0  0  0  0  0
    6.5976    9.3401   22.6478 N   0  0  0  0  0  0  0  0  0  0  0  0
   11.2031    3.0042   20.6246 C   0  0  0  0  0  0  0  0  0  0  0  0
   12.8688    7.7370   22.7287 C   0  0  0  0  0  0  0  0  0  0  0  0
    7.4487    9.1361   23.6506 C   0  0  0  0  0  0  0  0  0  0  0  0
    8.9772    2.5025   22.0273 C   0  0  0  0  0  0  0  0  0  0  0  0
   10.4859    4.0901   20.9730 C   0  0  0  0  0  0  0  0  0  0  0  0
   11.0962    9.3293   23.5072 C   0  0  0  0  0  0  0  0  0  0  0  0
    5.1273    7.8529   23.6208 N   0  0  0  0  0  0  0  0  0  0  0  0
    9.7552    9.2338   23.0171 N   0  0  0  0  0  0  0  0  0  0  0  0
   11.1797    6.7591   21.3326 N   0  0  0  0  0  0  0  0  0  0  0  0
   11.7728    8.0337   23.7267 C   0  0  0  0  0  0  0  0  0  0  0  0
    7.1194    8.3344   24.6775 C   0  0  0  0  0  0  0  0  0  0  0  0
    8.4311    4.7963   22.0500 C   0  0  0  0  0  0  0  0  0  0  0  0
    8.7393   10.8706   24.1871 O   0  0  0  0  0  0  0  0  0  0  0  0
    9.3093    3.8166   21.6712 C   0  0  0  0  0  0  0  0  0  0  0  0
  1  5  1  0
  1 15  4  0
  1 22  4  0
  2 20  1  0
  2 24  1  0
  3  6  4  0
  3 27  4  0
  4 22  4  0
  4 26  4  0
  6  7  4  0
  6 13  1  0
  7 19  4  0
  8 18  1  0
  8 23  1  0
  8 28  2  0
  9 17  1  0
  9 24  1  0
 10 11  1  0
 10 24  1  0
 11 23  1  0
 12 14  4  0
 12 16  4  0
 14 19  4  0
 15 18  4  0
 16 20  4  0
 17 25  1  0
 18 26  4  0
 19 29  4  0
 20 29  4  0
 21 23  1  0
 21 25  1  0
 27 29  4  0
M  END
$$$$

 Created by Python create_sdf_string function

 29 32  0  0  0  0  0  0  0  0999 V2000
    5.4450    8.7154   22.6662 C   0  0  0  0  0  0  0  0  0  0  0  0
   10.9154    5.4574   20.5483 C   0  0  0  0  0  0  0  0  0  0  0  0
    7.2709    4.5089   22.7542 C   0  0  0  0  0  0  0  0  0  0  0  0
    5.9698    7.6329   24.6581 C   0  0  0  0  0  0  0  0  0  0  0  0
    4.5542    8.9057   21.7104 O   0  0  0  0  0  0  0  0  0  0  0  0
    6.9895    3.2085   23.0690 C   0  0  0  0  0  0  0  0  0  0  0  0
    7.8391    2.2253   22.7260 N   0  0  0  0  0  0  0  0  0  0  0  0
    8.6968    9.8373   23.6359 C   0  0  0  0  0  0  0  0  0  0  0  0
   12.5135    6.5957   21.8396 C   0  0  0  0  0  0  0  0  0  0  0  0
   10.9406    8.2330   21.1350 C   0  0  0  0  0  0  0  0  0  0  0  0
    9.6648    8.5956   21.7310 C   0  0  0  0  0  0  0  0  0  0  0  0
   10.8829    1.7153   20.9865 C   0  0  0  0  0  0  0  0  0  0  0  0
    5.7768    2.8533   23.7910 C   0  0  0  0  0  0  0  0  0  0  0  0
    9.7977    1.4791   21.6912 N   0  0  0  0  0  0  0  0  0  0  0  0
    6.5976    9.3401   22.6478 N   0  0  0  0  0  0  0  0  0  0  0  0
   11.2031    3.0042   20.6246 C   0  0  0  0  0  0  0  0  0  0  0  0
   12.8688    7.7370   22.7287 C   0  0  0  0  0  0  0  0  0  0  0  0
    7.4487    9.1361   23.6506 C   0  0  0  0  0  0  0  0  0  0  0  0
    8.9772    2.5025   22.0273 C   0  0  0  0  0  0  0  0  0  0  0  0
   10.4859    4.0901   20.9730 C   0  0  0  0  0  0  0  0  0  0  0  0
   11.0962    9.3293   23.5072 C   0  0  0  0  0  0  0  0  0  0  0  0
    5.1273    7.8529   23.6208 N   0  0  0  0  0  0  0  0  0  0  0  0
    9.7552    9.2338   23.0171 N   0  0  0  0  0  0  0  0  0  0  0  0
   11.1797    6.7591   21.3326 N   0  0  0  0  0  0  0  0  0  0  0  0
   11.7728    8.0337   23.7267 C   0  0  0  0  0  0  0  0  0  0  0  0
    7.1194    8.3344   24.6775 C   0  0  0  0  0  0  0  0  0  0  0  0
    8.4311    4.7963   22.0500 C   0  0  0  0  0  0  0  0  0  0  0  0
    8.7393   10.8706   24.1871 O   0  0  0  0  0  0  0  0  0  0  0  0
    9.3093    3.8166   21.6712 C   0  0  0  0  0  0  0  0  0  0  0  0
  1  5  1  0
  1 15  4  0
  1 22  4  0
  2 20  1  0
  2 24  1  0
  3  6  4  0
  3 27  4  0
  4 22  4  0
  4 26  4  0
  6  7  4  0
  6 13  1  0
  7 19  4  0
  8 18  1  0
  8 23  1  0
  8 28  2  0
  9 17  1  0
  9 24  1  0
 10 11  1  0
 10 24  1  0
 11 23  1  0
 12 14  4  0
 12 16  4  0
 14 19  4  0
 15 18  4  0
 16 20  4  0
 17 25  1  0
 18 26  4  0
 19 29  4  0
 20 29  4  0
 21 23  1  0
 21 25  1  0
 27 29  4  0
M  END
$$$$

 Created by Python create_sdf_string function

 29 32  0  0  0  0  0  0  0  0999 V2000
    5.4450    8.7154   22.6662 C   0  0  0  0  0  0  0  0  0  0  0  0
   10.9154    5.4574   20.5483 C   0  0  0  0  0  0  0  0  0  0  0  0
    7.2709    4.5089   22.7542 C   0  0  0  0  0  0  0  0  0  0  0  0
    5.9698    7.6329   24.6581 C   0  0  0  0  0  0  0  0  0  0  0  0
    4.5542    8.9057   21.7104 O   0  0  0  0  0  0  0  0  0  0  0  0
    6.9895    3.2085   23.0690 C   0  0  0  0  0  0  0  0  0  0  0  0
    7.8391    2.2253   22.7260 N   0  0  0  0  0  0  0  0  0  0  0  0
    8.6968    9.8373   23.6359 C   0  0  0  0  0  0  0  0  0  0  0  0
   12.5135    6.5957   21.8396 C   0  0  0  0  0  0  0  0  0  0  0  0
   10.9406    8.2330   21.1350 C   0  0  0  0  0  0  0  0  0  0  0  0
    9.6648    8.5956   21.7310 C   0  0  0  0  0  0  0  0  0  0  0  0
   10.8829    1.7153   20.9865 C   0  0  0  0  0  0  0  0  0  0  0  0
    5.7768    2.8533   23.7910 C   0  0  0  0  0  0  0  0  0  0  0  0
    9.7977    1.4791   21.6912 N   0  0  0  0  0  0  0  0  0  0  0  0
    6.5976    9.3401   22.6478 N   0  0  0  0  0  0  0  0  0  0  0  0
   11.2031    3.0042   20.6246 C   0  0  0  0  0  0  0  0  0  0  0  0
   12.8688    7.7370   22.7287 C   0  0  0  0  0  0  0  0  0  0  0  0
    7.4487    9.1361   23.6506 C   0  0  0  0  0  0  0  0  0  0  0  0
    8.9772    2.5025   22.0273 C   0  0  0  0  0  0  0  0  0  0  0  0
   10.4859    4.0901   20.9730 C   0  0  0  0  0  0  0  0  0  0  0  0
   11.0962    9.3293   23.5072 C   0  0  0  0  0  0  0  0  0  0  0  0
    5.1273    7.8529   23.6208 N   0  0  0  0  0  0  0  0  0  0  0  0
    9.7552    9.2338   23.0171 N   0  0  0  0  0  0  0  0  0  0  0  0
   11.1797    6.7591   21.3326 N   0  0  0  0  0  0  0  0  0  0  0  0
   11.7728    8.0337   23.7267 C   0  0  0  0  0  0  0  0  0  0  0  0
    7.1194    8.3344   24.6775 C   0  0  0  0  0  0  0  0  0  0  0  0
    8.4311    4.7963   22.0500 C   0  0  0  0  0  0  0  0  0  0  0  0
    8.7393   10.8706   24.1871 O   0  0  0  0  0  0  0  0  0  0  0  0
    9.3093    3.8166   21.6712 C   0  0  0  0  0  0  0  0  0  0  0  0
  1  5  1  0
  1 15  4  0
  1 22  4  0
  2 20  1  0
  2 24  1  0
  3  6  4  0
  3 27  4  0
  4 22  4  0
  4 26  4  0
  6  7  4  0
  6 13  1  0
  7 19  4  0
  8 18  1  0
  8 23  1  0
  8 28  2  0
  9 17  1  0
  9 24  1  0
 10 11  1  0
 10 24  1  0
 11 23  1  0
 12 14  4  0
 12 16  4  0
 14 19  4  0
 15 18  4  0
 16 20  4  0
 17 25  1  0
 18 26  4  0
 19 29  4  0
 20 29  4  0
 21 23  1  0
 21 25  1  0
 27 29  4  0
M  END
$$$$

 Created by Python create_sdf_string function

 29 32  0  0  0  0  0  0  0  0999 V2000
    5.4450    8.7154   22.6662 C   0  0  0  0  0  0  0  0  0  0  0  0
   10.9154    5.4574   20.5483 C   0  0  0  0  0  0  0  0  0  0  0  0
    7.2709    4.5089   22.7542 C   0  0  0  0  0  0  0  0  0  0  0  0
    5.9698    7.6329   24.6581 C   0  0  0  0  0  0  0  0  0  0  0  0
    4.5542    8.9057   21.7104 O   0  0  0  0  0  0  0  0  0  0  0  0
    6.9895    3.2085   23.0690 C   0  0  0  0  0  0  0  0  0  0  0  0
    7.8391    2.2253   22.7260 N   0  0  0  0  0  0  0  0  0  0  0  0
    8.6968    9.8373   23.6359 C   0  0  0  0  0  0  0  0  0  0  0  0
   12.5135    6.5957   21.8396 C   0  0  0  0  0  0  0  0  0  0  0  0
   10.9406    8.2330   21.1350 C   0  0  0  0  0  0  0  0  0  0  0  0
    9.6648    8.5956   21.7310 C   0  0  0  0  0  0  0  0  0  0  0  0
   10.8829    1.7153   20.9865 C   0  0  0  0  0  0  0  0  0  0  0  0
    5.7768    2.8533   23.7910 C   0  0  0  0  0  0  0  0  0  0  0  0
    9.7977    1.4791   21.6912 N   0  0  0  0  0  0  0  0  0  0  0  0
    6.5976    9.3401   22.6478 N   0  0  0  0  0  0  0  0  0  0  0  0
   11.2031    3.0042   20.6246 C   0  0  0  0  0  0  0  0  0  0  0  0
   12.8688    7.7370   22.7287 C   0  0  0  0  0  0  0  0  0  0  0  0
    7.4487    9.1361   23.6506 C   0  0  0  0  0  0  0  0  0  0  0  0
    8.9772    2.5025   22.0273 C   0  0  0  0  0  0  0  0  0  0  0  0
   10.4859    4.0901   20.9730 C   0  0  0  0  0  0  0  0  0  0  0  0
   11.0962    9.3293   23.5072 C   0  0  0  0  0  0  0  0  0  0  0  0
    5.1273    7.8529   23.6208 N   0  0  0  0  0  0  0  0  0  0  0  0
    9.7552    9.2338   23.0171 N   0  0  0  0  0  0  0  0  0  0  0  0
   11.1797    6.7591   21.3326 N   0  0  0  0  0  0  0  0  0  0  0  0
   11.7728    8.0337   23.7267 C   0  0  0  0  0  0  0  0  0  0  0  0
    7.1194    8.3344   24.6775 C   0  0  0  0  0  0  0  0  0  0  0  0
    8.4311    4.7963   22.0500 C   0  0  0  0  0  0  0  0  0  0  0  0
    8.7393   10.8706   24.1871 O   0  0  0  0  0  0  0  0  0  0  0  0
    9.3093    3.8166   21.6712 C   0  0  0  0  0  0  0  0  0  0  0  0
  1  5  1  0
  1 15  4  0
  1 22  4  0
  2 20  1  0
  2 24  1  0
  3  6  4  0
  3 27  4  0
  4 22  4  0
  4 26  4  0
  6  7  4  0
  6 13  1  0
  7 19  4  0
  8 18  1  0
  8 23  1  0
  8 28  2  0
  9 17  1  0
  9 24  1  0
 10 11  1  0
 10 24  1  0
 11 23  1  0
 12 14  4  0
 12 16  4  0
 14 19  4  0
 15 18  4  0
 16 20  4  0
 17 25  1  0
 18 26  4  0
 19 29  4  0
 20 29  4  0
 21 23  1  0
 21 25  1  0
 27 29  4  0
M  END
$$$$

 Created by Python create_sdf_string function

 29 32  0  0  0  0  0  0  0  0999 V2000
    5.4450    8.7154   22.6662 C   0  0  0  0  0  0  0  0  0  0  0  0
   10.9154    5.4574   20.5483 C   0  0  0  0  0  0  0  0  0  0  0  0
    7.2709    4.5089   22.7542 C   0  0  0  0  0  0  0  0  0  0  0  0
    5.9698    7.6329   24.6581 C   0  0  0  0  0  0  0  0  0  0  0  0
    4.5542    8.9057   21.7104 O   0  0  0  0  0  0  0  0  0  0  0  0
    6.9895    3.2085   23.0690 C   0  0  0  0  0  0  0  0  0  0  0  0
    7.8391    2.2253   22.7260 N   0  0  0  0  0  0  0  0  0  0  0  0
    8.6968    9.8373   23.6359 C   0  0  0  0  0  0  0  0  0  0  0  0
   12.5135    6.5957   21.8396 C   0  0  0  0  0  0  0  0  0  0  0  0
   10.9406    8.2330   21.1350 C   0  0  0  0  0  0  0  0  0  0  0  0
    9.6648    8.5956   21.7310 C   0  0  0  0  0  0  0  0  0  0  0  0
   10.8829    1.7153   20.9865 C   0  0  0  0  0  0  0  0  0  0  0  0
    5.7768    2.8533   23.7910 C   0  0  0  0  0  0  0  0  0  0  0  0
    9.7977    1.4791   21.6912 N   0  0  0  0  0  0  0  0  0  0  0  0
    6.5976    9.3401   22.6478 N   0  0  0  0  0  0  0  0  0  0  0  0
   11.2031    3.0042   20.6246 C   0  0  0  0  0  0  0  0  0  0  0  0
   12.8688    7.7370   22.7287 C   0  0  0  0  0  0  0  0  0  0  0  0
    7.4487    9.1361   23.6506 C   0  0  0  0  0  0  0  0  0  0  0  0
    8.9772    2.5025   22.0273 C   0  0  0  0  0  0  0  0  0  0  0  0
   10.4859    4.0901   20.9730 C   0  0  0  0  0  0  0  0  0  0  0  0
   11.0962    9.3293   23.5072 C   0  0  0  0  0  0  0  0  0  0  0  0
    5.1273    7.8529   23.6208 N   0  0  0  0  0  0  0  0  0  0  0  0
    9.7552    9.2338   23.0171 N   0  0  0  0  0  0  0  0  0  0  0  0
   11.1797    6.7591   21.3326 N   0  0  0  0  0  0  0  0  0  0  0  0
   11.7728    8.0337   23.7267 C   0  0  0  0  0  0  0  0  0  0  0  0
    7.1194    8.3344   24.6775 C   0  0  0  0  0  0  0  0  0  0  0  0
    8.4311    4.7963   22.0500 C   0  0  0  0  0  0  0  0  0  0  0  0
    8.7393   10.8706   24.1871 O   0  0  0  0  0  0  0  0  0  0  0  0
    9.3093    3.8166   21.6712 C   0  0  0  0  0  0  0  0  0  0  0  0
  1  5  1  0
  1 15  4  0
  1 22  4  0
  2 20  1  0
  2 24  1  0
  3  6  4  0
  3 27  4  0
  4 22  4  0
  4 26  4  0
  6  7  4  0
  6 13  1  0
  7 19  4  0
  8 18  1  0
  8 23  1  0
  8 28  2  0
  9 17  1  0
  9 24  1  0
 10 11  1  0
 10 24  1  0
 11 23  1  0
 12 14  4  0
 12 16  4  0
 14 19  4  0
 15 18  4  0
 16 20  4  0
 17 25  1  0
 18 26  4  0
 19 29  4  0
 20 29  4  0
 21 23  1  0
 21 25  1  0
 27 29  4  0
M  END
$$$$

 Created by Python create_sdf_string function

 29 32  0  0  0  0  0  0  0  0999 V2000
    5.4450    8.7154   22.6662 C   0  0  0  0  0  0  0  0  0  0  0  0
   10.9154    5.4574   20.5483 C   0  0  0  0  0  0  0  0  0  0  0  0
    7.2709    4.5089   22.7542 C   0  0  0  0  0  0  0  0  0  0  0  0
    5.9698    7.6329   24.6581 C   0  0  0  0  0  0  0  0  0  0  0  0
    4.5542    8.9057   21.7104 O   0  0  0  0  0  0  0  0  0  0  0  0
    6.9895    3.2085   23.0690 C   0  0  0  0  0  0  0  0  0  0  0  0
    7.8391    2.2253   22.7260 N   0  0  0  0  0  0  0  0  0  0  0  0
    8.6968    9.8373   23.6359 C   0  0  0  0  0  0  0  0  0  0  0  0
   12.5135    6.5957   21.8396 C   0  0  0  0  0  0  0  0  0  0  0  0
   10.9406    8.2330   21.1350 C   0  0  0  0  0  0  0  0  0  0  0  0
    9.6648    8.5956   21.7310 C   0  0  0  0  0  0  0  0  0  0  0  0
   10.8829    1.7153   20.9865 C   0  0  0  0  0  0  0  0  0  0  0  0
    5.7768    2.8533   23.7910 C   0  0  0  0  0  0  0  0  0  0  0  0
    9.7977    1.4791   21.6912 N   0  0  0  0  0  0  0  0  0  0  0  0
    6.5976    9.3401   22.6478 N   0  0  0  0  0  0  0  0  0  0  0  0
   11.2031    3.0042   20.6246 C   0  0  0  0  0  0  0  0  0  0  0  0
   12.8688    7.7370   22.7287 C   0  0  0  0  0  0  0  0  0  0  0  0
    7.4487    9.1361   23.6506 C   0  0  0  0  0  0  0  0  0  0  0  0
    8.9772    2.5025   22.0273 C   0  0  0  0  0  0  0  0  0  0  0  0
   10.4859    4.0901   20.9730 C   0  0  0  0  0  0  0  0  0  0  0  0
   11.0962    9.3293   23.5072 C   0  0  0  0  0  0  0  0  0  0  0  0
    5.1273    7.8529   23.6208 N   0  0  0  0  0  0  0  0  0  0  0  0
    9.7552    9.2338   23.0171 N   0  0  0  0  0  0  0  0  0  0  0  0
   11.1797    6.7591   21.3326 N   0  0  0  0  0  0  0  0  0  0  0  0
   11.7728    8.0337   23.7267 C   0  0  0  0  0  0  0  0  0  0  0  0
    7.1194    8.3344   24.6775 C   0  0  0  0  0  0  0  0  0  0  0  0
    8.4311    4.7963   22.0500 C   0  0  0  0  0  0  0  0  0  0  0  0
    8.7393   10.8706   24.1871 O   0  0  0  0  0  0  0  0  0  0  0  0
    9.3093    3.8166   21.6712 C   0  0  0  0  0  0  0  0  0  0  0  0
  1  5  1  0
  1 15  4  0
  1 22  4  0
  2 20  1  0
  2 24  1  0
  3  6  4  0
  3 27  4  0
  4 22  4  0
  4 26  4  0
  6  7  4  0
  6 13  1  0
  7 19  4  0
  8 18  1  0
  8 23  1  0
  8 28  2  0
  9 17  1  0
  9 24  1  0
 10 11  1  0
 10 24  1  0
 11 23  1  0
 12 14  4  0
 12 16  4  0
 14 19  4  0
 15 18  4  0
 16 20  4  0
 17 25  1  0
 18 26  4  0
 19 29  4  0
 20 29  4  0
 21 23  1  0
 21 25  1  0
 27 29  4  0
M  END
$$$$

 Created by Python create_sdf_string function

 29 32  0  0  0  0  0  0  0  0999 V2000
    5.4450    8.7154   22.6662 C   0  0  0  0  0  0  0  0  0  0  0  0
   10.9154    5.4574   20.5483 C   0  0  0  0  0  0  0  0  0  0  0  0
    7.2709    4.5089   22.7542 C   0  0  0  0  0  0  0  0  0  0  0  0
    5.9698    7.6329   24.6581 C   0  0  0  0  0  0  0  0  0  0  0  0
    4.5542    8.9057   21.7104 O   0  0  0  0  0  0  0  0  0  0  0  0
    6.9895    3.2085   23.0690 C   0  0  0  0  0  0  0  0  0  0  0  0
    7.8391    2.2253   22.7260 N   0  0  0  0  0  0  0  0  0  0  0  0
    8.6968    9.8373   23.6359 C   0  0  0  0  0  0  0  0  0  0  0  0
   12.5135    6.5957   21.8396 C   0  0  0  0  0  0  0  0  0  0  0  0
   10.9406    8.2330   21.1350 C   0  0  0  0  0  0  0  0  0  0  0  0
    9.6648    8.5956   21.7310 C   0  0  0  0  0  0  0  0  0  0  0  0
   10.8829    1.7153   20.9865 C   0  0  0  0  0  0  0  0  0  0  0  0
    5.7768    2.8533   23.7910 C   0  0  0  0  0  0  0  0  0  0  0  0
    9.7977    1.4791   21.6912 N   0  0  0  0  0  0  0  0  0  0  0  0
    6.5976    9.3401   22.6478 N   0  0  0  0  0  0  0  0  0  0  0  0
   11.2031    3.0042   20.6246 C   0  0  0  0  0  0  0  0  0  0  0  0
   12.8688    7.7370   22.7287 C   0  0  0  0  0  0  0  0  0  0  0  0
    7.4487    9.1361   23.6506 C   0  0  0  0  0  0  0  0  0  0  0  0
    8.9772    2.5025   22.0273 C   0  0  0  0  0  0  0  0  0  0  0  0
   10.4859    4.0901   20.9730 C   0  0  0  0  0  0  0  0  0  0  0  0
   11.0962    9.3293   23.5072 C   0  0  0  0  0  0  0  0  0  0  0  0
    5.1273    7.8529   23.6208 N   0  0  0  0  0  0  0  0  0  0  0  0
    9.7552    9.2338   23.0171 N   0  0  0  0  0  0  0  0  0  0  0  0
   11.1797    6.7591   21.3326 N   0  0  0  0  0  0  0  0  0  0  0  0
   11.7728    8.0337   23.7267 C   0  0  0  0  0  0  0  0  0  0  0  0
    7.1194    8.3344   24.6775 C   0  0  0  0  0  0  0  0  0  0  0  0
    8.4311    4.7963   22.0500 C   0  0  0  0  0  0  0  0  0  0  0  0
    8.7393   10.8706   24.1871 O   0  0  0  0  0  0  0  0  0  0  0  0
    9.3093    3.8166   21.6712 C   0  0  0  0  0  0  0  0  0  0  0  0
  1  5  1  0
  1 15  4  0
  1 22  4  0
  2 20  1  0
  2 24  1  0
  3  6  4  0
  3 27  4  0
  4 22  4  0
  4 26  4  0
  6  7  4  0
  6 13  1  0
  7 19  4  0
  8 18  1  0
  8 23  1  0
  8 28  2  0
  9 17  1  0
  9 24  1  0
 10 11  1  0
 10 24  1  0
 11 23  1  0
 12 14  4  0
 12 16  4  0
 14 19  4  0
 15 18  4  0
 16 20  4  0
 17 25  1  0
 18 26  4  0
 19 29  4  0
 20 29  4  0
 21 23  1  0
 21 25  1  0
 27 29  4  0
M  END
$$$$

 Created by Python create_sdf_string function

 29 32  0  0  0  0  0  0  0  0999 V2000
    5.4450    8.7154   22.6662 C   0  0  0  0  0  0  0  0  0  0  0  0
   10.9154    5.4574   20.5483 C   0  0  0  0  0  0  0  0  0  0  0  0
    7.2709    4.5089   22.7542 C   0  0  0  0  0  0  0  0  0  0  0  0
    5.9698    7.6329   24.6581 C   0  0  0  0  0  0  0  0  0  0  0  0
    4.5542    8.9057   21.7104 O   0  0  0  0  0  0  0  0  0  0  0  0
    6.9895    3.2085   23.0690 C   0  0  0  0  0  0  0  0  0  0  0  0
    7.8391    2.2253   22.7260 N   0  0  0  0  0  0  0  0  0  0  0  0
    8.6968    9.8373   23.6359 C   0  0  0  0  0  0  0  0  0  0  0  0
   12.5135    6.5957   21.8396 C   0  0  0  0  0  0  0  0  0  0  0  0
   10.9406    8.2330   21.1350 C   0  0  0  0  0  0  0  0  0  0  0  0
    9.6648    8.5956   21.7310 C   0  0  0  0  0  0  0  0  0  0  0  0
   10.8829    1.7153   20.9865 C   0  0  0  0  0  0  0  0  0  0  0  0
    5.7768    2.8533   23.7910 C   0  0  0  0  0  0  0  0  0  0  0  0
    9.7977    1.4791   21.6912 N   0  0  0  0  0  0  0  0  0  0  0  0
    6.5976    9.3401   22.6478 N   0  0  0  0  0  0  0  0  0  0  0  0
   11.2031    3.0042   20.6246 C   0  0  0  0  0  0  0  0  0  0  0  0
   12.8688    7.7370   22.7287 C   0  0  0  0  0  0  0  0  0  0  0  0
    7.4487    9.1361   23.6506 C   0  0  0  0  0  0  0  0  0  0  0  0
    8.9772    2.5025   22.0273 C   0  0  0  0  0  0  0  0  0  0  0  0
   10.4859    4.0901   20.9730 C   0  0  0  0  0  0  0  0  0  0  0  0
   11.0962    9.3293   23.5072 C   0  0  0  0  0  0  0  0  0  0  0  0
    5.1273    7.8529   23.6208 N   0  0  0  0  0  0  0  0  0  0  0  0
    9.7552    9.2338   23.0171 N   0  0  0  0  0  0  0  0  0  0  0  0
   11.1797    6.7591   21.3326 N   0  0  0  0  0  0  0  0  0  0  0  0
   11.7728    8.0337   23.7267 C   0  0  0  0  0  0  0  0  0  0  0  0
    7.1194    8.3344   24.6775 C   0  0  0  0  0  0  0  0  0  0  0  0
    8.4311    4.7963   22.0500 C   0  0  0  0  0  0  0  0  0  0  0  0
    8.7393   10.8706   24.1871 O   0  0  0  0  0  0  0  0  0  0  0  0
    9.3093    3.8166   21.6712 C   0  0  0  0  0  0  0  0  0  0  0  0
  1  5  1  0
  1 15  4  0
  1 22  4  0
  2 20  1  0
  2 24  1  0
  3  6  4  0
  3 27  4  0
  4 22  4  0
  4 26  4  0
  6  7  4  0
  6 13  1  0
  7 19  4  0
  8 18  1  0
  8 23  1  0
  8 28  2  0
  9 17  1  0
  9 24  1  0
 10 11  1  0
 10 24  1  0
 11 23  1  0
 12 14  4  0
 12 16  4  0
 14 19  4  0
 15 18  4  0
 16 20  4  0
 17 25  1  0
 18 26  4  0
 19 29  4  0
 20 29  4  0
 21 23  1  0
 21 25  1  0
 27 29  4  0
M  END
$$$$

 Created by Python create_sdf_string function

 29 32  0  0  0  0  0  0  0  0999 V2000
    5.4450    8.7154   22.6662 C   0  0  0  0  0  0  0  0  0  0  0  0
   10.9154    5.4574   20.5483 C   0  0  0  0  0  0  0  0  0  0  0  0
    7.2709    4.5089   22.7542 C   0  0  0  0  0  0  0  0  0  0  0  0
    5.9698    7.6329   24.6581 C   0  0  0  0  0  0  0  0  0  0  0  0
    4.5542    8.9057   21.7104 O   0  0  0  0  0  0  0  0  0  0  0  0
    6.9895    3.2085   23.0690 C   0  0  0  0  0  0  0  0  0  0  0  0
    7.8391    2.2253   22.7260 N   0  0  0  0  0  0  0  0  0  0  0  0
    8.6968    9.8373   23.6359 C   0  0  0  0  0  0  0  0  0  0  0  0
   12.5135    6.5957   21.8396 C   0  0  0  0  0  0  0  0  0  0  0  0
   10.9406    8.2330   21.1350 C   0  0  0  0  0  0  0  0  0  0  0  0
    9.6648    8.5956   21.7310 C   0  0  0  0  0  0  0  0  0  0  0  0
   10.8829    1.7153   20.9865 C   0  0  0  0  0  0  0  0  0  0  0  0
    5.7768    2.8533   23.7910 C   0  0  0  0  0  0  0  0  0  0  0  0
    9.7977    1.4791   21.6912 N   0  0  0  0  0  0  0  0  0  0  0  0
    6.5976    9.3401   22.6478 N   0  0  0  0  0  0  0  0  0  0  0  0
   11.2031    3.0042   20.6246 C   0  0  0  0  0  0  0  0  0  0  0  0
   12.8688    7.7370   22.7287 C   0  0  0  0  0  0  0  0  0  0  0  0
    7.4487    9.1361   23.6506 C   0  0  0  0  0  0  0  0  0  0  0  0
    8.9772    2.5025   22.0273 C   0  0  0  0  0  0  0  0  0  0  0  0
   10.4859    4.0901   20.9730 C   0  0  0  0  0  0  0  0  0  0  0  0
   11.0962    9.3293   23.5072 C   0  0  0  0  0  0  0  0  0  0  0  0
    5.1273    7.8529   23.6208 N   0  0  0  0  0  0  0  0  0  0  0  0
    9.7552    9.2338   23.0171 N   0  0  0  0  0  0  0  0  0  0  0  0
   11.1797    6.7591   21.3326 N   0  0  0  0  0  0  0  0  0  0  0  0
   11.7728    8.0337   23.7267 C   0  0  0  0  0  0  0  0  0  0  0  0
    7.1194    8.3344   24.6775 C   0  0  0  0  0  0  0  0  0  0  0  0
    8.4311    4.7963   22.0500 C   0  0  0  0  0  0  0  0  0  0  0  0
    8.7393   10.8706   24.1871 O   0  0  0  0  0  0  0  0  0  0  0  0
    9.3093    3.8166   21.6712 C   0  0  0  0  0  0  0  0  0  0  0  0
  1  5  1  0
  1 15  4  0
  1 22  4  0
  2 20  1  0
  2 24  1  0
  3  6  4  0
  3 27  4  0
  4 22  4  0
  4 26  4  0
  6  7  4  0
  6 13  1  0
  7 19  4  0
  8 18  1  0
  8 23  1  0
  8 28  2  0
  9 17  1  0
  9 24  1  0
 10 11  1  0
 10 24  1  0
 11 23  1  0
 12 14  4  0
 12 16  4  0
 14 19  4  0
 15 18  4  0
 16 20  4  0
 17 25  1  0
 18 26  4  0
 19 29  4  0
 20 29  4  0
 21 23  1  0
 21 25  1  0
 27 29  4  0
M  END
$$$$

 Created by Python create_sdf_string function

 29 32  0  0  0  0  0  0  0  0999 V2000
    5.4450    8.7154   22.6662 C   0  0  0  0  0  0  0  0  0  0  0  0
   10.9154    5.4574   20.5483 C   0  0  0  0  0  0  0  0  0  0  0  0
    7.2709    4.5089   22.7542 C   0  0  0  0  0  0  0  0  0  0  0  0
    5.9698    7.6329   24.6581 C   0  0  0  0  0  0  0  0  0  0  0  0
    4.5542    8.9057   21.7104 O   0  0  0  0  0  0  0  0  0  0  0  0
    6.9895    3.2085   23.0690 C   0  0  0  0  0  0  0  0  0  0  0  0
    7.8391    2.2253   22.7260 N   0  0  0  0  0  0  0  0  0  0  0  0
    8.6968    9.8373   23.6359 C   0  0  0  0  0  0  0  0  0  0  0  0
   12.5135    6.5957   21.8396 C   0  0  0  0  0  0  0  0  0  0  0  0
   10.9406    8.2330   21.1350 C   0  0  0  0  0  0  0  0  0  0  0  0
    9.6648    8.5956   21.7310 C   0  0  0  0  0  0  0  0  0  0  0  0
   10.8829    1.7153   20.9865 C   0  0  0  0  0  0  0  0  0  0  0  0
    5.7768    2.8533   23.7910 C   0  0  0  0  0  0  0  0  0  0  0  0
    9.7977    1.4791   21.6912 N   0  0  0  0  0  0  0  0  0  0  0  0
    6.5976    9.3401   22.6478 N   0  0  0  0  0  0  0  0  0  0  0  0
   11.2031    3.0042   20.6246 C   0  0  0  0  0  0  0  0  0  0  0  0
   12.8688    7.7370   22.7287 C   0  0  0  0  0  0  0  0  0  0  0  0
    7.4487    9.1361   23.6506 C   0  0  0  0  0  0  0  0  0  0  0  0
    8.9772    2.5025   22.0273 C   0  0  0  0  0  0  0  0  0  0  0  0
   10.4859    4.0901   20.9730 C   0  0  0  0  0  0  0  0  0  0  0  0
   11.0962    9.3293   23.5072 C   0  0  0  0  0  0  0  0  0  0  0  0
    5.1273    7.8529   23.6208 N   0  0  0  0  0  0  0  0  0  0  0  0
    9.7552    9.2338   23.0171 N   0  0  0  0  0  0  0  0  0  0  0  0
   11.1797    6.7591   21.3326 N   0  0  0  0  0  0  0  0  0  0  0  0
   11.7728    8.0337   23.7267 C   0  0  0  0  0  0  0  0  0  0  0  0
    7.1194    8.3344   24.6775 C   0  0  0  0  0  0  0  0  0  0  0  0
    8.4311    4.7963   22.0500 C   0  0  0  0  0  0  0  0  0  0  0  0
    8.7393   10.8706   24.1871 O   0  0  0  0  0  0  0  0  0  0  0  0
    9.3093    3.8166   21.6712 C   0  0  0  0  0  0  0  0  0  0  0  0
  1  5  1  0
  1 15  4  0
  1 22  4  0
  2 20  1  0
  2 24  1  0
  3  6  4  0
  3 27  4  0
  4 22  4  0
  4 26  4  0
  6  7  4  0
  6 13  1  0
  7 19  4  0
  8 18  1  0
  8 23  1  0
  8 28  2  0
  9 17  1  0
  9 24  1  0
 10 11  1  0
 10 24  1  0
 11 23  1  0
 12 14  4  0
 12 16  4  0
 14 19  4  0
 15 18  4  0
 16 20  4  0
 17 25  1  0
 18 26  4  0
 19 29  4  0
 20 29  4  0
 21 23  1  0
 21 25  1  0
 27 29  4  0
M  END
$$$$

 Created by Python create_sdf_string function

 29 32  0  0  0  0  0  0  0  0999 V2000
    5.4450    8.7154   22.6662 C   0  0  0  0  0  0  0  0  0  0  0  0
   10.9154    5.4574   20.5483 C   0  0  0  0  0  0  0  0  0  0  0  0
    7.2709    4.5089   22.7542 C   0  0  0  0  0  0  0  0  0  0  0  0
    5.9698    7.6329   24.6581 C   0  0  0  0  0  0  0  0  0  0  0  0
    4.5542    8.9057   21.7104 O   0  0  0  0  0  0  0  0  0  0  0  0
    6.9895    3.2085   23.0690 C   0  0  0  0  0  0  0  0  0  0  0  0
    7.8391    2.2253   22.7260 N   0  0  0  0  0  0  0  0  0  0  0  0
    8.6968    9.8373   23.6359 C   0  0  0  0  0  0  0  0  0  0  0  0
   12.5135    6.5957   21.8396 C   0  0  0  0  0  0  0  0  0  0  0  0
   10.9406    8.2330   21.1350 C   0  0  0  0  0  0  0  0  0  0  0  0
    9.6648    8.5956   21.7310 C   0  0  0  0  0  0  0  0  0  0  0  0
   10.8829    1.7153   20.9865 C   0  0  0  0  0  0  0  0  0  0  0  0
    5.7768    2.8533   23.7910 C   0  0  0  0  0  0  0  0  0  0  0  0
    9.7977    1.4791   21.6912 N   0  0  0  0  0  0  0  0  0  0  0  0
    6.5976    9.3401   22.6478 N   0  0  0  0  0  0  0  0  0  0  0  0
   11.2031    3.0042   20.6246 C   0  0  0  0  0  0  0  0  0  0  0  0
   12.8688    7.7370   22.7287 C   0  0  0  0  0  0  0  0  0  0  0  0
    7.4487    9.1361   23.6506 C   0  0  0  0  0  0  0  0  0  0  0  0
    8.9772    2.5025   22.0273 C   0  0  0  0  0  0  0  0  0  0  0  0
   10.4859    4.0901   20.9730 C   0  0  0  0  0  0  0  0  0  0  0  0
   11.0962    9.3293   23.5072 C   0  0  0  0  0  0  0  0  0  0  0  0
    5.1273    7.8529   23.6208 N   0  0  0  0  0  0  0  0  0  0  0  0
    9.7552    9.2338   23.0171 N   0  0  0  0  0  0  0  0  0  0  0  0
   11.1797    6.7591   21.3326 N   0  0  0  0  0  0  0  0  0  0  0  0
   11.7728    8.0337   23.7267 C   0  0  0  0  0  0  0  0  0  0  0  0
    7.1194    8.3344   24.6775 C   0  0  0  0  0  0  0  0  0  0  0  0
    8.4311    4.7963   22.0500 C   0  0  0  0  0  0  0  0  0  0  0  0
    8.7393   10.8706   24.1871 O   0  0  0  0  0  0  0  0  0  0  0  0
    9.3093    3.8166   21.6712 C   0  0  0  0  0  0  0  0  0  0  0  0
  1  5  1  0
  1 15  4  0
  1 22  4  0
  2 20  1  0
  2 24  1  0
  3  6  4  0
  3 27  4  0
  4 22  4  0
  4 26  4  0
  6  7  4  0
  6 13  1  0
  7 19  4  0
  8 18  1  0
  8 23  1  0
  8 28  2  0
  9 17  1  0
  9 24  1  0
 10 11  1  0
 10 24  1  0
 11 23  1  0
 12 14  4  0
 12 16  4  0
 14 19  4  0
 15 18  4  0
 16 20  4  0
 17 25  1  0
 18 26  4  0
 19 29  4  0
 20 29  4  0
 21 23  1  0
 21 25  1  0
 27 29  4  0
M  END
$$$$

 Created by Python create_sdf_string function

 29 32  0  0  0  0  0  0  0  0999 V2000
    5.4450    8.7154   22.6662 C   0  0  0  0  0  0  0  0  0  0  0  0
   10.9154    5.4574   20.5483 C   0  0  0  0  0  0  0  0  0  0  0  0
    7.2709    4.5089   22.7542 C   0  0  0  0  0  0  0  0  0  0  0  0
    5.9698    7.6329   24.6581 C   0  0  0  0  0  0  0  0  0  0  0  0
    4.5542    8.9057   21.7104 O   0  0  0  0  0  0  0  0  0  0  0  0
    6.9895    3.2085   23.0690 C   0  0  0  0  0  0  0  0  0  0  0  0
    7.8391    2.2253   22.7260 N   0  0  0  0  0  0  0  0  0  0  0  0
    8.6968    9.8373   23.6359 C   0  0  0  0  0  0  0  0  0  0  0  0
   12.5135    6.5957   21.8396 C   0  0  0  0  0  0  0  0  0  0  0  0
   10.9406    8.2330   21.1350 C   0  0  0  0  0  0  0  0  0  0  0  0
    9.6648    8.5956   21.7310 C   0  0  0  0  0  0  0  0  0  0  0  0
   10.8829    1.7153   20.9865 C   0  0  0  0  0  0  0  0  0  0  0  0
    5.7768    2.8533   23.7910 C   0  0  0  0  0  0  0  0  0  0  0  0
    9.7977    1.4791   21.6912 N   0  0  0  0  0  0  0  0  0  0  0  0
    6.5976    9.3401   22.6478 N   0  0  0  0  0  0  0  0  0  0  0  0
   11.2031    3.0042   20.6246 C   0  0  0  0  0  0  0  0  0  0  0  0
   12.8688    7.7370   22.7287 C   0  0  0  0  0  0  0  0  0  0  0  0
    7.4487    9.1361   23.6506 C   0  0  0  0  0  0  0  0  0  0  0  0
    8.9772    2.5025   22.0273 C   0  0  0  0  0  0  0  0  0  0  0  0
   10.4859    4.0901   20.9730 C   0  0  0  0  0  0  0  0  0  0  0  0
   11.0962    9.3293   23.5072 C   0  0  0  0  0  0  0  0  0  0  0  0
    5.1273    7.8529   23.6208 N   0  0  0  0  0  0  0  0  0  0  0  0
    9.7552    9.2338   23.0171 N   0  0  0  0  0  0  0  0  0  0  0  0
   11.1797    6.7591   21.3326 N   0  0  0  0  0  0  0  0  0  0  0  0
   11.7728    8.0337   23.7267 C   0  0  0  0  0  0  0  0  0  0  0  0
    7.1194    8.3344   24.6775 C   0  0  0  0  0  0  0  0  0  0  0  0
    8.4311    4.7963   22.0500 C   0  0  0  0  0  0  0  0  0  0  0  0
    8.7393   10.8706   24.1871 O   0  0  0  0  0  0  0  0  0  0  0  0
    9.3093    3.8166   21.6712 C   0  0  0  0  0  0  0  0  0  0  0  0
  1  5  1  0
  1 15  4  0
  1 22  4  0
  2 20  1  0
  2 24  1  0
  3  6  4  0
  3 27  4  0
  4 22  4  0
  4 26  4  0
  6  7  4  0
  6 13  1  0
  7 19  4  0
  8 18  1  0
  8 23  1  0
  8 28  2  0
  9 17  1  0
  9 24  1  0
 10 11  1  0
 10 24  1  0
 11 23  1  0
 12 14  4  0
 12 16  4  0
 14 19  4  0
 15 18  4  0
 16 20  4  0
 17 25  1  0
 18 26  4  0
 19 29  4  0
 20 29  4  0
 21 23  1  0
 21 25  1  0
 27 29  4  0
M  END
$$$$

 Created by Python create_sdf_string function

 29 32  0  0  0  0  0  0  0  0999 V2000
    5.4450    8.7154   22.6662 C   0  0  0  0  0  0  0  0  0  0  0  0
   10.9154    5.4574   20.5483 C   0  0  0  0  0  0  0  0  0  0  0  0
    7.2709    4.5089   22.7542 C   0  0  0  0  0  0  0  0  0  0  0  0
    5.9698    7.6329   24.6581 C   0  0  0  0  0  0  0  0  0  0  0  0
    4.5542    8.9057   21.7104 O   0  0  0  0  0  0  0  0  0  0  0  0
    6.9895    3.2085   23.0690 C   0  0  0  0  0  0  0  0  0  0  0  0
    7.8391    2.2253   22.7260 N   0  0  0  0  0  0  0  0  0  0  0  0
    8.6968    9.8373   23.6359 C   0  0  0  0  0  0  0  0  0  0  0  0
   12.5135    6.5957   21.8396 C   0  0  0  0  0  0  0  0  0  0  0  0
   10.9406    8.2330   21.1350 C   0  0  0  0  0  0  0  0  0  0  0  0
    9.6648    8.5956   21.7310 C   0  0  0  0  0  0  0  0  0  0  0  0
   10.8829    1.7153   20.9865 C   0  0  0  0  0  0  0  0  0  0  0  0
    5.7768    2.8533   23.7910 C   0  0  0  0  0  0  0  0  0  0  0  0
    9.7977    1.4791   21.6912 N   0  0  0  0  0  0  0  0  0  0  0  0
    6.5976    9.3401   22.6478 N   0  0  0  0  0  0  0  0  0  0  0  0
   11.2031    3.0042   20.6246 C   0  0  0  0  0  0  0  0  0  0  0  0
   12.8688    7.7370   22.7287 C   0  0  0  0  0  0  0  0  0  0  0  0
    7.4487    9.1361   23.6506 C   0  0  0  0  0  0  0  0  0  0  0  0
    8.9772    2.5025   22.0273 C   0  0  0  0  0  0  0  0  0  0  0  0
   10.4859    4.0901   20.9730 C   0  0  0  0  0  0  0  0  0  0  0  0
   11.0962    9.3293   23.5072 C   0  0  0  0  0  0  0  0  0  0  0  0
    5.1273    7.8529   23.6208 N   0  0  0  0  0  0  0  0  0  0  0  0
    9.7552    9.2338   23.0171 N   0  0  0  0  0  0  0  0  0  0  0  0
   11.1797    6.7591   21.3326 N   0  0  0  0  0  0  0  0  0  0  0  0
   11.7728    8.0337   23.7267 C   0  0  0  0  0  0  0  0  0  0  0  0
    7.1194    8.3344   24.6775 C   0  0  0  0  0  0  0  0  0  0  0  0
    8.4311    4.7963   22.0500 C   0  0  0  0  0  0  0  0  0  0  0  0
    8.7393   10.8706   24.1871 O   0  0  0  0  0  0  0  0  0  0  0  0
    9.3093    3.8166   21.6712 C   0  0  0  0  0  0  0  0  0  0  0  0
  1  5  1  0
  1 15  4  0
  1 22  4  0
  2 20  1  0
  2 24  1  0
  3  6  4  0
  3 27  4  0
  4 22  4  0
  4 26  4  0
  6  7  4  0
  6 13  1  0
  7 19  4  0
  8 18  1  0
  8 23  1  0
  8 28  2  0
  9 17  1  0
  9 24  1  0
 10 11  1  0
 10 24  1  0
 11 23  1  0
 12 14  4  0
 12 16  4  0
 14 19  4  0
 15 18  4  0
 16 20  4  0
 17 25  1  0
 18 26  4  0
 19 29  4  0
 20 29  4  0
 21 23  1  0
 21 25  1  0
 27 29  4  0
M  END
$$$$

 Created by Python create_sdf_string function

 29 32  0  0  0  0  0  0  0  0999 V2000
    5.4450    8.7154   22.6662 C   0  0  0  0  0  0  0  0  0  0  0  0
   10.9154    5.4574   20.5483 C   0  0  0  0  0  0  0  0  0  0  0  0
    7.2709    4.5089   22.7542 C   0  0  0  0  0  0  0  0  0  0  0  0
    5.9698    7.6329   24.6581 C   0  0  0  0  0  0  0  0  0  0  0  0
    4.5542    8.9057   21.7104 O   0  0  0  0  0  0  0  0  0  0  0  0
    6.9895    3.2085   23.0690 C   0  0  0  0  0  0  0  0  0  0  0  0
    7.8391    2.2253   22.7260 N   0  0  0  0  0  0  0  0  0  0  0  0
    8.6968    9.8373   23.6359 C   0  0  0  0  0  0  0  0  0  0  0  0
   12.5135    6.5957   21.8396 C   0  0  0  0  0  0  0  0  0  0  0  0
   10.9406    8.2330   21.1350 C   0  0  0  0  0  0  0  0  0  0  0  0
    9.6648    8.5956   21.7310 C   0  0  0  0  0  0  0  0  0  0  0  0
   10.8829    1.7153   20.9865 C   0  0  0  0  0  0  0  0  0  0  0  0
    5.7768    2.8533   23.7910 C   0  0  0  0  0  0  0  0  0  0  0  0
    9.7977    1.4791   21.6912 N   0  0  0  0  0  0  0  0  0  0  0  0
    6.5976    9.3401   22.6478 N   0  0  0  0  0  0  0  0  0  0  0  0
   11.2031    3.0042   20.6246 C   0  0  0  0  0  0  0  0  0  0  0  0
   12.8688    7.7370   22.7287 C   0  0  0  0  0  0  0  0  0  0  0  0
    7.4487    9.1361   23.6506 C   0  0  0  0  0  0  0  0  0  0  0  0
    8.9772    2.5025   22.0273 C   0  0  0  0  0  0  0  0  0  0  0  0
   10.4859    4.0901   20.9730 C   0  0  0  0  0  0  0  0  0  0  0  0
   11.0962    9.3293   23.5072 C   0  0  0  0  0  0  0  0  0  0  0  0
    5.1273    7.8529   23.6208 N   0  0  0  0  0  0  0  0  0  0  0  0
    9.7552    9.2338   23.0171 N   0  0  0  0  0  0  0  0  0  0  0  0
   11.1797    6.7591   21.3326 N   0  0  0  0  0  0  0  0  0  0  0  0
   11.7728    8.0337   23.7267 C   0  0  0  0  0  0  0  0  0  0  0  0
    7.1194    8.3344   24.6775 C   0  0  0  0  0  0  0  0  0  0  0  0
    8.4311    4.7963   22.0500 C   0  0  0  0  0  0  0  0  0  0  0  0
    8.7393   10.8706   24.1871 O   0  0  0  0  0  0  0  0  0  0  0  0
    9.3093    3.8166   21.6712 C   0  0  0  0  0  0  0  0  0  0  0  0
  1  5  1  0
  1 15  4  0
  1 22  4  0
  2 20  1  0
  2 24  1  0
  3  6  4  0
  3 27  4  0
  4 22  4  0
  4 26  4  0
  6  7  4  0
  6 13  1  0
  7 19  4  0
  8 18  1  0
  8 23  1  0
  8 28  2  0
  9 17  1  0
  9 24  1  0
 10 11  1  0
 10 24  1  0
 11 23  1  0
 12 14  4  0
 12 16  4  0
 14 19  4  0
 15 18  4  0
 16 20  4  0
 17 25  1  0
 18 26  4  0
 19 29  4  0
 20 29  4  0
 21 23  1  0
 21 25  1  0
 27 29  4  0
M  END
$$$$

 Created by Python create_sdf_string function

 29 32  0  0  0  0  0  0  0  0999 V2000
    5.4450    8.7154   22.6662 C   0  0  0  0  0  0  0  0  0  0  0  0
   10.9154    5.4574   20.5483 C   0  0  0  0  0  0  0  0  0  0  0  0
    7.2709    4.5089   22.7542 C   0  0  0  0  0  0  0  0  0  0  0  0
    5.9698    7.6329   24.6581 C   0  0  0  0  0  0  0  0  0  0  0  0
    4.5542    8.9057   21.7104 O   0  0  0  0  0  0  0  0  0  0  0  0
    6.9895    3.2085   23.0690 C   0  0  0  0  0  0  0  0  0  0  0  0
    7.8391    2.2253   22.7260 N   0  0  0  0  0  0  0  0  0  0  0  0
    8.6968    9.8373   23.6359 C   0  0  0  0  0  0  0  0  0  0  0  0
   12.5135    6.5957   21.8396 C   0  0  0  0  0  0  0  0  0  0  0  0
   10.9406    8.2330   21.1350 C   0  0  0  0  0  0  0  0  0  0  0  0
    9.6648    8.5956   21.7310 C   0  0  0  0  0  0  0  0  0  0  0  0
   10.8829    1.7153   20.9865 C   0  0  0  0  0  0  0  0  0  0  0  0
    5.7768    2.8533   23.7910 C   0  0  0  0  0  0  0  0  0  0  0  0
    9.7977    1.4791   21.6912 N   0  0  0  0  0  0  0  0  0  0  0  0
    6.5976    9.3401   22.6478 N   0  0  0  0  0  0  0  0  0  0  0  0
   11.2031    3.0042   20.6246 C   0  0  0  0  0  0  0  0  0  0  0  0
   12.8688    7.7370   22.7287 C   0  0  0  0  0  0  0  0  0  0  0  0
    7.4487    9.1361   23.6506 C   0  0  0  0  0  0  0  0  0  0  0  0
    8.9772    2.5025   22.0273 C   0  0  0  0  0  0  0  0  0  0  0  0
   10.4859    4.0901   20.9730 C   0  0  0  0  0  0  0  0  0  0  0  0
   11.0962    9.3293   23.5072 C   0  0  0  0  0  0  0  0  0  0  0  0
    5.1273    7.8529   23.6208 N   0  0  0  0  0  0  0  0  0  0  0  0
    9.7552    9.2338   23.0171 N   0  0  0  0  0  0  0  0  0  0  0  0
   11.1797    6.7591   21.3326 N   0  0  0  0  0  0  0  0  0  0  0  0
   11.7728    8.0337   23.7267 C   0  0  0  0  0  0  0  0  0  0  0  0
    7.1194    8.3344   24.6775 C   0  0  0  0  0  0  0  0  0  0  0  0
    8.4311    4.7963   22.0500 C   0  0  0  0  0  0  0  0  0  0  0  0
    8.7393   10.8706   24.1871 O   0  0  0  0  0  0  0  0  0  0  0  0
    9.3093    3.8166   21.6712 C   0  0  0  0  0  0  0  0  0  0  0  0
  1  5  1  0
  1 15  4  0
  1 22  4  0
  2 20  1  0
  2 24  1  0
  3  6  4  0
  3 27  4  0
  4 22  4  0
  4 26  4  0
  6  7  4  0
  6 13  1  0
  7 19  4  0
  8 18  1  0
  8 23  1  0
  8 28  2  0
  9 17  1  0
  9 24  1  0
 10 11  1  0
 10 24  1  0
 11 23  1  0
 12 14  4  0
 12 16  4  0
 14 19  4  0
 15 18  4  0
 16 20  4  0
 17 25  1  0
 18 26  4  0
 19 29  4  0
 20 29  4  0
 21 23  1  0
 21 25  1  0
 27 29  4  0
M  END
$$$$

 Created by Python create_sdf_string function

 29 32  0  0  0  0  0  0  0  0999 V2000
    5.4450    8.7154   22.6662 C   0  0  0  0  0  0  0  0  0  0  0  0
   10.9154    5.4574   20.5483 C   0  0  0  0  0  0  0  0  0  0  0  0
    7.2709    4.5089   22.7542 C   0  0  0  0  0  0  0  0  0  0  0  0
    5.9698    7.6329   24.6581 C   0  0  0  0  0  0  0  0  0  0  0  0
    4.5542    8.9057   21.7104 O   0  0  0  0  0  0  0  0  0  0  0  0
    6.9895    3.2085   23.0690 C   0  0  0  0  0  0  0  0  0  0  0  0
    7.8391    2.2253   22.7260 N   0  0  0  0  0  0  0  0  0  0  0  0
    8.6968    9.8373   23.6359 C   0  0  0  0  0  0  0  0  0  0  0  0
   12.5135    6.5957   21.8396 C   0  0  0  0  0  0  0  0  0  0  0  0
   10.9406    8.2330   21.1350 C   0  0  0  0  0  0  0  0  0  0  0  0
    9.6648    8.5956   21.7310 C   0  0  0  0  0  0  0  0  0  0  0  0
   10.8829    1.7153   20.9865 C   0  0  0  0  0  0  0  0  0  0  0  0
    5.7768    2.8533   23.7910 C   0  0  0  0  0  0  0  0  0  0  0  0
    9.7977    1.4791   21.6912 N   0  0  0  0  0  0  0  0  0  0  0  0
    6.5976    9.3401   22.6478 N   0  0  0  0  0  0  0  0  0  0  0  0
   11.2031    3.0042   20.6246 C   0  0  0  0  0  0  0  0  0  0  0  0
   12.8688    7.7370   22.7287 C   0  0  0  0  0  0  0  0  0  0  0  0
    7.4487    9.1361   23.6506 C   0  0  0  0  0  0  0  0  0  0  0  0
    8.9772    2.5025   22.0273 C   0  0  0  0  0  0  0  0  0  0  0  0
   10.4859    4.0901   20.9730 C   0  0  0  0  0  0  0  0  0  0  0  0
   11.0962    9.3293   23.5072 C   0  0  0  0  0  0  0  0  0  0  0  0
    5.1273    7.8529   23.6208 N   0  0  0  0  0  0  0  0  0  0  0  0
    9.7552    9.2338   23.0171 N   0  0  0  0  0  0  0  0  0  0  0  0
   11.1797    6.7591   21.3326 N   0  0  0  0  0  0  0  0  0  0  0  0
   11.7728    8.0337   23.7267 C   0  0  0  0  0  0  0  0  0  0  0  0
    7.1194    8.3344   24.6775 C   0  0  0  0  0  0  0  0  0  0  0  0
    8.4311    4.7963   22.0500 C   0  0  0  0  0  0  0  0  0  0  0  0
    8.7393   10.8706   24.1871 O   0  0  0  0  0  0  0  0  0  0  0  0
    9.3093    3.8166   21.6712 C   0  0  0  0  0  0  0  0  0  0  0  0
  1  5  1  0
  1 15  4  0
  1 22  4  0
  2 20  1  0
  2 24  1  0
  3  6  4  0
  3 27  4  0
  4 22  4  0
  4 26  4  0
  6  7  4  0
  6 13  1  0
  7 19  4  0
  8 18  1  0
  8 23  1  0
  8 28  2  0
  9 17  1  0
  9 24  1  0
 10 11  1  0
 10 24  1  0
 11 23  1  0
 12 14  4  0
 12 16  4  0
 14 19  4  0
 15 18  4  0
 16 20  4  0
 17 25  1  0
 18 26  4  0
 19 29  4  0
 20 29  4  0
 21 23  1  0
 21 25  1  0
 27 29  4  0
M  END
$$$$

 Created by Python create_sdf_string function

 29 32  0  0  0  0  0  0  0  0999 V2000
    5.4450    8.7154   22.6662 C   0  0  0  0  0  0  0  0  0  0  0  0
   10.9154    5.4574   20.5483 C   0  0  0  0  0  0  0  0  0  0  0  0
    7.2709    4.5089   22.7542 C   0  0  0  0  0  0  0  0  0  0  0  0
    5.9698    7.6329   24.6581 C   0  0  0  0  0  0  0  0  0  0  0  0
    4.5542    8.9057   21.7104 O   0  0  0  0  0  0  0  0  0  0  0  0
    6.9895    3.2085   23.0690 C   0  0  0  0  0  0  0  0  0  0  0  0
    7.8391    2.2253   22.7260 N   0  0  0  0  0  0  0  0  0  0  0  0
    8.6968    9.8373   23.6359 C   0  0  0  0  0  0  0  0  0  0  0  0
   12.5135    6.5957   21.8396 C   0  0  0  0  0  0  0  0  0  0  0  0
   10.9406    8.2330   21.1350 C   0  0  0  0  0  0  0  0  0  0  0  0
    9.6648    8.5956   21.7310 C   0  0  0  0  0  0  0  0  0  0  0  0
   10.8829    1.7153   20.9865 C   0  0  0  0  0  0  0  0  0  0  0  0
    5.7768    2.8533   23.7910 C   0  0  0  0  0  0  0  0  0  0  0  0
    9.7977    1.4791   21.6912 N   0  0  0  0  0  0  0  0  0  0  0  0
    6.5976    9.3401   22.6478 N   0  0  0  0  0  0  0  0  0  0  0  0
   11.2031    3.0042   20.6246 C   0  0  0  0  0  0  0  0  0  0  0  0
   12.8688    7.7370   22.7287 C   0  0  0  0  0  0  0  0  0  0  0  0
    7.4487    9.1361   23.6506 C   0  0  0  0  0  0  0  0  0  0  0  0
    8.9772    2.5025   22.0273 C   0  0  0  0  0  0  0  0  0  0  0  0
   10.4859    4.0901   20.9730 C   0  0  0  0  0  0  0  0  0  0  0  0
   11.0962    9.3293   23.5072 C   0  0  0  0  0  0  0  0  0  0  0  0
    5.1273    7.8529   23.6208 N   0  0  0  0  0  0  0  0  0  0  0  0
    9.7552    9.2338   23.0171 N   0  0  0  0  0  0  0  0  0  0  0  0
   11.1797    6.7591   21.3326 N   0  0  0  0  0  0  0  0  0  0  0  0
   11.7728    8.0337   23.7267 C   0  0  0  0  0  0  0  0  0  0  0  0
    7.1194    8.3344   24.6775 C   0  0  0  0  0  0  0  0  0  0  0  0
    8.4311    4.7963   22.0500 C   0  0  0  0  0  0  0  0  0  0  0  0
    8.7393   10.8706   24.1871 O   0  0  0  0  0  0  0  0  0  0  0  0
    9.3093    3.8166   21.6712 C   0  0  0  0  0  0  0  0  0  0  0  0
  1  5  1  0
  1 15  4  0
  1 22  4  0
  2 20  1  0
  2 24  1  0
  3  6  4  0
  3 27  4  0
  4 22  4  0
  4 26  4  0
  6  7  4  0
  6 13  1  0
  7 19  4  0
  8 18  1  0
  8 23  1  0
  8 28  2  0
  9 17  1  0
  9 24  1  0
 10 11  1  0
 10 24  1  0
 11 23  1  0
 12 14  4  0
 12 16  4  0
 14 19  4  0
 15 18  4  0
 16 20  4  0
 17 25  1  0
 18 26  4  0
 19 29  4  0
 20 29  4  0
 21 23  1  0
 21 25  1  0
 27 29  4  0
M  END
$$$$

 Created by Python create_sdf_string function

 29 32  0  0  0  0  0  0  0  0999 V2000
    5.4450    8.7154   22.6662 C   0  0  0  0  0  0  0  0  0  0  0  0
   10.9154    5.4574   20.5483 C   0  0  0  0  0  0  0  0  0  0  0  0
    7.2709    4.5089   22.7542 C   0  0  0  0  0  0  0  0  0  0  0  0
    5.9698    7.6329   24.6581 C   0  0  0  0  0  0  0  0  0  0  0  0
    4.5542    8.9057   21.7104 O   0  0  0  0  0  0  0  0  0  0  0  0
    6.9895    3.2085   23.0690 C   0  0  0  0  0  0  0  0  0  0  0  0
    7.8391    2.2253   22.7260 N   0  0  0  0  0  0  0  0  0  0  0  0
    8.6968    9.8373   23.6359 C   0  0  0  0  0  0  0  0  0  0  0  0
   12.5135    6.5957   21.8396 C   0  0  0  0  0  0  0  0  0  0  0  0
   10.9406    8.2330   21.1350 C   0  0  0  0  0  0  0  0  0  0  0  0
    9.6648    8.5956   21.7310 C   0  0  0  0  0  0  0  0  0  0  0  0
   10.8829    1.7153   20.9865 C   0  0  0  0  0  0  0  0  0  0  0  0
    5.7768    2.8533   23.7910 C   0  0  0  0  0  0  0  0  0  0  0  0
    9.7977    1.4791   21.6912 N   0  0  0  0  0  0  0  0  0  0  0  0
    6.5976    9.3401   22.6478 N   0  0  0  0  0  0  0  0  0  0  0  0
   11.2031    3.0042   20.6246 C   0  0  0  0  0  0  0  0  0  0  0  0
   12.8688    7.7370   22.7287 C   0  0  0  0  0  0  0  0  0  0  0  0
    7.4487    9.1361   23.6506 C   0  0  0  0  0  0  0  0  0  0  0  0
    8.9772    2.5025   22.0273 C   0  0  0  0  0  0  0  0  0  0  0  0
   10.4859    4.0901   20.9730 C   0  0  0  0  0  0  0  0  0  0  0  0
   11.0962    9.3293   23.5072 C   0  0  0  0  0  0  0  0  0  0  0  0
    5.1273    7.8529   23.6208 N   0  0  0  0  0  0  0  0  0  0  0  0
    9.7552    9.2338   23.0171 N   0  0  0  0  0  0  0  0  0  0  0  0
   11.1797    6.7591   21.3326 N   0  0  0  0  0  0  0  0  0  0  0  0
   11.7728    8.0337   23.7267 C   0  0  0  0  0  0  0  0  0  0  0  0
    7.1194    8.3344   24.6775 C   0  0  0  0  0  0  0  0  0  0  0  0
    8.4311    4.7963   22.0500 C   0  0  0  0  0  0  0  0  0  0  0  0
    8.7393   10.8706   24.1871 O   0  0  0  0  0  0  0  0  0  0  0  0
    9.3093    3.8166   21.6712 C   0  0  0  0  0  0  0  0  0  0  0  0
  1  5  1  0
  1 15  4  0
  1 22  4  0
  2 20  1  0
  2 24  1  0
  3  6  4  0
  3 27  4  0
  4 22  4  0
  4 26  4  0
  6  7  4  0
  6 13  1  0
  7 19  4  0
  8 18  1  0
  8 23  1  0
  8 28  2  0
  9 17  1  0
  9 24  1  0
 10 11  1  0
 10 24  1  0
 11 23  1  0
 12 14  4  0
 12 16  4  0
 14 19  4  0
 15 18  4  0
 16 20  4  0
 17 25  1  0
 18 26  4  0
 19 29  4  0
 20 29  4  0
 21 23  1  0
 21 25  1  0
 27 29  4  0
M  END
$$$$

 Created by Python create_sdf_string function

 29 32  0  0  0  0  0  0  0  0999 V2000
    5.4450    8.7154   22.6662 C   0  0  0  0  0  0  0  0  0  0  0  0
   10.9154    5.4574   20.5483 C   0  0  0  0  0  0  0  0  0  0  0  0
    7.2709    4.5089   22.7542 C   0  0  0  0  0  0  0  0  0  0  0  0
    5.9698    7.6329   24.6581 C   0  0  0  0  0  0  0  0  0  0  0  0
    4.5542    8.9057   21.7104 O   0  0  0  0  0  0  0  0  0  0  0  0
    6.9895    3.2085   23.0690 C   0  0  0  0  0  0  0  0  0  0  0  0
    7.8391    2.2253   22.7260 N   0  0  0  0  0  0  0  0  0  0  0  0
    8.6968    9.8373   23.6359 C   0  0  0  0  0  0  0  0  0  0  0  0
   12.5135    6.5957   21.8396 C   0  0  0  0  0  0  0  0  0  0  0  0
   10.9406    8.2330   21.1350 C   0  0  0  0  0  0  0  0  0  0  0  0
    9.6648    8.5956   21.7310 C   0  0  0  0  0  0  0  0  0  0  0  0
   10.8829    1.7153   20.9865 C   0  0  0  0  0  0  0  0  0  0  0  0
    5.7768    2.8533   23.7910 C   0  0  0  0  0  0  0  0  0  0  0  0
    9.7977    1.4791   21.6912 N   0  0  0  0  0  0  0  0  0  0  0  0
    6.5976    9.3401   22.6478 N   0  0  0  0  0  0  0  0  0  0  0  0
   11.2031    3.0042   20.6246 C   0  0  0  0  0  0  0  0  0  0  0  0
   12.8688    7.7370   22.7287 C   0  0  0  0  0  0  0  0  0  0  0  0
    7.4487    9.1361   23.6506 C   0  0  0  0  0  0  0  0  0  0  0  0
    8.9772    2.5025   22.0273 C   0  0  0  0  0  0  0  0  0  0  0  0
   10.4859    4.0901   20.9730 C   0  0  0  0  0  0  0  0  0  0  0  0
   11.0962    9.3293   23.5072 C   0  0  0  0  0  0  0  0  0  0  0  0
    5.1273    7.8529   23.6208 N   0  0  0  0  0  0  0  0  0  0  0  0
    9.7552    9.2338   23.0171 N   0  0  0  0  0  0  0  0  0  0  0  0
   11.1797    6.7591   21.3326 N   0  0  0  0  0  0  0  0  0  0  0  0
   11.7728    8.0337   23.7267 C   0  0  0  0  0  0  0  0  0  0  0  0
    7.1194    8.3344   24.6775 C   0  0  0  0  0  0  0  0  0  0  0  0
    8.4311    4.7963   22.0500 C   0  0  0  0  0  0  0  0  0  0  0  0
    8.7393   10.8706   24.1871 O   0  0  0  0  0  0  0  0  0  0  0  0
    9.3093    3.8166   21.6712 C   0  0  0  0  0  0  0  0  0  0  0  0
  1  5  1  0
  1 15  4  0
  1 22  4  0
  2 20  1  0
  2 24  1  0
  3  6  4  0
  3 27  4  0
  4 22  4  0
  4 26  4  0
  6  7  4  0
  6 13  1  0
  7 19  4  0
  8 18  1  0
  8 23  1  0
  8 28  2  0
  9 17  1  0
  9 24  1  0
 10 11  1  0
 10 24  1  0
 11 23  1  0
 12 14  4  0
 12 16  4  0
 14 19  4  0
 15 18  4  0
 16 20  4  0
 17 25  1  0
 18 26  4  0
 19 29  4  0
 20 29  4  0
 21 23  1  0
 21 25  1  0
 27 29  4  0
M  END
$$$$

 Created by Python create_sdf_string function

 29 32  0  0  0  0  0  0  0  0999 V2000
    5.4450    8.7154   22.6662 C   0  0  0  0  0  0  0  0  0  0  0  0
   10.9154    5.4574   20.5483 C   0  0  0  0  0  0  0  0  0  0  0  0
    7.2709    4.5089   22.7542 C   0  0  0  0  0  0  0  0  0  0  0  0
    5.9698    7.6329   24.6581 C   0  0  0  0  0  0  0  0  0  0  0  0
    4.5542    8.9057   21.7104 O   0  0  0  0  0  0  0  0  0  0  0  0
    6.9895    3.2085   23.0690 C   0  0  0  0  0  0  0  0  0  0  0  0
    7.8391    2.2253   22.7260 N   0  0  0  0  0  0  0  0  0  0  0  0
    8.6968    9.8373   23.6359 C   0  0  0  0  0  0  0  0  0  0  0  0
   12.5135    6.5957   21.8396 C   0  0  0  0  0  0  0  0  0  0  0  0
   10.9406    8.2330   21.1350 C   0  0  0  0  0  0  0  0  0  0  0  0
    9.6648    8.5956   21.7310 C   0  0  0  0  0  0  0  0  0  0  0  0
   10.8829    1.7153   20.9865 C   0  0  0  0  0  0  0  0  0  0  0  0
    5.7768    2.8533   23.7910 C   0  0  0  0  0  0  0  0  0  0  0  0
    9.7977    1.4791   21.6912 N   0  0  0  0  0  0  0  0  0  0  0  0
    6.5976    9.3401   22.6478 N   0  0  0  0  0  0  0  0  0  0  0  0
   11.2031    3.0042   20.6246 C   0  0  0  0  0  0  0  0  0  0  0  0
   12.8688    7.7370   22.7287 C   0  0  0  0  0  0  0  0  0  0  0  0
    7.4487    9.1361   23.6506 C   0  0  0  0  0  0  0  0  0  0  0  0
    8.9772    2.5025   22.0273 C   0  0  0  0  0  0  0  0  0  0  0  0
   10.4859    4.0901   20.9730 C   0  0  0  0  0  0  0  0  0  0  0  0
   11.0962    9.3293   23.5072 C   0  0  0  0  0  0  0  0  0  0  0  0
    5.1273    7.8529   23.6208 N   0  0  0  0  0  0  0  0  0  0  0  0
    9.7552    9.2338   23.0171 N   0  0  0  0  0  0  0  0  0  0  0  0
   11.1797    6.7591   21.3326 N   0  0  0  0  0  0  0  0  0  0  0  0
   11.7728    8.0337   23.7267 C   0  0  0  0  0  0  0  0  0  0  0  0
    7.1194    8.3344   24.6775 C   0  0  0  0  0  0  0  0  0  0  0  0
    8.4311    4.7963   22.0500 C   0  0  0  0  0  0  0  0  0  0  0  0
    8.7393   10.8706   24.1871 O   0  0  0  0  0  0  0  0  0  0  0  0
    9.3093    3.8166   21.6712 C   0  0  0  0  0  0  0  0  0  0  0  0
  1  5  1  0
  1 15  4  0
  1 22  4  0
  2 20  1  0
  2 24  1  0
  3  6  4  0
  3 27  4  0
  4 22  4  0
  4 26  4  0
  6  7  4  0
  6 13  1  0
  7 19  4  0
  8 18  1  0
  8 23  1  0
  8 28  2  0
  9 17  1  0
  9 24  1  0
 10 11  1  0
 10 24  1  0
 11 23  1  0
 12 14  4  0
 12 16  4  0
 14 19  4  0
 15 18  4  0
 16 20  4  0
 17 25  1  0
 18 26  4  0
 19 29  4  0
 20 29  4  0
 21 23  1  0
 21 25  1  0
 27 29  4  0
M  END
$$$$

 Created by Python create_sdf_string function

 29 32  0  0  0  0  0  0  0  0999 V2000
    5.4450    8.7154   22.6662 C   0  0  0  0  0  0  0  0  0  0  0  0
   10.9154    5.4574   20.5483 C   0  0  0  0  0  0  0  0  0  0  0  0
    7.2709    4.5089   22.7542 C   0  0  0  0  0  0  0  0  0  0  0  0
    5.9698    7.6329   24.6581 C   0  0  0  0  0  0  0  0  0  0  0  0
    4.5542    8.9057   21.7104 O   0  0  0  0  0  0  0  0  0  0  0  0
    6.9895    3.2085   23.0690 C   0  0  0  0  0  0  0  0  0  0  0  0
    7.8391    2.2253   22.7260 N   0  0  0  0  0  0  0  0  0  0  0  0
    8.6968    9.8373   23.6359 C   0  0  0  0  0  0  0  0  0  0  0  0
   12.5135    6.5957   21.8396 C   0  0  0  0  0  0  0  0  0  0  0  0
   10.9406    8.2330   21.1350 C   0  0  0  0  0  0  0  0  0  0  0  0
    9.6648    8.5956   21.7310 C   0  0  0  0  0  0  0  0  0  0  0  0
   10.8829    1.7153   20.9865 C   0  0  0  0  0  0  0  0  0  0  0  0
    5.7768    2.8533   23.7910 C   0  0  0  0  0  0  0  0  0  0  0  0
    9.7977    1.4791   21.6912 N   0  0  0  0  0  0  0  0  0  0  0  0
    6.5976    9.3401   22.6478 N   0  0  0  0  0  0  0  0  0  0  0  0
   11.2031    3.0042   20.6246 C   0  0  0  0  0  0  0  0  0  0  0  0
   12.8688    7.7370   22.7287 C   0  0  0  0  0  0  0  0  0  0  0  0
    7.4487    9.1361   23.6506 C   0  0  0  0  0  0  0  0  0  0  0  0
    8.9772    2.5025   22.0273 C   0  0  0  0  0  0  0  0  0  0  0  0
   10.4859    4.0901   20.9730 C   0  0  0  0  0  0  0  0  0  0  0  0
   11.0962    9.3293   23.5072 C   0  0  0  0  0  0  0  0  0  0  0  0
    5.1273    7.8529   23.6208 N   0  0  0  0  0  0  0  0  0  0  0  0
    9.7552    9.2338   23.0171 N   0  0  0  0  0  0  0  0  0  0  0  0
   11.1797    6.7591   21.3326 N   0  0  0  0  0  0  0  0  0  0  0  0
   11.7728    8.0337   23.7267 C   0  0  0  0  0  0  0  0  0  0  0  0
    7.1194    8.3344   24.6775 C   0  0  0  0  0  0  0  0  0  0  0  0
    8.4311    4.7963   22.0500 C   0  0  0  0  0  0  0  0  0  0  0  0
    8.7393   10.8706   24.1871 O   0  0  0  0  0  0  0  0  0  0  0  0
    9.3093    3.8166   21.6712 C   0  0  0  0  0  0  0  0  0  0  0  0
  1  5  1  0
  1 15  4  0
  1 22  4  0
  2 20  1  0
  2 24  1  0
  3  6  4  0
  3 27  4  0
  4 22  4  0
  4 26  4  0
  6  7  4  0
  6 13  1  0
  7 19  4  0
  8 18  1  0
  8 23  1  0
  8 28  2  0
  9 17  1  0
  9 24  1  0
 10 11  1  0
 10 24  1  0
 11 23  1  0
 12 14  4  0
 12 16  4  0
 14 19  4  0
 15 18  4  0
 16 20  4  0
 17 25  1  0
 18 26  4  0
 19 29  4  0
 20 29  4  0
 21 23  1  0
 21 25  1  0
 27 29  4  0
M  END
$$$$

 Created by Python create_sdf_string function

 29 32  0  0  0  0  0  0  0  0999 V2000
    5.4450    8.7154   22.6662 C   0  0  0  0  0  0  0  0  0  0  0  0
   10.9154    5.4574   20.5483 C   0  0  0  0  0  0  0  0  0  0  0  0
    7.2709    4.5089   22.7542 C   0  0  0  0  0  0  0  0  0  0  0  0
    5.9698    7.6329   24.6581 C   0  0  0  0  0  0  0  0  0  0  0  0
    4.5542    8.9057   21.7104 O   0  0  0  0  0  0  0  0  0  0  0  0
    6.9895    3.2085   23.0690 C   0  0  0  0  0  0  0  0  0  0  0  0
    7.8391    2.2253   22.7260 N   0  0  0  0  0  0  0  0  0  0  0  0
    8.6968    9.8373   23.6359 C   0  0  0  0  0  0  0  0  0  0  0  0
   12.5135    6.5957   21.8396 C   0  0  0  0  0  0  0  0  0  0  0  0
   10.9406    8.2330   21.1350 C   0  0  0  0  0  0  0  0  0  0  0  0
    9.6648    8.5956   21.7310 C   0  0  0  0  0  0  0  0  0  0  0  0
   10.8829    1.7153   20.9865 C   0  0  0  0  0  0  0  0  0  0  0  0
    5.7768    2.8533   23.7910 C   0  0  0  0  0  0  0  0  0  0  0  0
    9.7977    1.4791   21.6912 N   0  0  0  0  0  0  0  0  0  0  0  0
    6.5976    9.3401   22.6478 N   0  0  0  0  0  0  0  0  0  0  0  0
   11.2031    3.0042   20.6246 C   0  0  0  0  0  0  0  0  0  0  0  0
   12.8688    7.7370   22.7287 C   0  0  0  0  0  0  0  0  0  0  0  0
    7.4487    9.1361   23.6506 C   0  0  0  0  0  0  0  0  0  0  0  0
    8.9772    2.5025   22.0273 C   0  0  0  0  0  0  0  0  0  0  0  0
   10.4859    4.0901   20.9730 C   0  0  0  0  0  0  0  0  0  0  0  0
   11.0962    9.3293   23.5072 C   0  0  0  0  0  0  0  0  0  0  0  0
    5.1273    7.8529   23.6208 N   0  0  0  0  0  0  0  0  0  0  0  0
    9.7552    9.2338   23.0171 N   0  0  0  0  0  0  0  0  0  0  0  0
   11.1797    6.7591   21.3326 N   0  0  0  0  0  0  0  0  0  0  0  0
   11.7728    8.0337   23.7267 C   0  0  0  0  0  0  0  0  0  0  0  0
    7.1194    8.3344   24.6775 C   0  0  0  0  0  0  0  0  0  0  0  0
    8.4311    4.7963   22.0500 C   0  0  0  0  0  0  0  0  0  0  0  0
    8.7393   10.8706   24.1871 O   0  0  0  0  0  0  0  0  0  0  0  0
    9.3093    3.8166   21.6712 C   0  0  0  0  0  0  0  0  0  0  0  0
  1  5  1  0
  1 15  4  0
  1 22  4  0
  2 20  1  0
  2 24  1  0
  3  6  4  0
  3 27  4  0
  4 22  4  0
  4 26  4  0
  6  7  4  0
  6 13  1  0
  7 19  4  0
  8 18  1  0
  8 23  1  0
  8 28  2  0
  9 17  1  0
  9 24  1  0
 10 11  1  0
 10 24  1  0
 11 23  1  0
 12 14  4  0
 12 16  4  0
 14 19  4  0
 15 18  4  0
 16 20  4  0
 17 25  1  0
 18 26  4  0
 19 29  4  0
 20 29  4  0
 21 23  1  0
 21 25  1  0
 27 29  4  0
M  END
$$$$

 Created by Python create_sdf_string function

 29 32  0  0  0  0  0  0  0  0999 V2000
    5.4450    8.7154   22.6662 C   0  0  0  0  0  0  0  0  0  0  0  0
   10.9154    5.4574   20.5483 C   0  0  0  0  0  0  0  0  0  0  0  0
    7.2709    4.5089   22.7542 C   0  0  0  0  0  0  0  0  0  0  0  0
    5.9698    7.6329   24.6581 C   0  0  0  0  0  0  0  0  0  0  0  0
    4.5542    8.9057   21.7104 O   0  0  0  0  0  0  0  0  0  0  0  0
    6.9895    3.2085   23.0690 C   0  0  0  0  0  0  0  0  0  0  0  0
    7.8391    2.2253   22.7260 N   0  0  0  0  0  0  0  0  0  0  0  0
    8.6968    9.8373   23.6359 C   0  0  0  0  0  0  0  0  0  0  0  0
   12.5135    6.5957   21.8396 C   0  0  0  0  0  0  0  0  0  0  0  0
   10.9406    8.2330   21.1350 C   0  0  0  0  0  0  0  0  0  0  0  0
    9.6648    8.5956   21.7310 C   0  0  0  0  0  0  0  0  0  0  0  0
   10.8829    1.7153   20.9865 C   0  0  0  0  0  0  0  0  0  0  0  0
    5.7768    2.8533   23.7910 C   0  0  0  0  0  0  0  0  0  0  0  0
    9.7977    1.4791   21.6912 N   0  0  0  0  0  0  0  0  0  0  0  0
    6.5976    9.3401   22.6478 N   0  0  0  0  0  0  0  0  0  0  0  0
   11.2031    3.0042   20.6246 C   0  0  0  0  0  0  0  0  0  0  0  0
   12.8688    7.7370   22.7287 C   0  0  0  0  0  0  0  0  0  0  0  0
    7.4487    9.1361   23.6506 C   0  0  0  0  0  0  0  0  0  0  0  0
    8.9772    2.5025   22.0273 C   0  0  0  0  0  0  0  0  0  0  0  0
   10.4859    4.0901   20.9730 C   0  0  0  0  0  0  0  0  0  0  0  0
   11.0962    9.3293   23.5072 C   0  0  0  0  0  0  0  0  0  0  0  0
    5.1273    7.8529   23.6208 N   0  0  0  0  0  0  0  0  0  0  0  0
    9.7552    9.2338   23.0171 N   0  0  0  0  0  0  0  0  0  0  0  0
   11.1797    6.7591   21.3326 N   0  0  0  0  0  0  0  0  0  0  0  0
   11.7728    8.0337   23.7267 C   0  0  0  0  0  0  0  0  0  0  0  0
    7.1194    8.3344   24.6775 C   0  0  0  0  0  0  0  0  0  0  0  0
    8.4311    4.7963   22.0500 C   0  0  0  0  0  0  0  0  0  0  0  0
    8.7393   10.8706   24.1871 O   0  0  0  0  0  0  0  0  0  0  0  0
    9.3093    3.8166   21.6712 C   0  0  0  0  0  0  0  0  0  0  0  0
  1  5  1  0
  1 15  4  0
  1 22  4  0
  2 20  1  0
  2 24  1  0
  3  6  4  0
  3 27  4  0
  4 22  4  0
  4 26  4  0
  6  7  4  0
  6 13  1  0
  7 19  4  0
  8 18  1  0
  8 23  1  0
  8 28  2  0
  9 17  1  0
  9 24  1  0
 10 11  1  0
 10 24  1  0
 11 23  1  0
 12 14  4  0
 12 16  4  0
 14 19  4  0
 15 18  4  0
 16 20  4  0
 17 25  1  0
 18 26  4  0
 19 29  4  0
 20 29  4  0
 21 23  1  0
 21 25  1  0
 27 29  4  0
M  END
$$$$

 Created by Python create_sdf_string function

 29 32  0  0  0  0  0  0  0  0999 V2000
    5.4450    8.7154   22.6662 C   0  0  0  0  0  0  0  0  0  0  0  0
   10.9154    5.4574   20.5483 C   0  0  0  0  0  0  0  0  0  0  0  0
    7.2709    4.5089   22.7542 C   0  0  0  0  0  0  0  0  0  0  0  0
    5.9698    7.6329   24.6581 C   0  0  0  0  0  0  0  0  0  0  0  0
    4.5542    8.9057   21.7104 O   0  0  0  0  0  0  0  0  0  0  0  0
    6.9895    3.2085   23.0690 C   0  0  0  0  0  0  0  0  0  0  0  0
    7.8391    2.2253   22.7260 N   0  0  0  0  0  0  0  0  0  0  0  0
    8.6968    9.8373   23.6359 C   0  0  0  0  0  0  0  0  0  0  0  0
   12.5135    6.5957   21.8396 C   0  0  0  0  0  0  0  0  0  0  0  0
   10.9406    8.2330   21.1350 C   0  0  0  0  0  0  0  0  0  0  0  0
    9.6648    8.5956   21.7310 C   0  0  0  0  0  0  0  0  0  0  0  0
   10.8829    1.7153   20.9865 C   0  0  0  0  0  0  0  0  0  0  0  0
    5.7768    2.8533   23.7910 C   0  0  0  0  0  0  0  0  0  0  0  0
    9.7977    1.4791   21.6912 N   0  0  0  0  0  0  0  0  0  0  0  0
    6.5976    9.3401   22.6478 N   0  0  0  0  0  0  0  0  0  0  0  0
   11.2031    3.0042   20.6246 C   0  0  0  0  0  0  0  0  0  0  0  0
   12.8688    7.7370   22.7287 C   0  0  0  0  0  0  0  0  0  0  0  0
    7.4487    9.1361   23.6506 C   0  0  0  0  0  0  0  0  0  0  0  0
    8.9772    2.5025   22.0273 C   0  0  0  0  0  0  0  0  0  0  0  0
   10.4859    4.0901   20.9730 C   0  0  0  0  0  0  0  0  0  0  0  0
   11.0962    9.3293   23.5072 C   0  0  0  0  0  0  0  0  0  0  0  0
    5.1273    7.8529   23.6208 N   0  0  0  0  0  0  0  0  0  0  0  0
    9.7552    9.2338   23.0171 N   0  0  0  0  0  0  0  0  0  0  0  0
   11.1797    6.7591   21.3326 N   0  0  0  0  0  0  0  0  0  0  0  0
   11.7728    8.0337   23.7267 C   0  0  0  0  0  0  0  0  0  0  0  0
    7.1194    8.3344   24.6775 C   0  0  0  0  0  0  0  0  0  0  0  0
    8.4311    4.7963   22.0500 C   0  0  0  0  0  0  0  0  0  0  0  0
    8.7393   10.8706   24.1871 O   0  0  0  0  0  0  0  0  0  0  0  0
    9.3093    3.8166   21.6712 C   0  0  0  0  0  0  0  0  0  0  0  0
  1  5  1  0
  1 15  4  0
  1 22  4  0
  2 20  1  0
  2 24  1  0
  3  6  4  0
  3 27  4  0
  4 22  4  0
  4 26  4  0
  6  7  4  0
  6 13  1  0
  7 19  4  0
  8 18  1  0
  8 23  1  0
  8 28  2  0
  9 17  1  0
  9 24  1  0
 10 11  1  0
 10 24  1  0
 11 23  1  0
 12 14  4  0
 12 16  4  0
 14 19  4  0
 15 18  4  0
 16 20  4  0
 17 25  1  0
 18 26  4  0
 19 29  4  0
 20 29  4  0
 21 23  1  0
 21 25  1  0
 27 29  4  0
M  END
$$$$

 Created by Python create_sdf_string function

 29 32  0  0  0  0  0  0  0  0999 V2000
    5.4450    8.7154   22.6662 C   0  0  0  0  0  0  0  0  0  0  0  0
   10.9154    5.4574   20.5483 C   0  0  0  0  0  0  0  0  0  0  0  0
    7.2709    4.5089   22.7542 C   0  0  0  0  0  0  0  0  0  0  0  0
    5.9698    7.6329   24.6581 C   0  0  0  0  0  0  0  0  0  0  0  0
    4.5542    8.9057   21.7104 O   0  0  0  0  0  0  0  0  0  0  0  0
    6.9895    3.2085   23.0690 C   0  0  0  0  0  0  0  0  0  0  0  0
    7.8391    2.2253   22.7260 N   0  0  0  0  0  0  0  0  0  0  0  0
    8.6968    9.8373   23.6359 C   0  0  0  0  0  0  0  0  0  0  0  0
   12.5135    6.5957   21.8396 C   0  0  0  0  0  0  0  0  0  0  0  0
   10.9406    8.2330   21.1350 C   0  0  0  0  0  0  0  0  0  0  0  0
    9.6648    8.5956   21.7310 C   0  0  0  0  0  0  0  0  0  0  0  0
   10.8829    1.7153   20.9865 C   0  0  0  0  0  0  0  0  0  0  0  0
    5.7768    2.8533   23.7910 C   0  0  0  0  0  0  0  0  0  0  0  0
    9.7977    1.4791   21.6912 N   0  0  0  0  0  0  0  0  0  0  0  0
    6.5976    9.3401   22.6478 N   0  0  0  0  0  0  0  0  0  0  0  0
   11.2031    3.0042   20.6246 C   0  0  0  0  0  0  0  0  0  0  0  0
   12.8688    7.7370   22.7287 C   0  0  0  0  0  0  0  0  0  0  0  0
    7.4487    9.1361   23.6506 C   0  0  0  0  0  0  0  0  0  0  0  0
    8.9772    2.5025   22.0273 C   0  0  0  0  0  0  0  0  0  0  0  0
   10.4859    4.0901   20.9730 C   0  0  0  0  0  0  0  0  0  0  0  0
   11.0962    9.3293   23.5072 C   0  0  0  0  0  0  0  0  0  0  0  0
    5.1273    7.8529   23.6208 N   0  0  0  0  0  0  0  0  0  0  0  0
    9.7552    9.2338   23.0171 N   0  0  0  0  0  0  0  0  0  0  0  0
   11.1797    6.7591   21.3326 N   0  0  0  0  0  0  0  0  0  0  0  0
   11.7728    8.0337   23.7267 C   0  0  0  0  0  0  0  0  0  0  0  0
    7.1194    8.3344   24.6775 C   0  0  0  0  0  0  0  0  0  0  0  0
    8.4311    4.7963   22.0500 C   0  0  0  0  0  0  0  0  0  0  0  0
    8.7393   10.8706   24.1871 O   0  0  0  0  0  0  0  0  0  0  0  0
    9.3093    3.8166   21.6712 C   0  0  0  0  0  0  0  0  0  0  0  0
  1  5  1  0
  1 15  4  0
  1 22  4  0
  2 20  1  0
  2 24  1  0
  3  6  4  0
  3 27  4  0
  4 22  4  0
  4 26  4  0
  6  7  4  0
  6 13  1  0
  7 19  4  0
  8 18  1  0
  8 23  1  0
  8 28  2  0
  9 17  1  0
  9 24  1  0
 10 11  1  0
 10 24  1  0
 11 23  1  0
 12 14  4  0
 12 16  4  0
 14 19  4  0
 15 18  4  0
 16 20  4  0
 17 25  1  0
 18 26  4  0
 19 29  4  0
 20 29  4  0
 21 23  1  0
 21 25  1  0
 27 29  4  0
M  END
$$$$

 Created by Python create_sdf_string function

 29 32  0  0  0  0  0  0  0  0999 V2000
    5.4450    8.7154   22.6662 C   0  0  0  0  0  0  0  0  0  0  0  0
   10.9154    5.4574   20.5483 C   0  0  0  0  0  0  0  0  0  0  0  0
    7.2709    4.5089   22.7542 C   0  0  0  0  0  0  0  0  0  0  0  0
    5.9698    7.6329   24.6581 C   0  0  0  0  0  0  0  0  0  0  0  0
    4.5542    8.9057   21.7104 O   0  0  0  0  0  0  0  0  0  0  0  0
    6.9895    3.2085   23.0690 C   0  0  0  0  0  0  0  0  0  0  0  0
    7.8391    2.2253   22.7260 N   0  0  0  0  0  0  0  0  0  0  0  0
    8.6968    9.8373   23.6359 C   0  0  0  0  0  0  0  0  0  0  0  0
   12.5135    6.5957   21.8396 C   0  0  0  0  0  0  0  0  0  0  0  0
   10.9406    8.2330   21.1350 C   0  0  0  0  0  0  0  0  0  0  0  0
    9.6648    8.5956   21.7310 C   0  0  0  0  0  0  0  0  0  0  0  0
   10.8829    1.7153   20.9865 C   0  0  0  0  0  0  0  0  0  0  0  0
    5.7768    2.8533   23.7910 C   0  0  0  0  0  0  0  0  0  0  0  0
    9.7977    1.4791   21.6912 N   0  0  0  0  0  0  0  0  0  0  0  0
    6.5976    9.3401   22.6478 N   0  0  0  0  0  0  0  0  0  0  0  0
   11.2031    3.0042   20.6246 C   0  0  0  0  0  0  0  0  0  0  0  0
   12.8688    7.7370   22.7287 C   0  0  0  0  0  0  0  0  0  0  0  0
    7.4487    9.1361   23.6506 C   0  0  0  0  0  0  0  0  0  0  0  0
    8.9772    2.5025   22.0273 C   0  0  0  0  0  0  0  0  0  0  0  0
   10.4859    4.0901   20.9730 C   0  0  0  0  0  0  0  0  0  0  0  0
   11.0962    9.3293   23.5072 C   0  0  0  0  0  0  0  0  0  0  0  0
    5.1273    7.8529   23.6208 N   0  0  0  0  0  0  0  0  0  0  0  0
    9.7552    9.2338   23.0171 N   0  0  0  0  0  0  0  0  0  0  0  0
   11.1797    6.7591   21.3326 N   0  0  0  0  0  0  0  0  0  0  0  0
   11.7728    8.0337   23.7267 C   0  0  0  0  0  0  0  0  0  0  0  0
    7.1194    8.3344   24.6775 C   0  0  0  0  0  0  0  0  0  0  0  0
    8.4311    4.7963   22.0500 C   0  0  0  0  0  0  0  0  0  0  0  0
    8.7393   10.8706   24.1871 O   0  0  0  0  0  0  0  0  0  0  0  0
    9.3093    3.8166   21.6712 C   0  0  0  0  0  0  0  0  0  0  0  0
  1  5  1  0
  1 15  4  0
  1 22  4  0
  2 20  1  0
  2 24  1  0
  3  6  4  0
  3 27  4  0
  4 22  4  0
  4 26  4  0
  6  7  4  0
  6 13  1  0
  7 19  4  0
  8 18  1  0
  8 23  1  0
  8 28  2  0
  9 17  1  0
  9 24  1  0
 10 11  1  0
 10 24  1  0
 11 23  1  0
 12 14  4  0
 12 16  4  0
 14 19  4  0
 15 18  4  0
 16 20  4  0
 17 25  1  0
 18 26  4  0
 19 29  4  0
 20 29  4  0
 21 23  1  0
 21 25  1  0
 27 29  4  0
M  END
$$$$

 Created by Python create_sdf_string function

 29 32  0  0  0  0  0  0  0  0999 V2000
    5.4450    8.7154   22.6662 C   0  0  0  0  0  0  0  0  0  0  0  0
   10.9154    5.4574   20.5483 C   0  0  0  0  0  0  0  0  0  0  0  0
    7.2709    4.5089   22.7542 C   0  0  0  0  0  0  0  0  0  0  0  0
    5.9698    7.6329   24.6581 C   0  0  0  0  0  0  0  0  0  0  0  0
    4.5542    8.9057   21.7104 O   0  0  0  0  0  0  0  0  0  0  0  0
    6.9895    3.2085   23.0690 C   0  0  0  0  0  0  0  0  0  0  0  0
    7.8391    2.2253   22.7260 N   0  0  0  0  0  0  0  0  0  0  0  0
    8.6968    9.8373   23.6359 C   0  0  0  0  0  0  0  0  0  0  0  0
   12.5135    6.5957   21.8396 C   0  0  0  0  0  0  0  0  0  0  0  0
   10.9406    8.2330   21.1350 C   0  0  0  0  0  0  0  0  0  0  0  0
    9.6648    8.5956   21.7310 C   0  0  0  0  0  0  0  0  0  0  0  0
   10.8829    1.7153   20.9865 C   0  0  0  0  0  0  0  0  0  0  0  0
    5.7768    2.8533   23.7910 C   0  0  0  0  0  0  0  0  0  0  0  0
    9.7977    1.4791   21.6912 N   0  0  0  0  0  0  0  0  0  0  0  0
    6.5976    9.3401   22.6478 N   0  0  0  0  0  0  0  0  0  0  0  0
   11.2031    3.0042   20.6246 C   0  0  0  0  0  0  0  0  0  0  0  0
   12.8688    7.7370   22.7287 C   0  0  0  0  0  0  0  0  0  0  0  0
    7.4487    9.1361   23.6506 C   0  0  0  0  0  0  0  0  0  0  0  0
    8.9772    2.5025   22.0273 C   0  0  0  0  0  0  0  0  0  0  0  0
   10.4859    4.0901   20.9730 C   0  0  0  0  0  0  0  0  0  0  0  0
   11.0962    9.3293   23.5072 C   0  0  0  0  0  0  0  0  0  0  0  0
    5.1273    7.8529   23.6208 N   0  0  0  0  0  0  0  0  0  0  0  0
    9.7552    9.2338   23.0171 N   0  0  0  0  0  0  0  0  0  0  0  0
   11.1797    6.7591   21.3326 N   0  0  0  0  0  0  0  0  0  0  0  0
   11.7728    8.0337   23.7267 C   0  0  0  0  0  0  0  0  0  0  0  0
    7.1194    8.3344   24.6775 C   0  0  0  0  0  0  0  0  0  0  0  0
    8.4311    4.7963   22.0500 C   0  0  0  0  0  0  0  0  0  0  0  0
    8.7393   10.8706   24.1871 O   0  0  0  0  0  0  0  0  0  0  0  0
    9.3093    3.8166   21.6712 C   0  0  0  0  0  0  0  0  0  0  0  0
  1  5  1  0
  1 15  4  0
  1 22  4  0
  2 20  1  0
  2 24  1  0
  3  6  4  0
  3 27  4  0
  4 22  4  0
  4 26  4  0
  6  7  4  0
  6 13  1  0
  7 19  4  0
  8 18  1  0
  8 23  1  0
  8 28  2  0
  9 17  1  0
  9 24  1  0
 10 11  1  0
 10 24  1  0
 11 23  1  0
 12 14  4  0
 12 16  4  0
 14 19  4  0
 15 18  4  0
 16 20  4  0
 17 25  1  0
 18 26  4  0
 19 29  4  0
 20 29  4  0
 21 23  1  0
 21 25  1  0
 27 29  4  0
M  END
$$$$

 Created by Python create_sdf_string function

 29 32  0  0  0  0  0  0  0  0999 V2000
    5.4450    8.7154   22.6662 C   0  0  0  0  0  0  0  0  0  0  0  0
   10.9154    5.4574   20.5483 C   0  0  0  0  0  0  0  0  0  0  0  0
    7.2709    4.5089   22.7542 C   0  0  0  0  0  0  0  0  0  0  0  0
    5.9698    7.6329   24.6581 C   0  0  0  0  0  0  0  0  0  0  0  0
    4.5542    8.9057   21.7104 O   0  0  0  0  0  0  0  0  0  0  0  0
    6.9895    3.2085   23.0690 C   0  0  0  0  0  0  0  0  0  0  0  0
    7.8391    2.2253   22.7260 N   0  0  0  0  0  0  0  0  0  0  0  0
    8.6968    9.8373   23.6359 C   0  0  0  0  0  0  0  0  0  0  0  0
   12.5135    6.5957   21.8396 C   0  0  0  0  0  0  0  0  0  0  0  0
   10.9406    8.2330   21.1350 C   0  0  0  0  0  0  0  0  0  0  0  0
    9.6648    8.5956   21.7310 C   0  0  0  0  0  0  0  0  0  0  0  0
   10.8829    1.7153   20.9865 C   0  0  0  0  0  0  0  0  0  0  0  0
    5.7768    2.8533   23.7910 C   0  0  0  0  0  0  0  0  0  0  0  0
    9.7977    1.4791   21.6912 N   0  0  0  0  0  0  0  0  0  0  0  0
    6.5976    9.3401   22.6478 N   0  0  0  0  0  0  0  0  0  0  0  0
   11.2031    3.0042   20.6246 C   0  0  0  0  0  0  0  0  0  0  0  0
   12.8688    7.7370   22.7287 C   0  0  0  0  0  0  0  0  0  0  0  0
    7.4487    9.1361   23.6506 C   0  0  0  0  0  0  0  0  0  0  0  0
    8.9772    2.5025   22.0273 C   0  0  0  0  0  0  0  0  0  0  0  0
   10.4859    4.0901   20.9730 C   0  0  0  0  0  0  0  0  0  0  0  0
   11.0962    9.3293   23.5072 C   0  0  0  0  0  0  0  0  0  0  0  0
    5.1273    7.8529   23.6208 N   0  0  0  0  0  0  0  0  0  0  0  0
    9.7552    9.2338   23.0171 N   0  0  0  0  0  0  0  0  0  0  0  0
   11.1797    6.7591   21.3326 N   0  0  0  0  0  0  0  0  0  0  0  0
   11.7728    8.0337   23.7267 C   0  0  0  0  0  0  0  0  0  0  0  0
    7.1194    8.3344   24.6775 C   0  0  0  0  0  0  0  0  0  0  0  0
    8.4311    4.7963   22.0500 C   0  0  0  0  0  0  0  0  0  0  0  0
    8.7393   10.8706   24.1871 O   0  0  0  0  0  0  0  0  0  0  0  0
    9.3093    3.8166   21.6712 C   0  0  0  0  0  0  0  0  0  0  0  0
  1  5  1  0
  1 15  4  0
  1 22  4  0
  2 20  1  0
  2 24  1  0
  3  6  4  0
  3 27  4  0
  4 22  4  0
  4 26  4  0
  6  7  4  0
  6 13  1  0
  7 19  4  0
  8 18  1  0
  8 23  1  0
  8 28  2  0
  9 17  1  0
  9 24  1  0
 10 11  1  0
 10 24  1  0
 11 23  1  0
 12 14  4  0
 12 16  4  0
 14 19  4  0
 15 18  4  0
 16 20  4  0
 17 25  1  0
 18 26  4  0
 19 29  4  0
 20 29  4  0
 21 23  1  0
 21 25  1  0
 27 29  4  0
M  END
$$$$

 Created by Python create_sdf_string function

 29 32  0  0  0  0  0  0  0  0999 V2000
    5.4450    8.7154   22.6662 C   0  0  0  0  0  0  0  0  0  0  0  0
   10.9154    5.4574   20.5483 C   0  0  0  0  0  0  0  0  0  0  0  0
    7.2709    4.5089   22.7542 C   0  0  0  0  0  0  0  0  0  0  0  0
    5.9698    7.6329   24.6581 C   0  0  0  0  0  0  0  0  0  0  0  0
    4.5542    8.9057   21.7104 O   0  0  0  0  0  0  0  0  0  0  0  0
    6.9895    3.2085   23.0690 C   0  0  0  0  0  0  0  0  0  0  0  0
    7.8391    2.2253   22.7260 N   0  0  0  0  0  0  0  0  0  0  0  0
    8.6968    9.8373   23.6359 C   0  0  0  0  0  0  0  0  0  0  0  0
   12.5135    6.5957   21.8396 C   0  0  0  0  0  0  0  0  0  0  0  0
   10.9406    8.2330   21.1350 C   0  0  0  0  0  0  0  0  0  0  0  0
    9.6648    8.5956   21.7310 C   0  0  0  0  0  0  0  0  0  0  0  0
   10.8829    1.7153   20.9865 C   0  0  0  0  0  0  0  0  0  0  0  0
    5.7768    2.8533   23.7910 C   0  0  0  0  0  0  0  0  0  0  0  0
    9.7977    1.4791   21.6912 N   0  0  0  0  0  0  0  0  0  0  0  0
    6.5976    9.3401   22.6478 N   0  0  0  0  0  0  0  0  0  0  0  0
   11.2031    3.0042   20.6246 C   0  0  0  0  0  0  0  0  0  0  0  0
   12.8688    7.7370   22.7287 C   0  0  0  0  0  0  0  0  0  0  0  0
    7.4487    9.1361   23.6506 C   0  0  0  0  0  0  0  0  0  0  0  0
    8.9772    2.5025   22.0273 C   0  0  0  0  0  0  0  0  0  0  0  0
   10.4859    4.0901   20.9730 C   0  0  0  0  0  0  0  0  0  0  0  0
   11.0962    9.3293   23.5072 C   0  0  0  0  0  0  0  0  0  0  0  0
    5.1273    7.8529   23.6208 N   0  0  0  0  0  0  0  0  0  0  0  0
    9.7552    9.2338   23.0171 N   0  0  0  0  0  0  0  0  0  0  0  0
   11.1797    6.7591   21.3326 N   0  0  0  0  0  0  0  0  0  0  0  0
   11.7728    8.0337   23.7267 C   0  0  0  0  0  0  0  0  0  0  0  0
    7.1194    8.3344   24.6775 C   0  0  0  0  0  0  0  0  0  0  0  0
    8.4311    4.7963   22.0500 C   0  0  0  0  0  0  0  0  0  0  0  0
    8.7393   10.8706   24.1871 O   0  0  0  0  0  0  0  0  0  0  0  0
    9.3093    3.8166   21.6712 C   0  0  0  0  0  0  0  0  0  0  0  0
  1  5  1  0
  1 15  4  0
  1 22  4  0
  2 20  1  0
  2 24  1  0
  3  6  4  0
  3 27  4  0
  4 22  4  0
  4 26  4  0
  6  7  4  0
  6 13  1  0
  7 19  4  0
  8 18  1  0
  8 23  1  0
  8 28  2  0
  9 17  1  0
  9 24  1  0
 10 11  1  0
 10 24  1  0
 11 23  1  0
 12 14  4  0
 12 16  4  0
 14 19  4  0
 15 18  4  0
 16 20  4  0
 17 25  1  0
 18 26  4  0
 19 29  4  0
 20 29  4  0
 21 23  1  0
 21 25  1  0
 27 29  4  0
M  END
$$$$

 Created by Python create_sdf_string function

 29 32  0  0  0  0  0  0  0  0999 V2000
    5.4450    8.7154   22.6662 C   0  0  0  0  0  0  0  0  0  0  0  0
   10.9154    5.4574   20.5483 C   0  0  0  0  0  0  0  0  0  0  0  0
    7.2709    4.5089   22.7542 C   0  0  0  0  0  0  0  0  0  0  0  0
    5.9698    7.6329   24.6581 C   0  0  0  0  0  0  0  0  0  0  0  0
    4.5542    8.9057   21.7104 O   0  0  0  0  0  0  0  0  0  0  0  0
    6.9895    3.2085   23.0690 C   0  0  0  0  0  0  0  0  0  0  0  0
    7.8391    2.2253   22.7260 N   0  0  0  0  0  0  0  0  0  0  0  0
    8.6968    9.8373   23.6359 C   0  0  0  0  0  0  0  0  0  0  0  0
   12.5135    6.5957   21.8396 C   0  0  0  0  0  0  0  0  0  0  0  0
   10.9406    8.2330   21.1350 C   0  0  0  0  0  0  0  0  0  0  0  0
    9.6648    8.5956   21.7310 C   0  0  0  0  0  0  0  0  0  0  0  0
   10.8829    1.7153   20.9865 C   0  0  0  0  0  0  0  0  0  0  0  0
    5.7768    2.8533   23.7910 C   0  0  0  0  0  0  0  0  0  0  0  0
    9.7977    1.4791   21.6912 N   0  0  0  0  0  0  0  0  0  0  0  0
    6.5976    9.3401   22.6478 N   0  0  0  0  0  0  0  0  0  0  0  0
   11.2031    3.0042   20.6246 C   0  0  0  0  0  0  0  0  0  0  0  0
   12.8688    7.7370   22.7287 C   0  0  0  0  0  0  0  0  0  0  0  0
    7.4487    9.1361   23.6506 C   0  0  0  0  0  0  0  0  0  0  0  0
    8.9772    2.5025   22.0273 C   0  0  0  0  0  0  0  0  0  0  0  0
   10.4859    4.0901   20.9730 C   0  0  0  0  0  0  0  0  0  0  0  0
   11.0962    9.3293   23.5072 C   0  0  0  0  0  0  0  0  0  0  0  0
    5.1273    7.8529   23.6208 N   0  0  0  0  0  0  0  0  0  0  0  0
    9.7552    9.2338   23.0171 N   0  0  0  0  0  0  0  0  0  0  0  0
   11.1797    6.7591   21.3326 N   0  0  0  0  0  0  0  0  0  0  0  0
   11.7728    8.0337   23.7267 C   0  0  0  0  0  0  0  0  0  0  0  0
    7.1194    8.3344   24.6775 C   0  0  0  0  0  0  0  0  0  0  0  0
    8.4311    4.7963   22.0500 C   0  0  0  0  0  0  0  0  0  0  0  0
    8.7393   10.8706   24.1871 O   0  0  0  0  0  0  0  0  0  0  0  0
    9.3093    3.8166   21.6712 C   0  0  0  0  0  0  0  0  0  0  0  0
  1  5  1  0
  1 15  4  0
  1 22  4  0
  2 20  1  0
  2 24  1  0
  3  6  4  0
  3 27  4  0
  4 22  4  0
  4 26  4  0
  6  7  4  0
  6 13  1  0
  7 19  4  0
  8 18  1  0
  8 23  1  0
  8 28  2  0
  9 17  1  0
  9 24  1  0
 10 11  1  0
 10 24  1  0
 11 23  1  0
 12 14  4  0
 12 16  4  0
 14 19  4  0
 15 18  4  0
 16 20  4  0
 17 25  1  0
 18 26  4  0
 19 29  4  0
 20 29  4  0
 21 23  1  0
 21 25  1  0
 27 29  4  0
M  END
$$$$

 Created by Python create_sdf_string function

 29 32  0  0  0  0  0  0  0  0999 V2000
    5.4450    8.7154   22.6662 C   0  0  0  0  0  0  0  0  0  0  0  0
   10.9154    5.4574   20.5483 C   0  0  0  0  0  0  0  0  0  0  0  0
    7.2709    4.5089   22.7542 C   0  0  0  0  0  0  0  0  0  0  0  0
    5.9698    7.6329   24.6581 C   0  0  0  0  0  0  0  0  0  0  0  0
    4.5542    8.9057   21.7104 O   0  0  0  0  0  0  0  0  0  0  0  0
    6.9895    3.2085   23.0690 C   0  0  0  0  0  0  0  0  0  0  0  0
    7.8391    2.2253   22.7260 N   0  0  0  0  0  0  0  0  0  0  0  0
    8.6968    9.8373   23.6359 C   0  0  0  0  0  0  0  0  0  0  0  0
   12.5135    6.5957   21.8396 C   0  0  0  0  0  0  0  0  0  0  0  0
   10.9406    8.2330   21.1350 C   0  0  0  0  0  0  0  0  0  0  0  0
    9.6648    8.5956   21.7310 C   0  0  0  0  0  0  0  0  0  0  0  0
   10.8829    1.7153   20.9865 C   0  0  0  0  0  0  0  0  0  0  0  0
    5.7768    2.8533   23.7910 C   0  0  0  0  0  0  0  0  0  0  0  0
    9.7977    1.4791   21.6912 N   0  0  0  0  0  0  0  0  0  0  0  0
    6.5976    9.3401   22.6478 N   0  0  0  0  0  0  0  0  0  0  0  0
   11.2031    3.0042   20.6246 C   0  0  0  0  0  0  0  0  0  0  0  0
   12.8688    7.7370   22.7287 C   0  0  0  0  0  0  0  0  0  0  0  0
    7.4487    9.1361   23.6506 C   0  0  0  0  0  0  0  0  0  0  0  0
    8.9772    2.5025   22.0273 C   0  0  0  0  0  0  0  0  0  0  0  0
   10.4859    4.0901   20.9730 C   0  0  0  0  0  0  0  0  0  0  0  0
   11.0962    9.3293   23.5072 C   0  0  0  0  0  0  0  0  0  0  0  0
    5.1273    7.8529   23.6208 N   0  0  0  0  0  0  0  0  0  0  0  0
    9.7552    9.2338   23.0171 N   0  0  0  0  0  0  0  0  0  0  0  0
   11.1797    6.7591   21.3326 N   0  0  0  0  0  0  0  0  0  0  0  0
   11.7728    8.0337   23.7267 C   0  0  0  0  0  0  0  0  0  0  0  0
    7.1194    8.3344   24.6775 C   0  0  0  0  0  0  0  0  0  0  0  0
    8.4311    4.7963   22.0500 C   0  0  0  0  0  0  0  0  0  0  0  0
    8.7393   10.8706   24.1871 O   0  0  0  0  0  0  0  0  0  0  0  0
    9.3093    3.8166   21.6712 C   0  0  0  0  0  0  0  0  0  0  0  0
  1  5  1  0
  1 15  4  0
  1 22  4  0
  2 20  1  0
  2 24  1  0
  3  6  4  0
  3 27  4  0
  4 22  4  0
  4 26  4  0
  6  7  4  0
  6 13  1  0
  7 19  4  0
  8 18  1  0
  8 23  1  0
  8 28  2  0
  9 17  1  0
  9 24  1  0
 10 11  1  0
 10 24  1  0
 11 23  1  0
 12 14  4  0
 12 16  4  0
 14 19  4  0
 15 18  4  0
 16 20  4  0
 17 25  1  0
 18 26  4  0
 19 29  4  0
 20 29  4  0
 21 23  1  0
 21 25  1  0
 27 29  4  0
M  END
$$$$

 Created by Python create_sdf_string function

 29 32  0  0  0  0  0  0  0  0999 V2000
    5.4450    8.7154   22.6662 C   0  0  0  0  0  0  0  0  0  0  0  0
   10.9154    5.4574   20.5483 C   0  0  0  0  0  0  0  0  0  0  0  0
    7.2709    4.5089   22.7542 C   0  0  0  0  0  0  0  0  0  0  0  0
    5.9698    7.6329   24.6581 C   0  0  0  0  0  0  0  0  0  0  0  0
    4.5542    8.9057   21.7104 O   0  0  0  0  0  0  0  0  0  0  0  0
    6.9895    3.2085   23.0690 C   0  0  0  0  0  0  0  0  0  0  0  0
    7.8391    2.2253   22.7260 N   0  0  0  0  0  0  0  0  0  0  0  0
    8.6968    9.8373   23.6359 C   0  0  0  0  0  0  0  0  0  0  0  0
   12.5135    6.5957   21.8396 C   0  0  0  0  0  0  0  0  0  0  0  0
   10.9406    8.2330   21.1350 C   0  0  0  0  0  0  0  0  0  0  0  0
    9.6648    8.5956   21.7310 C   0  0  0  0  0  0  0  0  0  0  0  0
   10.8829    1.7153   20.9865 C   0  0  0  0  0  0  0  0  0  0  0  0
    5.7768    2.8533   23.7910 C   0  0  0  0  0  0  0  0  0  0  0  0
    9.7977    1.4791   21.6912 N   0  0  0  0  0  0  0  0  0  0  0  0
    6.5976    9.3401   22.6478 N   0  0  0  0  0  0  0  0  0  0  0  0
   11.2031    3.0042   20.6246 C   0  0  0  0  0  0  0  0  0  0  0  0
   12.8688    7.7370   22.7287 C   0  0  0  0  0  0  0  0  0  0  0  0
    7.4487    9.1361   23.6506 C   0  0  0  0  0  0  0  0  0  0  0  0
    8.9772    2.5025   22.0273 C   0  0  0  0  0  0  0  0  0  0  0  0
   10.4859    4.0901   20.9730 C   0  0  0  0  0  0  0  0  0  0  0  0
   11.0962    9.3293   23.5072 C   0  0  0  0  0  0  0  0  0  0  0  0
    5.1273    7.8529   23.6208 N   0  0  0  0  0  0  0  0  0  0  0  0
    9.7552    9.2338   23.0171 N   0  0  0  0  0  0  0  0  0  0  0  0
   11.1797    6.7591   21.3326 N   0  0  0  0  0  0  0  0  0  0  0  0
   11.7728    8.0337   23.7267 C   0  0  0  0  0  0  0  0  0  0  0  0
    7.1194    8.3344   24.6775 C   0  0  0  0  0  0  0  0  0  0  0  0
    8.4311    4.7963   22.0500 C   0  0  0  0  0  0  0  0  0  0  0  0
    8.7393   10.8706   24.1871 O   0  0  0  0  0  0  0  0  0  0  0  0
    9.3093    3.8166   21.6712 C   0  0  0  0  0  0  0  0  0  0  0  0
  1  5  1  0
  1 15  4  0
  1 22  4  0
  2 20  1  0
  2 24  1  0
  3  6  4  0
  3 27  4  0
  4 22  4  0
  4 26  4  0
  6  7  4  0
  6 13  1  0
  7 19  4  0
  8 18  1  0
  8 23  1  0
  8 28  2  0
  9 17  1  0
  9 24  1  0
 10 11  1  0
 10 24  1  0
 11 23  1  0
 12 14  4  0
 12 16  4  0
 14 19  4  0
 15 18  4  0
 16 20  4  0
 17 25  1  0
 18 26  4  0
 19 29  4  0
 20 29  4  0
 21 23  1  0
 21 25  1  0
 27 29  4  0
M  END
$$$$

 Created by Python create_sdf_string function

 29 32  0  0  0  0  0  0  0  0999 V2000
    5.4450    8.7154   22.6662 C   0  0  0  0  0  0  0  0  0  0  0  0
   10.9154    5.4574   20.5483 C   0  0  0  0  0  0  0  0  0  0  0  0
    7.2709    4.5089   22.7542 C   0  0  0  0  0  0  0  0  0  0  0  0
    5.9698    7.6329   24.6581 C   0  0  0  0  0  0  0  0  0  0  0  0
    4.5542    8.9057   21.7104 O   0  0  0  0  0  0  0  0  0  0  0  0
    6.9895    3.2085   23.0690 C   0  0  0  0  0  0  0  0  0  0  0  0
    7.8391    2.2253   22.7260 N   0  0  0  0  0  0  0  0  0  0  0  0
    8.6968    9.8373   23.6359 C   0  0  0  0  0  0  0  0  0  0  0  0
   12.5135    6.5957   21.8396 C   0  0  0  0  0  0  0  0  0  0  0  0
   10.9406    8.2330   21.1350 C   0  0  0  0  0  0  0  0  0  0  0  0
    9.6648    8.5956   21.7310 C   0  0  0  0  0  0  0  0  0  0  0  0
   10.8829    1.7153   20.9865 C   0  0  0  0  0  0  0  0  0  0  0  0
    5.7768    2.8533   23.7910 C   0  0  0  0  0  0  0  0  0  0  0  0
    9.7977    1.4791   21.6912 N   0  0  0  0  0  0  0  0  0  0  0  0
    6.5976    9.3401   22.6478 N   0  0  0  0  0  0  0  0  0  0  0  0
   11.2031    3.0042   20.6246 C   0  0  0  0  0  0  0  0  0  0  0  0
   12.8688    7.7370   22.7287 C   0  0  0  0  0  0  0  0  0  0  0  0
    7.4487    9.1361   23.6506 C   0  0  0  0  0  0  0  0  0  0  0  0
    8.9772    2.5025   22.0273 C   0  0  0  0  0  0  0  0  0  0  0  0
   10.4859    4.0901   20.9730 C   0  0  0  0  0  0  0  0  0  0  0  0
   11.0962    9.3293   23.5072 C   0  0  0  0  0  0  0  0  0  0  0  0
    5.1273    7.8529   23.6208 N   0  0  0  0  0  0  0  0  0  0  0  0
    9.7552    9.2338   23.0171 N   0  0  0  0  0  0  0  0  0  0  0  0
   11.1797    6.7591   21.3326 N   0  0  0  0  0  0  0  0  0  0  0  0
   11.7728    8.0337   23.7267 C   0  0  0  0  0  0  0  0  0  0  0  0
    7.1194    8.3344   24.6775 C   0  0  0  0  0  0  0  0  0  0  0  0
    8.4311    4.7963   22.0500 C   0  0  0  0  0  0  0  0  0  0  0  0
    8.7393   10.8706   24.1871 O   0  0  0  0  0  0  0  0  0  0  0  0
    9.3093    3.8166   21.6712 C   0  0  0  0  0  0  0  0  0  0  0  0
  1  5  1  0
  1 15  4  0
  1 22  4  0
  2 20  1  0
  2 24  1  0
  3  6  4  0
  3 27  4  0
  4 22  4  0
  4 26  4  0
  6  7  4  0
  6 13  1  0
  7 19  4  0
  8 18  1  0
  8 23  1  0
  8 28  2  0
  9 17  1  0
  9 24  1  0
 10 11  1  0
 10 24  1  0
 11 23  1  0
 12 14  4  0
 12 16  4  0
 14 19  4  0
 15 18  4  0
 16 20  4  0
 17 25  1  0
 18 26  4  0
 19 29  4  0
 20 29  4  0
 21 23  1  0
 21 25  1  0
 27 29  4  0
M  END
$$$$

 Created by Python create_sdf_string function

 29 32  0  0  0  0  0  0  0  0999 V2000
    5.4450    8.7154   22.6662 C   0  0  0  0  0  0  0  0  0  0  0  0
   10.9154    5.4574   20.5483 C   0  0  0  0  0  0  0  0  0  0  0  0
    7.2709    4.5089   22.7542 C   0  0  0  0  0  0  0  0  0  0  0  0
    5.9698    7.6329   24.6581 C   0  0  0  0  0  0  0  0  0  0  0  0
    4.5542    8.9057   21.7104 O   0  0  0  0  0  0  0  0  0  0  0  0
    6.9895    3.2085   23.0690 C   0  0  0  0  0  0  0  0  0  0  0  0
    7.8391    2.2253   22.7260 N   0  0  0  0  0  0  0  0  0  0  0  0
    8.6968    9.8373   23.6359 C   0  0  0  0  0  0  0  0  0  0  0  0
   12.5135    6.5957   21.8396 C   0  0  0  0  0  0  0  0  0  0  0  0
   10.9406    8.2330   21.1350 C   0  0  0  0  0  0  0  0  0  0  0  0
    9.6648    8.5956   21.7310 C   0  0  0  0  0  0  0  0  0  0  0  0
   10.8829    1.7153   20.9865 C   0  0  0  0  0  0  0  0  0  0  0  0
    5.7768    2.8533   23.7910 C   0  0  0  0  0  0  0  0  0  0  0  0
    9.7977    1.4791   21.6912 N   0  0  0  0  0  0  0  0  0  0  0  0
    6.5976    9.3401   22.6478 N   0  0  0  0  0  0  0  0  0  0  0  0
   11.2031    3.0042   20.6246 C   0  0  0  0  0  0  0  0  0  0  0  0
   12.8688    7.7370   22.7287 C   0  0  0  0  0  0  0  0  0  0  0  0
    7.4487    9.1361   23.6506 C   0  0  0  0  0  0  0  0  0  0  0  0
    8.9772    2.5025   22.0273 C   0  0  0  0  0  0  0  0  0  0  0  0
   10.4859    4.0901   20.9730 C   0  0  0  0  0  0  0  0  0  0  0  0
   11.0962    9.3293   23.5072 C   0  0  0  0  0  0  0  0  0  0  0  0
    5.1273    7.8529   23.6208 N   0  0  0  0  0  0  0  0  0  0  0  0
    9.7552    9.2338   23.0171 N   0  0  0  0  0  0  0  0  0  0  0  0
   11.1797    6.7591   21.3326 N   0  0  0  0  0  0  0  0  0  0  0  0
   11.7728    8.0337   23.7267 C   0  0  0  0  0  0  0  0  0  0  0  0
    7.1194    8.3344   24.6775 C   0  0  0  0  0  0  0  0  0  0  0  0
    8.4311    4.7963   22.0500 C   0  0  0  0  0  0  0  0  0  0  0  0
    8.7393   10.8706   24.1871 O   0  0  0  0  0  0  0  0  0  0  0  0
    9.3093    3.8166   21.6712 C   0  0  0  0  0  0  0  0  0  0  0  0
  1  5  1  0
  1 15  4  0
  1 22  4  0
  2 20  1  0
  2 24  1  0
  3  6  4  0
  3 27  4  0
  4 22  4  0
  4 26  4  0
  6  7  4  0
  6 13  1  0
  7 19  4  0
  8 18  1  0
  8 23  1  0
  8 28  2  0
  9 17  1  0
  9 24  1  0
 10 11  1  0
 10 24  1  0
 11 23  1  0
 12 14  4  0
 12 16  4  0
 14 19  4  0
 15 18  4  0
 16 20  4  0
 17 25  1  0
 18 26  4  0
 19 29  4  0
 20 29  4  0
 21 23  1  0
 21 25  1  0
 27 29  4  0
M  END
$$$$

 Created by Python create_sdf_string function

 29 32  0  0  0  0  0  0  0  0999 V2000
    5.4450    8.7154   22.6662 C   0  0  0  0  0  0  0  0  0  0  0  0
   10.9154    5.4574   20.5483 C   0  0  0  0  0  0  0  0  0  0  0  0
    7.2709    4.5089   22.7542 C   0  0  0  0  0  0  0  0  0  0  0  0
    5.9698    7.6329   24.6581 C   0  0  0  0  0  0  0  0  0  0  0  0
    4.5542    8.9057   21.7104 O   0  0  0  0  0  0  0  0  0  0  0  0
    6.9895    3.2085   23.0690 C   0  0  0  0  0  0  0  0  0  0  0  0
    7.8391    2.2253   22.7260 N   0  0  0  0  0  0  0  0  0  0  0  0
    8.6968    9.8373   23.6359 C   0  0  0  0  0  0  0  0  0  0  0  0
   12.5135    6.5957   21.8396 C   0  0  0  0  0  0  0  0  0  0  0  0
   10.9406    8.2330   21.1350 C   0  0  0  0  0  0  0  0  0  0  0  0
    9.6648    8.5956   21.7310 C   0  0  0  0  0  0  0  0  0  0  0  0
   10.8829    1.7153   20.9865 C   0  0  0  0  0  0  0  0  0  0  0  0
    5.7768    2.8533   23.7910 C   0  0  0  0  0  0  0  0  0  0  0  0
    9.7977    1.4791   21.6912 N   0  0  0  0  0  0  0  0  0  0  0  0
    6.5976    9.3401   22.6478 N   0  0  0  0  0  0  0  0  0  0  0  0
   11.2031    3.0042   20.6246 C   0  0  0  0  0  0  0  0  0  0  0  0
   12.8688    7.7370   22.7287 C   0  0  0  0  0  0  0  0  0  0  0  0
    7.4487    9.1361   23.6506 C   0  0  0  0  0  0  0  0  0  0  0  0
    8.9772    2.5025   22.0273 C   0  0  0  0  0  0  0  0  0  0  0  0
   10.4859    4.0901   20.9730 C   0  0  0  0  0  0  0  0  0  0  0  0
   11.0962    9.3293   23.5072 C   0  0  0  0  0  0  0  0  0  0  0  0
    5.1273    7.8529   23.6208 N   0  0  0  0  0  0  0  0  0  0  0  0
    9.7552    9.2338   23.0171 N   0  0  0  0  0  0  0  0  0  0  0  0
   11.1797    6.7591   21.3326 N   0  0  0  0  0  0  0  0  0  0  0  0
   11.7728    8.0337   23.7267 C   0  0  0  0  0  0  0  0  0  0  0  0
    7.1194    8.3344   24.6775 C   0  0  0  0  0  0  0  0  0  0  0  0
    8.4311    4.7963   22.0500 C   0  0  0  0  0  0  0  0  0  0  0  0
    8.7393   10.8706   24.1871 O   0  0  0  0  0  0  0  0  0  0  0  0
    9.3093    3.8166   21.6712 C   0  0  0  0  0  0  0  0  0  0  0  0
  1  5  1  0
  1 15  4  0
  1 22  4  0
  2 20  1  0
  2 24  1  0
  3  6  4  0
  3 27  4  0
  4 22  4  0
  4 26  4  0
  6  7  4  0
  6 13  1  0
  7 19  4  0
  8 18  1  0
  8 23  1  0
  8 28  2  0
  9 17  1  0
  9 24  1  0
 10 11  1  0
 10 24  1  0
 11 23  1  0
 12 14  4  0
 12 16  4  0
 14 19  4  0
 15 18  4  0
 16 20  4  0
 17 25  1  0
 18 26  4  0
 19 29  4  0
 20 29  4  0
 21 23  1  0
 21 25  1  0
 27 29  4  0
M  END
$$$$

 Created by Python create_sdf_string function

 29 32  0  0  0  0  0  0  0  0999 V2000
    5.4450    8.7154   22.6662 C   0  0  0  0  0  0  0  0  0  0  0  0
   10.9154    5.4574   20.5483 C   0  0  0  0  0  0  0  0  0  0  0  0
    7.2709    4.5089   22.7542 C   0  0  0  0  0  0  0  0  0  0  0  0
    5.9698    7.6329   24.6581 C   0  0  0  0  0  0  0  0  0  0  0  0
    4.5542    8.9057   21.7104 O   0  0  0  0  0  0  0  0  0  0  0  0
    6.9895    3.2085   23.0690 C   0  0  0  0  0  0  0  0  0  0  0  0
    7.8391    2.2253   22.7260 N   0  0  0  0  0  0  0  0  0  0  0  0
    8.6968    9.8373   23.6359 C   0  0  0  0  0  0  0  0  0  0  0  0
   12.5135    6.5957   21.8396 C   0  0  0  0  0  0  0  0  0  0  0  0
   10.9406    8.2330   21.1350 C   0  0  0  0  0  0  0  0  0  0  0  0
    9.6648    8.5956   21.7310 C   0  0  0  0  0  0  0  0  0  0  0  0
   10.8829    1.7153   20.9865 C   0  0  0  0  0  0  0  0  0  0  0  0
    5.7768    2.8533   23.7910 C   0  0  0  0  0  0  0  0  0  0  0  0
    9.7977    1.4791   21.6912 N   0  0  0  0  0  0  0  0  0  0  0  0
    6.5976    9.3401   22.6478 N   0  0  0  0  0  0  0  0  0  0  0  0
   11.2031    3.0042   20.6246 C   0  0  0  0  0  0  0  0  0  0  0  0
   12.8688    7.7370   22.7287 C   0  0  0  0  0  0  0  0  0  0  0  0
    7.4487    9.1361   23.6506 C   0  0  0  0  0  0  0  0  0  0  0  0
    8.9772    2.5025   22.0273 C   0  0  0  0  0  0  0  0  0  0  0  0
   10.4859    4.0901   20.9730 C   0  0  0  0  0  0  0  0  0  0  0  0
   11.0962    9.3293   23.5072 C   0  0  0  0  0  0  0  0  0  0  0  0
    5.1273    7.8529   23.6208 N   0  0  0  0  0  0  0  0  0  0  0  0
    9.7552    9.2338   23.0171 N   0  0  0  0  0  0  0  0  0  0  0  0
   11.1797    6.7591   21.3326 N   0  0  0  0  0  0  0  0  0  0  0  0
   11.7728    8.0337   23.7267 C   0  0  0  0  0  0  0  0  0  0  0  0
    7.1194    8.3344   24.6775 C   0  0  0  0  0  0  0  0  0  0  0  0
    8.4311    4.7963   22.0500 C   0  0  0  0  0  0  0  0  0  0  0  0
    8.7393   10.8706   24.1871 O   0  0  0  0  0  0  0  0  0  0  0  0
    9.3093    3.8166   21.6712 C   0  0  0  0  0  0  0  0  0  0  0  0
  1  5  1  0
  1 15  4  0
  1 22  4  0
  2 20  1  0
  2 24  1  0
  3  6  4  0
  3 27  4  0
  4 22  4  0
  4 26  4  0
  6  7  4  0
  6 13  1  0
  7 19  4  0
  8 18  1  0
  8 23  1  0
  8 28  2  0
  9 17  1  0
  9 24  1  0
 10 11  1  0
 10 24  1  0
 11 23  1  0
 12 14  4  0
 12 16  4  0
 14 19  4  0
 15 18  4  0
 16 20  4  0
 17 25  1  0
 18 26  4  0
 19 29  4  0
 20 29  4  0
 21 23  1  0
 21 25  1  0
 27 29  4  0
M  END
$$$$

 Created by Python create_sdf_string function

 29 32  0  0  0  0  0  0  0  0999 V2000
    5.4450    8.7154   22.6662 C   0  0  0  0  0  0  0  0  0  0  0  0
   10.9154    5.4574   20.5483 C   0  0  0  0  0  0  0  0  0  0  0  0
    7.2709    4.5089   22.7542 C   0  0  0  0  0  0  0  0  0  0  0  0
    5.9698    7.6329   24.6581 C   0  0  0  0  0  0  0  0  0  0  0  0
    4.5542    8.9057   21.7104 O   0  0  0  0  0  0  0  0  0  0  0  0
    6.9895    3.2085   23.0690 C   0  0  0  0  0  0  0  0  0  0  0  0
    7.8391    2.2253   22.7260 N   0  0  0  0  0  0  0  0  0  0  0  0
    8.6968    9.8373   23.6359 C   0  0  0  0  0  0  0  0  0  0  0  0
   12.5135    6.5957   21.8396 C   0  0  0  0  0  0  0  0  0  0  0  0
   10.9406    8.2330   21.1350 C   0  0  0  0  0  0  0  0  0  0  0  0
    9.6648    8.5956   21.7310 C   0  0  0  0  0  0  0  0  0  0  0  0
   10.8829    1.7153   20.9865 C   0  0  0  0  0  0  0  0  0  0  0  0
    5.7768    2.8533   23.7910 C   0  0  0  0  0  0  0  0  0  0  0  0
    9.7977    1.4791   21.6912 N   0  0  0  0  0  0  0  0  0  0  0  0
    6.5976    9.3401   22.6478 N   0  0  0  0  0  0  0  0  0  0  0  0
   11.2031    3.0042   20.6246 C   0  0  0  0  0  0  0  0  0  0  0  0
   12.8688    7.7370   22.7287 C   0  0  0  0  0  0  0  0  0  0  0  0
    7.4487    9.1361   23.6506 C   0  0  0  0  0  0  0  0  0  0  0  0
    8.9772    2.5025   22.0273 C   0  0  0  0  0  0  0  0  0  0  0  0
   10.4859    4.0901   20.9730 C   0  0  0  0  0  0  0  0  0  0  0  0
   11.0962    9.3293   23.5072 C   0  0  0  0  0  0  0  0  0  0  0  0
    5.1273    7.8529   23.6208 N   0  0  0  0  0  0  0  0  0  0  0  0
    9.7552    9.2338   23.0171 N   0  0  0  0  0  0  0  0  0  0  0  0
   11.1797    6.7591   21.3326 N   0  0  0  0  0  0  0  0  0  0  0  0
   11.7728    8.0337   23.7267 C   0  0  0  0  0  0  0  0  0  0  0  0
    7.1194    8.3344   24.6775 C   0  0  0  0  0  0  0  0  0  0  0  0
    8.4311    4.7963   22.0500 C   0  0  0  0  0  0  0  0  0  0  0  0
    8.7393   10.8706   24.1871 O   0  0  0  0  0  0  0  0  0  0  0  0
    9.3093    3.8166   21.6712 C   0  0  0  0  0  0  0  0  0  0  0  0
  1  5  1  0
  1 15  4  0
  1 22  4  0
  2 20  1  0
  2 24  1  0
  3  6  4  0
  3 27  4  0
  4 22  4  0
  4 26  4  0
  6  7  4  0
  6 13  1  0
  7 19  4  0
  8 18  1  0
  8 23  1  0
  8 28  2  0
  9 17  1  0
  9 24  1  0
 10 11  1  0
 10 24  1  0
 11 23  1  0
 12 14  4  0
 12 16  4  0
 14 19  4  0
 15 18  4  0
 16 20  4  0
 17 25  1  0
 18 26  4  0
 19 29  4  0
 20 29  4  0
 21 23  1  0
 21 25  1  0
 27 29  4  0
M  END
$$$$

 Created by Python create_sdf_string function

 29 32  0  0  0  0  0  0  0  0999 V2000
    5.4450    8.7154   22.6662 C   0  0  0  0  0  0  0  0  0  0  0  0
   10.9154    5.4574   20.5483 C   0  0  0  0  0  0  0  0  0  0  0  0
    7.2709    4.5089   22.7542 C   0  0  0  0  0  0  0  0  0  0  0  0
    5.9698    7.6329   24.6581 C   0  0  0  0  0  0  0  0  0  0  0  0
    4.5542    8.9057   21.7104 O   0  0  0  0  0  0  0  0  0  0  0  0
    6.9895    3.2085   23.0690 C   0  0  0  0  0  0  0  0  0  0  0  0
    7.8391    2.2253   22.7260 N   0  0  0  0  0  0  0  0  0  0  0  0
    8.6968    9.8373   23.6359 C   0  0  0  0  0  0  0  0  0  0  0  0
   12.5135    6.5957   21.8396 C   0  0  0  0  0  0  0  0  0  0  0  0
   10.9406    8.2330   21.1350 C   0  0  0  0  0  0  0  0  0  0  0  0
    9.6648    8.5956   21.7310 C   0  0  0  0  0  0  0  0  0  0  0  0
   10.8829    1.7153   20.9865 C   0  0  0  0  0  0  0  0  0  0  0  0
    5.7768    2.8533   23.7910 C   0  0  0  0  0  0  0  0  0  0  0  0
    9.7977    1.4791   21.6912 N   0  0  0  0  0  0  0  0  0  0  0  0
    6.5976    9.3401   22.6478 N   0  0  0  0  0  0  0  0  0  0  0  0
   11.2031    3.0042   20.6246 C   0  0  0  0  0  0  0  0  0  0  0  0
   12.8688    7.7370   22.7287 C   0  0  0  0  0  0  0  0  0  0  0  0
    7.4487    9.1361   23.6506 C   0  0  0  0  0  0  0  0  0  0  0  0
    8.9772    2.5025   22.0273 C   0  0  0  0  0  0  0  0  0  0  0  0
   10.4859    4.0901   20.9730 C   0  0  0  0  0  0  0  0  0  0  0  0
   11.0962    9.3293   23.5072 C   0  0  0  0  0  0  0  0  0  0  0  0
    5.1273    7.8529   23.6208 N   0  0  0  0  0  0  0  0  0  0  0  0
    9.7552    9.2338   23.0171 N   0  0  0  0  0  0  0  0  0  0  0  0
   11.1797    6.7591   21.3326 N   0  0  0  0  0  0  0  0  0  0  0  0
   11.7728    8.0337   23.7267 C   0  0  0  0  0  0  0  0  0  0  0  0
    7.1194    8.3344   24.6775 C   0  0  0  0  0  0  0  0  0  0  0  0
    8.4311    4.7963   22.0500 C   0  0  0  0  0  0  0  0  0  0  0  0
    8.7393   10.8706   24.1871 O   0  0  0  0  0  0  0  0  0  0  0  0
    9.3093    3.8166   21.6712 C   0  0  0  0  0  0  0  0  0  0  0  0
  1  5  1  0
  1 15  4  0
  1 22  4  0
  2 20  1  0
  2 24  1  0
  3  6  4  0
  3 27  4  0
  4 22  4  0
  4 26  4  0
  6  7  4  0
  6 13  1  0
  7 19  4  0
  8 18  1  0
  8 23  1  0
  8 28  2  0
  9 17  1  0
  9 24  1  0
 10 11  1  0
 10 24  1  0
 11 23  1  0
 12 14  4  0
 12 16  4  0
 14 19  4  0
 15 18  4  0
 16 20  4  0
 17 25  1  0
 18 26  4  0
 19 29  4  0
 20 29  4  0
 21 23  1  0
 21 25  1  0
 27 29  4  0
M  END
$$$$

 Created by Python create_sdf_string function

 29 32  0  0  0  0  0  0  0  0999 V2000
    5.4450    8.7154   22.6662 C   0  0  0  0  0  0  0  0  0  0  0  0
   10.9154    5.4574   20.5483 C   0  0  0  0  0  0  0  0  0  0  0  0
    7.2709    4.5089   22.7542 C   0  0  0  0  0  0  0  0  0  0  0  0
    5.9698    7.6329   24.6581 C   0  0  0  0  0  0  0  0  0  0  0  0
    4.5542    8.9057   21.7104 O   0  0  0  0  0  0  0  0  0  0  0  0
    6.9895    3.2085   23.0690 C   0  0  0  0  0  0  0  0  0  0  0  0
    7.8391    2.2253   22.7260 N   0  0  0  0  0  0  0  0  0  0  0  0
    8.6968    9.8373   23.6359 C   0  0  0  0  0  0  0  0  0  0  0  0
   12.5135    6.5957   21.8396 C   0  0  0  0  0  0  0  0  0  0  0  0
   10.9406    8.2330   21.1350 C   0  0  0  0  0  0  0  0  0  0  0  0
    9.6648    8.5956   21.7310 C   0  0  0  0  0  0  0  0  0  0  0  0
   10.8829    1.7153   20.9865 C   0  0  0  0  0  0  0  0  0  0  0  0
    5.7768    2.8533   23.7910 C   0  0  0  0  0  0  0  0  0  0  0  0
    9.7977    1.4791   21.6912 N   0  0  0  0  0  0  0  0  0  0  0  0
    6.5976    9.3401   22.6478 N   0  0  0  0  0  0  0  0  0  0  0  0
   11.2031    3.0042   20.6246 C   0  0  0  0  0  0  0  0  0  0  0  0
   12.8688    7.7370   22.7287 C   0  0  0  0  0  0  0  0  0  0  0  0
    7.4487    9.1361   23.6506 C   0  0  0  0  0  0  0  0  0  0  0  0
    8.9772    2.5025   22.0273 C   0  0  0  0  0  0  0  0  0  0  0  0
   10.4859    4.0901   20.9730 C   0  0  0  0  0  0  0  0  0  0  0  0
   11.0962    9.3293   23.5072 C   0  0  0  0  0  0  0  0  0  0  0  0
    5.1273    7.8529   23.6208 N   0  0  0  0  0  0  0  0  0  0  0  0
    9.7552    9.2338   23.0171 N   0  0  0  0  0  0  0  0  0  0  0  0
   11.1797    6.7591   21.3326 N   0  0  0  0  0  0  0  0  0  0  0  0
   11.7728    8.0337   23.7267 C   0  0  0  0  0  0  0  0  0  0  0  0
    7.1194    8.3344   24.6775 C   0  0  0  0  0  0  0  0  0  0  0  0
    8.4311    4.7963   22.0500 C   0  0  0  0  0  0  0  0  0  0  0  0
    8.7393   10.8706   24.1871 O   0  0  0  0  0  0  0  0  0  0  0  0
    9.3093    3.8166   21.6712 C   0  0  0  0  0  0  0  0  0  0  0  0
  1  5  1  0
  1 15  4  0
  1 22  4  0
  2 20  1  0
  2 24  1  0
  3  6  4  0
  3 27  4  0
  4 22  4  0
  4 26  4  0
  6  7  4  0
  6 13  1  0
  7 19  4  0
  8 18  1  0
  8 23  1  0
  8 28  2  0
  9 17  1  0
  9 24  1  0
 10 11  1  0
 10 24  1  0
 11 23  1  0
 12 14  4  0
 12 16  4  0
 14 19  4  0
 15 18  4  0
 16 20  4  0
 17 25  1  0
 18 26  4  0
 19 29  4  0
 20 29  4  0
 21 23  1  0
 21 25  1  0
 27 29  4  0
M  END
$$$$

 Created by Python create_sdf_string function

 29 32  0  0  0  0  0  0  0  0999 V2000
    5.4450    8.7154   22.6662 C   0  0  0  0  0  0  0  0  0  0  0  0
   10.9154    5.4574   20.5483 C   0  0  0  0  0  0  0  0  0  0  0  0
    7.2709    4.5089   22.7542 C   0  0  0  0  0  0  0  0  0  0  0  0
    5.9698    7.6329   24.6581 C   0  0  0  0  0  0  0  0  0  0  0  0
    4.5542    8.9057   21.7104 O   0  0  0  0  0  0  0  0  0  0  0  0
    6.9895    3.2085   23.0690 C   0  0  0  0  0  0  0  0  0  0  0  0
    7.8391    2.2253   22.7260 N   0  0  0  0  0  0  0  0  0  0  0  0
    8.6968    9.8373   23.6359 C   0  0  0  0  0  0  0  0  0  0  0  0
   12.5135    6.5957   21.8396 C   0  0  0  0  0  0  0  0  0  0  0  0
   10.9406    8.2330   21.1350 C   0  0  0  0  0  0  0  0  0  0  0  0
    9.6648    8.5956   21.7310 C   0  0  0  0  0  0  0  0  0  0  0  0
   10.8829    1.7153   20.9865 C   0  0  0  0  0  0  0  0  0  0  0  0
    5.7768    2.8533   23.7910 C   0  0  0  0  0  0  0  0  0  0  0  0
    9.7977    1.4791   21.6912 N   0  0  0  0  0  0  0  0  0  0  0  0
    6.5976    9.3401   22.6478 N   0  0  0  0  0  0  0  0  0  0  0  0
   11.2031    3.0042   20.6246 C   0  0  0  0  0  0  0  0  0  0  0  0
   12.8688    7.7370   22.7287 C   0  0  0  0  0  0  0  0  0  0  0  0
    7.4487    9.1361   23.6506 C   0  0  0  0  0  0  0  0  0  0  0  0
    8.9772    2.5025   22.0273 C   0  0  0  0  0  0  0  0  0  0  0  0
   10.4859    4.0901   20.9730 C   0  0  0  0  0  0  0  0  0  0  0  0
   11.0962    9.3293   23.5072 C   0  0  0  0  0  0  0  0  0  0  0  0
    5.1273    7.8529   23.6208 N   0  0  0  0  0  0  0  0  0  0  0  0
    9.7552    9.2338   23.0171 N   0  0  0  0  0  0  0  0  0  0  0  0
   11.1797    6.7591   21.3326 N   0  0  0  0  0  0  0  0  0  0  0  0
   11.7728    8.0337   23.7267 C   0  0  0  0  0  0  0  0  0  0  0  0
    7.1194    8.3344   24.6775 C   0  0  0  0  0  0  0  0  0  0  0  0
    8.4311    4.7963   22.0500 C   0  0  0  0  0  0  0  0  0  0  0  0
    8.7393   10.8706   24.1871 O   0  0  0  0  0  0  0  0  0  0  0  0
    9.3093    3.8166   21.6712 C   0  0  0  0  0  0  0  0  0  0  0  0
  1  5  1  0
  1 15  4  0
  1 22  4  0
  2 20  1  0
  2 24  1  0
  3  6  4  0
  3 27  4  0
  4 22  4  0
  4 26  4  0
  6  7  4  0
  6 13  1  0
  7 19  4  0
  8 18  1  0
  8 23  1  0
  8 28  2  0
  9 17  1  0
  9 24  1  0
 10 11  1  0
 10 24  1  0
 11 23  1  0
 12 14  4  0
 12 16  4  0
 14 19  4  0
 15 18  4  0
 16 20  4  0
 17 25  1  0
 18 26  4  0
 19 29  4  0
 20 29  4  0
 21 23  1  0
 21 25  1  0
 27 29  4  0
M  END
$$$$

 Created by Python create_sdf_string function

 29 32  0  0  0  0  0  0  0  0999 V2000
    5.4450    8.7154   22.6662 C   0  0  0  0  0  0  0  0  0  0  0  0
   10.9154    5.4574   20.5483 C   0  0  0  0  0  0  0  0  0  0  0  0
    7.2709    4.5089   22.7542 C   0  0  0  0  0  0  0  0  0  0  0  0
    5.9698    7.6329   24.6581 C   0  0  0  0  0  0  0  0  0  0  0  0
    4.5542    8.9057   21.7104 O   0  0  0  0  0  0  0  0  0  0  0  0
    6.9895    3.2085   23.0690 C   0  0  0  0  0  0  0  0  0  0  0  0
    7.8391    2.2253   22.7260 N   0  0  0  0  0  0  0  0  0  0  0  0
    8.6968    9.8373   23.6359 C   0  0  0  0  0  0  0  0  0  0  0  0
   12.5135    6.5957   21.8396 C   0  0  0  0  0  0  0  0  0  0  0  0
   10.9406    8.2330   21.1350 C   0  0  0  0  0  0  0  0  0  0  0  0
    9.6648    8.5956   21.7310 C   0  0  0  0  0  0  0  0  0  0  0  0
   10.8829    1.7153   20.9865 C   0  0  0  0  0  0  0  0  0  0  0  0
    5.7768    2.8533   23.7910 C   0  0  0  0  0  0  0  0  0  0  0  0
    9.7977    1.4791   21.6912 N   0  0  0  0  0  0  0  0  0  0  0  0
    6.5976    9.3401   22.6478 N   0  0  0  0  0  0  0  0  0  0  0  0
   11.2031    3.0042   20.6246 C   0  0  0  0  0  0  0  0  0  0  0  0
   12.8688    7.7370   22.7287 C   0  0  0  0  0  0  0  0  0  0  0  0
    7.4487    9.1361   23.6506 C   0  0  0  0  0  0  0  0  0  0  0  0
    8.9772    2.5025   22.0273 C   0  0  0  0  0  0  0  0  0  0  0  0
   10.4859    4.0901   20.9730 C   0  0  0  0  0  0  0  0  0  0  0  0
   11.0962    9.3293   23.5072 C   0  0  0  0  0  0  0  0  0  0  0  0
    5.1273    7.8529   23.6208 N   0  0  0  0  0  0  0  0  0  0  0  0
    9.7552    9.2338   23.0171 N   0  0  0  0  0  0  0  0  0  0  0  0
   11.1797    6.7591   21.3326 N   0  0  0  0  0  0  0  0  0  0  0  0
   11.7728    8.0337   23.7267 C   0  0  0  0  0  0  0  0  0  0  0  0
    7.1194    8.3344   24.6775 C   0  0  0  0  0  0  0  0  0  0  0  0
    8.4311    4.7963   22.0500 C   0  0  0  0  0  0  0  0  0  0  0  0
    8.7393   10.8706   24.1871 O   0  0  0  0  0  0  0  0  0  0  0  0
    9.3093    3.8166   21.6712 C   0  0  0  0  0  0  0  0  0  0  0  0
  1  5  1  0
  1 15  4  0
  1 22  4  0
  2 20  1  0
  2 24  1  0
  3  6  4  0
  3 27  4  0
  4 22  4  0
  4 26  4  0
  6  7  4  0
  6 13  1  0
  7 19  4  0
  8 18  1  0
  8 23  1  0
  8 28  2  0
  9 17  1  0
  9 24  1  0
 10 11  1  0
 10 24  1  0
 11 23  1  0
 12 14  4  0
 12 16  4  0
 14 19  4  0
 15 18  4  0
 16 20  4  0
 17 25  1  0
 18 26  4  0
 19 29  4  0
 20 29  4  0
 21 23  1  0
 21 25  1  0
 27 29  4  0
M  END
$$$$

 Created by Python create_sdf_string function

 29 32  0  0  0  0  0  0  0  0999 V2000
    5.4450    8.7154   22.6662 C   0  0  0  0  0  0  0  0  0  0  0  0
   10.9154    5.4574   20.5483 C   0  0  0  0  0  0  0  0  0  0  0  0
    7.2709    4.5089   22.7542 C   0  0  0  0  0  0  0  0  0  0  0  0
    5.9698    7.6329   24.6581 C   0  0  0  0  0  0  0  0  0  0  0  0
    4.5542    8.9057   21.7104 O   0  0  0  0  0  0  0  0  0  0  0  0
    6.9895    3.2085   23.0690 C   0  0  0  0  0  0  0  0  0  0  0  0
    7.8391    2.2253   22.7260 N   0  0  0  0  0  0  0  0  0  0  0  0
    8.6968    9.8373   23.6359 C   0  0  0  0  0  0  0  0  0  0  0  0
   12.5135    6.5957   21.8396 C   0  0  0  0  0  0  0  0  0  0  0  0
   10.9406    8.2330   21.1350 C   0  0  0  0  0  0  0  0  0  0  0  0
    9.6648    8.5956   21.7310 C   0  0  0  0  0  0  0  0  0  0  0  0
   10.8829    1.7153   20.9865 C   0  0  0  0  0  0  0  0  0  0  0  0
    5.7768    2.8533   23.7910 C   0  0  0  0  0  0  0  0  0  0  0  0
    9.7977    1.4791   21.6912 N   0  0  0  0  0  0  0  0  0  0  0  0
    6.5976    9.3401   22.6478 N   0  0  0  0  0  0  0  0  0  0  0  0
   11.2031    3.0042   20.6246 C   0  0  0  0  0  0  0  0  0  0  0  0
   12.8688    7.7370   22.7287 C   0  0  0  0  0  0  0  0  0  0  0  0
    7.4487    9.1361   23.6506 C   0  0  0  0  0  0  0  0  0  0  0  0
    8.9772    2.5025   22.0273 C   0  0  0  0  0  0  0  0  0  0  0  0
   10.4859    4.0901   20.9730 C   0  0  0  0  0  0  0  0  0  0  0  0
   11.0962    9.3293   23.5072 C   0  0  0  0  0  0  0  0  0  0  0  0
    5.1273    7.8529   23.6208 N   0  0  0  0  0  0  0  0  0  0  0  0
    9.7552    9.2338   23.0171 N   0  0  0  0  0  0  0  0  0  0  0  0
   11.1797    6.7591   21.3326 N   0  0  0  0  0  0  0  0  0  0  0  0
   11.7728    8.0337   23.7267 C   0  0  0  0  0  0  0  0  0  0  0  0
    7.1194    8.3344   24.6775 C   0  0  0  0  0  0  0  0  0  0  0  0
    8.4311    4.7963   22.0500 C   0  0  0  0  0  0  0  0  0  0  0  0
    8.7393   10.8706   24.1871 O   0  0  0  0  0  0  0  0  0  0  0  0
    9.3093    3.8166   21.6712 C   0  0  0  0  0  0  0  0  0  0  0  0
  1  5  1  0
  1 15  4  0
  1 22  4  0
  2 20  1  0
  2 24  1  0
  3  6  4  0
  3 27  4  0
  4 22  4  0
  4 26  4  0
  6  7  4  0
  6 13  1  0
  7 19  4  0
  8 18  1  0
  8 23  1  0
  8 28  2  0
  9 17  1  0
  9 24  1  0
 10 11  1  0
 10 24  1  0
 11 23  1  0
 12 14  4  0
 12 16  4  0
 14 19  4  0
 15 18  4  0
 16 20  4  0
 17 25  1  0
 18 26  4  0
 19 29  4  0
 20 29  4  0
 21 23  1  0
 21 25  1  0
 27 29  4  0
M  END
$$$$

 Created by Python create_sdf_string function

 29 32  0  0  0  0  0  0  0  0999 V2000
    5.4450    8.7154   22.6662 C   0  0  0  0  0  0  0  0  0  0  0  0
   10.9154    5.4574   20.5483 C   0  0  0  0  0  0  0  0  0  0  0  0
    7.2709    4.5089   22.7542 C   0  0  0  0  0  0  0  0  0  0  0  0
    5.9698    7.6329   24.6581 C   0  0  0  0  0  0  0  0  0  0  0  0
    4.5542    8.9057   21.7104 O   0  0  0  0  0  0  0  0  0  0  0  0
    6.9895    3.2085   23.0690 C   0  0  0  0  0  0  0  0  0  0  0  0
    7.8391    2.2253   22.7260 N   0  0  0  0  0  0  0  0  0  0  0  0
    8.6968    9.8373   23.6359 C   0  0  0  0  0  0  0  0  0  0  0  0
   12.5135    6.5957   21.8396 C   0  0  0  0  0  0  0  0  0  0  0  0
   10.9406    8.2330   21.1350 C   0  0  0  0  0  0  0  0  0  0  0  0
    9.6648    8.5956   21.7310 C   0  0  0  0  0  0  0  0  0  0  0  0
   10.8829    1.7153   20.9865 C   0  0  0  0  0  0  0  0  0  0  0  0
    5.7768    2.8533   23.7910 C   0  0  0  0  0  0  0  0  0  0  0  0
    9.7977    1.4791   21.6912 N   0  0  0  0  0  0  0  0  0  0  0  0
    6.5976    9.3401   22.6478 N   0  0  0  0  0  0  0  0  0  0  0  0
   11.2031    3.0042   20.6246 C   0  0  0  0  0  0  0  0  0  0  0  0
   12.8688    7.7370   22.7287 C   0  0  0  0  0  0  0  0  0  0  0  0
    7.4487    9.1361   23.6506 C   0  0  0  0  0  0  0  0  0  0  0  0
    8.9772    2.5025   22.0273 C   0  0  0  0  0  0  0  0  0  0  0  0
   10.4859    4.0901   20.9730 C   0  0  0  0  0  0  0  0  0  0  0  0
   11.0962    9.3293   23.5072 C   0  0  0  0  0  0  0  0  0  0  0  0
    5.1273    7.8529   23.6208 N   0  0  0  0  0  0  0  0  0  0  0  0
    9.7552    9.2338   23.0171 N   0  0  0  0  0  0  0  0  0  0  0  0
   11.1797    6.7591   21.3326 N   0  0  0  0  0  0  0  0  0  0  0  0
   11.7728    8.0337   23.7267 C   0  0  0  0  0  0  0  0  0  0  0  0
    7.1194    8.3344   24.6775 C   0  0  0  0  0  0  0  0  0  0  0  0
    8.4311    4.7963   22.0500 C   0  0  0  0  0  0  0  0  0  0  0  0
    8.7393   10.8706   24.1871 O   0  0  0  0  0  0  0  0  0  0  0  0
    9.3093    3.8166   21.6712 C   0  0  0  0  0  0  0  0  0  0  0  0
  1  5  1  0
  1 15  4  0
  1 22  4  0
  2 20  1  0
  2 24  1  0
  3  6  4  0
  3 27  4  0
  4 22  4  0
  4 26  4  0
  6  7  4  0
  6 13  1  0
  7 19  4  0
  8 18  1  0
  8 23  1  0
  8 28  2  0
  9 17  1  0
  9 24  1  0
 10 11  1  0
 10 24  1  0
 11 23  1  0
 12 14  4  0
 12 16  4  0
 14 19  4  0
 15 18  4  0
 16 20  4  0
 17 25  1  0
 18 26  4  0
 19 29  4  0
 20 29  4  0
 21 23  1  0
 21 25  1  0
 27 29  4  0
M  END
$$$$

 Created by Python create_sdf_string function

 29 32  0  0  0  0  0  0  0  0999 V2000
    5.4450    8.7154   22.6662 C   0  0  0  0  0  0  0  0  0  0  0  0
   10.9154    5.4574   20.5483 C   0  0  0  0  0  0  0  0  0  0  0  0
    7.2709    4.5089   22.7542 C   0  0  0  0  0  0  0  0  0  0  0  0
    5.9698    7.6329   24.6581 C   0  0  0  0  0  0  0  0  0  0  0  0
    4.5542    8.9057   21.7104 O   0  0  0  0  0  0  0  0  0  0  0  0
    6.9895    3.2085   23.0690 C   0  0  0  0  0  0  0  0  0  0  0  0
    7.8391    2.2253   22.7260 N   0  0  0  0  0  0  0  0  0  0  0  0
    8.6968    9.8373   23.6359 C   0  0  0  0  0  0  0  0  0  0  0  0
   12.5135    6.5957   21.8396 C   0  0  0  0  0  0  0  0  0  0  0  0
   10.9406    8.2330   21.1350 C   0  0  0  0  0  0  0  0  0  0  0  0
    9.6648    8.5956   21.7310 C   0  0  0  0  0  0  0  0  0  0  0  0
   10.8829    1.7153   20.9865 C   0  0  0  0  0  0  0  0  0  0  0  0
    5.7768    2.8533   23.7910 C   0  0  0  0  0  0  0  0  0  0  0  0
    9.7977    1.4791   21.6912 N   0  0  0  0  0  0  0  0  0  0  0  0
    6.5976    9.3401   22.6478 N   0  0  0  0  0  0  0  0  0  0  0  0
   11.2031    3.0042   20.6246 C   0  0  0  0  0  0  0  0  0  0  0  0
   12.8688    7.7370   22.7287 C   0  0  0  0  0  0  0  0  0  0  0  0
    7.4487    9.1361   23.6506 C   0  0  0  0  0  0  0  0  0  0  0  0
    8.9772    2.5025   22.0273 C   0  0  0  0  0  0  0  0  0  0  0  0
   10.4859    4.0901   20.9730 C   0  0  0  0  0  0  0  0  0  0  0  0
   11.0962    9.3293   23.5072 C   0  0  0  0  0  0  0  0  0  0  0  0
    5.1273    7.8529   23.6208 N   0  0  0  0  0  0  0  0  0  0  0  0
    9.7552    9.2338   23.0171 N   0  0  0  0  0  0  0  0  0  0  0  0
   11.1797    6.7591   21.3326 N   0  0  0  0  0  0  0  0  0  0  0  0
   11.7728    8.0337   23.7267 C   0  0  0  0  0  0  0  0  0  0  0  0
    7.1194    8.3344   24.6775 C   0  0  0  0  0  0  0  0  0  0  0  0
    8.4311    4.7963   22.0500 C   0  0  0  0  0  0  0  0  0  0  0  0
    8.7393   10.8706   24.1871 O   0  0  0  0  0  0  0  0  0  0  0  0
    9.3093    3.8166   21.6712 C   0  0  0  0  0  0  0  0  0  0  0  0
  1  5  1  0
  1 15  4  0
  1 22  4  0
  2 20  1  0
  2 24  1  0
  3  6  4  0
  3 27  4  0
  4 22  4  0
  4 26  4  0
  6  7  4  0
  6 13  1  0
  7 19  4  0
  8 18  1  0
  8 23  1  0
  8 28  2  0
  9 17  1  0
  9 24  1  0
 10 11  1  0
 10 24  1  0
 11 23  1  0
 12 14  4  0
 12 16  4  0
 14 19  4  0
 15 18  4  0
 16 20  4  0
 17 25  1  0
 18 26  4  0
 19 29  4  0
 20 29  4  0
 21 23  1  0
 21 25  1  0
 27 29  4  0
M  END
$$$$

 Created by Python create_sdf_string function

 29 32  0  0  0  0  0  0  0  0999 V2000
    5.4450    8.7154   22.6662 C   0  0  0  0  0  0  0  0  0  0  0  0
   10.9154    5.4574   20.5483 C   0  0  0  0  0  0  0  0  0  0  0  0
    7.2709    4.5089   22.7542 C   0  0  0  0  0  0  0  0  0  0  0  0
    5.9698    7.6329   24.6581 C   0  0  0  0  0  0  0  0  0  0  0  0
    4.5542    8.9057   21.7104 O   0  0  0  0  0  0  0  0  0  0  0  0
    6.9895    3.2085   23.0690 C   0  0  0  0  0  0  0  0  0  0  0  0
    7.8391    2.2253   22.7260 N   0  0  0  0  0  0  0  0  0  0  0  0
    8.6968    9.8373   23.6359 C   0  0  0  0  0  0  0  0  0  0  0  0
   12.5135    6.5957   21.8396 C   0  0  0  0  0  0  0  0  0  0  0  0
   10.9406    8.2330   21.1350 C   0  0  0  0  0  0  0  0  0  0  0  0
    9.6648    8.5956   21.7310 C   0  0  0  0  0  0  0  0  0  0  0  0
   10.8829    1.7153   20.9865 C   0  0  0  0  0  0  0  0  0  0  0  0
    5.7768    2.8533   23.7910 C   0  0  0  0  0  0  0  0  0  0  0  0
    9.7977    1.4791   21.6912 N   0  0  0  0  0  0  0  0  0  0  0  0
    6.5976    9.3401   22.6478 N   0  0  0  0  0  0  0  0  0  0  0  0
   11.2031    3.0042   20.6246 C   0  0  0  0  0  0  0  0  0  0  0  0
   12.8688    7.7370   22.7287 C   0  0  0  0  0  0  0  0  0  0  0  0
    7.4487    9.1361   23.6506 C   0  0  0  0  0  0  0  0  0  0  0  0
    8.9772    2.5025   22.0273 C   0  0  0  0  0  0  0  0  0  0  0  0
   10.4859    4.0901   20.9730 C   0  0  0  0  0  0  0  0  0  0  0  0
   11.0962    9.3293   23.5072 C   0  0  0  0  0  0  0  0  0  0  0  0
    5.1273    7.8529   23.6208 N   0  0  0  0  0  0  0  0  0  0  0  0
    9.7552    9.2338   23.0171 N   0  0  0  0  0  0  0  0  0  0  0  0
   11.1797    6.7591   21.3326 N   0  0  0  0  0  0  0  0  0  0  0  0
   11.7728    8.0337   23.7267 C   0  0  0  0  0  0  0  0  0  0  0  0
    7.1194    8.3344   24.6775 C   0  0  0  0  0  0  0  0  0  0  0  0
    8.4311    4.7963   22.0500 C   0  0  0  0  0  0  0  0  0  0  0  0
    8.7393   10.8706   24.1871 O   0  0  0  0  0  0  0  0  0  0  0  0
    9.3093    3.8166   21.6712 C   0  0  0  0  0  0  0  0  0  0  0  0
  1  5  1  0
  1 15  4  0
  1 22  4  0
  2 20  1  0
  2 24  1  0
  3  6  4  0
  3 27  4  0
  4 22  4  0
  4 26  4  0
  6  7  4  0
  6 13  1  0
  7 19  4  0
  8 18  1  0
  8 23  1  0
  8 28  2  0
  9 17  1  0
  9 24  1  0
 10 11  1  0
 10 24  1  0
 11 23  1  0
 12 14  4  0
 12 16  4  0
 14 19  4  0
 15 18  4  0
 16 20  4  0
 17 25  1  0
 18 26  4  0
 19 29  4  0
 20 29  4  0
 21 23  1  0
 21 25  1  0
 27 29  4  0
M  END
$$$$

 Created by Python create_sdf_string function

 29 32  0  0  0  0  0  0  0  0999 V2000
    5.4450    8.7154   22.6662 C   0  0  0  0  0  0  0  0  0  0  0  0
   10.9154    5.4574   20.5483 C   0  0  0  0  0  0  0  0  0  0  0  0
    7.2709    4.5089   22.7542 C   0  0  0  0  0  0  0  0  0  0  0  0
    5.9698    7.6329   24.6581 C   0  0  0  0  0  0  0  0  0  0  0  0
    4.5542    8.9057   21.7104 O   0  0  0  0  0  0  0  0  0  0  0  0
    6.9895    3.2085   23.0690 C   0  0  0  0  0  0  0  0  0  0  0  0
    7.8391    2.2253   22.7260 N   0  0  0  0  0  0  0  0  0  0  0  0
    8.6968    9.8373   23.6359 C   0  0  0  0  0  0  0  0  0  0  0  0
   12.5135    6.5957   21.8396 C   0  0  0  0  0  0  0  0  0  0  0  0
   10.9406    8.2330   21.1350 C   0  0  0  0  0  0  0  0  0  0  0  0
    9.6648    8.5956   21.7310 C   0  0  0  0  0  0  0  0  0  0  0  0
   10.8829    1.7153   20.9865 C   0  0  0  0  0  0  0  0  0  0  0  0
    5.7768    2.8533   23.7910 C   0  0  0  0  0  0  0  0  0  0  0  0
    9.7977    1.4791   21.6912 N   0  0  0  0  0  0  0  0  0  0  0  0
    6.5976    9.3401   22.6478 N   0  0  0  0  0  0  0  0  0  0  0  0
   11.2031    3.0042   20.6246 C   0  0  0  0  0  0  0  0  0  0  0  0
   12.8688    7.7370   22.7287 C   0  0  0  0  0  0  0  0  0  0  0  0
    7.4487    9.1361   23.6506 C   0  0  0  0  0  0  0  0  0  0  0  0
    8.9772    2.5025   22.0273 C   0  0  0  0  0  0  0  0  0  0  0  0
   10.4859    4.0901   20.9730 C   0  0  0  0  0  0  0  0  0  0  0  0
   11.0962    9.3293   23.5072 C   0  0  0  0  0  0  0  0  0  0  0  0
    5.1273    7.8529   23.6208 N   0  0  0  0  0  0  0  0  0  0  0  0
    9.7552    9.2338   23.0171 N   0  0  0  0  0  0  0  0  0  0  0  0
   11.1797    6.7591   21.3326 N   0  0  0  0  0  0  0  0  0  0  0  0
   11.7728    8.0337   23.7267 C   0  0  0  0  0  0  0  0  0  0  0  0
    7.1194    8.3344   24.6775 C   0  0  0  0  0  0  0  0  0  0  0  0
    8.4311    4.7963   22.0500 C   0  0  0  0  0  0  0  0  0  0  0  0
    8.7393   10.8706   24.1871 O   0  0  0  0  0  0  0  0  0  0  0  0
    9.3093    3.8166   21.6712 C   0  0  0  0  0  0  0  0  0  0  0  0
  1  5  1  0
  1 15  4  0
  1 22  4  0
  2 20  1  0
  2 24  1  0
  3  6  4  0
  3 27  4  0
  4 22  4  0
  4 26  4  0
  6  7  4  0
  6 13  1  0
  7 19  4  0
  8 18  1  0
  8 23  1  0
  8 28  2  0
  9 17  1  0
  9 24  1  0
 10 11  1  0
 10 24  1  0
 11 23  1  0
 12 14  4  0
 12 16  4  0
 14 19  4  0
 15 18  4  0
 16 20  4  0
 17 25  1  0
 18 26  4  0
 19 29  4  0
 20 29  4  0
 21 23  1  0
 21 25  1  0
 27 29  4  0
M  END
$$$$

 Created by Python create_sdf_string function

 29 32  0  0  0  0  0  0  0  0999 V2000
    5.4450    8.7154   22.6662 C   0  0  0  0  0  0  0  0  0  0  0  0
   10.9154    5.4574   20.5483 C   0  0  0  0  0  0  0  0  0  0  0  0
    7.2709    4.5089   22.7542 C   0  0  0  0  0  0  0  0  0  0  0  0
    5.9698    7.6329   24.6581 C   0  0  0  0  0  0  0  0  0  0  0  0
    4.5542    8.9057   21.7104 O   0  0  0  0  0  0  0  0  0  0  0  0
    6.9895    3.2085   23.0690 C   0  0  0  0  0  0  0  0  0  0  0  0
    7.8391    2.2253   22.7260 N   0  0  0  0  0  0  0  0  0  0  0  0
    8.6968    9.8373   23.6359 C   0  0  0  0  0  0  0  0  0  0  0  0
   12.5135    6.5957   21.8396 C   0  0  0  0  0  0  0  0  0  0  0  0
   10.9406    8.2330   21.1350 C   0  0  0  0  0  0  0  0  0  0  0  0
    9.6648    8.5956   21.7310 C   0  0  0  0  0  0  0  0  0  0  0  0
   10.8829    1.7153   20.9865 C   0  0  0  0  0  0  0  0  0  0  0  0
    5.7768    2.8533   23.7910 C   0  0  0  0  0  0  0  0  0  0  0  0
    9.7977    1.4791   21.6912 N   0  0  0  0  0  0  0  0  0  0  0  0
    6.5976    9.3401   22.6478 N   0  0  0  0  0  0  0  0  0  0  0  0
   11.2031    3.0042   20.6246 C   0  0  0  0  0  0  0  0  0  0  0  0
   12.8688    7.7370   22.7287 C   0  0  0  0  0  0  0  0  0  0  0  0
    7.4487    9.1361   23.6506 C   0  0  0  0  0  0  0  0  0  0  0  0
    8.9772    2.5025   22.0273 C   0  0  0  0  0  0  0  0  0  0  0  0
   10.4859    4.0901   20.9730 C   0  0  0  0  0  0  0  0  0  0  0  0
   11.0962    9.3293   23.5072 C   0  0  0  0  0  0  0  0  0  0  0  0
    5.1273    7.8529   23.6208 N   0  0  0  0  0  0  0  0  0  0  0  0
    9.7552    9.2338   23.0171 N   0  0  0  0  0  0  0  0  0  0  0  0
   11.1797    6.7591   21.3326 N   0  0  0  0  0  0  0  0  0  0  0  0
   11.7728    8.0337   23.7267 C   0  0  0  0  0  0  0  0  0  0  0  0
    7.1194    8.3344   24.6775 C   0  0  0  0  0  0  0  0  0  0  0  0
    8.4311    4.7963   22.0500 C   0  0  0  0  0  0  0  0  0  0  0  0
    8.7393   10.8706   24.1871 O   0  0  0  0  0  0  0  0  0  0  0  0
    9.3093    3.8166   21.6712 C   0  0  0  0  0  0  0  0  0  0  0  0
  1  5  1  0
  1 15  4  0
  1 22  4  0
  2 20  1  0
  2 24  1  0
  3  6  4  0
  3 27  4  0
  4 22  4  0
  4 26  4  0
  6  7  4  0
  6 13  1  0
  7 19  4  0
  8 18  1  0
  8 23  1  0
  8 28  2  0
  9 17  1  0
  9 24  1  0
 10 11  1  0
 10 24  1  0
 11 23  1  0
 12 14  4  0
 12 16  4  0
 14 19  4  0
 15 18  4  0
 16 20  4  0
 17 25  1  0
 18 26  4  0
 19 29  4  0
 20 29  4  0
 21 23  1  0
 21 25  1  0
 27 29  4  0
M  END
$$$$

 Created by Python create_sdf_string function

 29 32  0  0  0  0  0  0  0  0999 V2000
    5.4450    8.7154   22.6662 C   0  0  0  0  0  0  0  0  0  0  0  0
   10.9154    5.4574   20.5483 C   0  0  0  0  0  0  0  0  0  0  0  0
    7.2709    4.5089   22.7542 C   0  0  0  0  0  0  0  0  0  0  0  0
    5.9698    7.6329   24.6581 C   0  0  0  0  0  0  0  0  0  0  0  0
    4.5542    8.9057   21.7104 O   0  0  0  0  0  0  0  0  0  0  0  0
    6.9895    3.2085   23.0690 C   0  0  0  0  0  0  0  0  0  0  0  0
    7.8391    2.2253   22.7260 N   0  0  0  0  0  0  0  0  0  0  0  0
    8.6968    9.8373   23.6359 C   0  0  0  0  0  0  0  0  0  0  0  0
   12.5135    6.5957   21.8396 C   0  0  0  0  0  0  0  0  0  0  0  0
   10.9406    8.2330   21.1350 C   0  0  0  0  0  0  0  0  0  0  0  0
    9.6648    8.5956   21.7310 C   0  0  0  0  0  0  0  0  0  0  0  0
   10.8829    1.7153   20.9865 C   0  0  0  0  0  0  0  0  0  0  0  0
    5.7768    2.8533   23.7910 C   0  0  0  0  0  0  0  0  0  0  0  0
    9.7977    1.4791   21.6912 N   0  0  0  0  0  0  0  0  0  0  0  0
    6.5976    9.3401   22.6478 N   0  0  0  0  0  0  0  0  0  0  0  0
   11.2031    3.0042   20.6246 C   0  0  0  0  0  0  0  0  0  0  0  0
   12.8688    7.7370   22.7287 C   0  0  0  0  0  0  0  0  0  0  0  0
    7.4487    9.1361   23.6506 C   0  0  0  0  0  0  0  0  0  0  0  0
    8.9772    2.5025   22.0273 C   0  0  0  0  0  0  0  0  0  0  0  0
   10.4859    4.0901   20.9730 C   0  0  0  0  0  0  0  0  0  0  0  0
   11.0962    9.3293   23.5072 C   0  0  0  0  0  0  0  0  0  0  0  0
    5.1273    7.8529   23.6208 N   0  0  0  0  0  0  0  0  0  0  0  0
    9.7552    9.2338   23.0171 N   0  0  0  0  0  0  0  0  0  0  0  0
   11.1797    6.7591   21.3326 N   0  0  0  0  0  0  0  0  0  0  0  0
   11.7728    8.0337   23.7267 C   0  0  0  0  0  0  0  0  0  0  0  0
    7.1194    8.3344   24.6775 C   0  0  0  0  0  0  0  0  0  0  0  0
    8.4311    4.7963   22.0500 C   0  0  0  0  0  0  0  0  0  0  0  0
    8.7393   10.8706   24.1871 O   0  0  0  0  0  0  0  0  0  0  0  0
    9.3093    3.8166   21.6712 C   0  0  0  0  0  0  0  0  0  0  0  0
  1  5  1  0
  1 15  4  0
  1 22  4  0
  2 20  1  0
  2 24  1  0
  3  6  4  0
  3 27  4  0
  4 22  4  0
  4 26  4  0
  6  7  4  0
  6 13  1  0
  7 19  4  0
  8 18  1  0
  8 23  1  0
  8 28  2  0
  9 17  1  0
  9 24  1  0
 10 11  1  0
 10 24  1  0
 11 23  1  0
 12 14  4  0
 12 16  4  0
 14 19  4  0
 15 18  4  0
 16 20  4  0
 17 25  1  0
 18 26  4  0
 19 29  4  0
 20 29  4  0
 21 23  1  0
 21 25  1  0
 27 29  4  0
M  END
$$$$

 Created by Python create_sdf_string function

 29 32  0  0  0  0  0  0  0  0999 V2000
    5.4450    8.7154   22.6662 C   0  0  0  0  0  0  0  0  0  0  0  0
   10.9154    5.4574   20.5483 C   0  0  0  0  0  0  0  0  0  0  0  0
    7.2709    4.5089   22.7542 C   0  0  0  0  0  0  0  0  0  0  0  0
    5.9698    7.6329   24.6581 C   0  0  0  0  0  0  0  0  0  0  0  0
    4.5542    8.9057   21.7104 O   0  0  0  0  0  0  0  0  0  0  0  0
    6.9895    3.2085   23.0690 C   0  0  0  0  0  0  0  0  0  0  0  0
    7.8391    2.2253   22.7260 N   0  0  0  0  0  0  0  0  0  0  0  0
    8.6968    9.8373   23.6359 C   0  0  0  0  0  0  0  0  0  0  0  0
   12.5135    6.5957   21.8396 C   0  0  0  0  0  0  0  0  0  0  0  0
   10.9406    8.2330   21.1350 C   0  0  0  0  0  0  0  0  0  0  0  0
    9.6648    8.5956   21.7310 C   0  0  0  0  0  0  0  0  0  0  0  0
   10.8829    1.7153   20.9865 C   0  0  0  0  0  0  0  0  0  0  0  0
    5.7768    2.8533   23.7910 C   0  0  0  0  0  0  0  0  0  0  0  0
    9.7977    1.4791   21.6912 N   0  0  0  0  0  0  0  0  0  0  0  0
    6.5976    9.3401   22.6478 N   0  0  0  0  0  0  0  0  0  0  0  0
   11.2031    3.0042   20.6246 C   0  0  0  0  0  0  0  0  0  0  0  0
   12.8688    7.7370   22.7287 C   0  0  0  0  0  0  0  0  0  0  0  0
    7.4487    9.1361   23.6506 C   0  0  0  0  0  0  0  0  0  0  0  0
    8.9772    2.5025   22.0273 C   0  0  0  0  0  0  0  0  0  0  0  0
   10.4859    4.0901   20.9730 C   0  0  0  0  0  0  0  0  0  0  0  0
   11.0962    9.3293   23.5072 C   0  0  0  0  0  0  0  0  0  0  0  0
    5.1273    7.8529   23.6208 N   0  0  0  0  0  0  0  0  0  0  0  0
    9.7552    9.2338   23.0171 N   0  0  0  0  0  0  0  0  0  0  0  0
   11.1797    6.7591   21.3326 N   0  0  0  0  0  0  0  0  0  0  0  0
   11.7728    8.0337   23.7267 C   0  0  0  0  0  0  0  0  0  0  0  0
    7.1194    8.3344   24.6775 C   0  0  0  0  0  0  0  0  0  0  0  0
    8.4311    4.7963   22.0500 C   0  0  0  0  0  0  0  0  0  0  0  0
    8.7393   10.8706   24.1871 O   0  0  0  0  0  0  0  0  0  0  0  0
    9.3093    3.8166   21.6712 C   0  0  0  0  0  0  0  0  0  0  0  0
  1  5  1  0
  1 15  4  0
  1 22  4  0
  2 20  1  0
  2 24  1  0
  3  6  4  0
  3 27  4  0
  4 22  4  0
  4 26  4  0
  6  7  4  0
  6 13  1  0
  7 19  4  0
  8 18  1  0
  8 23  1  0
  8 28  2  0
  9 17  1  0
  9 24  1  0
 10 11  1  0
 10 24  1  0
 11 23  1  0
 12 14  4  0
 12 16  4  0
 14 19  4  0
 15 18  4  0
 16 20  4  0
 17 25  1  0
 18 26  4  0
 19 29  4  0
 20 29  4  0
 21 23  1  0
 21 25  1  0
 27 29  4  0
M  END
$$$$

 Created by Python create_sdf_string function

 29 32  0  0  0  0  0  0  0  0999 V2000
    5.4450    8.7154   22.6662 C   0  0  0  0  0  0  0  0  0  0  0  0
   10.9154    5.4574   20.5483 C   0  0  0  0  0  0  0  0  0  0  0  0
    7.2709    4.5089   22.7542 C   0  0  0  0  0  0  0  0  0  0  0  0
    5.9698    7.6329   24.6581 C   0  0  0  0  0  0  0  0  0  0  0  0
    4.5542    8.9057   21.7104 O   0  0  0  0  0  0  0  0  0  0  0  0
    6.9895    3.2085   23.0690 C   0  0  0  0  0  0  0  0  0  0  0  0
    7.8391    2.2253   22.7260 N   0  0  0  0  0  0  0  0  0  0  0  0
    8.6968    9.8373   23.6359 C   0  0  0  0  0  0  0  0  0  0  0  0
   12.5135    6.5957   21.8396 C   0  0  0  0  0  0  0  0  0  0  0  0
   10.9406    8.2330   21.1350 C   0  0  0  0  0  0  0  0  0  0  0  0
    9.6648    8.5956   21.7310 C   0  0  0  0  0  0  0  0  0  0  0  0
   10.8829    1.7153   20.9865 C   0  0  0  0  0  0  0  0  0  0  0  0
    5.7768    2.8533   23.7910 C   0  0  0  0  0  0  0  0  0  0  0  0
    9.7977    1.4791   21.6912 N   0  0  0  0  0  0  0  0  0  0  0  0
    6.5976    9.3401   22.6478 N   0  0  0  0  0  0  0  0  0  0  0  0
   11.2031    3.0042   20.6246 C   0  0  0  0  0  0  0  0  0  0  0  0
   12.8688    7.7370   22.7287 C   0  0  0  0  0  0  0  0  0  0  0  0
    7.4487    9.1361   23.6506 C   0  0  0  0  0  0  0  0  0  0  0  0
    8.9772    2.5025   22.0273 C   0  0  0  0  0  0  0  0  0  0  0  0
   10.4859    4.0901   20.9730 C   0  0  0  0  0  0  0  0  0  0  0  0
   11.0962    9.3293   23.5072 C   0  0  0  0  0  0  0  0  0  0  0  0
    5.1273    7.8529   23.6208 N   0  0  0  0  0  0  0  0  0  0  0  0
    9.7552    9.2338   23.0171 N   0  0  0  0  0  0  0  0  0  0  0  0
   11.1797    6.7591   21.3326 N   0  0  0  0  0  0  0  0  0  0  0  0
   11.7728    8.0337   23.7267 C   0  0  0  0  0  0  0  0  0  0  0  0
    7.1194    8.3344   24.6775 C   0  0  0  0  0  0  0  0  0  0  0  0
    8.4311    4.7963   22.0500 C   0  0  0  0  0  0  0  0  0  0  0  0
    8.7393   10.8706   24.1871 O   0  0  0  0  0  0  0  0  0  0  0  0
    9.3093    3.8166   21.6712 C   0  0  0  0  0  0  0  0  0  0  0  0
  1  5  1  0
  1 15  4  0
  1 22  4  0
  2 20  1  0
  2 24  1  0
  3  6  4  0
  3 27  4  0
  4 22  4  0
  4 26  4  0
  6  7  4  0
  6 13  1  0
  7 19  4  0
  8 18  1  0
  8 23  1  0
  8 28  2  0
  9 17  1  0
  9 24  1  0
 10 11  1  0
 10 24  1  0
 11 23  1  0
 12 14  4  0
 12 16  4  0
 14 19  4  0
 15 18  4  0
 16 20  4  0
 17 25  1  0
 18 26  4  0
 19 29  4  0
 20 29  4  0
 21 23  1  0
 21 25  1  0
 27 29  4  0
M  END
$$$$

 Created by Python create_sdf_string function

 29 32  0  0  0  0  0  0  0  0999 V2000
    5.4450    8.7154   22.6662 C   0  0  0  0  0  0  0  0  0  0  0  0
   10.9154    5.4574   20.5483 C   0  0  0  0  0  0  0  0  0  0  0  0
    7.2709    4.5089   22.7542 C   0  0  0  0  0  0  0  0  0  0  0  0
    5.9698    7.6329   24.6581 C   0  0  0  0  0  0  0  0  0  0  0  0
    4.5542    8.9057   21.7104 O   0  0  0  0  0  0  0  0  0  0  0  0
    6.9895    3.2085   23.0690 C   0  0  0  0  0  0  0  0  0  0  0  0
    7.8391    2.2253   22.7260 N   0  0  0  0  0  0  0  0  0  0  0  0
    8.6968    9.8373   23.6359 C   0  0  0  0  0  0  0  0  0  0  0  0
   12.5135    6.5957   21.8396 C   0  0  0  0  0  0  0  0  0  0  0  0
   10.9406    8.2330   21.1350 C   0  0  0  0  0  0  0  0  0  0  0  0
    9.6648    8.5956   21.7310 C   0  0  0  0  0  0  0  0  0  0  0  0
   10.8829    1.7153   20.9865 C   0  0  0  0  0  0  0  0  0  0  0  0
    5.7768    2.8533   23.7910 C   0  0  0  0  0  0  0  0  0  0  0  0
    9.7977    1.4791   21.6912 N   0  0  0  0  0  0  0  0  0  0  0  0
    6.5976    9.3401   22.6478 N   0  0  0  0  0  0  0  0  0  0  0  0
   11.2031    3.0042   20.6246 C   0  0  0  0  0  0  0  0  0  0  0  0
   12.8688    7.7370   22.7287 C   0  0  0  0  0  0  0  0  0  0  0  0
    7.4487    9.1361   23.6506 C   0  0  0  0  0  0  0  0  0  0  0  0
    8.9772    2.5025   22.0273 C   0  0  0  0  0  0  0  0  0  0  0  0
   10.4859    4.0901   20.9730 C   0  0  0  0  0  0  0  0  0  0  0  0
   11.0962    9.3293   23.5072 C   0  0  0  0  0  0  0  0  0  0  0  0
    5.1273    7.8529   23.6208 N   0  0  0  0  0  0  0  0  0  0  0  0
    9.7552    9.2338   23.0171 N   0  0  0  0  0  0  0  0  0  0  0  0
   11.1797    6.7591   21.3326 N   0  0  0  0  0  0  0  0  0  0  0  0
   11.7728    8.0337   23.7267 C   0  0  0  0  0  0  0  0  0  0  0  0
    7.1194    8.3344   24.6775 C   0  0  0  0  0  0  0  0  0  0  0  0
    8.4311    4.7963   22.0500 C   0  0  0  0  0  0  0  0  0  0  0  0
    8.7393   10.8706   24.1871 O   0  0  0  0  0  0  0  0  0  0  0  0
    9.3093    3.8166   21.6712 C   0  0  0  0  0  0  0  0  0  0  0  0
  1  5  1  0
  1 15  4  0
  1 22  4  0
  2 20  1  0
  2 24  1  0
  3  6  4  0
  3 27  4  0
  4 22  4  0
  4 26  4  0
  6  7  4  0
  6 13  1  0
  7 19  4  0
  8 18  1  0
  8 23  1  0
  8 28  2  0
  9 17  1  0
  9 24  1  0
 10 11  1  0
 10 24  1  0
 11 23  1  0
 12 14  4  0
 12 16  4  0
 14 19  4  0
 15 18  4  0
 16 20  4  0
 17 25  1  0
 18 26  4  0
 19 29  4  0
 20 29  4  0
 21 23  1  0
 21 25  1  0
 27 29  4  0
M  END
$$$$

 Created by Python create_sdf_string function

 29 32  0  0  0  0  0  0  0  0999 V2000
    5.4450    8.7154   22.6662 C   0  0  0  0  0  0  0  0  0  0  0  0
   10.9154    5.4574   20.5483 C   0  0  0  0  0  0  0  0  0  0  0  0
    7.2709    4.5089   22.7542 C   0  0  0  0  0  0  0  0  0  0  0  0
    5.9698    7.6329   24.6581 C   0  0  0  0  0  0  0  0  0  0  0  0
    4.5542    8.9057   21.7104 O   0  0  0  0  0  0  0  0  0  0  0  0
    6.9895    3.2085   23.0690 C   0  0  0  0  0  0  0  0  0  0  0  0
    7.8391    2.2253   22.7260 N   0  0  0  0  0  0  0  0  0  0  0  0
    8.6968    9.8373   23.6359 C   0  0  0  0  0  0  0  0  0  0  0  0
   12.5135    6.5957   21.8396 C   0  0  0  0  0  0  0  0  0  0  0  0
   10.9406    8.2330   21.1350 C   0  0  0  0  0  0  0  0  0  0  0  0
    9.6648    8.5956   21.7310 C   0  0  0  0  0  0  0  0  0  0  0  0
   10.8829    1.7153   20.9865 C   0  0  0  0  0  0  0  0  0  0  0  0
    5.7768    2.8533   23.7910 C   0  0  0  0  0  0  0  0  0  0  0  0
    9.7977    1.4791   21.6912 N   0  0  0  0  0  0  0  0  0  0  0  0
    6.5976    9.3401   22.6478 N   0  0  0  0  0  0  0  0  0  0  0  0
   11.2031    3.0042   20.6246 C   0  0  0  0  0  0  0  0  0  0  0  0
   12.8688    7.7370   22.7287 C   0  0  0  0  0  0  0  0  0  0  0  0
    7.4487    9.1361   23.6506 C   0  0  0  0  0  0  0  0  0  0  0  0
    8.9772    2.5025   22.0273 C   0  0  0  0  0  0  0  0  0  0  0  0
   10.4859    4.0901   20.9730 C   0  0  0  0  0  0  0  0  0  0  0  0
   11.0962    9.3293   23.5072 C   0  0  0  0  0  0  0  0  0  0  0  0
    5.1273    7.8529   23.6208 N   0  0  0  0  0  0  0  0  0  0  0  0
    9.7552    9.2338   23.0171 N   0  0  0  0  0  0  0  0  0  0  0  0
   11.1797    6.7591   21.3326 N   0  0  0  0  0  0  0  0  0  0  0  0
   11.7728    8.0337   23.7267 C   0  0  0  0  0  0  0  0  0  0  0  0
    7.1194    8.3344   24.6775 C   0  0  0  0  0  0  0  0  0  0  0  0
    8.4311    4.7963   22.0500 C   0  0  0  0  0  0  0  0  0  0  0  0
    8.7393   10.8706   24.1871 O   0  0  0  0  0  0  0  0  0  0  0  0
    9.3093    3.8166   21.6712 C   0  0  0  0  0  0  0  0  0  0  0  0
  1  5  1  0
  1 15  4  0
  1 22  4  0
  2 20  1  0
  2 24  1  0
  3  6  4  0
  3 27  4  0
  4 22  4  0
  4 26  4  0
  6  7  4  0
  6 13  1  0
  7 19  4  0
  8 18  1  0
  8 23  1  0
  8 28  2  0
  9 17  1  0
  9 24  1  0
 10 11  1  0
 10 24  1  0
 11 23  1  0
 12 14  4  0
 12 16  4  0
 14 19  4  0
 15 18  4  0
 16 20  4  0
 17 25  1  0
 18 26  4  0
 19 29  4  0
 20 29  4  0
 21 23  1  0
 21 25  1  0
 27 29  4  0
M  END
$$$$

 Created by Python create_sdf_string function

 29 32  0  0  0  0  0  0  0  0999 V2000
    5.4450    8.7154   22.6662 C   0  0  0  0  0  0  0  0  0  0  0  0
   10.9154    5.4574   20.5483 C   0  0  0  0  0  0  0  0  0  0  0  0
    7.2709    4.5089   22.7542 C   0  0  0  0  0  0  0  0  0  0  0  0
    5.9698    7.6329   24.6581 C   0  0  0  0  0  0  0  0  0  0  0  0
    4.5542    8.9057   21.7104 O   0  0  0  0  0  0  0  0  0  0  0  0
    6.9895    3.2085   23.0690 C   0  0  0  0  0  0  0  0  0  0  0  0
    7.8391    2.2253   22.7260 N   0  0  0  0  0  0  0  0  0  0  0  0
    8.6968    9.8373   23.6359 C   0  0  0  0  0  0  0  0  0  0  0  0
   12.5135    6.5957   21.8396 C   0  0  0  0  0  0  0  0  0  0  0  0
   10.9406    8.2330   21.1350 C   0  0  0  0  0  0  0  0  0  0  0  0
    9.6648    8.5956   21.7310 C   0  0  0  0  0  0  0  0  0  0  0  0
   10.8829    1.7153   20.9865 C   0  0  0  0  0  0  0  0  0  0  0  0
    5.7768    2.8533   23.7910 C   0  0  0  0  0  0  0  0  0  0  0  0
    9.7977    1.4791   21.6912 N   0  0  0  0  0  0  0  0  0  0  0  0
    6.5976    9.3401   22.6478 N   0  0  0  0  0  0  0  0  0  0  0  0
   11.2031    3.0042   20.6246 C   0  0  0  0  0  0  0  0  0  0  0  0
   12.8688    7.7370   22.7287 C   0  0  0  0  0  0  0  0  0  0  0  0
    7.4487    9.1361   23.6506 C   0  0  0  0  0  0  0  0  0  0  0  0
    8.9772    2.5025   22.0273 C   0  0  0  0  0  0  0  0  0  0  0  0
   10.4859    4.0901   20.9730 C   0  0  0  0  0  0  0  0  0  0  0  0
   11.0962    9.3293   23.5072 C   0  0  0  0  0  0  0  0  0  0  0  0
    5.1273    7.8529   23.6208 N   0  0  0  0  0  0  0  0  0  0  0  0
    9.7552    9.2338   23.0171 N   0  0  0  0  0  0  0  0  0  0  0  0
   11.1797    6.7591   21.3326 N   0  0  0  0  0  0  0  0  0  0  0  0
   11.7728    8.0337   23.7267 C   0  0  0  0  0  0  0  0  0  0  0  0
    7.1194    8.3344   24.6775 C   0  0  0  0  0  0  0  0  0  0  0  0
    8.4311    4.7963   22.0500 C   0  0  0  0  0  0  0  0  0  0  0  0
    8.7393   10.8706   24.1871 O   0  0  0  0  0  0  0  0  0  0  0  0
    9.3093    3.8166   21.6712 C   0  0  0  0  0  0  0  0  0  0  0  0
  1  5  1  0
  1 15  4  0
  1 22  4  0
  2 20  1  0
  2 24  1  0
  3  6  4  0
  3 27  4  0
  4 22  4  0
  4 26  4  0
  6  7  4  0
  6 13  1  0
  7 19  4  0
  8 18  1  0
  8 23  1  0
  8 28  2  0
  9 17  1  0
  9 24  1  0
 10 11  1  0
 10 24  1  0
 11 23  1  0
 12 14  4  0
 12 16  4  0
 14 19  4  0
 15 18  4  0
 16 20  4  0
 17 25  1  0
 18 26  4  0
 19 29  4  0
 20 29  4  0
 21 23  1  0
 21 25  1  0
 27 29  4  0
M  END
$$$$

 Created by Python create_sdf_string function

 29 32  0  0  0  0  0  0  0  0999 V2000
    5.4450    8.7154   22.6662 C   0  0  0  0  0  0  0  0  0  0  0  0
   10.9154    5.4574   20.5483 C   0  0  0  0  0  0  0  0  0  0  0  0
    7.2709    4.5089   22.7542 C   0  0  0  0  0  0  0  0  0  0  0  0
    5.9698    7.6329   24.6581 C   0  0  0  0  0  0  0  0  0  0  0  0
    4.5542    8.9057   21.7104 O   0  0  0  0  0  0  0  0  0  0  0  0
    6.9895    3.2085   23.0690 C   0  0  0  0  0  0  0  0  0  0  0  0
    7.8391    2.2253   22.7260 N   0  0  0  0  0  0  0  0  0  0  0  0
    8.6968    9.8373   23.6359 C   0  0  0  0  0  0  0  0  0  0  0  0
   12.5135    6.5957   21.8396 C   0  0  0  0  0  0  0  0  0  0  0  0
   10.9406    8.2330   21.1350 C   0  0  0  0  0  0  0  0  0  0  0  0
    9.6648    8.5956   21.7310 C   0  0  0  0  0  0  0  0  0  0  0  0
   10.8829    1.7153   20.9865 C   0  0  0  0  0  0  0  0  0  0  0  0
    5.7768    2.8533   23.7910 C   0  0  0  0  0  0  0  0  0  0  0  0
    9.7977    1.4791   21.6912 N   0  0  0  0  0  0  0  0  0  0  0  0
    6.5976    9.3401   22.6478 N   0  0  0  0  0  0  0  0  0  0  0  0
   11.2031    3.0042   20.6246 C   0  0  0  0  0  0  0  0  0  0  0  0
   12.8688    7.7370   22.7287 C   0  0  0  0  0  0  0  0  0  0  0  0
    7.4487    9.1361   23.6506 C   0  0  0  0  0  0  0  0  0  0  0  0
    8.9772    2.5025   22.0273 C   0  0  0  0  0  0  0  0  0  0  0  0
   10.4859    4.0901   20.9730 C   0  0  0  0  0  0  0  0  0  0  0  0
   11.0962    9.3293   23.5072 C   0  0  0  0  0  0  0  0  0  0  0  0
    5.1273    7.8529   23.6208 N   0  0  0  0  0  0  0  0  0  0  0  0
    9.7552    9.2338   23.0171 N   0  0  0  0  0  0  0  0  0  0  0  0
   11.1797    6.7591   21.3326 N   0  0  0  0  0  0  0  0  0  0  0  0
   11.7728    8.0337   23.7267 C   0  0  0  0  0  0  0  0  0  0  0  0
    7.1194    8.3344   24.6775 C   0  0  0  0  0  0  0  0  0  0  0  0
    8.4311    4.7963   22.0500 C   0  0  0  0  0  0  0  0  0  0  0  0
    8.7393   10.8706   24.1871 O   0  0  0  0  0  0  0  0  0  0  0  0
    9.3093    3.8166   21.6712 C   0  0  0  0  0  0  0  0  0  0  0  0
  1  5  1  0
  1 15  4  0
  1 22  4  0
  2 20  1  0
  2 24  1  0
  3  6  4  0
  3 27  4  0
  4 22  4  0
  4 26  4  0
  6  7  4  0
  6 13  1  0
  7 19  4  0
  8 18  1  0
  8 23  1  0
  8 28  2  0
  9 17  1  0
  9 24  1  0
 10 11  1  0
 10 24  1  0
 11 23  1  0
 12 14  4  0
 12 16  4  0
 14 19  4  0
 15 18  4  0
 16 20  4  0
 17 25  1  0
 18 26  4  0
 19 29  4  0
 20 29  4  0
 21 23  1  0
 21 25  1  0
 27 29  4  0
M  END
$$$$

 Created by Python create_sdf_string function

 29 32  0  0  0  0  0  0  0  0999 V2000
    5.4450    8.7154   22.6662 C   0  0  0  0  0  0  0  0  0  0  0  0
   10.9154    5.4574   20.5483 C   0  0  0  0  0  0  0  0  0  0  0  0
    7.2709    4.5089   22.7542 C   0  0  0  0  0  0  0  0  0  0  0  0
    5.9698    7.6329   24.6581 C   0  0  0  0  0  0  0  0  0  0  0  0
    4.5542    8.9057   21.7104 O   0  0  0  0  0  0  0  0  0  0  0  0
    6.9895    3.2085   23.0690 C   0  0  0  0  0  0  0  0  0  0  0  0
    7.8391    2.2253   22.7260 N   0  0  0  0  0  0  0  0  0  0  0  0
    8.6968    9.8373   23.6359 C   0  0  0  0  0  0  0  0  0  0  0  0
   12.5135    6.5957   21.8396 C   0  0  0  0  0  0  0  0  0  0  0  0
   10.9406    8.2330   21.1350 C   0  0  0  0  0  0  0  0  0  0  0  0
    9.6648    8.5956   21.7310 C   0  0  0  0  0  0  0  0  0  0  0  0
   10.8829    1.7153   20.9865 C   0  0  0  0  0  0  0  0  0  0  0  0
    5.7768    2.8533   23.7910 C   0  0  0  0  0  0  0  0  0  0  0  0
    9.7977    1.4791   21.6912 N   0  0  0  0  0  0  0  0  0  0  0  0
    6.5976    9.3401   22.6478 N   0  0  0  0  0  0  0  0  0  0  0  0
   11.2031    3.0042   20.6246 C   0  0  0  0  0  0  0  0  0  0  0  0
   12.8688    7.7370   22.7287 C   0  0  0  0  0  0  0  0  0  0  0  0
    7.4487    9.1361   23.6506 C   0  0  0  0  0  0  0  0  0  0  0  0
    8.9772    2.5025   22.0273 C   0  0  0  0  0  0  0  0  0  0  0  0
   10.4859    4.0901   20.9730 C   0  0  0  0  0  0  0  0  0  0  0  0
   11.0962    9.3293   23.5072 C   0  0  0  0  0  0  0  0  0  0  0  0
    5.1273    7.8529   23.6208 N   0  0  0  0  0  0  0  0  0  0  0  0
    9.7552    9.2338   23.0171 N   0  0  0  0  0  0  0  0  0  0  0  0
   11.1797    6.7591   21.3326 N   0  0  0  0  0  0  0  0  0  0  0  0
   11.7728    8.0337   23.7267 C   0  0  0  0  0  0  0  0  0  0  0  0
    7.1194    8.3344   24.6775 C   0  0  0  0  0  0  0  0  0  0  0  0
    8.4311    4.7963   22.0500 C   0  0  0  0  0  0  0  0  0  0  0  0
    8.7393   10.8706   24.1871 O   0  0  0  0  0  0  0  0  0  0  0  0
    9.3093    3.8166   21.6712 C   0  0  0  0  0  0  0  0  0  0  0  0
  1  5  1  0
  1 15  4  0
  1 22  4  0
  2 20  1  0
  2 24  1  0
  3  6  4  0
  3 27  4  0
  4 22  4  0
  4 26  4  0
  6  7  4  0
  6 13  1  0
  7 19  4  0
  8 18  1  0
  8 23  1  0
  8 28  2  0
  9 17  1  0
  9 24  1  0
 10 11  1  0
 10 24  1  0
 11 23  1  0
 12 14  4  0
 12 16  4  0
 14 19  4  0
 15 18  4  0
 16 20  4  0
 17 25  1  0
 18 26  4  0
 19 29  4  0
 20 29  4  0
 21 23  1  0
 21 25  1  0
 27 29  4  0
M  END
$$$$

 Created by Python create_sdf_string function

 29 32  0  0  0  0  0  0  0  0999 V2000
    5.4450    8.7154   22.6662 C   0  0  0  0  0  0  0  0  0  0  0  0
   10.9154    5.4574   20.5483 C   0  0  0  0  0  0  0  0  0  0  0  0
    7.2709    4.5089   22.7542 C   0  0  0  0  0  0  0  0  0  0  0  0
    5.9698    7.6329   24.6581 C   0  0  0  0  0  0  0  0  0  0  0  0
    4.5542    8.9057   21.7104 O   0  0  0  0  0  0  0  0  0  0  0  0
    6.9895    3.2085   23.0690 C   0  0  0  0  0  0  0  0  0  0  0  0
    7.8391    2.2253   22.7260 N   0  0  0  0  0  0  0  0  0  0  0  0
    8.6968    9.8373   23.6359 C   0  0  0  0  0  0  0  0  0  0  0  0
   12.5135    6.5957   21.8396 C   0  0  0  0  0  0  0  0  0  0  0  0
   10.9406    8.2330   21.1350 C   0  0  0  0  0  0  0  0  0  0  0  0
    9.6648    8.5956   21.7310 C   0  0  0  0  0  0  0  0  0  0  0  0
   10.8829    1.7153   20.9865 C   0  0  0  0  0  0  0  0  0  0  0  0
    5.7768    2.8533   23.7910 C   0  0  0  0  0  0  0  0  0  0  0  0
    9.7977    1.4791   21.6912 N   0  0  0  0  0  0  0  0  0  0  0  0
    6.5976    9.3401   22.6478 N   0  0  0  0  0  0  0  0  0  0  0  0
   11.2031    3.0042   20.6246 C   0  0  0  0  0  0  0  0  0  0  0  0
   12.8688    7.7370   22.7287 C   0  0  0  0  0  0  0  0  0  0  0  0
    7.4487    9.1361   23.6506 C   0  0  0  0  0  0  0  0  0  0  0  0
    8.9772    2.5025   22.0273 C   0  0  0  0  0  0  0  0  0  0  0  0
   10.4859    4.0901   20.9730 C   0  0  0  0  0  0  0  0  0  0  0  0
   11.0962    9.3293   23.5072 C   0  0  0  0  0  0  0  0  0  0  0  0
    5.1273    7.8529   23.6208 N   0  0  0  0  0  0  0  0  0  0  0  0
    9.7552    9.2338   23.0171 N   0  0  0  0  0  0  0  0  0  0  0  0
   11.1797    6.7591   21.3326 N   0  0  0  0  0  0  0  0  0  0  0  0
   11.7728    8.0337   23.7267 C   0  0  0  0  0  0  0  0  0  0  0  0
    7.1194    8.3344   24.6775 C   0  0  0  0  0  0  0  0  0  0  0  0
    8.4311    4.7963   22.0500 C   0  0  0  0  0  0  0  0  0  0  0  0
    8.7393   10.8706   24.1871 O   0  0  0  0  0  0  0  0  0  0  0  0
    9.3093    3.8166   21.6712 C   0  0  0  0  0  0  0  0  0  0  0  0
  1  5  1  0
  1 15  4  0
  1 22  4  0
  2 20  1  0
  2 24  1  0
  3  6  4  0
  3 27  4  0
  4 22  4  0
  4 26  4  0
  6  7  4  0
  6 13  1  0
  7 19  4  0
  8 18  1  0
  8 23  1  0
  8 28  2  0
  9 17  1  0
  9 24  1  0
 10 11  1  0
 10 24  1  0
 11 23  1  0
 12 14  4  0
 12 16  4  0
 14 19  4  0
 15 18  4  0
 16 20  4  0
 17 25  1  0
 18 26  4  0
 19 29  4  0
 20 29  4  0
 21 23  1  0
 21 25  1  0
 27 29  4  0
M  END
$$$$

 Created by Python create_sdf_string function

 29 32  0  0  0  0  0  0  0  0999 V2000
    5.4450    8.7154   22.6662 C   0  0  0  0  0  0  0  0  0  0  0  0
   10.9154    5.4574   20.5483 C   0  0  0  0  0  0  0  0  0  0  0  0
    7.2709    4.5089   22.7542 C   0  0  0  0  0  0  0  0  0  0  0  0
    5.9698    7.6329   24.6581 C   0  0  0  0  0  0  0  0  0  0  0  0
    4.5542    8.9057   21.7104 O   0  0  0  0  0  0  0  0  0  0  0  0
    6.9895    3.2085   23.0690 C   0  0  0  0  0  0  0  0  0  0  0  0
    7.8391    2.2253   22.7260 N   0  0  0  0  0  0  0  0  0  0  0  0
    8.6968    9.8373   23.6359 C   0  0  0  0  0  0  0  0  0  0  0  0
   12.5135    6.5957   21.8396 C   0  0  0  0  0  0  0  0  0  0  0  0
   10.9406    8.2330   21.1350 C   0  0  0  0  0  0  0  0  0  0  0  0
    9.6648    8.5956   21.7310 C   0  0  0  0  0  0  0  0  0  0  0  0
   10.8829    1.7153   20.9865 C   0  0  0  0  0  0  0  0  0  0  0  0
    5.7768    2.8533   23.7910 C   0  0  0  0  0  0  0  0  0  0  0  0
    9.7977    1.4791   21.6912 N   0  0  0  0  0  0  0  0  0  0  0  0
    6.5976    9.3401   22.6478 N   0  0  0  0  0  0  0  0  0  0  0  0
   11.2031    3.0042   20.6246 C   0  0  0  0  0  0  0  0  0  0  0  0
   12.8688    7.7370   22.7287 C   0  0  0  0  0  0  0  0  0  0  0  0
    7.4487    9.1361   23.6506 C   0  0  0  0  0  0  0  0  0  0  0  0
    8.9772    2.5025   22.0273 C   0  0  0  0  0  0  0  0  0  0  0  0
   10.4859    4.0901   20.9730 C   0  0  0  0  0  0  0  0  0  0  0  0
   11.0962    9.3293   23.5072 C   0  0  0  0  0  0  0  0  0  0  0  0
    5.1273    7.8529   23.6208 N   0  0  0  0  0  0  0  0  0  0  0  0
    9.7552    9.2338   23.0171 N   0  0  0  0  0  0  0  0  0  0  0  0
   11.1797    6.7591   21.3326 N   0  0  0  0  0  0  0  0  0  0  0  0
   11.7728    8.0337   23.7267 C   0  0  0  0  0  0  0  0  0  0  0  0
    7.1194    8.3344   24.6775 C   0  0  0  0  0  0  0  0  0  0  0  0
    8.4311    4.7963   22.0500 C   0  0  0  0  0  0  0  0  0  0  0  0
    8.7393   10.8706   24.1871 O   0  0  0  0  0  0  0  0  0  0  0  0
    9.3093    3.8166   21.6712 C   0  0  0  0  0  0  0  0  0  0  0  0
  1  5  1  0
  1 15  4  0
  1 22  4  0
  2 20  1  0
  2 24  1  0
  3  6  4  0
  3 27  4  0
  4 22  4  0
  4 26  4  0
  6  7  4  0
  6 13  1  0
  7 19  4  0
  8 18  1  0
  8 23  1  0
  8 28  2  0
  9 17  1  0
  9 24  1  0
 10 11  1  0
 10 24  1  0
 11 23  1  0
 12 14  4  0
 12 16  4  0
 14 19  4  0
 15 18  4  0
 16 20  4  0
 17 25  1  0
 18 26  4  0
 19 29  4  0
 20 29  4  0
 21 23  1  0
 21 25  1  0
 27 29  4  0
M  END
$$$$

 Created by Python create_sdf_string function

 29 32  0  0  0  0  0  0  0  0999 V2000
    5.4450    8.7154   22.6662 C   0  0  0  0  0  0  0  0  0  0  0  0
   10.9154    5.4574   20.5483 C   0  0  0  0  0  0  0  0  0  0  0  0
    7.2709    4.5089   22.7542 C   0  0  0  0  0  0  0  0  0  0  0  0
    5.9698    7.6329   24.6581 C   0  0  0  0  0  0  0  0  0  0  0  0
    4.5542    8.9057   21.7104 O   0  0  0  0  0  0  0  0  0  0  0  0
    6.9895    3.2085   23.0690 C   0  0  0  0  0  0  0  0  0  0  0  0
    7.8391    2.2253   22.7260 N   0  0  0  0  0  0  0  0  0  0  0  0
    8.6968    9.8373   23.6359 C   0  0  0  0  0  0  0  0  0  0  0  0
   12.5135    6.5957   21.8396 C   0  0  0  0  0  0  0  0  0  0  0  0
   10.9406    8.2330   21.1350 C   0  0  0  0  0  0  0  0  0  0  0  0
    9.6648    8.5956   21.7310 C   0  0  0  0  0  0  0  0  0  0  0  0
   10.8829    1.7153   20.9865 C   0  0  0  0  0  0  0  0  0  0  0  0
    5.7768    2.8533   23.7910 C   0  0  0  0  0  0  0  0  0  0  0  0
    9.7977    1.4791   21.6912 N   0  0  0  0  0  0  0  0  0  0  0  0
    6.5976    9.3401   22.6478 N   0  0  0  0  0  0  0  0  0  0  0  0
   11.2031    3.0042   20.6246 C   0  0  0  0  0  0  0  0  0  0  0  0
   12.8688    7.7370   22.7287 C   0  0  0  0  0  0  0  0  0  0  0  0
    7.4487    9.1361   23.6506 C   0  0  0  0  0  0  0  0  0  0  0  0
    8.9772    2.5025   22.0273 C   0  0  0  0  0  0  0  0  0  0  0  0
   10.4859    4.0901   20.9730 C   0  0  0  0  0  0  0  0  0  0  0  0
   11.0962    9.3293   23.5072 C   0  0  0  0  0  0  0  0  0  0  0  0
    5.1273    7.8529   23.6208 N   0  0  0  0  0  0  0  0  0  0  0  0
    9.7552    9.2338   23.0171 N   0  0  0  0  0  0  0  0  0  0  0  0
   11.1797    6.7591   21.3326 N   0  0  0  0  0  0  0  0  0  0  0  0
   11.7728    8.0337   23.7267 C   0  0  0  0  0  0  0  0  0  0  0  0
    7.1194    8.3344   24.6775 C   0  0  0  0  0  0  0  0  0  0  0  0
    8.4311    4.7963   22.0500 C   0  0  0  0  0  0  0  0  0  0  0  0
    8.7393   10.8706   24.1871 O   0  0  0  0  0  0  0  0  0  0  0  0
    9.3093    3.8166   21.6712 C   0  0  0  0  0  0  0  0  0  0  0  0
  1  5  1  0
  1 15  4  0
  1 22  4  0
  2 20  1  0
  2 24  1  0
  3  6  4  0
  3 27  4  0
  4 22  4  0
  4 26  4  0
  6  7  4  0
  6 13  1  0
  7 19  4  0
  8 18  1  0
  8 23  1  0
  8 28  2  0
  9 17  1  0
  9 24  1  0
 10 11  1  0
 10 24  1  0
 11 23  1  0
 12 14  4  0
 12 16  4  0
 14 19  4  0
 15 18  4  0
 16 20  4  0
 17 25  1  0
 18 26  4  0
 19 29  4  0
 20 29  4  0
 21 23  1  0
 21 25  1  0
 27 29  4  0
M  END
$$$$

 Created by Python create_sdf_string function

 29 32  0  0  0  0  0  0  0  0999 V2000
    5.4450    8.7154   22.6662 C   0  0  0  0  0  0  0  0  0  0  0  0
   10.9154    5.4574   20.5483 C   0  0  0  0  0  0  0  0  0  0  0  0
    7.2709    4.5089   22.7542 C   0  0  0  0  0  0  0  0  0  0  0  0
    5.9698    7.6329   24.6581 C   0  0  0  0  0  0  0  0  0  0  0  0
    4.5542    8.9057   21.7104 O   0  0  0  0  0  0  0  0  0  0  0  0
    6.9895    3.2085   23.0690 C   0  0  0  0  0  0  0  0  0  0  0  0
    7.8391    2.2253   22.7260 N   0  0  0  0  0  0  0  0  0  0  0  0
    8.6968    9.8373   23.6359 C   0  0  0  0  0  0  0  0  0  0  0  0
   12.5135    6.5957   21.8396 C   0  0  0  0  0  0  0  0  0  0  0  0
   10.9406    8.2330   21.1350 C   0  0  0  0  0  0  0  0  0  0  0  0
    9.6648    8.5956   21.7310 C   0  0  0  0  0  0  0  0  0  0  0  0
   10.8829    1.7153   20.9865 C   0  0  0  0  0  0  0  0  0  0  0  0
    5.7768    2.8533   23.7910 C   0  0  0  0  0  0  0  0  0  0  0  0
    9.7977    1.4791   21.6912 N   0  0  0  0  0  0  0  0  0  0  0  0
    6.5976    9.3401   22.6478 N   0  0  0  0  0  0  0  0  0  0  0  0
   11.2031    3.0042   20.6246 C   0  0  0  0  0  0  0  0  0  0  0  0
   12.8688    7.7370   22.7287 C   0  0  0  0  0  0  0  0  0  0  0  0
    7.4487    9.1361   23.6506 C   0  0  0  0  0  0  0  0  0  0  0  0
    8.9772    2.5025   22.0273 C   0  0  0  0  0  0  0  0  0  0  0  0
   10.4859    4.0901   20.9730 C   0  0  0  0  0  0  0  0  0  0  0  0
   11.0962    9.3293   23.5072 C   0  0  0  0  0  0  0  0  0  0  0  0
    5.1273    7.8529   23.6208 N   0  0  0  0  0  0  0  0  0  0  0  0
    9.7552    9.2338   23.0171 N   0  0  0  0  0  0  0  0  0  0  0  0
   11.1797    6.7591   21.3326 N   0  0  0  0  0  0  0  0  0  0  0  0
   11.7728    8.0337   23.7267 C   0  0  0  0  0  0  0  0  0  0  0  0
    7.1194    8.3344   24.6775 C   0  0  0  0  0  0  0  0  0  0  0  0
    8.4311    4.7963   22.0500 C   0  0  0  0  0  0  0  0  0  0  0  0
    8.7393   10.8706   24.1871 O   0  0  0  0  0  0  0  0  0  0  0  0
    9.3093    3.8166   21.6712 C   0  0  0  0  0  0  0  0  0  0  0  0
  1  5  1  0
  1 15  4  0
  1 22  4  0
  2 20  1  0
  2 24  1  0
  3  6  4  0
  3 27  4  0
  4 22  4  0
  4 26  4  0
  6  7  4  0
  6 13  1  0
  7 19  4  0
  8 18  1  0
  8 23  1  0
  8 28  2  0
  9 17  1  0
  9 24  1  0
 10 11  1  0
 10 24  1  0
 11 23  1  0
 12 14  4  0
 12 16  4  0
 14 19  4  0
 15 18  4  0
 16 20  4  0
 17 25  1  0
 18 26  4  0
 19 29  4  0
 20 29  4  0
 21 23  1  0
 21 25  1  0
 27 29  4  0
M  END
$$$$

 Created by Python create_sdf_string function

 29 32  0  0  0  0  0  0  0  0999 V2000
    5.4450    8.7154   22.6662 C   0  0  0  0  0  0  0  0  0  0  0  0
   10.9154    5.4574   20.5483 C   0  0  0  0  0  0  0  0  0  0  0  0
    7.2709    4.5089   22.7542 C   0  0  0  0  0  0  0  0  0  0  0  0
    5.9698    7.6329   24.6581 C   0  0  0  0  0  0  0  0  0  0  0  0
    4.5542    8.9057   21.7104 O   0  0  0  0  0  0  0  0  0  0  0  0
    6.9895    3.2085   23.0690 C   0  0  0  0  0  0  0  0  0  0  0  0
    7.8391    2.2253   22.7260 N   0  0  0  0  0  0  0  0  0  0  0  0
    8.6968    9.8373   23.6359 C   0  0  0  0  0  0  0  0  0  0  0  0
   12.5135    6.5957   21.8396 C   0  0  0  0  0  0  0  0  0  0  0  0
   10.9406    8.2330   21.1350 C   0  0  0  0  0  0  0  0  0  0  0  0
    9.6648    8.5956   21.7310 C   0  0  0  0  0  0  0  0  0  0  0  0
   10.8829    1.7153   20.9865 C   0  0  0  0  0  0  0  0  0  0  0  0
    5.7768    2.8533   23.7910 C   0  0  0  0  0  0  0  0  0  0  0  0
    9.7977    1.4791   21.6912 N   0  0  0  0  0  0  0  0  0  0  0  0
    6.5976    9.3401   22.6478 N   0  0  0  0  0  0  0  0  0  0  0  0
   11.2031    3.0042   20.6246 C   0  0  0  0  0  0  0  0  0  0  0  0
   12.8688    7.7370   22.7287 C   0  0  0  0  0  0  0  0  0  0  0  0
    7.4487    9.1361   23.6506 C   0  0  0  0  0  0  0  0  0  0  0  0
    8.9772    2.5025   22.0273 C   0  0  0  0  0  0  0  0  0  0  0  0
   10.4859    4.0901   20.9730 C   0  0  0  0  0  0  0  0  0  0  0  0
   11.0962    9.3293   23.5072 C   0  0  0  0  0  0  0  0  0  0  0  0
    5.1273    7.8529   23.6208 N   0  0  0  0  0  0  0  0  0  0  0  0
    9.7552    9.2338   23.0171 N   0  0  0  0  0  0  0  0  0  0  0  0
   11.1797    6.7591   21.3326 N   0  0  0  0  0  0  0  0  0  0  0  0
   11.7728    8.0337   23.7267 C   0  0  0  0  0  0  0  0  0  0  0  0
    7.1194    8.3344   24.6775 C   0  0  0  0  0  0  0  0  0  0  0  0
    8.4311    4.7963   22.0500 C   0  0  0  0  0  0  0  0  0  0  0  0
    8.7393   10.8706   24.1871 O   0  0  0  0  0  0  0  0  0  0  0  0
    9.3093    3.8166   21.6712 C   0  0  0  0  0  0  0  0  0  0  0  0
  1  5  1  0
  1 15  4  0
  1 22  4  0
  2 20  1  0
  2 24  1  0
  3  6  4  0
  3 27  4  0
  4 22  4  0
  4 26  4  0
  6  7  4  0
  6 13  1  0
  7 19  4  0
  8 18  1  0
  8 23  1  0
  8 28  2  0
  9 17  1  0
  9 24  1  0
 10 11  1  0
 10 24  1  0
 11 23  1  0
 12 14  4  0
 12 16  4  0
 14 19  4  0
 15 18  4  0
 16 20  4  0
 17 25  1  0
 18 26  4  0
 19 29  4  0
 20 29  4  0
 21 23  1  0
 21 25  1  0
 27 29  4  0
M  END
$$$$

 Created by Python create_sdf_string function

 29 32  0  0  0  0  0  0  0  0999 V2000
    5.4450    8.7154   22.6662 C   0  0  0  0  0  0  0  0  0  0  0  0
   10.9154    5.4574   20.5483 C   0  0  0  0  0  0  0  0  0  0  0  0
    7.2709    4.5089   22.7542 C   0  0  0  0  0  0  0  0  0  0  0  0
    5.9698    7.6329   24.6581 C   0  0  0  0  0  0  0  0  0  0  0  0
    4.5542    8.9057   21.7104 O   0  0  0  0  0  0  0  0  0  0  0  0
    6.9895    3.2085   23.0690 C   0  0  0  0  0  0  0  0  0  0  0  0
    7.8391    2.2253   22.7260 N   0  0  0  0  0  0  0  0  0  0  0  0
    8.6968    9.8373   23.6359 C   0  0  0  0  0  0  0  0  0  0  0  0
   12.5135    6.5957   21.8396 C   0  0  0  0  0  0  0  0  0  0  0  0
   10.9406    8.2330   21.1350 C   0  0  0  0  0  0  0  0  0  0  0  0
    9.6648    8.5956   21.7310 C   0  0  0  0  0  0  0  0  0  0  0  0
   10.8829    1.7153   20.9865 C   0  0  0  0  0  0  0  0  0  0  0  0
    5.7768    2.8533   23.7910 C   0  0  0  0  0  0  0  0  0  0  0  0
    9.7977    1.4791   21.6912 N   0  0  0  0  0  0  0  0  0  0  0  0
    6.5976    9.3401   22.6478 N   0  0  0  0  0  0  0  0  0  0  0  0
   11.2031    3.0042   20.6246 C   0  0  0  0  0  0  0  0  0  0  0  0
   12.8688    7.7370   22.7287 C   0  0  0  0  0  0  0  0  0  0  0  0
    7.4487    9.1361   23.6506 C   0  0  0  0  0  0  0  0  0  0  0  0
    8.9772    2.5025   22.0273 C   0  0  0  0  0  0  0  0  0  0  0  0
   10.4859    4.0901   20.9730 C   0  0  0  0  0  0  0  0  0  0  0  0
   11.0962    9.3293   23.5072 C   0  0  0  0  0  0  0  0  0  0  0  0
    5.1273    7.8529   23.6208 N   0  0  0  0  0  0  0  0  0  0  0  0
    9.7552    9.2338   23.0171 N   0  0  0  0  0  0  0  0  0  0  0  0
   11.1797    6.7591   21.3326 N   0  0  0  0  0  0  0  0  0  0  0  0
   11.7728    8.0337   23.7267 C   0  0  0  0  0  0  0  0  0  0  0  0
    7.1194    8.3344   24.6775 C   0  0  0  0  0  0  0  0  0  0  0  0
    8.4311    4.7963   22.0500 C   0  0  0  0  0  0  0  0  0  0  0  0
    8.7393   10.8706   24.1871 O   0  0  0  0  0  0  0  0  0  0  0  0
    9.3093    3.8166   21.6712 C   0  0  0  0  0  0  0  0  0  0  0  0
  1  5  1  0
  1 15  4  0
  1 22  4  0
  2 20  1  0
  2 24  1  0
  3  6  4  0
  3 27  4  0
  4 22  4  0
  4 26  4  0
  6  7  4  0
  6 13  1  0
  7 19  4  0
  8 18  1  0
  8 23  1  0
  8 28  2  0
  9 17  1  0
  9 24  1  0
 10 11  1  0
 10 24  1  0
 11 23  1  0
 12 14  4  0
 12 16  4  0
 14 19  4  0
 15 18  4  0
 16 20  4  0
 17 25  1  0
 18 26  4  0
 19 29  4  0
 20 29  4  0
 21 23  1  0
 21 25  1  0
 27 29  4  0
M  END
$$$$

 Created by Python create_sdf_string function

 29 32  0  0  0  0  0  0  0  0999 V2000
    5.4450    8.7154   22.6662 C   0  0  0  0  0  0  0  0  0  0  0  0
   10.9154    5.4574   20.5483 C   0  0  0  0  0  0  0  0  0  0  0  0
    7.2709    4.5089   22.7542 C   0  0  0  0  0  0  0  0  0  0  0  0
    5.9698    7.6329   24.6581 C   0  0  0  0  0  0  0  0  0  0  0  0
    4.5542    8.9057   21.7104 O   0  0  0  0  0  0  0  0  0  0  0  0
    6.9895    3.2085   23.0690 C   0  0  0  0  0  0  0  0  0  0  0  0
    7.8391    2.2253   22.7260 N   0  0  0  0  0  0  0  0  0  0  0  0
    8.6968    9.8373   23.6359 C   0  0  0  0  0  0  0  0  0  0  0  0
   12.5135    6.5957   21.8396 C   0  0  0  0  0  0  0  0  0  0  0  0
   10.9406    8.2330   21.1350 C   0  0  0  0  0  0  0  0  0  0  0  0
    9.6648    8.5956   21.7310 C   0  0  0  0  0  0  0  0  0  0  0  0
   10.8829    1.7153   20.9865 C   0  0  0  0  0  0  0  0  0  0  0  0
    5.7768    2.8533   23.7910 C   0  0  0  0  0  0  0  0  0  0  0  0
    9.7977    1.4791   21.6912 N   0  0  0  0  0  0  0  0  0  0  0  0
    6.5976    9.3401   22.6478 N   0  0  0  0  0  0  0  0  0  0  0  0
   11.2031    3.0042   20.6246 C   0  0  0  0  0  0  0  0  0  0  0  0
   12.8688    7.7370   22.7287 C   0  0  0  0  0  0  0  0  0  0  0  0
    7.4487    9.1361   23.6506 C   0  0  0  0  0  0  0  0  0  0  0  0
    8.9772    2.5025   22.0273 C   0  0  0  0  0  0  0  0  0  0  0  0
   10.4859    4.0901   20.9730 C   0  0  0  0  0  0  0  0  0  0  0  0
   11.0962    9.3293   23.5072 C   0  0  0  0  0  0  0  0  0  0  0  0
    5.1273    7.8529   23.6208 N   0  0  0  0  0  0  0  0  0  0  0  0
    9.7552    9.2338   23.0171 N   0  0  0  0  0  0  0  0  0  0  0  0
   11.1797    6.7591   21.3326 N   0  0  0  0  0  0  0  0  0  0  0  0
   11.7728    8.0337   23.7267 C   0  0  0  0  0  0  0  0  0  0  0  0
    7.1194    8.3344   24.6775 C   0  0  0  0  0  0  0  0  0  0  0  0
    8.4311    4.7963   22.0500 C   0  0  0  0  0  0  0  0  0  0  0  0
    8.7393   10.8706   24.1871 O   0  0  0  0  0  0  0  0  0  0  0  0
    9.3093    3.8166   21.6712 C   0  0  0  0  0  0  0  0  0  0  0  0
  1  5  1  0
  1 15  4  0
  1 22  4  0
  2 20  1  0
  2 24  1  0
  3  6  4  0
  3 27  4  0
  4 22  4  0
  4 26  4  0
  6  7  4  0
  6 13  1  0
  7 19  4  0
  8 18  1  0
  8 23  1  0
  8 28  2  0
  9 17  1  0
  9 24  1  0
 10 11  1  0
 10 24  1  0
 11 23  1  0
 12 14  4  0
 12 16  4  0
 14 19  4  0
 15 18  4  0
 16 20  4  0
 17 25  1  0
 18 26  4  0
 19 29  4  0
 20 29  4  0
 21 23  1  0
 21 25  1  0
 27 29  4  0
M  END
$$$$

 Created by Python create_sdf_string function

 29 32  0  0  0  0  0  0  0  0999 V2000
    5.4450    8.7154   22.6662 C   0  0  0  0  0  0  0  0  0  0  0  0
   10.9154    5.4574   20.5483 C   0  0  0  0  0  0  0  0  0  0  0  0
    7.2709    4.5089   22.7542 C   0  0  0  0  0  0  0  0  0  0  0  0
    5.9698    7.6329   24.6581 C   0  0  0  0  0  0  0  0  0  0  0  0
    4.5542    8.9057   21.7104 O   0  0  0  0  0  0  0  0  0  0  0  0
    6.9895    3.2085   23.0690 C   0  0  0  0  0  0  0  0  0  0  0  0
    7.8391    2.2253   22.7260 N   0  0  0  0  0  0  0  0  0  0  0  0
    8.6968    9.8373   23.6359 C   0  0  0  0  0  0  0  0  0  0  0  0
   12.5135    6.5957   21.8396 C   0  0  0  0  0  0  0  0  0  0  0  0
   10.9406    8.2330   21.1350 C   0  0  0  0  0  0  0  0  0  0  0  0
    9.6648    8.5956   21.7310 C   0  0  0  0  0  0  0  0  0  0  0  0
   10.8829    1.7153   20.9865 C   0  0  0  0  0  0  0  0  0  0  0  0
    5.7768    2.8533   23.7910 C   0  0  0  0  0  0  0  0  0  0  0  0
    9.7977    1.4791   21.6912 N   0  0  0  0  0  0  0  0  0  0  0  0
    6.5976    9.3401   22.6478 N   0  0  0  0  0  0  0  0  0  0  0  0
   11.2031    3.0042   20.6246 C   0  0  0  0  0  0  0  0  0  0  0  0
   12.8688    7.7370   22.7287 C   0  0  0  0  0  0  0  0  0  0  0  0
    7.4487    9.1361   23.6506 C   0  0  0  0  0  0  0  0  0  0  0  0
    8.9772    2.5025   22.0273 C   0  0  0  0  0  0  0  0  0  0  0  0
   10.4859    4.0901   20.9730 C   0  0  0  0  0  0  0  0  0  0  0  0
   11.0962    9.3293   23.5072 C   0  0  0  0  0  0  0  0  0  0  0  0
    5.1273    7.8529   23.6208 N   0  0  0  0  0  0  0  0  0  0  0  0
    9.7552    9.2338   23.0171 N   0  0  0  0  0  0  0  0  0  0  0  0
   11.1797    6.7591   21.3326 N   0  0  0  0  0  0  0  0  0  0  0  0
   11.7728    8.0337   23.7267 C   0  0  0  0  0  0  0  0  0  0  0  0
    7.1194    8.3344   24.6775 C   0  0  0  0  0  0  0  0  0  0  0  0
    8.4311    4.7963   22.0500 C   0  0  0  0  0  0  0  0  0  0  0  0
    8.7393   10.8706   24.1871 O   0  0  0  0  0  0  0  0  0  0  0  0
    9.3093    3.8166   21.6712 C   0  0  0  0  0  0  0  0  0  0  0  0
  1  5  1  0
  1 15  4  0
  1 22  4  0
  2 20  1  0
  2 24  1  0
  3  6  4  0
  3 27  4  0
  4 22  4  0
  4 26  4  0
  6  7  4  0
  6 13  1  0
  7 19  4  0
  8 18  1  0
  8 23  1  0
  8 28  2  0
  9 17  1  0
  9 24  1  0
 10 11  1  0
 10 24  1  0
 11 23  1  0
 12 14  4  0
 12 16  4  0
 14 19  4  0
 15 18  4  0
 16 20  4  0
 17 25  1  0
 18 26  4  0
 19 29  4  0
 20 29  4  0
 21 23  1  0
 21 25  1  0
 27 29  4  0
M  END
$$$$

 Created by Python create_sdf_string function

 29 32  0  0  0  0  0  0  0  0999 V2000
    5.4450    8.7154   22.6662 C   0  0  0  0  0  0  0  0  0  0  0  0
   10.9154    5.4574   20.5483 C   0  0  0  0  0  0  0  0  0  0  0  0
    7.2709    4.5089   22.7542 C   0  0  0  0  0  0  0  0  0  0  0  0
    5.9698    7.6329   24.6581 C   0  0  0  0  0  0  0  0  0  0  0  0
    4.5542    8.9057   21.7104 O   0  0  0  0  0  0  0  0  0  0  0  0
    6.9895    3.2085   23.0690 C   0  0  0  0  0  0  0  0  0  0  0  0
    7.8391    2.2253   22.7260 N   0  0  0  0  0  0  0  0  0  0  0  0
    8.6968    9.8373   23.6359 C   0  0  0  0  0  0  0  0  0  0  0  0
   12.5135    6.5957   21.8396 C   0  0  0  0  0  0  0  0  0  0  0  0
   10.9406    8.2330   21.1350 C   0  0  0  0  0  0  0  0  0  0  0  0
    9.6648    8.5956   21.7310 C   0  0  0  0  0  0  0  0  0  0  0  0
   10.8829    1.7153   20.9865 C   0  0  0  0  0  0  0  0  0  0  0  0
    5.7768    2.8533   23.7910 C   0  0  0  0  0  0  0  0  0  0  0  0
    9.7977    1.4791   21.6912 N   0  0  0  0  0  0  0  0  0  0  0  0
    6.5976    9.3401   22.6478 N   0  0  0  0  0  0  0  0  0  0  0  0
   11.2031    3.0042   20.6246 C   0  0  0  0  0  0  0  0  0  0  0  0
   12.8688    7.7370   22.7287 C   0  0  0  0  0  0  0  0  0  0  0  0
    7.4487    9.1361   23.6506 C   0  0  0  0  0  0  0  0  0  0  0  0
    8.9772    2.5025   22.0273 C   0  0  0  0  0  0  0  0  0  0  0  0
   10.4859    4.0901   20.9730 C   0  0  0  0  0  0  0  0  0  0  0  0
   11.0962    9.3293   23.5072 C   0  0  0  0  0  0  0  0  0  0  0  0
    5.1273    7.8529   23.6208 N   0  0  0  0  0  0  0  0  0  0  0  0
    9.7552    9.2338   23.0171 N   0  0  0  0  0  0  0  0  0  0  0  0
   11.1797    6.7591   21.3326 N   0  0  0  0  0  0  0  0  0  0  0  0
   11.7728    8.0337   23.7267 C   0  0  0  0  0  0  0  0  0  0  0  0
    7.1194    8.3344   24.6775 C   0  0  0  0  0  0  0  0  0  0  0  0
    8.4311    4.7963   22.0500 C   0  0  0  0  0  0  0  0  0  0  0  0
    8.7393   10.8706   24.1871 O   0  0  0  0  0  0  0  0  0  0  0  0
    9.3093    3.8166   21.6712 C   0  0  0  0  0  0  0  0  0  0  0  0
  1  5  1  0
  1 15  4  0
  1 22  4  0
  2 20  1  0
  2 24  1  0
  3  6  4  0
  3 27  4  0
  4 22  4  0
  4 26  4  0
  6  7  4  0
  6 13  1  0
  7 19  4  0
  8 18  1  0
  8 23  1  0
  8 28  2  0
  9 17  1  0
  9 24  1  0
 10 11  1  0
 10 24  1  0
 11 23  1  0
 12 14  4  0
 12 16  4  0
 14 19  4  0
 15 18  4  0
 16 20  4  0
 17 25  1  0
 18 26  4  0
 19 29  4  0
 20 29  4  0
 21 23  1  0
 21 25  1  0
 27 29  4  0
M  END
$$$$

 Created by Python create_sdf_string function

 29 32  0  0  0  0  0  0  0  0999 V2000
    5.4450    8.7154   22.6662 C   0  0  0  0  0  0  0  0  0  0  0  0
   10.9154    5.4574   20.5483 C   0  0  0  0  0  0  0  0  0  0  0  0
    7.2709    4.5089   22.7542 C   0  0  0  0  0  0  0  0  0  0  0  0
    5.9698    7.6329   24.6581 C   0  0  0  0  0  0  0  0  0  0  0  0
    4.5542    8.9057   21.7104 O   0  0  0  0  0  0  0  0  0  0  0  0
    6.9895    3.2085   23.0690 C   0  0  0  0  0  0  0  0  0  0  0  0
    7.8391    2.2253   22.7260 N   0  0  0  0  0  0  0  0  0  0  0  0
    8.6968    9.8373   23.6359 C   0  0  0  0  0  0  0  0  0  0  0  0
   12.5135    6.5957   21.8396 C   0  0  0  0  0  0  0  0  0  0  0  0
   10.9406    8.2330   21.1350 C   0  0  0  0  0  0  0  0  0  0  0  0
    9.6648    8.5956   21.7310 C   0  0  0  0  0  0  0  0  0  0  0  0
   10.8829    1.7153   20.9865 C   0  0  0  0  0  0  0  0  0  0  0  0
    5.7768    2.8533   23.7910 C   0  0  0  0  0  0  0  0  0  0  0  0
    9.7977    1.4791   21.6912 N   0  0  0  0  0  0  0  0  0  0  0  0
    6.5976    9.3401   22.6478 N   0  0  0  0  0  0  0  0  0  0  0  0
   11.2031    3.0042   20.6246 C   0  0  0  0  0  0  0  0  0  0  0  0
   12.8688    7.7370   22.7287 C   0  0  0  0  0  0  0  0  0  0  0  0
    7.4487    9.1361   23.6506 C   0  0  0  0  0  0  0  0  0  0  0  0
    8.9772    2.5025   22.0273 C   0  0  0  0  0  0  0  0  0  0  0  0
   10.4859    4.0901   20.9730 C   0  0  0  0  0  0  0  0  0  0  0  0
   11.0962    9.3293   23.5072 C   0  0  0  0  0  0  0  0  0  0  0  0
    5.1273    7.8529   23.6208 N   0  0  0  0  0  0  0  0  0  0  0  0
    9.7552    9.2338   23.0171 N   0  0  0  0  0  0  0  0  0  0  0  0
   11.1797    6.7591   21.3326 N   0  0  0  0  0  0  0  0  0  0  0  0
   11.7728    8.0337   23.7267 C   0  0  0  0  0  0  0  0  0  0  0  0
    7.1194    8.3344   24.6775 C   0  0  0  0  0  0  0  0  0  0  0  0
    8.4311    4.7963   22.0500 C   0  0  0  0  0  0  0  0  0  0  0  0
    8.7393   10.8706   24.1871 O   0  0  0  0  0  0  0  0  0  0  0  0
    9.3093    3.8166   21.6712 C   0  0  0  0  0  0  0  0  0  0  0  0
  1  5  1  0
  1 15  4  0
  1 22  4  0
  2 20  1  0
  2 24  1  0
  3  6  4  0
  3 27  4  0
  4 22  4  0
  4 26  4  0
  6  7  4  0
  6 13  1  0
  7 19  4  0
  8 18  1  0
  8 23  1  0
  8 28  2  0
  9 17  1  0
  9 24  1  0
 10 11  1  0
 10 24  1  0
 11 23  1  0
 12 14  4  0
 12 16  4  0
 14 19  4  0
 15 18  4  0
 16 20  4  0
 17 25  1  0
 18 26  4  0
 19 29  4  0
 20 29  4  0
 21 23  1  0
 21 25  1  0
 27 29  4  0
M  END
$$$$

 Created by Python create_sdf_string function

 29 32  0  0  0  0  0  0  0  0999 V2000
    5.4450    8.7154   22.6662 C   0  0  0  0  0  0  0  0  0  0  0  0
   10.9154    5.4574   20.5483 C   0  0  0  0  0  0  0  0  0  0  0  0
    7.2709    4.5089   22.7542 C   0  0  0  0  0  0  0  0  0  0  0  0
    5.9698    7.6329   24.6581 C   0  0  0  0  0  0  0  0  0  0  0  0
    4.5542    8.9057   21.7104 O   0  0  0  0  0  0  0  0  0  0  0  0
    6.9895    3.2085   23.0690 C   0  0  0  0  0  0  0  0  0  0  0  0
    7.8391    2.2253   22.7260 N   0  0  0  0  0  0  0  0  0  0  0  0
    8.6968    9.8373   23.6359 C   0  0  0  0  0  0  0  0  0  0  0  0
   12.5135    6.5957   21.8396 C   0  0  0  0  0  0  0  0  0  0  0  0
   10.9406    8.2330   21.1350 C   0  0  0  0  0  0  0  0  0  0  0  0
    9.6648    8.5956   21.7310 C   0  0  0  0  0  0  0  0  0  0  0  0
   10.8829    1.7153   20.9865 C   0  0  0  0  0  0  0  0  0  0  0  0
    5.7768    2.8533   23.7910 C   0  0  0  0  0  0  0  0  0  0  0  0
    9.7977    1.4791   21.6912 N   0  0  0  0  0  0  0  0  0  0  0  0
    6.5976    9.3401   22.6478 N   0  0  0  0  0  0  0  0  0  0  0  0
   11.2031    3.0042   20.6246 C   0  0  0  0  0  0  0  0  0  0  0  0
   12.8688    7.7370   22.7287 C   0  0  0  0  0  0  0  0  0  0  0  0
    7.4487    9.1361   23.6506 C   0  0  0  0  0  0  0  0  0  0  0  0
    8.9772    2.5025   22.0273 C   0  0  0  0  0  0  0  0  0  0  0  0
   10.4859    4.0901   20.9730 C   0  0  0  0  0  0  0  0  0  0  0  0
   11.0962    9.3293   23.5072 C   0  0  0  0  0  0  0  0  0  0  0  0
    5.1273    7.8529   23.6208 N   0  0  0  0  0  0  0  0  0  0  0  0
    9.7552    9.2338   23.0171 N   0  0  0  0  0  0  0  0  0  0  0  0
   11.1797    6.7591   21.3326 N   0  0  0  0  0  0  0  0  0  0  0  0
   11.7728    8.0337   23.7267 C   0  0  0  0  0  0  0  0  0  0  0  0
    7.1194    8.3344   24.6775 C   0  0  0  0  0  0  0  0  0  0  0  0
    8.4311    4.7963   22.0500 C   0  0  0  0  0  0  0  0  0  0  0  0
    8.7393   10.8706   24.1871 O   0  0  0  0  0  0  0  0  0  0  0  0
    9.3093    3.8166   21.6712 C   0  0  0  0  0  0  0  0  0  0  0  0
  1  5  1  0
  1 15  4  0
  1 22  4  0
  2 20  1  0
  2 24  1  0
  3  6  4  0
  3 27  4  0
  4 22  4  0
  4 26  4  0
  6  7  4  0
  6 13  1  0
  7 19  4  0
  8 18  1  0
  8 23  1  0
  8 28  2  0
  9 17  1  0
  9 24  1  0
 10 11  1  0
 10 24  1  0
 11 23  1  0
 12 14  4  0
 12 16  4  0
 14 19  4  0
 15 18  4  0
 16 20  4  0
 17 25  1  0
 18 26  4  0
 19 29  4  0
 20 29  4  0
 21 23  1  0
 21 25  1  0
 27 29  4  0
M  END
$$$$

 Created by Python create_sdf_string function

 29 32  0  0  0  0  0  0  0  0999 V2000
    5.4450    8.7154   22.6662 C   0  0  0  0  0  0  0  0  0  0  0  0
   10.9154    5.4574   20.5483 C   0  0  0  0  0  0  0  0  0  0  0  0
    7.2709    4.5089   22.7542 C   0  0  0  0  0  0  0  0  0  0  0  0
    5.9698    7.6329   24.6581 C   0  0  0  0  0  0  0  0  0  0  0  0
    4.5542    8.9057   21.7104 O   0  0  0  0  0  0  0  0  0  0  0  0
    6.9895    3.2085   23.0690 C   0  0  0  0  0  0  0  0  0  0  0  0
    7.8391    2.2253   22.7260 N   0  0  0  0  0  0  0  0  0  0  0  0
    8.6968    9.8373   23.6359 C   0  0  0  0  0  0  0  0  0  0  0  0
   12.5135    6.5957   21.8396 C   0  0  0  0  0  0  0  0  0  0  0  0
   10.9406    8.2330   21.1350 C   0  0  0  0  0  0  0  0  0  0  0  0
    9.6648    8.5956   21.7310 C   0  0  0  0  0  0  0  0  0  0  0  0
   10.8829    1.7153   20.9865 C   0  0  0  0  0  0  0  0  0  0  0  0
    5.7768    2.8533   23.7910 C   0  0  0  0  0  0  0  0  0  0  0  0
    9.7977    1.4791   21.6912 N   0  0  0  0  0  0  0  0  0  0  0  0
    6.5976    9.3401   22.6478 N   0  0  0  0  0  0  0  0  0  0  0  0
   11.2031    3.0042   20.6246 C   0  0  0  0  0  0  0  0  0  0  0  0
   12.8688    7.7370   22.7287 C   0  0  0  0  0  0  0  0  0  0  0  0
    7.4487    9.1361   23.6506 C   0  0  0  0  0  0  0  0  0  0  0  0
    8.9772    2.5025   22.0273 C   0  0  0  0  0  0  0  0  0  0  0  0
   10.4859    4.0901   20.9730 C   0  0  0  0  0  0  0  0  0  0  0  0
   11.0962    9.3293   23.5072 C   0  0  0  0  0  0  0  0  0  0  0  0
    5.1273    7.8529   23.6208 N   0  0  0  0  0  0  0  0  0  0  0  0
    9.7552    9.2338   23.0171 N   0  0  0  0  0  0  0  0  0  0  0  0
   11.1797    6.7591   21.3326 N   0  0  0  0  0  0  0  0  0  0  0  0
   11.7728    8.0337   23.7267 C   0  0  0  0  0  0  0  0  0  0  0  0
    7.1194    8.3344   24.6775 C   0  0  0  0  0  0  0  0  0  0  0  0
    8.4311    4.7963   22.0500 C   0  0  0  0  0  0  0  0  0  0  0  0
    8.7393   10.8706   24.1871 O   0  0  0  0  0  0  0  0  0  0  0  0
    9.3093    3.8166   21.6712 C   0  0  0  0  0  0  0  0  0  0  0  0
  1  5  1  0
  1 15  4  0
  1 22  4  0
  2 20  1  0
  2 24  1  0
  3  6  4  0
  3 27  4  0
  4 22  4  0
  4 26  4  0
  6  7  4  0
  6 13  1  0
  7 19  4  0
  8 18  1  0
  8 23  1  0
  8 28  2  0
  9 17  1  0
  9 24  1  0
 10 11  1  0
 10 24  1  0
 11 23  1  0
 12 14  4  0
 12 16  4  0
 14 19  4  0
 15 18  4  0
 16 20  4  0
 17 25  1  0
 18 26  4  0
 19 29  4  0
 20 29  4  0
 21 23  1  0
 21 25  1  0
 27 29  4  0
M  END
$$$$

 Created by Python create_sdf_string function

 29 32  0  0  0  0  0  0  0  0999 V2000
    5.4450    8.7154   22.6662 C   0  0  0  0  0  0  0  0  0  0  0  0
   10.9154    5.4574   20.5483 C   0  0  0  0  0  0  0  0  0  0  0  0
    7.2709    4.5089   22.7542 C   0  0  0  0  0  0  0  0  0  0  0  0
    5.9698    7.6329   24.6581 C   0  0  0  0  0  0  0  0  0  0  0  0
    4.5542    8.9057   21.7104 O   0  0  0  0  0  0  0  0  0  0  0  0
    6.9895    3.2085   23.0690 C   0  0  0  0  0  0  0  0  0  0  0  0
    7.8391    2.2253   22.7260 N   0  0  0  0  0  0  0  0  0  0  0  0
    8.6968    9.8373   23.6359 C   0  0  0  0  0  0  0  0  0  0  0  0
   12.5135    6.5957   21.8396 C   0  0  0  0  0  0  0  0  0  0  0  0
   10.9406    8.2330   21.1350 C   0  0  0  0  0  0  0  0  0  0  0  0
    9.6648    8.5956   21.7310 C   0  0  0  0  0  0  0  0  0  0  0  0
   10.8829    1.7153   20.9865 C   0  0  0  0  0  0  0  0  0  0  0  0
    5.7768    2.8533   23.7910 C   0  0  0  0  0  0  0  0  0  0  0  0
    9.7977    1.4791   21.6912 N   0  0  0  0  0  0  0  0  0  0  0  0
    6.5976    9.3401   22.6478 N   0  0  0  0  0  0  0  0  0  0  0  0
   11.2031    3.0042   20.6246 C   0  0  0  0  0  0  0  0  0  0  0  0
   12.8688    7.7370   22.7287 C   0  0  0  0  0  0  0  0  0  0  0  0
    7.4487    9.1361   23.6506 C   0  0  0  0  0  0  0  0  0  0  0  0
    8.9772    2.5025   22.0273 C   0  0  0  0  0  0  0  0  0  0  0  0
   10.4859    4.0901   20.9730 C   0  0  0  0  0  0  0  0  0  0  0  0
   11.0962    9.3293   23.5072 C   0  0  0  0  0  0  0  0  0  0  0  0
    5.1273    7.8529   23.6208 N   0  0  0  0  0  0  0  0  0  0  0  0
    9.7552    9.2338   23.0171 N   0  0  0  0  0  0  0  0  0  0  0  0
   11.1797    6.7591   21.3326 N   0  0  0  0  0  0  0  0  0  0  0  0
   11.7728    8.0337   23.7267 C   0  0  0  0  0  0  0  0  0  0  0  0
    7.1194    8.3344   24.6775 C   0  0  0  0  0  0  0  0  0  0  0  0
    8.4311    4.7963   22.0500 C   0  0  0  0  0  0  0  0  0  0  0  0
    8.7393   10.8706   24.1871 O   0  0  0  0  0  0  0  0  0  0  0  0
    9.3093    3.8166   21.6712 C   0  0  0  0  0  0  0  0  0  0  0  0
  1  5  1  0
  1 15  4  0
  1 22  4  0
  2 20  1  0
  2 24  1  0
  3  6  4  0
  3 27  4  0
  4 22  4  0
  4 26  4  0
  6  7  4  0
  6 13  1  0
  7 19  4  0
  8 18  1  0
  8 23  1  0
  8 28  2  0
  9 17  1  0
  9 24  1  0
 10 11  1  0
 10 24  1  0
 11 23  1  0
 12 14  4  0
 12 16  4  0
 14 19  4  0
 15 18  4  0
 16 20  4  0
 17 25  1  0
 18 26  4  0
 19 29  4  0
 20 29  4  0
 21 23  1  0
 21 25  1  0
 27 29  4  0
M  END
$$$$

 Created by Python create_sdf_string function

 29 32  0  0  0  0  0  0  0  0999 V2000
    5.4450    8.7154   22.6662 C   0  0  0  0  0  0  0  0  0  0  0  0
   10.9154    5.4574   20.5483 C   0  0  0  0  0  0  0  0  0  0  0  0
    7.2709    4.5089   22.7542 C   0  0  0  0  0  0  0  0  0  0  0  0
    5.9698    7.6329   24.6581 C   0  0  0  0  0  0  0  0  0  0  0  0
    4.5542    8.9057   21.7104 O   0  0  0  0  0  0  0  0  0  0  0  0
    6.9895    3.2085   23.0690 C   0  0  0  0  0  0  0  0  0  0  0  0
    7.8391    2.2253   22.7260 N   0  0  0  0  0  0  0  0  0  0  0  0
    8.6968    9.8373   23.6359 C   0  0  0  0  0  0  0  0  0  0  0  0
   12.5135    6.5957   21.8396 C   0  0  0  0  0  0  0  0  0  0  0  0
   10.9406    8.2330   21.1350 C   0  0  0  0  0  0  0  0  0  0  0  0
    9.6648    8.5956   21.7310 C   0  0  0  0  0  0  0  0  0  0  0  0
   10.8829    1.7153   20.9865 C   0  0  0  0  0  0  0  0  0  0  0  0
    5.7768    2.8533   23.7910 C   0  0  0  0  0  0  0  0  0  0  0  0
    9.7977    1.4791   21.6912 N   0  0  0  0  0  0  0  0  0  0  0  0
    6.5976    9.3401   22.6478 N   0  0  0  0  0  0  0  0  0  0  0  0
   11.2031    3.0042   20.6246 C   0  0  0  0  0  0  0  0  0  0  0  0
   12.8688    7.7370   22.7287 C   0  0  0  0  0  0  0  0  0  0  0  0
    7.4487    9.1361   23.6506 C   0  0  0  0  0  0  0  0  0  0  0  0
    8.9772    2.5025   22.0273 C   0  0  0  0  0  0  0  0  0  0  0  0
   10.4859    4.0901   20.9730 C   0  0  0  0  0  0  0  0  0  0  0  0
   11.0962    9.3293   23.5072 C   0  0  0  0  0  0  0  0  0  0  0  0
    5.1273    7.8529   23.6208 N   0  0  0  0  0  0  0  0  0  0  0  0
    9.7552    9.2338   23.0171 N   0  0  0  0  0  0  0  0  0  0  0  0
   11.1797    6.7591   21.3326 N   0  0  0  0  0  0  0  0  0  0  0  0
   11.7728    8.0337   23.7267 C   0  0  0  0  0  0  0  0  0  0  0  0
    7.1194    8.3344   24.6775 C   0  0  0  0  0  0  0  0  0  0  0  0
    8.4311    4.7963   22.0500 C   0  0  0  0  0  0  0  0  0  0  0  0
    8.7393   10.8706   24.1871 O   0  0  0  0  0  0  0  0  0  0  0  0
    9.3093    3.8166   21.6712 C   0  0  0  0  0  0  0  0  0  0  0  0
  1  5  1  0
  1 15  4  0
  1 22  4  0
  2 20  1  0
  2 24  1  0
  3  6  4  0
  3 27  4  0
  4 22  4  0
  4 26  4  0
  6  7  4  0
  6 13  1  0
  7 19  4  0
  8 18  1  0
  8 23  1  0
  8 28  2  0
  9 17  1  0
  9 24  1  0
 10 11  1  0
 10 24  1  0
 11 23  1  0
 12 14  4  0
 12 16  4  0
 14 19  4  0
 15 18  4  0
 16 20  4  0
 17 25  1  0
 18 26  4  0
 19 29  4  0
 20 29  4  0
 21 23  1  0
 21 25  1  0
 27 29  4  0
M  END
$$$$

 Created by Python create_sdf_string function

 29 32  0  0  0  0  0  0  0  0999 V2000
    5.4450    8.7154   22.6662 C   0  0  0  0  0  0  0  0  0  0  0  0
   10.9154    5.4574   20.5483 C   0  0  0  0  0  0  0  0  0  0  0  0
    7.2709    4.5089   22.7542 C   0  0  0  0  0  0  0  0  0  0  0  0
    5.9698    7.6329   24.6581 C   0  0  0  0  0  0  0  0  0  0  0  0
    4.5542    8.9057   21.7104 O   0  0  0  0  0  0  0  0  0  0  0  0
    6.9895    3.2085   23.0690 C   0  0  0  0  0  0  0  0  0  0  0  0
    7.8391    2.2253   22.7260 N   0  0  0  0  0  0  0  0  0  0  0  0
    8.6968    9.8373   23.6359 C   0  0  0  0  0  0  0  0  0  0  0  0
   12.5135    6.5957   21.8396 C   0  0  0  0  0  0  0  0  0  0  0  0
   10.9406    8.2330   21.1350 C   0  0  0  0  0  0  0  0  0  0  0  0
    9.6648    8.5956   21.7310 C   0  0  0  0  0  0  0  0  0  0  0  0
   10.8829    1.7153   20.9865 C   0  0  0  0  0  0  0  0  0  0  0  0
    5.7768    2.8533   23.7910 C   0  0  0  0  0  0  0  0  0  0  0  0
    9.7977    1.4791   21.6912 N   0  0  0  0  0  0  0  0  0  0  0  0
    6.5976    9.3401   22.6478 N   0  0  0  0  0  0  0  0  0  0  0  0
   11.2031    3.0042   20.6246 C   0  0  0  0  0  0  0  0  0  0  0  0
   12.8688    7.7370   22.7287 C   0  0  0  0  0  0  0  0  0  0  0  0
    7.4487    9.1361   23.6506 C   0  0  0  0  0  0  0  0  0  0  0  0
    8.9772    2.5025   22.0273 C   0  0  0  0  0  0  0  0  0  0  0  0
   10.4859    4.0901   20.9730 C   0  0  0  0  0  0  0  0  0  0  0  0
   11.0962    9.3293   23.5072 C   0  0  0  0  0  0  0  0  0  0  0  0
    5.1273    7.8529   23.6208 N   0  0  0  0  0  0  0  0  0  0  0  0
    9.7552    9.2338   23.0171 N   0  0  0  0  0  0  0  0  0  0  0  0
   11.1797    6.7591   21.3326 N   0  0  0  0  0  0  0  0  0  0  0  0
   11.7728    8.0337   23.7267 C   0  0  0  0  0  0  0  0  0  0  0  0
    7.1194    8.3344   24.6775 C   0  0  0  0  0  0  0  0  0  0  0  0
    8.4311    4.7963   22.0500 C   0  0  0  0  0  0  0  0  0  0  0  0
    8.7393   10.8706   24.1871 O   0  0  0  0  0  0  0  0  0  0  0  0
    9.3093    3.8166   21.6712 C   0  0  0  0  0  0  0  0  0  0  0  0
  1  5  1  0
  1 15  4  0
  1 22  4  0
  2 20  1  0
  2 24  1  0
  3  6  4  0
  3 27  4  0
  4 22  4  0
  4 26  4  0
  6  7  4  0
  6 13  1  0
  7 19  4  0
  8 18  1  0
  8 23  1  0
  8 28  2  0
  9 17  1  0
  9 24  1  0
 10 11  1  0
 10 24  1  0
 11 23  1  0
 12 14  4  0
 12 16  4  0
 14 19  4  0
 15 18  4  0
 16 20  4  0
 17 25  1  0
 18 26  4  0
 19 29  4  0
 20 29  4  0
 21 23  1  0
 21 25  1  0
 27 29  4  0
M  END
$$$$

 Created by Python create_sdf_string function

 29 32  0  0  0  0  0  0  0  0999 V2000
    5.4450    8.7154   22.6662 C   0  0  0  0  0  0  0  0  0  0  0  0
   10.9154    5.4574   20.5483 C   0  0  0  0  0  0  0  0  0  0  0  0
    7.2709    4.5089   22.7542 C   0  0  0  0  0  0  0  0  0  0  0  0
    5.9698    7.6329   24.6581 C   0  0  0  0  0  0  0  0  0  0  0  0
    4.5542    8.9057   21.7104 O   0  0  0  0  0  0  0  0  0  0  0  0
    6.9895    3.2085   23.0690 C   0  0  0  0  0  0  0  0  0  0  0  0
    7.8391    2.2253   22.7260 N   0  0  0  0  0  0  0  0  0  0  0  0
    8.6968    9.8373   23.6359 C   0  0  0  0  0  0  0  0  0  0  0  0
   12.5135    6.5957   21.8396 C   0  0  0  0  0  0  0  0  0  0  0  0
   10.9406    8.2330   21.1350 C   0  0  0  0  0  0  0  0  0  0  0  0
    9.6648    8.5956   21.7310 C   0  0  0  0  0  0  0  0  0  0  0  0
   10.8829    1.7153   20.9865 C   0  0  0  0  0  0  0  0  0  0  0  0
    5.7768    2.8533   23.7910 C   0  0  0  0  0  0  0  0  0  0  0  0
    9.7977    1.4791   21.6912 N   0  0  0  0  0  0  0  0  0  0  0  0
    6.5976    9.3401   22.6478 N   0  0  0  0  0  0  0  0  0  0  0  0
   11.2031    3.0042   20.6246 C   0  0  0  0  0  0  0  0  0  0  0  0
   12.8688    7.7370   22.7287 C   0  0  0  0  0  0  0  0  0  0  0  0
    7.4487    9.1361   23.6506 C   0  0  0  0  0  0  0  0  0  0  0  0
    8.9772    2.5025   22.0273 C   0  0  0  0  0  0  0  0  0  0  0  0
   10.4859    4.0901   20.9730 C   0  0  0  0  0  0  0  0  0  0  0  0
   11.0962    9.3293   23.5072 C   0  0  0  0  0  0  0  0  0  0  0  0
    5.1273    7.8529   23.6208 N   0  0  0  0  0  0  0  0  0  0  0  0
    9.7552    9.2338   23.0171 N   0  0  0  0  0  0  0  0  0  0  0  0
   11.1797    6.7591   21.3326 N   0  0  0  0  0  0  0  0  0  0  0  0
   11.7728    8.0337   23.7267 C   0  0  0  0  0  0  0  0  0  0  0  0
    7.1194    8.3344   24.6775 C   0  0  0  0  0  0  0  0  0  0  0  0
    8.4311    4.7963   22.0500 C   0  0  0  0  0  0  0  0  0  0  0  0
    8.7393   10.8706   24.1871 O   0  0  0  0  0  0  0  0  0  0  0  0
    9.3093    3.8166   21.6712 C   0  0  0  0  0  0  0  0  0  0  0  0
  1  5  1  0
  1 15  4  0
  1 22  4  0
  2 20  1  0
  2 24  1  0
  3  6  4  0
  3 27  4  0
  4 22  4  0
  4 26  4  0
  6  7  4  0
  6 13  1  0
  7 19  4  0
  8 18  1  0
  8 23  1  0
  8 28  2  0
  9 17  1  0
  9 24  1  0
 10 11  1  0
 10 24  1  0
 11 23  1  0
 12 14  4  0
 12 16  4  0
 14 19  4  0
 15 18  4  0
 16 20  4  0
 17 25  1  0
 18 26  4  0
 19 29  4  0
 20 29  4  0
 21 23  1  0
 21 25  1  0
 27 29  4  0
M  END
$$$$

 Created by Python create_sdf_string function

 29 32  0  0  0  0  0  0  0  0999 V2000
    5.4450    8.7154   22.6662 C   0  0  0  0  0  0  0  0  0  0  0  0
   10.9154    5.4574   20.5483 C   0  0  0  0  0  0  0  0  0  0  0  0
    7.2709    4.5089   22.7542 C   0  0  0  0  0  0  0  0  0  0  0  0
    5.9698    7.6329   24.6581 C   0  0  0  0  0  0  0  0  0  0  0  0
    4.5542    8.9057   21.7104 O   0  0  0  0  0  0  0  0  0  0  0  0
    6.9895    3.2085   23.0690 C   0  0  0  0  0  0  0  0  0  0  0  0
    7.8391    2.2253   22.7260 N   0  0  0  0  0  0  0  0  0  0  0  0
    8.6968    9.8373   23.6359 C   0  0  0  0  0  0  0  0  0  0  0  0
   12.5135    6.5957   21.8396 C   0  0  0  0  0  0  0  0  0  0  0  0
   10.9406    8.2330   21.1350 C   0  0  0  0  0  0  0  0  0  0  0  0
    9.6648    8.5956   21.7310 C   0  0  0  0  0  0  0  0  0  0  0  0
   10.8829    1.7153   20.9865 C   0  0  0  0  0  0  0  0  0  0  0  0
    5.7768    2.8533   23.7910 C   0  0  0  0  0  0  0  0  0  0  0  0
    9.7977    1.4791   21.6912 N   0  0  0  0  0  0  0  0  0  0  0  0
    6.5976    9.3401   22.6478 N   0  0  0  0  0  0  0  0  0  0  0  0
   11.2031    3.0042   20.6246 C   0  0  0  0  0  0  0  0  0  0  0  0
   12.8688    7.7370   22.7287 C   0  0  0  0  0  0  0  0  0  0  0  0
    7.4487    9.1361   23.6506 C   0  0  0  0  0  0  0  0  0  0  0  0
    8.9772    2.5025   22.0273 C   0  0  0  0  0  0  0  0  0  0  0  0
   10.4859    4.0901   20.9730 C   0  0  0  0  0  0  0  0  0  0  0  0
   11.0962    9.3293   23.5072 C   0  0  0  0  0  0  0  0  0  0  0  0
    5.1273    7.8529   23.6208 N   0  0  0  0  0  0  0  0  0  0  0  0
    9.7552    9.2338   23.0171 N   0  0  0  0  0  0  0  0  0  0  0  0
   11.1797    6.7591   21.3326 N   0  0  0  0  0  0  0  0  0  0  0  0
   11.7728    8.0337   23.7267 C   0  0  0  0  0  0  0  0  0  0  0  0
    7.1194    8.3344   24.6775 C   0  0  0  0  0  0  0  0  0  0  0  0
    8.4311    4.7963   22.0500 C   0  0  0  0  0  0  0  0  0  0  0  0
    8.7393   10.8706   24.1871 O   0  0  0  0  0  0  0  0  0  0  0  0
    9.3093    3.8166   21.6712 C   0  0  0  0  0  0  0  0  0  0  0  0
  1  5  1  0
  1 15  4  0
  1 22  4  0
  2 20  1  0
  2 24  1  0
  3  6  4  0
  3 27  4  0
  4 22  4  0
  4 26  4  0
  6  7  4  0
  6 13  1  0
  7 19  4  0
  8 18  1  0
  8 23  1  0
  8 28  2  0
  9 17  1  0
  9 24  1  0
 10 11  1  0
 10 24  1  0
 11 23  1  0
 12 14  4  0
 12 16  4  0
 14 19  4  0
 15 18  4  0
 16 20  4  0
 17 25  1  0
 18 26  4  0
 19 29  4  0
 20 29  4  0
 21 23  1  0
 21 25  1  0
 27 29  4  0
M  END
$$$$

 Created by Python create_sdf_string function

 29 32  0  0  0  0  0  0  0  0999 V2000
    5.4450    8.7154   22.6662 C   0  0  0  0  0  0  0  0  0  0  0  0
   10.9154    5.4574   20.5483 C   0  0  0  0  0  0  0  0  0  0  0  0
    7.2709    4.5089   22.7542 C   0  0  0  0  0  0  0  0  0  0  0  0
    5.9698    7.6329   24.6581 C   0  0  0  0  0  0  0  0  0  0  0  0
    4.5542    8.9057   21.7104 O   0  0  0  0  0  0  0  0  0  0  0  0
    6.9895    3.2085   23.0690 C   0  0  0  0  0  0  0  0  0  0  0  0
    7.8391    2.2253   22.7260 N   0  0  0  0  0  0  0  0  0  0  0  0
    8.6968    9.8373   23.6359 C   0  0  0  0  0  0  0  0  0  0  0  0
   12.5135    6.5957   21.8396 C   0  0  0  0  0  0  0  0  0  0  0  0
   10.9406    8.2330   21.1350 C   0  0  0  0  0  0  0  0  0  0  0  0
    9.6648    8.5956   21.7310 C   0  0  0  0  0  0  0  0  0  0  0  0
   10.8829    1.7153   20.9865 C   0  0  0  0  0  0  0  0  0  0  0  0
    5.7768    2.8533   23.7910 C   0  0  0  0  0  0  0  0  0  0  0  0
    9.7977    1.4791   21.6912 N   0  0  0  0  0  0  0  0  0  0  0  0
    6.5976    9.3401   22.6478 N   0  0  0  0  0  0  0  0  0  0  0  0
   11.2031    3.0042   20.6246 C   0  0  0  0  0  0  0  0  0  0  0  0
   12.8688    7.7370   22.7287 C   0  0  0  0  0  0  0  0  0  0  0  0
    7.4487    9.1361   23.6506 C   0  0  0  0  0  0  0  0  0  0  0  0
    8.9772    2.5025   22.0273 C   0  0  0  0  0  0  0  0  0  0  0  0
   10.4859    4.0901   20.9730 C   0  0  0  0  0  0  0  0  0  0  0  0
   11.0962    9.3293   23.5072 C   0  0  0  0  0  0  0  0  0  0  0  0
    5.1273    7.8529   23.6208 N   0  0  0  0  0  0  0  0  0  0  0  0
    9.7552    9.2338   23.0171 N   0  0  0  0  0  0  0  0  0  0  0  0
   11.1797    6.7591   21.3326 N   0  0  0  0  0  0  0  0  0  0  0  0
   11.7728    8.0337   23.7267 C   0  0  0  0  0  0  0  0  0  0  0  0
    7.1194    8.3344   24.6775 C   0  0  0  0  0  0  0  0  0  0  0  0
    8.4311    4.7963   22.0500 C   0  0  0  0  0  0  0  0  0  0  0  0
    8.7393   10.8706   24.1871 O   0  0  0  0  0  0  0  0  0  0  0  0
    9.3093    3.8166   21.6712 C   0  0  0  0  0  0  0  0  0  0  0  0
  1  5  1  0
  1 15  4  0
  1 22  4  0
  2 20  1  0
  2 24  1  0
  3  6  4  0
  3 27  4  0
  4 22  4  0
  4 26  4  0
  6  7  4  0
  6 13  1  0
  7 19  4  0
  8 18  1  0
  8 23  1  0
  8 28  2  0
  9 17  1  0
  9 24  1  0
 10 11  1  0
 10 24  1  0
 11 23  1  0
 12 14  4  0
 12 16  4  0
 14 19  4  0
 15 18  4  0
 16 20  4  0
 17 25  1  0
 18 26  4  0
 19 29  4  0
 20 29  4  0
 21 23  1  0
 21 25  1  0
 27 29  4  0
M  END
$$$$

 Created by Python create_sdf_string function

 29 32  0  0  0  0  0  0  0  0999 V2000
    5.4450    8.7154   22.6662 C   0  0  0  0  0  0  0  0  0  0  0  0
   10.9154    5.4574   20.5483 C   0  0  0  0  0  0  0  0  0  0  0  0
    7.2709    4.5089   22.7542 C   0  0  0  0  0  0  0  0  0  0  0  0
    5.9698    7.6329   24.6581 C   0  0  0  0  0  0  0  0  0  0  0  0
    4.5542    8.9057   21.7104 O   0  0  0  0  0  0  0  0  0  0  0  0
    6.9895    3.2085   23.0690 C   0  0  0  0  0  0  0  0  0  0  0  0
    7.8391    2.2253   22.7260 N   0  0  0  0  0  0  0  0  0  0  0  0
    8.6968    9.8373   23.6359 C   0  0  0  0  0  0  0  0  0  0  0  0
   12.5135    6.5957   21.8396 C   0  0  0  0  0  0  0  0  0  0  0  0
   10.9406    8.2330   21.1350 C   0  0  0  0  0  0  0  0  0  0  0  0
    9.6648    8.5956   21.7310 C   0  0  0  0  0  0  0  0  0  0  0  0
   10.8829    1.7153   20.9865 C   0  0  0  0  0  0  0  0  0  0  0  0
    5.7768    2.8533   23.7910 C   0  0  0  0  0  0  0  0  0  0  0  0
    9.7977    1.4791   21.6912 N   0  0  0  0  0  0  0  0  0  0  0  0
    6.5976    9.3401   22.6478 N   0  0  0  0  0  0  0  0  0  0  0  0
   11.2031    3.0042   20.6246 C   0  0  0  0  0  0  0  0  0  0  0  0
   12.8688    7.7370   22.7287 C   0  0  0  0  0  0  0  0  0  0  0  0
    7.4487    9.1361   23.6506 C   0  0  0  0  0  0  0  0  0  0  0  0
    8.9772    2.5025   22.0273 C   0  0  0  0  0  0  0  0  0  0  0  0
   10.4859    4.0901   20.9730 C   0  0  0  0  0  0  0  0  0  0  0  0
   11.0962    9.3293   23.5072 C   0  0  0  0  0  0  0  0  0  0  0  0
    5.1273    7.8529   23.6208 N   0  0  0  0  0  0  0  0  0  0  0  0
    9.7552    9.2338   23.0171 N   0  0  0  0  0  0  0  0  0  0  0  0
   11.1797    6.7591   21.3326 N   0  0  0  0  0  0  0  0  0  0  0  0
   11.7728    8.0337   23.7267 C   0  0  0  0  0  0  0  0  0  0  0  0
    7.1194    8.3344   24.6775 C   0  0  0  0  0  0  0  0  0  0  0  0
    8.4311    4.7963   22.0500 C   0  0  0  0  0  0  0  0  0  0  0  0
    8.7393   10.8706   24.1871 O   0  0  0  0  0  0  0  0  0  0  0  0
    9.3093    3.8166   21.6712 C   0  0  0  0  0  0  0  0  0  0  0  0
  1  5  1  0
  1 15  4  0
  1 22  4  0
  2 20  1  0
  2 24  1  0
  3  6  4  0
  3 27  4  0
  4 22  4  0
  4 26  4  0
  6  7  4  0
  6 13  1  0
  7 19  4  0
  8 18  1  0
  8 23  1  0
  8 28  2  0
  9 17  1  0
  9 24  1  0
 10 11  1  0
 10 24  1  0
 11 23  1  0
 12 14  4  0
 12 16  4  0
 14 19  4  0
 15 18  4  0
 16 20  4  0
 17 25  1  0
 18 26  4  0
 19 29  4  0
 20 29  4  0
 21 23  1  0
 21 25  1  0
 27 29  4  0
M  END
$$$$

 Created by Python create_sdf_string function

 29 32  0  0  0  0  0  0  0  0999 V2000
    5.4450    8.7154   22.6662 C   0  0  0  0  0  0  0  0  0  0  0  0
   10.9154    5.4574   20.5483 C   0  0  0  0  0  0  0  0  0  0  0  0
    7.2709    4.5089   22.7542 C   0  0  0  0  0  0  0  0  0  0  0  0
    5.9698    7.6329   24.6581 C   0  0  0  0  0  0  0  0  0  0  0  0
    4.5542    8.9057   21.7104 O   0  0  0  0  0  0  0  0  0  0  0  0
    6.9895    3.2085   23.0690 C   0  0  0  0  0  0  0  0  0  0  0  0
    7.8391    2.2253   22.7260 N   0  0  0  0  0  0  0  0  0  0  0  0
    8.6968    9.8373   23.6359 C   0  0  0  0  0  0  0  0  0  0  0  0
   12.5135    6.5957   21.8396 C   0  0  0  0  0  0  0  0  0  0  0  0
   10.9406    8.2330   21.1350 C   0  0  0  0  0  0  0  0  0  0  0  0
    9.6648    8.5956   21.7310 C   0  0  0  0  0  0  0  0  0  0  0  0
   10.8829    1.7153   20.9865 C   0  0  0  0  0  0  0  0  0  0  0  0
    5.7768    2.8533   23.7910 C   0  0  0  0  0  0  0  0  0  0  0  0
    9.7977    1.4791   21.6912 N   0  0  0  0  0  0  0  0  0  0  0  0
    6.5976    9.3401   22.6478 N   0  0  0  0  0  0  0  0  0  0  0  0
   11.2031    3.0042   20.6246 C   0  0  0  0  0  0  0  0  0  0  0  0
   12.8688    7.7370   22.7287 C   0  0  0  0  0  0  0  0  0  0  0  0
    7.4487    9.1361   23.6506 C   0  0  0  0  0  0  0  0  0  0  0  0
    8.9772    2.5025   22.0273 C   0  0  0  0  0  0  0  0  0  0  0  0
   10.4859    4.0901   20.9730 C   0  0  0  0  0  0  0  0  0  0  0  0
   11.0962    9.3293   23.5072 C   0  0  0  0  0  0  0  0  0  0  0  0
    5.1273    7.8529   23.6208 N   0  0  0  0  0  0  0  0  0  0  0  0
    9.7552    9.2338   23.0171 N   0  0  0  0  0  0  0  0  0  0  0  0
   11.1797    6.7591   21.3326 N   0  0  0  0  0  0  0  0  0  0  0  0
   11.7728    8.0337   23.7267 C   0  0  0  0  0  0  0  0  0  0  0  0
    7.1194    8.3344   24.6775 C   0  0  0  0  0  0  0  0  0  0  0  0
    8.4311    4.7963   22.0500 C   0  0  0  0  0  0  0  0  0  0  0  0
    8.7393   10.8706   24.1871 O   0  0  0  0  0  0  0  0  0  0  0  0
    9.3093    3.8166   21.6712 C   0  0  0  0  0  0  0  0  0  0  0  0
  1  5  1  0
  1 15  4  0
  1 22  4  0
  2 20  1  0
  2 24  1  0
  3  6  4  0
  3 27  4  0
  4 22  4  0
  4 26  4  0
  6  7  4  0
  6 13  1  0
  7 19  4  0
  8 18  1  0
  8 23  1  0
  8 28  2  0
  9 17  1  0
  9 24  1  0
 10 11  1  0
 10 24  1  0
 11 23  1  0
 12 14  4  0
 12 16  4  0
 14 19  4  0
 15 18  4  0
 16 20  4  0
 17 25  1  0
 18 26  4  0
 19 29  4  0
 20 29  4  0
 21 23  1  0
 21 25  1  0
 27 29  4  0
M  END
$$$$

 Created by Python create_sdf_string function

 29 32  0  0  0  0  0  0  0  0999 V2000
    5.4450    8.7154   22.6662 C   0  0  0  0  0  0  0  0  0  0  0  0
   10.9154    5.4574   20.5483 C   0  0  0  0  0  0  0  0  0  0  0  0
    7.2709    4.5089   22.7542 C   0  0  0  0  0  0  0  0  0  0  0  0
    5.9698    7.6329   24.6581 C   0  0  0  0  0  0  0  0  0  0  0  0
    4.5542    8.9057   21.7104 O   0  0  0  0  0  0  0  0  0  0  0  0
    6.9895    3.2085   23.0690 C   0  0  0  0  0  0  0  0  0  0  0  0
    7.8391    2.2253   22.7260 N   0  0  0  0  0  0  0  0  0  0  0  0
    8.6968    9.8373   23.6359 C   0  0  0  0  0  0  0  0  0  0  0  0
   12.5135    6.5957   21.8396 C   0  0  0  0  0  0  0  0  0  0  0  0
   10.9406    8.2330   21.1350 C   0  0  0  0  0  0  0  0  0  0  0  0
    9.6648    8.5956   21.7310 C   0  0  0  0  0  0  0  0  0  0  0  0
   10.8829    1.7153   20.9865 C   0  0  0  0  0  0  0  0  0  0  0  0
    5.7768    2.8533   23.7910 C   0  0  0  0  0  0  0  0  0  0  0  0
    9.7977    1.4791   21.6912 N   0  0  0  0  0  0  0  0  0  0  0  0
    6.5976    9.3401   22.6478 N   0  0  0  0  0  0  0  0  0  0  0  0
   11.2031    3.0042   20.6246 C   0  0  0  0  0  0  0  0  0  0  0  0
   12.8688    7.7370   22.7287 C   0  0  0  0  0  0  0  0  0  0  0  0
    7.4487    9.1361   23.6506 C   0  0  0  0  0  0  0  0  0  0  0  0
    8.9772    2.5025   22.0273 C   0  0  0  0  0  0  0  0  0  0  0  0
   10.4859    4.0901   20.9730 C   0  0  0  0  0  0  0  0  0  0  0  0
   11.0962    9.3293   23.5072 C   0  0  0  0  0  0  0  0  0  0  0  0
    5.1273    7.8529   23.6208 N   0  0  0  0  0  0  0  0  0  0  0  0
    9.7552    9.2338   23.0171 N   0  0  0  0  0  0  0  0  0  0  0  0
   11.1797    6.7591   21.3326 N   0  0  0  0  0  0  0  0  0  0  0  0
   11.7728    8.0337   23.7267 C   0  0  0  0  0  0  0  0  0  0  0  0
    7.1194    8.3344   24.6775 C   0  0  0  0  0  0  0  0  0  0  0  0
    8.4311    4.7963   22.0500 C   0  0  0  0  0  0  0  0  0  0  0  0
    8.7393   10.8706   24.1871 O   0  0  0  0  0  0  0  0  0  0  0  0
    9.3093    3.8166   21.6712 C   0  0  0  0  0  0  0  0  0  0  0  0
  1  5  1  0
  1 15  4  0
  1 22  4  0
  2 20  1  0
  2 24  1  0
  3  6  4  0
  3 27  4  0
  4 22  4  0
  4 26  4  0
  6  7  4  0
  6 13  1  0
  7 19  4  0
  8 18  1  0
  8 23  1  0
  8 28  2  0
  9 17  1  0
  9 24  1  0
 10 11  1  0
 10 24  1  0
 11 23  1  0
 12 14  4  0
 12 16  4  0
 14 19  4  0
 15 18  4  0
 16 20  4  0
 17 25  1  0
 18 26  4  0
 19 29  4  0
 20 29  4  0
 21 23  1  0
 21 25  1  0
 27 29  4  0
M  END
$$$$

 Created by Python create_sdf_string function

 29 32  0  0  0  0  0  0  0  0999 V2000
    5.4450    8.7154   22.6662 C   0  0  0  0  0  0  0  0  0  0  0  0
   10.9154    5.4574   20.5483 C   0  0  0  0  0  0  0  0  0  0  0  0
    7.2709    4.5089   22.7542 C   0  0  0  0  0  0  0  0  0  0  0  0
    5.9698    7.6329   24.6581 C   0  0  0  0  0  0  0  0  0  0  0  0
    4.5542    8.9057   21.7104 O   0  0  0  0  0  0  0  0  0  0  0  0
    6.9895    3.2085   23.0690 C   0  0  0  0  0  0  0  0  0  0  0  0
    7.8391    2.2253   22.7260 N   0  0  0  0  0  0  0  0  0  0  0  0
    8.6968    9.8373   23.6359 C   0  0  0  0  0  0  0  0  0  0  0  0
   12.5135    6.5957   21.8396 C   0  0  0  0  0  0  0  0  0  0  0  0
   10.9406    8.2330   21.1350 C   0  0  0  0  0  0  0  0  0  0  0  0
    9.6648    8.5956   21.7310 C   0  0  0  0  0  0  0  0  0  0  0  0
   10.8829    1.7153   20.9865 C   0  0  0  0  0  0  0  0  0  0  0  0
    5.7768    2.8533   23.7910 C   0  0  0  0  0  0  0  0  0  0  0  0
    9.7977    1.4791   21.6912 N   0  0  0  0  0  0  0  0  0  0  0  0
    6.5976    9.3401   22.6478 N   0  0  0  0  0  0  0  0  0  0  0  0
   11.2031    3.0042   20.6246 C   0  0  0  0  0  0  0  0  0  0  0  0
   12.8688    7.7370   22.7287 C   0  0  0  0  0  0  0  0  0  0  0  0
    7.4487    9.1361   23.6506 C   0  0  0  0  0  0  0  0  0  0  0  0
    8.9772    2.5025   22.0273 C   0  0  0  0  0  0  0  0  0  0  0  0
   10.4859    4.0901   20.9730 C   0  0  0  0  0  0  0  0  0  0  0  0
   11.0962    9.3293   23.5072 C   0  0  0  0  0  0  0  0  0  0  0  0
    5.1273    7.8529   23.6208 N   0  0  0  0  0  0  0  0  0  0  0  0
    9.7552    9.2338   23.0171 N   0  0  0  0  0  0  0  0  0  0  0  0
   11.1797    6.7591   21.3326 N   0  0  0  0  0  0  0  0  0  0  0  0
   11.7728    8.0337   23.7267 C   0  0  0  0  0  0  0  0  0  0  0  0
    7.1194    8.3344   24.6775 C   0  0  0  0  0  0  0  0  0  0  0  0
    8.4311    4.7963   22.0500 C   0  0  0  0  0  0  0  0  0  0  0  0
    8.7393   10.8706   24.1871 O   0  0  0  0  0  0  0  0  0  0  0  0
    9.3093    3.8166   21.6712 C   0  0  0  0  0  0  0  0  0  0  0  0
  1  5  1  0
  1 15  4  0
  1 22  4  0
  2 20  1  0
  2 24  1  0
  3  6  4  0
  3 27  4  0
  4 22  4  0
  4 26  4  0
  6  7  4  0
  6 13  1  0
  7 19  4  0
  8 18  1  0
  8 23  1  0
  8 28  2  0
  9 17  1  0
  9 24  1  0
 10 11  1  0
 10 24  1  0
 11 23  1  0
 12 14  4  0
 12 16  4  0
 14 19  4  0
 15 18  4  0
 16 20  4  0
 17 25  1  0
 18 26  4  0
 19 29  4  0
 20 29  4  0
 21 23  1  0
 21 25  1  0
 27 29  4  0
M  END
$$$$

 Created by Python create_sdf_string function

 29 32  0  0  0  0  0  0  0  0999 V2000
    5.4450    8.7154   22.6662 C   0  0  0  0  0  0  0  0  0  0  0  0
   10.9154    5.4574   20.5483 C   0  0  0  0  0  0  0  0  0  0  0  0
    7.2709    4.5089   22.7542 C   0  0  0  0  0  0  0  0  0  0  0  0
    5.9698    7.6329   24.6581 C   0  0  0  0  0  0  0  0  0  0  0  0
    4.5542    8.9057   21.7104 O   0  0  0  0  0  0  0  0  0  0  0  0
    6.9895    3.2085   23.0690 C   0  0  0  0  0  0  0  0  0  0  0  0
    7.8391    2.2253   22.7260 N   0  0  0  0  0  0  0  0  0  0  0  0
    8.6968    9.8373   23.6359 C   0  0  0  0  0  0  0  0  0  0  0  0
   12.5135    6.5957   21.8396 C   0  0  0  0  0  0  0  0  0  0  0  0
   10.9406    8.2330   21.1350 C   0  0  0  0  0  0  0  0  0  0  0  0
    9.6648    8.5956   21.7310 C   0  0  0  0  0  0  0  0  0  0  0  0
   10.8829    1.7153   20.9865 C   0  0  0  0  0  0  0  0  0  0  0  0
    5.7768    2.8533   23.7910 C   0  0  0  0  0  0  0  0  0  0  0  0
    9.7977    1.4791   21.6912 N   0  0  0  0  0  0  0  0  0  0  0  0
    6.5976    9.3401   22.6478 N   0  0  0  0  0  0  0  0  0  0  0  0
   11.2031    3.0042   20.6246 C   0  0  0  0  0  0  0  0  0  0  0  0
   12.8688    7.7370   22.7287 C   0  0  0  0  0  0  0  0  0  0  0  0
    7.4487    9.1361   23.6506 C   0  0  0  0  0  0  0  0  0  0  0  0
    8.9772    2.5025   22.0273 C   0  0  0  0  0  0  0  0  0  0  0  0
   10.4859    4.0901   20.9730 C   0  0  0  0  0  0  0  0  0  0  0  0
   11.0962    9.3293   23.5072 C   0  0  0  0  0  0  0  0  0  0  0  0
    5.1273    7.8529   23.6208 N   0  0  0  0  0  0  0  0  0  0  0  0
    9.7552    9.2338   23.0171 N   0  0  0  0  0  0  0  0  0  0  0  0
   11.1797    6.7591   21.3326 N   0  0  0  0  0  0  0  0  0  0  0  0
   11.7728    8.0337   23.7267 C   0  0  0  0  0  0  0  0  0  0  0  0
    7.1194    8.3344   24.6775 C   0  0  0  0  0  0  0  0  0  0  0  0
    8.4311    4.7963   22.0500 C   0  0  0  0  0  0  0  0  0  0  0  0
    8.7393   10.8706   24.1871 O   0  0  0  0  0  0  0  0  0  0  0  0
    9.3093    3.8166   21.6712 C   0  0  0  0  0  0  0  0  0  0  0  0
  1  5  1  0
  1 15  4  0
  1 22  4  0
  2 20  1  0
  2 24  1  0
  3  6  4  0
  3 27  4  0
  4 22  4  0
  4 26  4  0
  6  7  4  0
  6 13  1  0
  7 19  4  0
  8 18  1  0
  8 23  1  0
  8 28  2  0
  9 17  1  0
  9 24  1  0
 10 11  1  0
 10 24  1  0
 11 23  1  0
 12 14  4  0
 12 16  4  0
 14 19  4  0
 15 18  4  0
 16 20  4  0
 17 25  1  0
 18 26  4  0
 19 29  4  0
 20 29  4  0
 21 23  1  0
 21 25  1  0
 27 29  4  0
M  END
$$$$

 Created by Python create_sdf_string function

 29 32  0  0  0  0  0  0  0  0999 V2000
    5.4450    8.7154   22.6662 C   0  0  0  0  0  0  0  0  0  0  0  0
   10.9154    5.4574   20.5483 C   0  0  0  0  0  0  0  0  0  0  0  0
    7.2709    4.5089   22.7542 C   0  0  0  0  0  0  0  0  0  0  0  0
    5.9698    7.6329   24.6581 C   0  0  0  0  0  0  0  0  0  0  0  0
    4.5542    8.9057   21.7104 O   0  0  0  0  0  0  0  0  0  0  0  0
    6.9895    3.2085   23.0690 C   0  0  0  0  0  0  0  0  0  0  0  0
    7.8391    2.2253   22.7260 N   0  0  0  0  0  0  0  0  0  0  0  0
    8.6968    9.8373   23.6359 C   0  0  0  0  0  0  0  0  0  0  0  0
   12.5135    6.5957   21.8396 C   0  0  0  0  0  0  0  0  0  0  0  0
   10.9406    8.2330   21.1350 C   0  0  0  0  0  0  0  0  0  0  0  0
    9.6648    8.5956   21.7310 C   0  0  0  0  0  0  0  0  0  0  0  0
   10.8829    1.7153   20.9865 C   0  0  0  0  0  0  0  0  0  0  0  0
    5.7768    2.8533   23.7910 C   0  0  0  0  0  0  0  0  0  0  0  0
    9.7977    1.4791   21.6912 N   0  0  0  0  0  0  0  0  0  0  0  0
    6.5976    9.3401   22.6478 N   0  0  0  0  0  0  0  0  0  0  0  0
   11.2031    3.0042   20.6246 C   0  0  0  0  0  0  0  0  0  0  0  0
   12.8688    7.7370   22.7287 C   0  0  0  0  0  0  0  0  0  0  0  0
    7.4487    9.1361   23.6506 C   0  0  0  0  0  0  0  0  0  0  0  0
    8.9772    2.5025   22.0273 C   0  0  0  0  0  0  0  0  0  0  0  0
   10.4859    4.0901   20.9730 C   0  0  0  0  0  0  0  0  0  0  0  0
   11.0962    9.3293   23.5072 C   0  0  0  0  0  0  0  0  0  0  0  0
    5.1273    7.8529   23.6208 N   0  0  0  0  0  0  0  0  0  0  0  0
    9.7552    9.2338   23.0171 N   0  0  0  0  0  0  0  0  0  0  0  0
   11.1797    6.7591   21.3326 N   0  0  0  0  0  0  0  0  0  0  0  0
   11.7728    8.0337   23.7267 C   0  0  0  0  0  0  0  0  0  0  0  0
    7.1194    8.3344   24.6775 C   0  0  0  0  0  0  0  0  0  0  0  0
    8.4311    4.7963   22.0500 C   0  0  0  0  0  0  0  0  0  0  0  0
    8.7393   10.8706   24.1871 O   0  0  0  0  0  0  0  0  0  0  0  0
    9.3093    3.8166   21.6712 C   0  0  0  0  0  0  0  0  0  0  0  0
  1  5  1  0
  1 15  4  0
  1 22  4  0
  2 20  1  0
  2 24  1  0
  3  6  4  0
  3 27  4  0
  4 22  4  0
  4 26  4  0
  6  7  4  0
  6 13  1  0
  7 19  4  0
  8 18  1  0
  8 23  1  0
  8 28  2  0
  9 17  1  0
  9 24  1  0
 10 11  1  0
 10 24  1  0
 11 23  1  0
 12 14  4  0
 12 16  4  0
 14 19  4  0
 15 18  4  0
 16 20  4  0
 17 25  1  0
 18 26  4  0
 19 29  4  0
 20 29  4  0
 21 23  1  0
 21 25  1  0
 27 29  4  0
M  END
$$$$

 Created by Python create_sdf_string function

 29 32  0  0  0  0  0  0  0  0999 V2000
    5.4450    8.7154   22.6662 C   0  0  0  0  0  0  0  0  0  0  0  0
   10.9154    5.4574   20.5483 C   0  0  0  0  0  0  0  0  0  0  0  0
    7.2709    4.5089   22.7542 C   0  0  0  0  0  0  0  0  0  0  0  0
    5.9698    7.6329   24.6581 C   0  0  0  0  0  0  0  0  0  0  0  0
    4.5542    8.9057   21.7104 O   0  0  0  0  0  0  0  0  0  0  0  0
    6.9895    3.2085   23.0690 C   0  0  0  0  0  0  0  0  0  0  0  0
    7.8391    2.2253   22.7260 N   0  0  0  0  0  0  0  0  0  0  0  0
    8.6968    9.8373   23.6359 C   0  0  0  0  0  0  0  0  0  0  0  0
   12.5135    6.5957   21.8396 C   0  0  0  0  0  0  0  0  0  0  0  0
   10.9406    8.2330   21.1350 C   0  0  0  0  0  0  0  0  0  0  0  0
    9.6648    8.5956   21.7310 C   0  0  0  0  0  0  0  0  0  0  0  0
   10.8829    1.7153   20.9865 C   0  0  0  0  0  0  0  0  0  0  0  0
    5.7768    2.8533   23.7910 C   0  0  0  0  0  0  0  0  0  0  0  0
    9.7977    1.4791   21.6912 N   0  0  0  0  0  0  0  0  0  0  0  0
    6.5976    9.3401   22.6478 N   0  0  0  0  0  0  0  0  0  0  0  0
   11.2031    3.0042   20.6246 C   0  0  0  0  0  0  0  0  0  0  0  0
   12.8688    7.7370   22.7287 C   0  0  0  0  0  0  0  0  0  0  0  0
    7.4487    9.1361   23.6506 C   0  0  0  0  0  0  0  0  0  0  0  0
    8.9772    2.5025   22.0273 C   0  0  0  0  0  0  0  0  0  0  0  0
   10.4859    4.0901   20.9730 C   0  0  0  0  0  0  0  0  0  0  0  0
   11.0962    9.3293   23.5072 C   0  0  0  0  0  0  0  0  0  0  0  0
    5.1273    7.8529   23.6208 N   0  0  0  0  0  0  0  0  0  0  0  0
    9.7552    9.2338   23.0171 N   0  0  0  0  0  0  0  0  0  0  0  0
   11.1797    6.7591   21.3326 N   0  0  0  0  0  0  0  0  0  0  0  0
   11.7728    8.0337   23.7267 C   0  0  0  0  0  0  0  0  0  0  0  0
    7.1194    8.3344   24.6775 C   0  0  0  0  0  0  0  0  0  0  0  0
    8.4311    4.7963   22.0500 C   0  0  0  0  0  0  0  0  0  0  0  0
    8.7393   10.8706   24.1871 O   0  0  0  0  0  0  0  0  0  0  0  0
    9.3093    3.8166   21.6712 C   0  0  0  0  0  0  0  0  0  0  0  0
  1  5  1  0
  1 15  4  0
  1 22  4  0
  2 20  1  0
  2 24  1  0
  3  6  4  0
  3 27  4  0
  4 22  4  0
  4 26  4  0
  6  7  4  0
  6 13  1  0
  7 19  4  0
  8 18  1  0
  8 23  1  0
  8 28  2  0
  9 17  1  0
  9 24  1  0
 10 11  1  0
 10 24  1  0
 11 23  1  0
 12 14  4  0
 12 16  4  0
 14 19  4  0
 15 18  4  0
 16 20  4  0
 17 25  1  0
 18 26  4  0
 19 29  4  0
 20 29  4  0
 21 23  1  0
 21 25  1  0
 27 29  4  0
M  END
$$$$

 Created by Python create_sdf_string function

 29 32  0  0  0  0  0  0  0  0999 V2000
    5.4450    8.7154   22.6662 C   0  0  0  0  0  0  0  0  0  0  0  0
   10.9154    5.4574   20.5483 C   0  0  0  0  0  0  0  0  0  0  0  0
    7.2709    4.5089   22.7542 C   0  0  0  0  0  0  0  0  0  0  0  0
    5.9698    7.6329   24.6581 C   0  0  0  0  0  0  0  0  0  0  0  0
    4.5542    8.9057   21.7104 O   0  0  0  0  0  0  0  0  0  0  0  0
    6.9895    3.2085   23.0690 C   0  0  0  0  0  0  0  0  0  0  0  0
    7.8391    2.2253   22.7260 N   0  0  0  0  0  0  0  0  0  0  0  0
    8.6968    9.8373   23.6359 C   0  0  0  0  0  0  0  0  0  0  0  0
   12.5135    6.5957   21.8396 C   0  0  0  0  0  0  0  0  0  0  0  0
   10.9406    8.2330   21.1350 C   0  0  0  0  0  0  0  0  0  0  0  0
    9.6648    8.5956   21.7310 C   0  0  0  0  0  0  0  0  0  0  0  0
   10.8829    1.7153   20.9865 C   0  0  0  0  0  0  0  0  0  0  0  0
    5.7768    2.8533   23.7910 C   0  0  0  0  0  0  0  0  0  0  0  0
    9.7977    1.4791   21.6912 N   0  0  0  0  0  0  0  0  0  0  0  0
    6.5976    9.3401   22.6478 N   0  0  0  0  0  0  0  0  0  0  0  0
   11.2031    3.0042   20.6246 C   0  0  0  0  0  0  0  0  0  0  0  0
   12.8688    7.7370   22.7287 C   0  0  0  0  0  0  0  0  0  0  0  0
    7.4487    9.1361   23.6506 C   0  0  0  0  0  0  0  0  0  0  0  0
    8.9772    2.5025   22.0273 C   0  0  0  0  0  0  0  0  0  0  0  0
   10.4859    4.0901   20.9730 C   0  0  0  0  0  0  0  0  0  0  0  0
   11.0962    9.3293   23.5072 C   0  0  0  0  0  0  0  0  0  0  0  0
    5.1273    7.8529   23.6208 N   0  0  0  0  0  0  0  0  0  0  0  0
    9.7552    9.2338   23.0171 N   0  0  0  0  0  0  0  0  0  0  0  0
   11.1797    6.7591   21.3326 N   0  0  0  0  0  0  0  0  0  0  0  0
   11.7728    8.0337   23.7267 C   0  0  0  0  0  0  0  0  0  0  0  0
    7.1194    8.3344   24.6775 C   0  0  0  0  0  0  0  0  0  0  0  0
    8.4311    4.7963   22.0500 C   0  0  0  0  0  0  0  0  0  0  0  0
    8.7393   10.8706   24.1871 O   0  0  0  0  0  0  0  0  0  0  0  0
    9.3093    3.8166   21.6712 C   0  0  0  0  0  0  0  0  0  0  0  0
  1  5  1  0
  1 15  4  0
  1 22  4  0
  2 20  1  0
  2 24  1  0
  3  6  4  0
  3 27  4  0
  4 22  4  0
  4 26  4  0
  6  7  4  0
  6 13  1  0
  7 19  4  0
  8 18  1  0
  8 23  1  0
  8 28  2  0
  9 17  1  0
  9 24  1  0
 10 11  1  0
 10 24  1  0
 11 23  1  0
 12 14  4  0
 12 16  4  0
 14 19  4  0
 15 18  4  0
 16 20  4  0
 17 25  1  0
 18 26  4  0
 19 29  4  0
 20 29  4  0
 21 23  1  0
 21 25  1  0
 27 29  4  0
M  END
$$$$

 Created by Python create_sdf_string function

 29 32  0  0  0  0  0  0  0  0999 V2000
    5.4450    8.7154   22.6662 C   0  0  0  0  0  0  0  0  0  0  0  0
   10.9154    5.4574   20.5483 C   0  0  0  0  0  0  0  0  0  0  0  0
    7.2709    4.5089   22.7542 C   0  0  0  0  0  0  0  0  0  0  0  0
    5.9698    7.6329   24.6581 C   0  0  0  0  0  0  0  0  0  0  0  0
    4.5542    8.9057   21.7104 O   0  0  0  0  0  0  0  0  0  0  0  0
    6.9895    3.2085   23.0690 C   0  0  0  0  0  0  0  0  0  0  0  0
    7.8391    2.2253   22.7260 N   0  0  0  0  0  0  0  0  0  0  0  0
    8.6968    9.8373   23.6359 C   0  0  0  0  0  0  0  0  0  0  0  0
   12.5135    6.5957   21.8396 C   0  0  0  0  0  0  0  0  0  0  0  0
   10.9406    8.2330   21.1350 C   0  0  0  0  0  0  0  0  0  0  0  0
    9.6648    8.5956   21.7310 C   0  0  0  0  0  0  0  0  0  0  0  0
   10.8829    1.7153   20.9865 C   0  0  0  0  0  0  0  0  0  0  0  0
    5.7768    2.8533   23.7910 C   0  0  0  0  0  0  0  0  0  0  0  0
    9.7977    1.4791   21.6912 N   0  0  0  0  0  0  0  0  0  0  0  0
    6.5976    9.3401   22.6478 N   0  0  0  0  0  0  0  0  0  0  0  0
   11.2031    3.0042   20.6246 C   0  0  0  0  0  0  0  0  0  0  0  0
   12.8688    7.7370   22.7287 C   0  0  0  0  0  0  0  0  0  0  0  0
    7.4487    9.1361   23.6506 C   0  0  0  0  0  0  0  0  0  0  0  0
    8.9772    2.5025   22.0273 C   0  0  0  0  0  0  0  0  0  0  0  0
   10.4859    4.0901   20.9730 C   0  0  0  0  0  0  0  0  0  0  0  0
   11.0962    9.3293   23.5072 C   0  0  0  0  0  0  0  0  0  0  0  0
    5.1273    7.8529   23.6208 N   0  0  0  0  0  0  0  0  0  0  0  0
    9.7552    9.2338   23.0171 N   0  0  0  0  0  0  0  0  0  0  0  0
   11.1797    6.7591   21.3326 N   0  0  0  0  0  0  0  0  0  0  0  0
   11.7728    8.0337   23.7267 C   0  0  0  0  0  0  0  0  0  0  0  0
    7.1194    8.3344   24.6775 C   0  0  0  0  0  0  0  0  0  0  0  0
    8.4311    4.7963   22.0500 C   0  0  0  0  0  0  0  0  0  0  0  0
    8.7393   10.8706   24.1871 O   0  0  0  0  0  0  0  0  0  0  0  0
    9.3093    3.8166   21.6712 C   0  0  0  0  0  0  0  0  0  0  0  0
  1  5  1  0
  1 15  4  0
  1 22  4  0
  2 20  1  0
  2 24  1  0
  3  6  4  0
  3 27  4  0
  4 22  4  0
  4 26  4  0
  6  7  4  0
  6 13  1  0
  7 19  4  0
  8 18  1  0
  8 23  1  0
  8 28  2  0
  9 17  1  0
  9 24  1  0
 10 11  1  0
 10 24  1  0
 11 23  1  0
 12 14  4  0
 12 16  4  0
 14 19  4  0
 15 18  4  0
 16 20  4  0
 17 25  1  0
 18 26  4  0
 19 29  4  0
 20 29  4  0
 21 23  1  0
 21 25  1  0
 27 29  4  0
M  END
$$$$

 Created by Python create_sdf_string function

 29 32  0  0  0  0  0  0  0  0999 V2000
    5.4450    8.7154   22.6662 C   0  0  0  0  0  0  0  0  0  0  0  0
   10.9154    5.4574   20.5483 C   0  0  0  0  0  0  0  0  0  0  0  0
    7.2709    4.5089   22.7542 C   0  0  0  0  0  0  0  0  0  0  0  0
    5.9698    7.6329   24.6581 C   0  0  0  0  0  0  0  0  0  0  0  0
    4.5542    8.9057   21.7104 O   0  0  0  0  0  0  0  0  0  0  0  0
    6.9895    3.2085   23.0690 C   0  0  0  0  0  0  0  0  0  0  0  0
    7.8391    2.2253   22.7260 N   0  0  0  0  0  0  0  0  0  0  0  0
    8.6968    9.8373   23.6359 C   0  0  0  0  0  0  0  0  0  0  0  0
   12.5135    6.5957   21.8396 C   0  0  0  0  0  0  0  0  0  0  0  0
   10.9406    8.2330   21.1350 C   0  0  0  0  0  0  0  0  0  0  0  0
    9.6648    8.5956   21.7310 C   0  0  0  0  0  0  0  0  0  0  0  0
   10.8829    1.7153   20.9865 C   0  0  0  0  0  0  0  0  0  0  0  0
    5.7768    2.8533   23.7910 C   0  0  0  0  0  0  0  0  0  0  0  0
    9.7977    1.4791   21.6912 N   0  0  0  0  0  0  0  0  0  0  0  0
    6.5976    9.3401   22.6478 N   0  0  0  0  0  0  0  0  0  0  0  0
   11.2031    3.0042   20.6246 C   0  0  0  0  0  0  0  0  0  0  0  0
   12.8688    7.7370   22.7287 C   0  0  0  0  0  0  0  0  0  0  0  0
    7.4487    9.1361   23.6506 C   0  0  0  0  0  0  0  0  0  0  0  0
    8.9772    2.5025   22.0273 C   0  0  0  0  0  0  0  0  0  0  0  0
   10.4859    4.0901   20.9730 C   0  0  0  0  0  0  0  0  0  0  0  0
   11.0962    9.3293   23.5072 C   0  0  0  0  0  0  0  0  0  0  0  0
    5.1273    7.8529   23.6208 N   0  0  0  0  0  0  0  0  0  0  0  0
    9.7552    9.2338   23.0171 N   0  0  0  0  0  0  0  0  0  0  0  0
   11.1797    6.7591   21.3326 N   0  0  0  0  0  0  0  0  0  0  0  0
   11.7728    8.0337   23.7267 C   0  0  0  0  0  0  0  0  0  0  0  0
    7.1194    8.3344   24.6775 C   0  0  0  0  0  0  0  0  0  0  0  0
    8.4311    4.7963   22.0500 C   0  0  0  0  0  0  0  0  0  0  0  0
    8.7393   10.8706   24.1871 O   0  0  0  0  0  0  0  0  0  0  0  0
    9.3093    3.8166   21.6712 C   0  0  0  0  0  0  0  0  0  0  0  0
  1  5  1  0
  1 15  4  0
  1 22  4  0
  2 20  1  0
  2 24  1  0
  3  6  4  0
  3 27  4  0
  4 22  4  0
  4 26  4  0
  6  7  4  0
  6 13  1  0
  7 19  4  0
  8 18  1  0
  8 23  1  0
  8 28  2  0
  9 17  1  0
  9 24  1  0
 10 11  1  0
 10 24  1  0
 11 23  1  0
 12 14  4  0
 12 16  4  0
 14 19  4  0
 15 18  4  0
 16 20  4  0
 17 25  1  0
 18 26  4  0
 19 29  4  0
 20 29  4  0
 21 23  1  0
 21 25  1  0
 27 29  4  0
M  END
$$$$

 Created by Python create_sdf_string function

 29 32  0  0  0  0  0  0  0  0999 V2000
    5.4450    8.7154   22.6662 C   0  0  0  0  0  0  0  0  0  0  0  0
   10.9154    5.4574   20.5483 C   0  0  0  0  0  0  0  0  0  0  0  0
    7.2709    4.5089   22.7542 C   0  0  0  0  0  0  0  0  0  0  0  0
    5.9698    7.6329   24.6581 C   0  0  0  0  0  0  0  0  0  0  0  0
    4.5542    8.9057   21.7104 O   0  0  0  0  0  0  0  0  0  0  0  0
    6.9895    3.2085   23.0690 C   0  0  0  0  0  0  0  0  0  0  0  0
    7.8391    2.2253   22.7260 N   0  0  0  0  0  0  0  0  0  0  0  0
    8.6968    9.8373   23.6359 C   0  0  0  0  0  0  0  0  0  0  0  0
   12.5135    6.5957   21.8396 C   0  0  0  0  0  0  0  0  0  0  0  0
   10.9406    8.2330   21.1350 C   0  0  0  0  0  0  0  0  0  0  0  0
    9.6648    8.5956   21.7310 C   0  0  0  0  0  0  0  0  0  0  0  0
   10.8829    1.7153   20.9865 C   0  0  0  0  0  0  0  0  0  0  0  0
    5.7768    2.8533   23.7910 C   0  0  0  0  0  0  0  0  0  0  0  0
    9.7977    1.4791   21.6912 N   0  0  0  0  0  0  0  0  0  0  0  0
    6.5976    9.3401   22.6478 N   0  0  0  0  0  0  0  0  0  0  0  0
   11.2031    3.0042   20.6246 C   0  0  0  0  0  0  0  0  0  0  0  0
   12.8688    7.7370   22.7287 C   0  0  0  0  0  0  0  0  0  0  0  0
    7.4487    9.1361   23.6506 C   0  0  0  0  0  0  0  0  0  0  0  0
    8.9772    2.5025   22.0273 C   0  0  0  0  0  0  0  0  0  0  0  0
   10.4859    4.0901   20.9730 C   0  0  0  0  0  0  0  0  0  0  0  0
   11.0962    9.3293   23.5072 C   0  0  0  0  0  0  0  0  0  0  0  0
    5.1273    7.8529   23.6208 N   0  0  0  0  0  0  0  0  0  0  0  0
    9.7552    9.2338   23.0171 N   0  0  0  0  0  0  0  0  0  0  0  0
   11.1797    6.7591   21.3326 N   0  0  0  0  0  0  0  0  0  0  0  0
   11.7728    8.0337   23.7267 C   0  0  0  0  0  0  0  0  0  0  0  0
    7.1194    8.3344   24.6775 C   0  0  0  0  0  0  0  0  0  0  0  0
    8.4311    4.7963   22.0500 C   0  0  0  0  0  0  0  0  0  0  0  0
    8.7393   10.8706   24.1871 O   0  0  0  0  0  0  0  0  0  0  0  0
    9.3093    3.8166   21.6712 C   0  0  0  0  0  0  0  0  0  0  0  0
  1  5  1  0
  1 15  4  0
  1 22  4  0
  2 20  1  0
  2 24  1  0
  3  6  4  0
  3 27  4  0
  4 22  4  0
  4 26  4  0
  6  7  4  0
  6 13  1  0
  7 19  4  0
  8 18  1  0
  8 23  1  0
  8 28  2  0
  9 17  1  0
  9 24  1  0
 10 11  1  0
 10 24  1  0
 11 23  1  0
 12 14  4  0
 12 16  4  0
 14 19  4  0
 15 18  4  0
 16 20  4  0
 17 25  1  0
 18 26  4  0
 19 29  4  0
 20 29  4  0
 21 23  1  0
 21 25  1  0
 27 29  4  0
M  END
$$$$

 Created by Python create_sdf_string function

 29 32  0  0  0  0  0  0  0  0999 V2000
    5.4450    8.7154   22.6662 C   0  0  0  0  0  0  0  0  0  0  0  0
   10.9154    5.4574   20.5483 C   0  0  0  0  0  0  0  0  0  0  0  0
    7.2709    4.5089   22.7542 C   0  0  0  0  0  0  0  0  0  0  0  0
    5.9698    7.6329   24.6581 C   0  0  0  0  0  0  0  0  0  0  0  0
    4.5542    8.9057   21.7104 O   0  0  0  0  0  0  0  0  0  0  0  0
    6.9895    3.2085   23.0690 C   0  0  0  0  0  0  0  0  0  0  0  0
    7.8391    2.2253   22.7260 N   0  0  0  0  0  0  0  0  0  0  0  0
    8.6968    9.8373   23.6359 C   0  0  0  0  0  0  0  0  0  0  0  0
   12.5135    6.5957   21.8396 C   0  0  0  0  0  0  0  0  0  0  0  0
   10.9406    8.2330   21.1350 C   0  0  0  0  0  0  0  0  0  0  0  0
    9.6648    8.5956   21.7310 C   0  0  0  0  0  0  0  0  0  0  0  0
   10.8829    1.7153   20.9865 C   0  0  0  0  0  0  0  0  0  0  0  0
    5.7768    2.8533   23.7910 C   0  0  0  0  0  0  0  0  0  0  0  0
    9.7977    1.4791   21.6912 N   0  0  0  0  0  0  0  0  0  0  0  0
    6.5976    9.3401   22.6478 N   0  0  0  0  0  0  0  0  0  0  0  0
   11.2031    3.0042   20.6246 C   0  0  0  0  0  0  0  0  0  0  0  0
   12.8688    7.7370   22.7287 C   0  0  0  0  0  0  0  0  0  0  0  0
    7.4487    9.1361   23.6506 C   0  0  0  0  0  0  0  0  0  0  0  0
    8.9772    2.5025   22.0273 C   0  0  0  0  0  0  0  0  0  0  0  0
   10.4859    4.0901   20.9730 C   0  0  0  0  0  0  0  0  0  0  0  0
   11.0962    9.3293   23.5072 C   0  0  0  0  0  0  0  0  0  0  0  0
    5.1273    7.8529   23.6208 N   0  0  0  0  0  0  0  0  0  0  0  0
    9.7552    9.2338   23.0171 N   0  0  0  0  0  0  0  0  0  0  0  0
   11.1797    6.7591   21.3326 N   0  0  0  0  0  0  0  0  0  0  0  0
   11.7728    8.0337   23.7267 C   0  0  0  0  0  0  0  0  0  0  0  0
    7.1194    8.3344   24.6775 C   0  0  0  0  0  0  0  0  0  0  0  0
    8.4311    4.7963   22.0500 C   0  0  0  0  0  0  0  0  0  0  0  0
    8.7393   10.8706   24.1871 O   0  0  0  0  0  0  0  0  0  0  0  0
    9.3093    3.8166   21.6712 C   0  0  0  0  0  0  0  0  0  0  0  0
  1  5  1  0
  1 15  4  0
  1 22  4  0
  2 20  1  0
  2 24  1  0
  3  6  4  0
  3 27  4  0
  4 22  4  0
  4 26  4  0
  6  7  4  0
  6 13  1  0
  7 19  4  0
  8 18  1  0
  8 23  1  0
  8 28  2  0
  9 17  1  0
  9 24  1  0
 10 11  1  0
 10 24  1  0
 11 23  1  0
 12 14  4  0
 12 16  4  0
 14 19  4  0
 15 18  4  0
 16 20  4  0
 17 25  1  0
 18 26  4  0
 19 29  4  0
 20 29  4  0
 21 23  1  0
 21 25  1  0
 27 29  4  0
M  END
$$$$

 Created by Python create_sdf_string function

 29 32  0  0  0  0  0  0  0  0999 V2000
    5.4450    8.7154   22.6662 C   0  0  0  0  0  0  0  0  0  0  0  0
   10.9154    5.4574   20.5483 C   0  0  0  0  0  0  0  0  0  0  0  0
    7.2709    4.5089   22.7542 C   0  0  0  0  0  0  0  0  0  0  0  0
    5.9698    7.6329   24.6581 C   0  0  0  0  0  0  0  0  0  0  0  0
    4.5542    8.9057   21.7104 O   0  0  0  0  0  0  0  0  0  0  0  0
    6.9895    3.2085   23.0690 C   0  0  0  0  0  0  0  0  0  0  0  0
    7.8391    2.2253   22.7260 N   0  0  0  0  0  0  0  0  0  0  0  0
    8.6968    9.8373   23.6359 C   0  0  0  0  0  0  0  0  0  0  0  0
   12.5135    6.5957   21.8396 C   0  0  0  0  0  0  0  0  0  0  0  0
   10.9406    8.2330   21.1350 C   0  0  0  0  0  0  0  0  0  0  0  0
    9.6648    8.5956   21.7310 C   0  0  0  0  0  0  0  0  0  0  0  0
   10.8829    1.7153   20.9865 C   0  0  0  0  0  0  0  0  0  0  0  0
    5.7768    2.8533   23.7910 C   0  0  0  0  0  0  0  0  0  0  0  0
    9.7977    1.4791   21.6912 N   0  0  0  0  0  0  0  0  0  0  0  0
    6.5976    9.3401   22.6478 N   0  0  0  0  0  0  0  0  0  0  0  0
   11.2031    3.0042   20.6246 C   0  0  0  0  0  0  0  0  0  0  0  0
   12.8688    7.7370   22.7287 C   0  0  0  0  0  0  0  0  0  0  0  0
    7.4487    9.1361   23.6506 C   0  0  0  0  0  0  0  0  0  0  0  0
    8.9772    2.5025   22.0273 C   0  0  0  0  0  0  0  0  0  0  0  0
   10.4859    4.0901   20.9730 C   0  0  0  0  0  0  0  0  0  0  0  0
   11.0962    9.3293   23.5072 C   0  0  0  0  0  0  0  0  0  0  0  0
    5.1273    7.8529   23.6208 N   0  0  0  0  0  0  0  0  0  0  0  0
    9.7552    9.2338   23.0171 N   0  0  0  0  0  0  0  0  0  0  0  0
   11.1797    6.7591   21.3326 N   0  0  0  0  0  0  0  0  0  0  0  0
   11.7728    8.0337   23.7267 C   0  0  0  0  0  0  0  0  0  0  0  0
    7.1194    8.3344   24.6775 C   0  0  0  0  0  0  0  0  0  0  0  0
    8.4311    4.7963   22.0500 C   0  0  0  0  0  0  0  0  0  0  0  0
    8.7393   10.8706   24.1871 O   0  0  0  0  0  0  0  0  0  0  0  0
    9.3093    3.8166   21.6712 C   0  0  0  0  0  0  0  0  0  0  0  0
  1  5  1  0
  1 15  4  0
  1 22  4  0
  2 20  1  0
  2 24  1  0
  3  6  4  0
  3 27  4  0
  4 22  4  0
  4 26  4  0
  6  7  4  0
  6 13  1  0
  7 19  4  0
  8 18  1  0
  8 23  1  0
  8 28  2  0
  9 17  1  0
  9 24  1  0
 10 11  1  0
 10 24  1  0
 11 23  1  0
 12 14  4  0
 12 16  4  0
 14 19  4  0
 15 18  4  0
 16 20  4  0
 17 25  1  0
 18 26  4  0
 19 29  4  0
 20 29  4  0
 21 23  1  0
 21 25  1  0
 27 29  4  0
M  END
$$$$

 Created by Python create_sdf_string function

 29 32  0  0  0  0  0  0  0  0999 V2000
    5.4450    8.7154   22.6662 C   0  0  0  0  0  0  0  0  0  0  0  0
   10.9154    5.4574   20.5483 C   0  0  0  0  0  0  0  0  0  0  0  0
    7.2709    4.5089   22.7542 C   0  0  0  0  0  0  0  0  0  0  0  0
    5.9698    7.6329   24.6581 C   0  0  0  0  0  0  0  0  0  0  0  0
    4.5542    8.9057   21.7104 O   0  0  0  0  0  0  0  0  0  0  0  0
    6.9895    3.2085   23.0690 C   0  0  0  0  0  0  0  0  0  0  0  0
    7.8391    2.2253   22.7260 N   0  0  0  0  0  0  0  0  0  0  0  0
    8.6968    9.8373   23.6359 C   0  0  0  0  0  0  0  0  0  0  0  0
   12.5135    6.5957   21.8396 C   0  0  0  0  0  0  0  0  0  0  0  0
   10.9406    8.2330   21.1350 C   0  0  0  0  0  0  0  0  0  0  0  0
    9.6648    8.5956   21.7310 C   0  0  0  0  0  0  0  0  0  0  0  0
   10.8829    1.7153   20.9865 C   0  0  0  0  0  0  0  0  0  0  0  0
    5.7768    2.8533   23.7910 C   0  0  0  0  0  0  0  0  0  0  0  0
    9.7977    1.4791   21.6912 N   0  0  0  0  0  0  0  0  0  0  0  0
    6.5976    9.3401   22.6478 N   0  0  0  0  0  0  0  0  0  0  0  0
   11.2031    3.0042   20.6246 C   0  0  0  0  0  0  0  0  0  0  0  0
   12.8688    7.7370   22.7287 C   0  0  0  0  0  0  0  0  0  0  0  0
    7.4487    9.1361   23.6506 C   0  0  0  0  0  0  0  0  0  0  0  0
    8.9772    2.5025   22.0273 C   0  0  0  0  0  0  0  0  0  0  0  0
   10.4859    4.0901   20.9730 C   0  0  0  0  0  0  0  0  0  0  0  0
   11.0962    9.3293   23.5072 C   0  0  0  0  0  0  0  0  0  0  0  0
    5.1273    7.8529   23.6208 N   0  0  0  0  0  0  0  0  0  0  0  0
    9.7552    9.2338   23.0171 N   0  0  0  0  0  0  0  0  0  0  0  0
   11.1797    6.7591   21.3326 N   0  0  0  0  0  0  0  0  0  0  0  0
   11.7728    8.0337   23.7267 C   0  0  0  0  0  0  0  0  0  0  0  0
    7.1194    8.3344   24.6775 C   0  0  0  0  0  0  0  0  0  0  0  0
    8.4311    4.7963   22.0500 C   0  0  0  0  0  0  0  0  0  0  0  0
    8.7393   10.8706   24.1871 O   0  0  0  0  0  0  0  0  0  0  0  0
    9.3093    3.8166   21.6712 C   0  0  0  0  0  0  0  0  0  0  0  0
  1  5  1  0
  1 15  4  0
  1 22  4  0
  2 20  1  0
  2 24  1  0
  3  6  4  0
  3 27  4  0
  4 22  4  0
  4 26  4  0
  6  7  4  0
  6 13  1  0
  7 19  4  0
  8 18  1  0
  8 23  1  0
  8 28  2  0
  9 17  1  0
  9 24  1  0
 10 11  1  0
 10 24  1  0
 11 23  1  0
 12 14  4  0
 12 16  4  0
 14 19  4  0
 15 18  4  0
 16 20  4  0
 17 25  1  0
 18 26  4  0
 19 29  4  0
 20 29  4  0
 21 23  1  0
 21 25  1  0
 27 29  4  0
M  END
$$$$

 Created by Python create_sdf_string function

 29 32  0  0  0  0  0  0  0  0999 V2000
    5.4450    8.7154   22.6662 C   0  0  0  0  0  0  0  0  0  0  0  0
   10.9154    5.4574   20.5483 C   0  0  0  0  0  0  0  0  0  0  0  0
    7.2709    4.5089   22.7542 C   0  0  0  0  0  0  0  0  0  0  0  0
    5.9698    7.6329   24.6581 C   0  0  0  0  0  0  0  0  0  0  0  0
    4.5542    8.9057   21.7104 O   0  0  0  0  0  0  0  0  0  0  0  0
    6.9895    3.2085   23.0690 C   0  0  0  0  0  0  0  0  0  0  0  0
    7.8391    2.2253   22.7260 N   0  0  0  0  0  0  0  0  0  0  0  0
    8.6968    9.8373   23.6359 C   0  0  0  0  0  0  0  0  0  0  0  0
   12.5135    6.5957   21.8396 C   0  0  0  0  0  0  0  0  0  0  0  0
   10.9406    8.2330   21.1350 C   0  0  0  0  0  0  0  0  0  0  0  0
    9.6648    8.5956   21.7310 C   0  0  0  0  0  0  0  0  0  0  0  0
   10.8829    1.7153   20.9865 C   0  0  0  0  0  0  0  0  0  0  0  0
    5.7768    2.8533   23.7910 C   0  0  0  0  0  0  0  0  0  0  0  0
    9.7977    1.4791   21.6912 N   0  0  0  0  0  0  0  0  0  0  0  0
    6.5976    9.3401   22.6478 N   0  0  0  0  0  0  0  0  0  0  0  0
   11.2031    3.0042   20.6246 C   0  0  0  0  0  0  0  0  0  0  0  0
   12.8688    7.7370   22.7287 C   0  0  0  0  0  0  0  0  0  0  0  0
    7.4487    9.1361   23.6506 C   0  0  0  0  0  0  0  0  0  0  0  0
    8.9772    2.5025   22.0273 C   0  0  0  0  0  0  0  0  0  0  0  0
   10.4859    4.0901   20.9730 C   0  0  0  0  0  0  0  0  0  0  0  0
   11.0962    9.3293   23.5072 C   0  0  0  0  0  0  0  0  0  0  0  0
    5.1273    7.8529   23.6208 N   0  0  0  0  0  0  0  0  0  0  0  0
    9.7552    9.2338   23.0171 N   0  0  0  0  0  0  0  0  0  0  0  0
   11.1797    6.7591   21.3326 N   0  0  0  0  0  0  0  0  0  0  0  0
   11.7728    8.0337   23.7267 C   0  0  0  0  0  0  0  0  0  0  0  0
    7.1194    8.3344   24.6775 C   0  0  0  0  0  0  0  0  0  0  0  0
    8.4311    4.7963   22.0500 C   0  0  0  0  0  0  0  0  0  0  0  0
    8.7393   10.8706   24.1871 O   0  0  0  0  0  0  0  0  0  0  0  0
    9.3093    3.8166   21.6712 C   0  0  0  0  0  0  0  0  0  0  0  0
  1  5  1  0
  1 15  4  0
  1 22  4  0
  2 20  1  0
  2 24  1  0
  3  6  4  0
  3 27  4  0
  4 22  4  0
  4 26  4  0
  6  7  4  0
  6 13  1  0
  7 19  4  0
  8 18  1  0
  8 23  1  0
  8 28  2  0
  9 17  1  0
  9 24  1  0
 10 11  1  0
 10 24  1  0
 11 23  1  0
 12 14  4  0
 12 16  4  0
 14 19  4  0
 15 18  4  0
 16 20  4  0
 17 25  1  0
 18 26  4  0
 19 29  4  0
 20 29  4  0
 21 23  1  0
 21 25  1  0
 27 29  4  0
M  END
$$$$

 Created by Python create_sdf_string function

 29 32  0  0  0  0  0  0  0  0999 V2000
    5.4450    8.7154   22.6662 C   0  0  0  0  0  0  0  0  0  0  0  0
   10.9154    5.4574   20.5483 C   0  0  0  0  0  0  0  0  0  0  0  0
    7.2709    4.5089   22.7542 C   0  0  0  0  0  0  0  0  0  0  0  0
    5.9698    7.6329   24.6581 C   0  0  0  0  0  0  0  0  0  0  0  0
    4.5542    8.9057   21.7104 O   0  0  0  0  0  0  0  0  0  0  0  0
    6.9895    3.2085   23.0690 C   0  0  0  0  0  0  0  0  0  0  0  0
    7.8391    2.2253   22.7260 N   0  0  0  0  0  0  0  0  0  0  0  0
    8.6968    9.8373   23.6359 C   0  0  0  0  0  0  0  0  0  0  0  0
   12.5135    6.5957   21.8396 C   0  0  0  0  0  0  0  0  0  0  0  0
   10.9406    8.2330   21.1350 C   0  0  0  0  0  0  0  0  0  0  0  0
    9.6648    8.5956   21.7310 C   0  0  0  0  0  0  0  0  0  0  0  0
   10.8829    1.7153   20.9865 C   0  0  0  0  0  0  0  0  0  0  0  0
    5.7768    2.8533   23.7910 C   0  0  0  0  0  0  0  0  0  0  0  0
    9.7977    1.4791   21.6912 N   0  0  0  0  0  0  0  0  0  0  0  0
    6.5976    9.3401   22.6478 N   0  0  0  0  0  0  0  0  0  0  0  0
   11.2031    3.0042   20.6246 C   0  0  0  0  0  0  0  0  0  0  0  0
   12.8688    7.7370   22.7287 C   0  0  0  0  0  0  0  0  0  0  0  0
    7.4487    9.1361   23.6506 C   0  0  0  0  0  0  0  0  0  0  0  0
    8.9772    2.5025   22.0273 C   0  0  0  0  0  0  0  0  0  0  0  0
   10.4859    4.0901   20.9730 C   0  0  0  0  0  0  0  0  0  0  0  0
   11.0962    9.3293   23.5072 C   0  0  0  0  0  0  0  0  0  0  0  0
    5.1273    7.8529   23.6208 N   0  0  0  0  0  0  0  0  0  0  0  0
    9.7552    9.2338   23.0171 N   0  0  0  0  0  0  0  0  0  0  0  0
   11.1797    6.7591   21.3326 N   0  0  0  0  0  0  0  0  0  0  0  0
   11.7728    8.0337   23.7267 C   0  0  0  0  0  0  0  0  0  0  0  0
    7.1194    8.3344   24.6775 C   0  0  0  0  0  0  0  0  0  0  0  0
    8.4311    4.7963   22.0500 C   0  0  0  0  0  0  0  0  0  0  0  0
    8.7393   10.8706   24.1871 O   0  0  0  0  0  0  0  0  0  0  0  0
    9.3093    3.8166   21.6712 C   0  0  0  0  0  0  0  0  0  0  0  0
  1  5  1  0
  1 15  4  0
  1 22  4  0
  2 20  1  0
  2 24  1  0
  3  6  4  0
  3 27  4  0
  4 22  4  0
  4 26  4  0
  6  7  4  0
  6 13  1  0
  7 19  4  0
  8 18  1  0
  8 23  1  0
  8 28  2  0
  9 17  1  0
  9 24  1  0
 10 11  1  0
 10 24  1  0
 11 23  1  0
 12 14  4  0
 12 16  4  0
 14 19  4  0
 15 18  4  0
 16 20  4  0
 17 25  1  0
 18 26  4  0
 19 29  4  0
 20 29  4  0
 21 23  1  0
 21 25  1  0
 27 29  4  0
M  END
$$$$

 Created by Python create_sdf_string function

 29 32  0  0  0  0  0  0  0  0999 V2000
    5.4450    8.7154   22.6662 C   0  0  0  0  0  0  0  0  0  0  0  0
   10.9154    5.4574   20.5483 C   0  0  0  0  0  0  0  0  0  0  0  0
    7.2709    4.5089   22.7542 C   0  0  0  0  0  0  0  0  0  0  0  0
    5.9698    7.6329   24.6581 C   0  0  0  0  0  0  0  0  0  0  0  0
    4.5542    8.9057   21.7104 O   0  0  0  0  0  0  0  0  0  0  0  0
    6.9895    3.2085   23.0690 C   0  0  0  0  0  0  0  0  0  0  0  0
    7.8391    2.2253   22.7260 N   0  0  0  0  0  0  0  0  0  0  0  0
    8.6968    9.8373   23.6359 C   0  0  0  0  0  0  0  0  0  0  0  0
   12.5135    6.5957   21.8396 C   0  0  0  0  0  0  0  0  0  0  0  0
   10.9406    8.2330   21.1350 C   0  0  0  0  0  0  0  0  0  0  0  0
    9.6648    8.5956   21.7310 C   0  0  0  0  0  0  0  0  0  0  0  0
   10.8829    1.7153   20.9865 C   0  0  0  0  0  0  0  0  0  0  0  0
    5.7768    2.8533   23.7910 C   0  0  0  0  0  0  0  0  0  0  0  0
    9.7977    1.4791   21.6912 N   0  0  0  0  0  0  0  0  0  0  0  0
    6.5976    9.3401   22.6478 N   0  0  0  0  0  0  0  0  0  0  0  0
   11.2031    3.0042   20.6246 C   0  0  0  0  0  0  0  0  0  0  0  0
   12.8688    7.7370   22.7287 C   0  0  0  0  0  0  0  0  0  0  0  0
    7.4487    9.1361   23.6506 C   0  0  0  0  0  0  0  0  0  0  0  0
    8.9772    2.5025   22.0273 C   0  0  0  0  0  0  0  0  0  0  0  0
   10.4859    4.0901   20.9730 C   0  0  0  0  0  0  0  0  0  0  0  0
   11.0962    9.3293   23.5072 C   0  0  0  0  0  0  0  0  0  0  0  0
    5.1273    7.8529   23.6208 N   0  0  0  0  0  0  0  0  0  0  0  0
    9.7552    9.2338   23.0171 N   0  0  0  0  0  0  0  0  0  0  0  0
   11.1797    6.7591   21.3326 N   0  0  0  0  0  0  0  0  0  0  0  0
   11.7728    8.0337   23.7267 C   0  0  0  0  0  0  0  0  0  0  0  0
    7.1194    8.3344   24.6775 C   0  0  0  0  0  0  0  0  0  0  0  0
    8.4311    4.7963   22.0500 C   0  0  0  0  0  0  0  0  0  0  0  0
    8.7393   10.8706   24.1871 O   0  0  0  0  0  0  0  0  0  0  0  0
    9.3093    3.8166   21.6712 C   0  0  0  0  0  0  0  0  0  0  0  0
  1  5  1  0
  1 15  4  0
  1 22  4  0
  2 20  1  0
  2 24  1  0
  3  6  4  0
  3 27  4  0
  4 22  4  0
  4 26  4  0
  6  7  4  0
  6 13  1  0
  7 19  4  0
  8 18  1  0
  8 23  1  0
  8 28  2  0
  9 17  1  0
  9 24  1  0
 10 11  1  0
 10 24  1  0
 11 23  1  0
 12 14  4  0
 12 16  4  0
 14 19  4  0
 15 18  4  0
 16 20  4  0
 17 25  1  0
 18 26  4  0
 19 29  4  0
 20 29  4  0
 21 23  1  0
 21 25  1  0
 27 29  4  0
M  END
$$$$

 Created by Python create_sdf_string function

 29 32  0  0  0  0  0  0  0  0999 V2000
    5.4450    8.7154   22.6662 C   0  0  0  0  0  0  0  0  0  0  0  0
   10.9154    5.4574   20.5483 C   0  0  0  0  0  0  0  0  0  0  0  0
    7.2709    4.5089   22.7542 C   0  0  0  0  0  0  0  0  0  0  0  0
    5.9698    7.6329   24.6581 C   0  0  0  0  0  0  0  0  0  0  0  0
    4.5542    8.9057   21.7104 O   0  0  0  0  0  0  0  0  0  0  0  0
    6.9895    3.2085   23.0690 C   0  0  0  0  0  0  0  0  0  0  0  0
    7.8391    2.2253   22.7260 N   0  0  0  0  0  0  0  0  0  0  0  0
    8.6968    9.8373   23.6359 C   0  0  0  0  0  0  0  0  0  0  0  0
   12.5135    6.5957   21.8396 C   0  0  0  0  0  0  0  0  0  0  0  0
   10.9406    8.2330   21.1350 C   0  0  0  0  0  0  0  0  0  0  0  0
    9.6648    8.5956   21.7310 C   0  0  0  0  0  0  0  0  0  0  0  0
   10.8829    1.7153   20.9865 C   0  0  0  0  0  0  0  0  0  0  0  0
    5.7768    2.8533   23.7910 C   0  0  0  0  0  0  0  0  0  0  0  0
    9.7977    1.4791   21.6912 N   0  0  0  0  0  0  0  0  0  0  0  0
    6.5976    9.3401   22.6478 N   0  0  0  0  0  0  0  0  0  0  0  0
   11.2031    3.0042   20.6246 C   0  0  0  0  0  0  0  0  0  0  0  0
   12.8688    7.7370   22.7287 C   0  0  0  0  0  0  0  0  0  0  0  0
    7.4487    9.1361   23.6506 C   0  0  0  0  0  0  0  0  0  0  0  0
    8.9772    2.5025   22.0273 C   0  0  0  0  0  0  0  0  0  0  0  0
   10.4859    4.0901   20.9730 C   0  0  0  0  0  0  0  0  0  0  0  0
   11.0962    9.3293   23.5072 C   0  0  0  0  0  0  0  0  0  0  0  0
    5.1273    7.8529   23.6208 N   0  0  0  0  0  0  0  0  0  0  0  0
    9.7552    9.2338   23.0171 N   0  0  0  0  0  0  0  0  0  0  0  0
   11.1797    6.7591   21.3326 N   0  0  0  0  0  0  0  0  0  0  0  0
   11.7728    8.0337   23.7267 C   0  0  0  0  0  0  0  0  0  0  0  0
    7.1194    8.3344   24.6775 C   0  0  0  0  0  0  0  0  0  0  0  0
    8.4311    4.7963   22.0500 C   0  0  0  0  0  0  0  0  0  0  0  0
    8.7393   10.8706   24.1871 O   0  0  0  0  0  0  0  0  0  0  0  0
    9.3093    3.8166   21.6712 C   0  0  0  0  0  0  0  0  0  0  0  0
  1  5  1  0
  1 15  4  0
  1 22  4  0
  2 20  1  0
  2 24  1  0
  3  6  4  0
  3 27  4  0
  4 22  4  0
  4 26  4  0
  6  7  4  0
  6 13  1  0
  7 19  4  0
  8 18  1  0
  8 23  1  0
  8 28  2  0
  9 17  1  0
  9 24  1  0
 10 11  1  0
 10 24  1  0
 11 23  1  0
 12 14  4  0
 12 16  4  0
 14 19  4  0
 15 18  4  0
 16 20  4  0
 17 25  1  0
 18 26  4  0
 19 29  4  0
 20 29  4  0
 21 23  1  0
 21 25  1  0
 27 29  4  0
M  END
$$$$

 Created by Python create_sdf_string function

 29 32  0  0  0  0  0  0  0  0999 V2000
    5.4450    8.7154   22.6662 C   0  0  0  0  0  0  0  0  0  0  0  0
   10.9154    5.4574   20.5483 C   0  0  0  0  0  0  0  0  0  0  0  0
    7.2709    4.5089   22.7542 C   0  0  0  0  0  0  0  0  0  0  0  0
    5.9698    7.6329   24.6581 C   0  0  0  0  0  0  0  0  0  0  0  0
    4.5542    8.9057   21.7104 O   0  0  0  0  0  0  0  0  0  0  0  0
    6.9895    3.2085   23.0690 C   0  0  0  0  0  0  0  0  0  0  0  0
    7.8391    2.2253   22.7260 N   0  0  0  0  0  0  0  0  0  0  0  0
    8.6968    9.8373   23.6359 C   0  0  0  0  0  0  0  0  0  0  0  0
   12.5135    6.5957   21.8396 C   0  0  0  0  0  0  0  0  0  0  0  0
   10.9406    8.2330   21.1350 C   0  0  0  0  0  0  0  0  0  0  0  0
    9.6648    8.5956   21.7310 C   0  0  0  0  0  0  0  0  0  0  0  0
   10.8829    1.7153   20.9865 C   0  0  0  0  0  0  0  0  0  0  0  0
    5.7768    2.8533   23.7910 C   0  0  0  0  0  0  0  0  0  0  0  0
    9.7977    1.4791   21.6912 N   0  0  0  0  0  0  0  0  0  0  0  0
    6.5976    9.3401   22.6478 N   0  0  0  0  0  0  0  0  0  0  0  0
   11.2031    3.0042   20.6246 C   0  0  0  0  0  0  0  0  0  0  0  0
   12.8688    7.7370   22.7287 C   0  0  0  0  0  0  0  0  0  0  0  0
    7.4487    9.1361   23.6506 C   0  0  0  0  0  0  0  0  0  0  0  0
    8.9772    2.5025   22.0273 C   0  0  0  0  0  0  0  0  0  0  0  0
   10.4859    4.0901   20.9730 C   0  0  0  0  0  0  0  0  0  0  0  0
   11.0962    9.3293   23.5072 C   0  0  0  0  0  0  0  0  0  0  0  0
    5.1273    7.8529   23.6208 N   0  0  0  0  0  0  0  0  0  0  0  0
    9.7552    9.2338   23.0171 N   0  0  0  0  0  0  0  0  0  0  0  0
   11.1797    6.7591   21.3326 N   0  0  0  0  0  0  0  0  0  0  0  0
   11.7728    8.0337   23.7267 C   0  0  0  0  0  0  0  0  0  0  0  0
    7.1194    8.3344   24.6775 C   0  0  0  0  0  0  0  0  0  0  0  0
    8.4311    4.7963   22.0500 C   0  0  0  0  0  0  0  0  0  0  0  0
    8.7393   10.8706   24.1871 O   0  0  0  0  0  0  0  0  0  0  0  0
    9.3093    3.8166   21.6712 C   0  0  0  0  0  0  0  0  0  0  0  0
  1  5  1  0
  1 15  4  0
  1 22  4  0
  2 20  1  0
  2 24  1  0
  3  6  4  0
  3 27  4  0
  4 22  4  0
  4 26  4  0
  6  7  4  0
  6 13  1  0
  7 19  4  0
  8 18  1  0
  8 23  1  0
  8 28  2  0
  9 17  1  0
  9 24  1  0
 10 11  1  0
 10 24  1  0
 11 23  1  0
 12 14  4  0
 12 16  4  0
 14 19  4  0
 15 18  4  0
 16 20  4  0
 17 25  1  0
 18 26  4  0
 19 29  4  0
 20 29  4  0
 21 23  1  0
 21 25  1  0
 27 29  4  0
M  END
$$$$

 Created by Python create_sdf_string function

 29 32  0  0  0  0  0  0  0  0999 V2000
    5.4450    8.7154   22.6662 C   0  0  0  0  0  0  0  0  0  0  0  0
   10.9154    5.4574   20.5483 C   0  0  0  0  0  0  0  0  0  0  0  0
    7.2709    4.5089   22.7542 C   0  0  0  0  0  0  0  0  0  0  0  0
    5.9698    7.6329   24.6581 C   0  0  0  0  0  0  0  0  0  0  0  0
    4.5542    8.9057   21.7104 O   0  0  0  0  0  0  0  0  0  0  0  0
    6.9895    3.2085   23.0690 C   0  0  0  0  0  0  0  0  0  0  0  0
    7.8391    2.2253   22.7260 N   0  0  0  0  0  0  0  0  0  0  0  0
    8.6968    9.8373   23.6359 C   0  0  0  0  0  0  0  0  0  0  0  0
   12.5135    6.5957   21.8396 C   0  0  0  0  0  0  0  0  0  0  0  0
   10.9406    8.2330   21.1350 C   0  0  0  0  0  0  0  0  0  0  0  0
    9.6648    8.5956   21.7310 C   0  0  0  0  0  0  0  0  0  0  0  0
   10.8829    1.7153   20.9865 C   0  0  0  0  0  0  0  0  0  0  0  0
    5.7768    2.8533   23.7910 C   0  0  0  0  0  0  0  0  0  0  0  0
    9.7977    1.4791   21.6912 N   0  0  0  0  0  0  0  0  0  0  0  0
    6.5976    9.3401   22.6478 N   0  0  0  0  0  0  0  0  0  0  0  0
   11.2031    3.0042   20.6246 C   0  0  0  0  0  0  0  0  0  0  0  0
   12.8688    7.7370   22.7287 C   0  0  0  0  0  0  0  0  0  0  0  0
    7.4487    9.1361   23.6506 C   0  0  0  0  0  0  0  0  0  0  0  0
    8.9772    2.5025   22.0273 C   0  0  0  0  0  0  0  0  0  0  0  0
   10.4859    4.0901   20.9730 C   0  0  0  0  0  0  0  0  0  0  0  0
   11.0962    9.3293   23.5072 C   0  0  0  0  0  0  0  0  0  0  0  0
    5.1273    7.8529   23.6208 N   0  0  0  0  0  0  0  0  0  0  0  0
    9.7552    9.2338   23.0171 N   0  0  0  0  0  0  0  0  0  0  0  0
   11.1797    6.7591   21.3326 N   0  0  0  0  0  0  0  0  0  0  0  0
   11.7728    8.0337   23.7267 C   0  0  0  0  0  0  0  0  0  0  0  0
    7.1194    8.3344   24.6775 C   0  0  0  0  0  0  0  0  0  0  0  0
    8.4311    4.7963   22.0500 C   0  0  0  0  0  0  0  0  0  0  0  0
    8.7393   10.8706   24.1871 O   0  0  0  0  0  0  0  0  0  0  0  0
    9.3093    3.8166   21.6712 C   0  0  0  0  0  0  0  0  0  0  0  0
  1  5  1  0
  1 15  4  0
  1 22  4  0
  2 20  1  0
  2 24  1  0
  3  6  4  0
  3 27  4  0
  4 22  4  0
  4 26  4  0
  6  7  4  0
  6 13  1  0
  7 19  4  0
  8 18  1  0
  8 23  1  0
  8 28  2  0
  9 17  1  0
  9 24  1  0
 10 11  1  0
 10 24  1  0
 11 23  1  0
 12 14  4  0
 12 16  4  0
 14 19  4  0
 15 18  4  0
 16 20  4  0
 17 25  1  0
 18 26  4  0
 19 29  4  0
 20 29  4  0
 21 23  1  0
 21 25  1  0
 27 29  4  0
M  END
$$$$

 Created by Python create_sdf_string function

 29 32  0  0  0  0  0  0  0  0999 V2000
    5.4450    8.7154   22.6662 C   0  0  0  0  0  0  0  0  0  0  0  0
   10.9154    5.4574   20.5483 C   0  0  0  0  0  0  0  0  0  0  0  0
    7.2709    4.5089   22.7542 C   0  0  0  0  0  0  0  0  0  0  0  0
    5.9698    7.6329   24.6581 C   0  0  0  0  0  0  0  0  0  0  0  0
    4.5542    8.9057   21.7104 O   0  0  0  0  0  0  0  0  0  0  0  0
    6.9895    3.2085   23.0690 C   0  0  0  0  0  0  0  0  0  0  0  0
    7.8391    2.2253   22.7260 N   0  0  0  0  0  0  0  0  0  0  0  0
    8.6968    9.8373   23.6359 C   0  0  0  0  0  0  0  0  0  0  0  0
   12.5135    6.5957   21.8396 C   0  0  0  0  0  0  0  0  0  0  0  0
   10.9406    8.2330   21.1350 C   0  0  0  0  0  0  0  0  0  0  0  0
    9.6648    8.5956   21.7310 C   0  0  0  0  0  0  0  0  0  0  0  0
   10.8829    1.7153   20.9865 C   0  0  0  0  0  0  0  0  0  0  0  0
    5.7768    2.8533   23.7910 C   0  0  0  0  0  0  0  0  0  0  0  0
    9.7977    1.4791   21.6912 N   0  0  0  0  0  0  0  0  0  0  0  0
    6.5976    9.3401   22.6478 N   0  0  0  0  0  0  0  0  0  0  0  0
   11.2031    3.0042   20.6246 C   0  0  0  0  0  0  0  0  0  0  0  0
   12.8688    7.7370   22.7287 C   0  0  0  0  0  0  0  0  0  0  0  0
    7.4487    9.1361   23.6506 C   0  0  0  0  0  0  0  0  0  0  0  0
    8.9772    2.5025   22.0273 C   0  0  0  0  0  0  0  0  0  0  0  0
   10.4859    4.0901   20.9730 C   0  0  0  0  0  0  0  0  0  0  0  0
   11.0962    9.3293   23.5072 C   0  0  0  0  0  0  0  0  0  0  0  0
    5.1273    7.8529   23.6208 N   0  0  0  0  0  0  0  0  0  0  0  0
    9.7552    9.2338   23.0171 N   0  0  0  0  0  0  0  0  0  0  0  0
   11.1797    6.7591   21.3326 N   0  0  0  0  0  0  0  0  0  0  0  0
   11.7728    8.0337   23.7267 C   0  0  0  0  0  0  0  0  0  0  0  0
    7.1194    8.3344   24.6775 C   0  0  0  0  0  0  0  0  0  0  0  0
    8.4311    4.7963   22.0500 C   0  0  0  0  0  0  0  0  0  0  0  0
    8.7393   10.8706   24.1871 O   0  0  0  0  0  0  0  0  0  0  0  0
    9.3093    3.8166   21.6712 C   0  0  0  0  0  0  0  0  0  0  0  0
  1  5  1  0
  1 15  4  0
  1 22  4  0
  2 20  1  0
  2 24  1  0
  3  6  4  0
  3 27  4  0
  4 22  4  0
  4 26  4  0
  6  7  4  0
  6 13  1  0
  7 19  4  0
  8 18  1  0
  8 23  1  0
  8 28  2  0
  9 17  1  0
  9 24  1  0
 10 11  1  0
 10 24  1  0
 11 23  1  0
 12 14  4  0
 12 16  4  0
 14 19  4  0
 15 18  4  0
 16 20  4  0
 17 25  1  0
 18 26  4  0
 19 29  4  0
 20 29  4  0
 21 23  1  0
 21 25  1  0
 27 29  4  0
M  END
$$$$

 Created by Python create_sdf_string function

 29 32  0  0  0  0  0  0  0  0999 V2000
    5.4450    8.7154   22.6662 C   0  0  0  0  0  0  0  0  0  0  0  0
   10.9154    5.4574   20.5483 C   0  0  0  0  0  0  0  0  0  0  0  0
    7.2709    4.5089   22.7542 C   0  0  0  0  0  0  0  0  0  0  0  0
    5.9698    7.6329   24.6581 C   0  0  0  0  0  0  0  0  0  0  0  0
    4.5542    8.9057   21.7104 O   0  0  0  0  0  0  0  0  0  0  0  0
    6.9895    3.2085   23.0690 C   0  0  0  0  0  0  0  0  0  0  0  0
    7.8391    2.2253   22.7260 N   0  0  0  0  0  0  0  0  0  0  0  0
    8.6968    9.8373   23.6359 C   0  0  0  0  0  0  0  0  0  0  0  0
   12.5135    6.5957   21.8396 C   0  0  0  0  0  0  0  0  0  0  0  0
   10.9406    8.2330   21.1350 C   0  0  0  0  0  0  0  0  0  0  0  0
    9.6648    8.5956   21.7310 C   0  0  0  0  0  0  0  0  0  0  0  0
   10.8829    1.7153   20.9865 C   0  0  0  0  0  0  0  0  0  0  0  0
    5.7768    2.8533   23.7910 C   0  0  0  0  0  0  0  0  0  0  0  0
    9.7977    1.4791   21.6912 N   0  0  0  0  0  0  0  0  0  0  0  0
    6.5976    9.3401   22.6478 N   0  0  0  0  0  0  0  0  0  0  0  0
   11.2031    3.0042   20.6246 C   0  0  0  0  0  0  0  0  0  0  0  0
   12.8688    7.7370   22.7287 C   0  0  0  0  0  0  0  0  0  0  0  0
    7.4487    9.1361   23.6506 C   0  0  0  0  0  0  0  0  0  0  0  0
    8.9772    2.5025   22.0273 C   0  0  0  0  0  0  0  0  0  0  0  0
   10.4859    4.0901   20.9730 C   0  0  0  0  0  0  0  0  0  0  0  0
   11.0962    9.3293   23.5072 C   0  0  0  0  0  0  0  0  0  0  0  0
    5.1273    7.8529   23.6208 N   0  0  0  0  0  0  0  0  0  0  0  0
    9.7552    9.2338   23.0171 N   0  0  0  0  0  0  0  0  0  0  0  0
   11.1797    6.7591   21.3326 N   0  0  0  0  0  0  0  0  0  0  0  0
   11.7728    8.0337   23.7267 C   0  0  0  0  0  0  0  0  0  0  0  0
    7.1194    8.3344   24.6775 C   0  0  0  0  0  0  0  0  0  0  0  0
    8.4311    4.7963   22.0500 C   0  0  0  0  0  0  0  0  0  0  0  0
    8.7393   10.8706   24.1871 O   0  0  0  0  0  0  0  0  0  0  0  0
    9.3093    3.8166   21.6712 C   0  0  0  0  0  0  0  0  0  0  0  0
  1  5  1  0
  1 15  4  0
  1 22  4  0
  2 20  1  0
  2 24  1  0
  3  6  4  0
  3 27  4  0
  4 22  4  0
  4 26  4  0
  6  7  4  0
  6 13  1  0
  7 19  4  0
  8 18  1  0
  8 23  1  0
  8 28  2  0
  9 17  1  0
  9 24  1  0
 10 11  1  0
 10 24  1  0
 11 23  1  0
 12 14  4  0
 12 16  4  0
 14 19  4  0
 15 18  4  0
 16 20  4  0
 17 25  1  0
 18 26  4  0
 19 29  4  0
 20 29  4  0
 21 23  1  0
 21 25  1  0
 27 29  4  0
M  END
$$$$

 Created by Python create_sdf_string function

 29 32  0  0  0  0  0  0  0  0999 V2000
    5.4450    8.7154   22.6662 C   0  0  0  0  0  0  0  0  0  0  0  0
   10.9154    5.4574   20.5483 C   0  0  0  0  0  0  0  0  0  0  0  0
    7.2709    4.5089   22.7542 C   0  0  0  0  0  0  0  0  0  0  0  0
    5.9698    7.6329   24.6581 C   0  0  0  0  0  0  0  0  0  0  0  0
    4.5542    8.9057   21.7104 O   0  0  0  0  0  0  0  0  0  0  0  0
    6.9895    3.2085   23.0690 C   0  0  0  0  0  0  0  0  0  0  0  0
    7.8391    2.2253   22.7260 N   0  0  0  0  0  0  0  0  0  0  0  0
    8.6968    9.8373   23.6359 C   0  0  0  0  0  0  0  0  0  0  0  0
   12.5135    6.5957   21.8396 C   0  0  0  0  0  0  0  0  0  0  0  0
   10.9406    8.2330   21.1350 C   0  0  0  0  0  0  0  0  0  0  0  0
    9.6648    8.5956   21.7310 C   0  0  0  0  0  0  0  0  0  0  0  0
   10.8829    1.7153   20.9865 C   0  0  0  0  0  0  0  0  0  0  0  0
    5.7768    2.8533   23.7910 C   0  0  0  0  0  0  0  0  0  0  0  0
    9.7977    1.4791   21.6912 N   0  0  0  0  0  0  0  0  0  0  0  0
    6.5976    9.3401   22.6478 N   0  0  0  0  0  0  0  0  0  0  0  0
   11.2031    3.0042   20.6246 C   0  0  0  0  0  0  0  0  0  0  0  0
   12.8688    7.7370   22.7287 C   0  0  0  0  0  0  0  0  0  0  0  0
    7.4487    9.1361   23.6506 C   0  0  0  0  0  0  0  0  0  0  0  0
    8.9772    2.5025   22.0273 C   0  0  0  0  0  0  0  0  0  0  0  0
   10.4859    4.0901   20.9730 C   0  0  0  0  0  0  0  0  0  0  0  0
   11.0962    9.3293   23.5072 C   0  0  0  0  0  0  0  0  0  0  0  0
    5.1273    7.8529   23.6208 N   0  0  0  0  0  0  0  0  0  0  0  0
    9.7552    9.2338   23.0171 N   0  0  0  0  0  0  0  0  0  0  0  0
   11.1797    6.7591   21.3326 N   0  0  0  0  0  0  0  0  0  0  0  0
   11.7728    8.0337   23.7267 C   0  0  0  0  0  0  0  0  0  0  0  0
    7.1194    8.3344   24.6775 C   0  0  0  0  0  0  0  0  0  0  0  0
    8.4311    4.7963   22.0500 C   0  0  0  0  0  0  0  0  0  0  0  0
    8.7393   10.8706   24.1871 O   0  0  0  0  0  0  0  0  0  0  0  0
    9.3093    3.8166   21.6712 C   0  0  0  0  0  0  0  0  0  0  0  0
  1  5  1  0
  1 15  4  0
  1 22  4  0
  2 20  1  0
  2 24  1  0
  3  6  4  0
  3 27  4  0
  4 22  4  0
  4 26  4  0
  6  7  4  0
  6 13  1  0
  7 19  4  0
  8 18  1  0
  8 23  1  0
  8 28  2  0
  9 17  1  0
  9 24  1  0
 10 11  1  0
 10 24  1  0
 11 23  1  0
 12 14  4  0
 12 16  4  0
 14 19  4  0
 15 18  4  0
 16 20  4  0
 17 25  1  0
 18 26  4  0
 19 29  4  0
 20 29  4  0
 21 23  1  0
 21 25  1  0
 27 29  4  0
M  END
$$$$

 Created by Python create_sdf_string function

 29 32  0  0  0  0  0  0  0  0999 V2000
    5.4450    8.7154   22.6662 C   0  0  0  0  0  0  0  0  0  0  0  0
   10.9154    5.4574   20.5483 C   0  0  0  0  0  0  0  0  0  0  0  0
    7.2709    4.5089   22.7542 C   0  0  0  0  0  0  0  0  0  0  0  0
    5.9698    7.6329   24.6581 C   0  0  0  0  0  0  0  0  0  0  0  0
    4.5542    8.9057   21.7104 O   0  0  0  0  0  0  0  0  0  0  0  0
    6.9895    3.2085   23.0690 C   0  0  0  0  0  0  0  0  0  0  0  0
    7.8391    2.2253   22.7260 N   0  0  0  0  0  0  0  0  0  0  0  0
    8.6968    9.8373   23.6359 C   0  0  0  0  0  0  0  0  0  0  0  0
   12.5135    6.5957   21.8396 C   0  0  0  0  0  0  0  0  0  0  0  0
   10.9406    8.2330   21.1350 C   0  0  0  0  0  0  0  0  0  0  0  0
    9.6648    8.5956   21.7310 C   0  0  0  0  0  0  0  0  0  0  0  0
   10.8829    1.7153   20.9865 C   0  0  0  0  0  0  0  0  0  0  0  0
    5.7768    2.8533   23.7910 C   0  0  0  0  0  0  0  0  0  0  0  0
    9.7977    1.4791   21.6912 N   0  0  0  0  0  0  0  0  0  0  0  0
    6.5976    9.3401   22.6478 N   0  0  0  0  0  0  0  0  0  0  0  0
   11.2031    3.0042   20.6246 C   0  0  0  0  0  0  0  0  0  0  0  0
   12.8688    7.7370   22.7287 C   0  0  0  0  0  0  0  0  0  0  0  0
    7.4487    9.1361   23.6506 C   0  0  0  0  0  0  0  0  0  0  0  0
    8.9772    2.5025   22.0273 C   0  0  0  0  0  0  0  0  0  0  0  0
   10.4859    4.0901   20.9730 C   0  0  0  0  0  0  0  0  0  0  0  0
   11.0962    9.3293   23.5072 C   0  0  0  0  0  0  0  0  0  0  0  0
    5.1273    7.8529   23.6208 N   0  0  0  0  0  0  0  0  0  0  0  0
    9.7552    9.2338   23.0171 N   0  0  0  0  0  0  0  0  0  0  0  0
   11.1797    6.7591   21.3326 N   0  0  0  0  0  0  0  0  0  0  0  0
   11.7728    8.0337   23.7267 C   0  0  0  0  0  0  0  0  0  0  0  0
    7.1194    8.3344   24.6775 C   0  0  0  0  0  0  0  0  0  0  0  0
    8.4311    4.7963   22.0500 C   0  0  0  0  0  0  0  0  0  0  0  0
    8.7393   10.8706   24.1871 O   0  0  0  0  0  0  0  0  0  0  0  0
    9.3093    3.8166   21.6712 C   0  0  0  0  0  0  0  0  0  0  0  0
  1  5  1  0
  1 15  4  0
  1 22  4  0
  2 20  1  0
  2 24  1  0
  3  6  4  0
  3 27  4  0
  4 22  4  0
  4 26  4  0
  6  7  4  0
  6 13  1  0
  7 19  4  0
  8 18  1  0
  8 23  1  0
  8 28  2  0
  9 17  1  0
  9 24  1  0
 10 11  1  0
 10 24  1  0
 11 23  1  0
 12 14  4  0
 12 16  4  0
 14 19  4  0
 15 18  4  0
 16 20  4  0
 17 25  1  0
 18 26  4  0
 19 29  4  0
 20 29  4  0
 21 23  1  0
 21 25  1  0
 27 29  4  0
M  END
$$$$

 Created by Python create_sdf_string function

 29 32  0  0  0  0  0  0  0  0999 V2000
    5.4450    8.7154   22.6662 C   0  0  0  0  0  0  0  0  0  0  0  0
   10.9154    5.4574   20.5483 C   0  0  0  0  0  0  0  0  0  0  0  0
    7.2709    4.5089   22.7542 C   0  0  0  0  0  0  0  0  0  0  0  0
    5.9698    7.6329   24.6581 C   0  0  0  0  0  0  0  0  0  0  0  0
    4.5542    8.9057   21.7104 O   0  0  0  0  0  0  0  0  0  0  0  0
    6.9895    3.2085   23.0690 C   0  0  0  0  0  0  0  0  0  0  0  0
    7.8391    2.2253   22.7260 N   0  0  0  0  0  0  0  0  0  0  0  0
    8.6968    9.8373   23.6359 C   0  0  0  0  0  0  0  0  0  0  0  0
   12.5135    6.5957   21.8396 C   0  0  0  0  0  0  0  0  0  0  0  0
   10.9406    8.2330   21.1350 C   0  0  0  0  0  0  0  0  0  0  0  0
    9.6648    8.5956   21.7310 C   0  0  0  0  0  0  0  0  0  0  0  0
   10.8829    1.7153   20.9865 C   0  0  0  0  0  0  0  0  0  0  0  0
    5.7768    2.8533   23.7910 C   0  0  0  0  0  0  0  0  0  0  0  0
    9.7977    1.4791   21.6912 N   0  0  0  0  0  0  0  0  0  0  0  0
    6.5976    9.3401   22.6478 N   0  0  0  0  0  0  0  0  0  0  0  0
   11.2031    3.0042   20.6246 C   0  0  0  0  0  0  0  0  0  0  0  0
   12.8688    7.7370   22.7287 C   0  0  0  0  0  0  0  0  0  0  0  0
    7.4487    9.1361   23.6506 C   0  0  0  0  0  0  0  0  0  0  0  0
    8.9772    2.5025   22.0273 C   0  0  0  0  0  0  0  0  0  0  0  0
   10.4859    4.0901   20.9730 C   0  0  0  0  0  0  0  0  0  0  0  0
   11.0962    9.3293   23.5072 C   0  0  0  0  0  0  0  0  0  0  0  0
    5.1273    7.8529   23.6208 N   0  0  0  0  0  0  0  0  0  0  0  0
    9.7552    9.2338   23.0171 N   0  0  0  0  0  0  0  0  0  0  0  0
   11.1797    6.7591   21.3326 N   0  0  0  0  0  0  0  0  0  0  0  0
   11.7728    8.0337   23.7267 C   0  0  0  0  0  0  0  0  0  0  0  0
    7.1194    8.3344   24.6775 C   0  0  0  0  0  0  0  0  0  0  0  0
    8.4311    4.7963   22.0500 C   0  0  0  0  0  0  0  0  0  0  0  0
    8.7393   10.8706   24.1871 O   0  0  0  0  0  0  0  0  0  0  0  0
    9.3093    3.8166   21.6712 C   0  0  0  0  0  0  0  0  0  0  0  0
  1  5  1  0
  1 15  4  0
  1 22  4  0
  2 20  1  0
  2 24  1  0
  3  6  4  0
  3 27  4  0
  4 22  4  0
  4 26  4  0
  6  7  4  0
  6 13  1  0
  7 19  4  0
  8 18  1  0
  8 23  1  0
  8 28  2  0
  9 17  1  0
  9 24  1  0
 10 11  1  0
 10 24  1  0
 11 23  1  0
 12 14  4  0
 12 16  4  0
 14 19  4  0
 15 18  4  0
 16 20  4  0
 17 25  1  0
 18 26  4  0
 19 29  4  0
 20 29  4  0
 21 23  1  0
 21 25  1  0
 27 29  4  0
M  END
$$$$

 Created by Python create_sdf_string function

 29 32  0  0  0  0  0  0  0  0999 V2000
    5.4450    8.7154   22.6662 C   0  0  0  0  0  0  0  0  0  0  0  0
   10.9154    5.4574   20.5483 C   0  0  0  0  0  0  0  0  0  0  0  0
    7.2709    4.5089   22.7542 C   0  0  0  0  0  0  0  0  0  0  0  0
    5.9698    7.6329   24.6581 C   0  0  0  0  0  0  0  0  0  0  0  0
    4.5542    8.9057   21.7104 O   0  0  0  0  0  0  0  0  0  0  0  0
    6.9895    3.2085   23.0690 C   0  0  0  0  0  0  0  0  0  0  0  0
    7.8391    2.2253   22.7260 N   0  0  0  0  0  0  0  0  0  0  0  0
    8.6968    9.8373   23.6359 C   0  0  0  0  0  0  0  0  0  0  0  0
   12.5135    6.5957   21.8396 C   0  0  0  0  0  0  0  0  0  0  0  0
   10.9406    8.2330   21.1350 C   0  0  0  0  0  0  0  0  0  0  0  0
    9.6648    8.5956   21.7310 C   0  0  0  0  0  0  0  0  0  0  0  0
   10.8829    1.7153   20.9865 C   0  0  0  0  0  0  0  0  0  0  0  0
    5.7768    2.8533   23.7910 C   0  0  0  0  0  0  0  0  0  0  0  0
    9.7977    1.4791   21.6912 N   0  0  0  0  0  0  0  0  0  0  0  0
    6.5976    9.3401   22.6478 N   0  0  0  0  0  0  0  0  0  0  0  0
   11.2031    3.0042   20.6246 C   0  0  0  0  0  0  0  0  0  0  0  0
   12.8688    7.7370   22.7287 C   0  0  0  0  0  0  0  0  0  0  0  0
    7.4487    9.1361   23.6506 C   0  0  0  0  0  0  0  0  0  0  0  0
    8.9772    2.5025   22.0273 C   0  0  0  0  0  0  0  0  0  0  0  0
   10.4859    4.0901   20.9730 C   0  0  0  0  0  0  0  0  0  0  0  0
   11.0962    9.3293   23.5072 C   0  0  0  0  0  0  0  0  0  0  0  0
    5.1273    7.8529   23.6208 N   0  0  0  0  0  0  0  0  0  0  0  0
    9.7552    9.2338   23.0171 N   0  0  0  0  0  0  0  0  0  0  0  0
   11.1797    6.7591   21.3326 N   0  0  0  0  0  0  0  0  0  0  0  0
   11.7728    8.0337   23.7267 C   0  0  0  0  0  0  0  0  0  0  0  0
    7.1194    8.3344   24.6775 C   0  0  0  0  0  0  0  0  0  0  0  0
    8.4311    4.7963   22.0500 C   0  0  0  0  0  0  0  0  0  0  0  0
    8.7393   10.8706   24.1871 O   0  0  0  0  0  0  0  0  0  0  0  0
    9.3093    3.8166   21.6712 C   0  0  0  0  0  0  0  0  0  0  0  0
  1  5  1  0
  1 15  4  0
  1 22  4  0
  2 20  1  0
  2 24  1  0
  3  6  4  0
  3 27  4  0
  4 22  4  0
  4 26  4  0
  6  7  4  0
  6 13  1  0
  7 19  4  0
  8 18  1  0
  8 23  1  0
  8 28  2  0
  9 17  1  0
  9 24  1  0
 10 11  1  0
 10 24  1  0
 11 23  1  0
 12 14  4  0
 12 16  4  0
 14 19  4  0
 15 18  4  0
 16 20  4  0
 17 25  1  0
 18 26  4  0
 19 29  4  0
 20 29  4  0
 21 23  1  0
 21 25  1  0
 27 29  4  0
M  END
$$$$

 Created by Python create_sdf_string function

 29 32  0  0  0  0  0  0  0  0999 V2000
    5.4450    8.7154   22.6662 C   0  0  0  0  0  0  0  0  0  0  0  0
   10.9154    5.4574   20.5483 C   0  0  0  0  0  0  0  0  0  0  0  0
    7.2709    4.5089   22.7542 C   0  0  0  0  0  0  0  0  0  0  0  0
    5.9698    7.6329   24.6581 C   0  0  0  0  0  0  0  0  0  0  0  0
    4.5542    8.9057   21.7104 O   0  0  0  0  0  0  0  0  0  0  0  0
    6.9895    3.2085   23.0690 C   0  0  0  0  0  0  0  0  0  0  0  0
    7.8391    2.2253   22.7260 N   0  0  0  0  0  0  0  0  0  0  0  0
    8.6968    9.8373   23.6359 C   0  0  0  0  0  0  0  0  0  0  0  0
   12.5135    6.5957   21.8396 C   0  0  0  0  0  0  0  0  0  0  0  0
   10.9406    8.2330   21.1350 C   0  0  0  0  0  0  0  0  0  0  0  0
    9.6648    8.5956   21.7310 C   0  0  0  0  0  0  0  0  0  0  0  0
   10.8829    1.7153   20.9865 C   0  0  0  0  0  0  0  0  0  0  0  0
    5.7768    2.8533   23.7910 C   0  0  0  0  0  0  0  0  0  0  0  0
    9.7977    1.4791   21.6912 N   0  0  0  0  0  0  0  0  0  0  0  0
    6.5976    9.3401   22.6478 N   0  0  0  0  0  0  0  0  0  0  0  0
   11.2031    3.0042   20.6246 C   0  0  0  0  0  0  0  0  0  0  0  0
   12.8688    7.7370   22.7287 C   0  0  0  0  0  0  0  0  0  0  0  0
    7.4487    9.1361   23.6506 C   0  0  0  0  0  0  0  0  0  0  0  0
    8.9772    2.5025   22.0273 C   0  0  0  0  0  0  0  0  0  0  0  0
   10.4859    4.0901   20.9730 C   0  0  0  0  0  0  0  0  0  0  0  0
   11.0962    9.3293   23.5072 C   0  0  0  0  0  0  0  0  0  0  0  0
    5.1273    7.8529   23.6208 N   0  0  0  0  0  0  0  0  0  0  0  0
    9.7552    9.2338   23.0171 N   0  0  0  0  0  0  0  0  0  0  0  0
   11.1797    6.7591   21.3326 N   0  0  0  0  0  0  0  0  0  0  0  0
   11.7728    8.0337   23.7267 C   0  0  0  0  0  0  0  0  0  0  0  0
    7.1194    8.3344   24.6775 C   0  0  0  0  0  0  0  0  0  0  0  0
    8.4311    4.7963   22.0500 C   0  0  0  0  0  0  0  0  0  0  0  0
    8.7393   10.8706   24.1871 O   0  0  0  0  0  0  0  0  0  0  0  0
    9.3093    3.8166   21.6712 C   0  0  0  0  0  0  0  0  0  0  0  0
  1  5  1  0
  1 15  4  0
  1 22  4  0
  2 20  1  0
  2 24  1  0
  3  6  4  0
  3 27  4  0
  4 22  4  0
  4 26  4  0
  6  7  4  0
  6 13  1  0
  7 19  4  0
  8 18  1  0
  8 23  1  0
  8 28  2  0
  9 17  1  0
  9 24  1  0
 10 11  1  0
 10 24  1  0
 11 23  1  0
 12 14  4  0
 12 16  4  0
 14 19  4  0
 15 18  4  0
 16 20  4  0
 17 25  1  0
 18 26  4  0
 19 29  4  0
 20 29  4  0
 21 23  1  0
 21 25  1  0
 27 29  4  0
M  END
$$$$

 Created by Python create_sdf_string function

 29 32  0  0  0  0  0  0  0  0999 V2000
    5.4450    8.7154   22.6662 C   0  0  0  0  0  0  0  0  0  0  0  0
   10.9154    5.4574   20.5483 C   0  0  0  0  0  0  0  0  0  0  0  0
    7.2709    4.5089   22.7542 C   0  0  0  0  0  0  0  0  0  0  0  0
    5.9698    7.6329   24.6581 C   0  0  0  0  0  0  0  0  0  0  0  0
    4.5542    8.9057   21.7104 O   0  0  0  0  0  0  0  0  0  0  0  0
    6.9895    3.2085   23.0690 C   0  0  0  0  0  0  0  0  0  0  0  0
    7.8391    2.2253   22.7260 N   0  0  0  0  0  0  0  0  0  0  0  0
    8.6968    9.8373   23.6359 C   0  0  0  0  0  0  0  0  0  0  0  0
   12.5135    6.5957   21.8396 C   0  0  0  0  0  0  0  0  0  0  0  0
   10.9406    8.2330   21.1350 C   0  0  0  0  0  0  0  0  0  0  0  0
    9.6648    8.5956   21.7310 C   0  0  0  0  0  0  0  0  0  0  0  0
   10.8829    1.7153   20.9865 C   0  0  0  0  0  0  0  0  0  0  0  0
    5.7768    2.8533   23.7910 C   0  0  0  0  0  0  0  0  0  0  0  0
    9.7977    1.4791   21.6912 N   0  0  0  0  0  0  0  0  0  0  0  0
    6.5976    9.3401   22.6478 N   0  0  0  0  0  0  0  0  0  0  0  0
   11.2031    3.0042   20.6246 C   0  0  0  0  0  0  0  0  0  0  0  0
   12.8688    7.7370   22.7287 C   0  0  0  0  0  0  0  0  0  0  0  0
    7.4487    9.1361   23.6506 C   0  0  0  0  0  0  0  0  0  0  0  0
    8.9772    2.5025   22.0273 C   0  0  0  0  0  0  0  0  0  0  0  0
   10.4859    4.0901   20.9730 C   0  0  0  0  0  0  0  0  0  0  0  0
   11.0962    9.3293   23.5072 C   0  0  0  0  0  0  0  0  0  0  0  0
    5.1273    7.8529   23.6208 N   0  0  0  0  0  0  0  0  0  0  0  0
    9.7552    9.2338   23.0171 N   0  0  0  0  0  0  0  0  0  0  0  0
   11.1797    6.7591   21.3326 N   0  0  0  0  0  0  0  0  0  0  0  0
   11.7728    8.0337   23.7267 C   0  0  0  0  0  0  0  0  0  0  0  0
    7.1194    8.3344   24.6775 C   0  0  0  0  0  0  0  0  0  0  0  0
    8.4311    4.7963   22.0500 C   0  0  0  0  0  0  0  0  0  0  0  0
    8.7393   10.8706   24.1871 O   0  0  0  0  0  0  0  0  0  0  0  0
    9.3093    3.8166   21.6712 C   0  0  0  0  0  0  0  0  0  0  0  0
  1  5  1  0
  1 15  4  0
  1 22  4  0
  2 20  1  0
  2 24  1  0
  3  6  4  0
  3 27  4  0
  4 22  4  0
  4 26  4  0
  6  7  4  0
  6 13  1  0
  7 19  4  0
  8 18  1  0
  8 23  1  0
  8 28  2  0
  9 17  1  0
  9 24  1  0
 10 11  1  0
 10 24  1  0
 11 23  1  0
 12 14  4  0
 12 16  4  0
 14 19  4  0
 15 18  4  0
 16 20  4  0
 17 25  1  0
 18 26  4  0
 19 29  4  0
 20 29  4  0
 21 23  1  0
 21 25  1  0
 27 29  4  0
M  END
$$$$

 Created by Python create_sdf_string function

 29 32  0  0  0  0  0  0  0  0999 V2000
    5.4450    8.7154   22.6662 C   0  0  0  0  0  0  0  0  0  0  0  0
   10.9154    5.4574   20.5483 C   0  0  0  0  0  0  0  0  0  0  0  0
    7.2709    4.5089   22.7542 C   0  0  0  0  0  0  0  0  0  0  0  0
    5.9698    7.6329   24.6581 C   0  0  0  0  0  0  0  0  0  0  0  0
    4.5542    8.9057   21.7104 O   0  0  0  0  0  0  0  0  0  0  0  0
    6.9895    3.2085   23.0690 C   0  0  0  0  0  0  0  0  0  0  0  0
    7.8391    2.2253   22.7260 N   0  0  0  0  0  0  0  0  0  0  0  0
    8.6968    9.8373   23.6359 C   0  0  0  0  0  0  0  0  0  0  0  0
   12.5135    6.5957   21.8396 C   0  0  0  0  0  0  0  0  0  0  0  0
   10.9406    8.2330   21.1350 C   0  0  0  0  0  0  0  0  0  0  0  0
    9.6648    8.5956   21.7310 C   0  0  0  0  0  0  0  0  0  0  0  0
   10.8829    1.7153   20.9865 C   0  0  0  0  0  0  0  0  0  0  0  0
    5.7768    2.8533   23.7910 C   0  0  0  0  0  0  0  0  0  0  0  0
    9.7977    1.4791   21.6912 N   0  0  0  0  0  0  0  0  0  0  0  0
    6.5976    9.3401   22.6478 N   0  0  0  0  0  0  0  0  0  0  0  0
   11.2031    3.0042   20.6246 C   0  0  0  0  0  0  0  0  0  0  0  0
   12.8688    7.7370   22.7287 C   0  0  0  0  0  0  0  0  0  0  0  0
    7.4487    9.1361   23.6506 C   0  0  0  0  0  0  0  0  0  0  0  0
    8.9772    2.5025   22.0273 C   0  0  0  0  0  0  0  0  0  0  0  0
   10.4859    4.0901   20.9730 C   0  0  0  0  0  0  0  0  0  0  0  0
   11.0962    9.3293   23.5072 C   0  0  0  0  0  0  0  0  0  0  0  0
    5.1273    7.8529   23.6208 N   0  0  0  0  0  0  0  0  0  0  0  0
    9.7552    9.2338   23.0171 N   0  0  0  0  0  0  0  0  0  0  0  0
   11.1797    6.7591   21.3326 N   0  0  0  0  0  0  0  0  0  0  0  0
   11.7728    8.0337   23.7267 C   0  0  0  0  0  0  0  0  0  0  0  0
    7.1194    8.3344   24.6775 C   0  0  0  0  0  0  0  0  0  0  0  0
    8.4311    4.7963   22.0500 C   0  0  0  0  0  0  0  0  0  0  0  0
    8.7393   10.8706   24.1871 O   0  0  0  0  0  0  0  0  0  0  0  0
    9.3093    3.8166   21.6712 C   0  0  0  0  0  0  0  0  0  0  0  0
  1  5  1  0
  1 15  4  0
  1 22  4  0
  2 20  1  0
  2 24  1  0
  3  6  4  0
  3 27  4  0
  4 22  4  0
  4 26  4  0
  6  7  4  0
  6 13  1  0
  7 19  4  0
  8 18  1  0
  8 23  1  0
  8 28  2  0
  9 17  1  0
  9 24  1  0
 10 11  1  0
 10 24  1  0
 11 23  1  0
 12 14  4  0
 12 16  4  0
 14 19  4  0
 15 18  4  0
 16 20  4  0
 17 25  1  0
 18 26  4  0
 19 29  4  0
 20 29  4  0
 21 23  1  0
 21 25  1  0
 27 29  4  0
M  END
$$$$

 Created by Python create_sdf_string function

 29 32  0  0  0  0  0  0  0  0999 V2000
    5.4450    8.7154   22.6662 C   0  0  0  0  0  0  0  0  0  0  0  0
   10.9154    5.4574   20.5483 C   0  0  0  0  0  0  0  0  0  0  0  0
    7.2709    4.5089   22.7542 C   0  0  0  0  0  0  0  0  0  0  0  0
    5.9698    7.6329   24.6581 C   0  0  0  0  0  0  0  0  0  0  0  0
    4.5542    8.9057   21.7104 O   0  0  0  0  0  0  0  0  0  0  0  0
    6.9895    3.2085   23.0690 C   0  0  0  0  0  0  0  0  0  0  0  0
    7.8391    2.2253   22.7260 N   0  0  0  0  0  0  0  0  0  0  0  0
    8.6968    9.8373   23.6359 C   0  0  0  0  0  0  0  0  0  0  0  0
   12.5135    6.5957   21.8396 C   0  0  0  0  0  0  0  0  0  0  0  0
   10.9406    8.2330   21.1350 C   0  0  0  0  0  0  0  0  0  0  0  0
    9.6648    8.5956   21.7310 C   0  0  0  0  0  0  0  0  0  0  0  0
   10.8829    1.7153   20.9865 C   0  0  0  0  0  0  0  0  0  0  0  0
    5.7768    2.8533   23.7910 C   0  0  0  0  0  0  0  0  0  0  0  0
    9.7977    1.4791   21.6912 N   0  0  0  0  0  0  0  0  0  0  0  0
    6.5976    9.3401   22.6478 N   0  0  0  0  0  0  0  0  0  0  0  0
   11.2031    3.0042   20.6246 C   0  0  0  0  0  0  0  0  0  0  0  0
   12.8688    7.7370   22.7287 C   0  0  0  0  0  0  0  0  0  0  0  0
    7.4487    9.1361   23.6506 C   0  0  0  0  0  0  0  0  0  0  0  0
    8.9772    2.5025   22.0273 C   0  0  0  0  0  0  0  0  0  0  0  0
   10.4859    4.0901   20.9730 C   0  0  0  0  0  0  0  0  0  0  0  0
   11.0962    9.3293   23.5072 C   0  0  0  0  0  0  0  0  0  0  0  0
    5.1273    7.8529   23.6208 N   0  0  0  0  0  0  0  0  0  0  0  0
    9.7552    9.2338   23.0171 N   0  0  0  0  0  0  0  0  0  0  0  0
   11.1797    6.7591   21.3326 N   0  0  0  0  0  0  0  0  0  0  0  0
   11.7728    8.0337   23.7267 C   0  0  0  0  0  0  0  0  0  0  0  0
    7.1194    8.3344   24.6775 C   0  0  0  0  0  0  0  0  0  0  0  0
    8.4311    4.7963   22.0500 C   0  0  0  0  0  0  0  0  0  0  0  0
    8.7393   10.8706   24.1871 O   0  0  0  0  0  0  0  0  0  0  0  0
    9.3093    3.8166   21.6712 C   0  0  0  0  0  0  0  0  0  0  0  0
  1  5  1  0
  1 15  4  0
  1 22  4  0
  2 20  1  0
  2 24  1  0
  3  6  4  0
  3 27  4  0
  4 22  4  0
  4 26  4  0
  6  7  4  0
  6 13  1  0
  7 19  4  0
  8 18  1  0
  8 23  1  0
  8 28  2  0
  9 17  1  0
  9 24  1  0
 10 11  1  0
 10 24  1  0
 11 23  1  0
 12 14  4  0
 12 16  4  0
 14 19  4  0
 15 18  4  0
 16 20  4  0
 17 25  1  0
 18 26  4  0
 19 29  4  0
 20 29  4  0
 21 23  1  0
 21 25  1  0
 27 29  4  0
M  END
$$$$

 Created by Python create_sdf_string function

 29 32  0  0  0  0  0  0  0  0999 V2000
    5.4450    8.7154   22.6662 C   0  0  0  0  0  0  0  0  0  0  0  0
   10.9154    5.4574   20.5483 C   0  0  0  0  0  0  0  0  0  0  0  0
    7.2709    4.5089   22.7542 C   0  0  0  0  0  0  0  0  0  0  0  0
    5.9698    7.6329   24.6581 C   0  0  0  0  0  0  0  0  0  0  0  0
    4.5542    8.9057   21.7104 O   0  0  0  0  0  0  0  0  0  0  0  0
    6.9895    3.2085   23.0690 C   0  0  0  0  0  0  0  0  0  0  0  0
    7.8391    2.2253   22.7260 N   0  0  0  0  0  0  0  0  0  0  0  0
    8.6968    9.8373   23.6359 C   0  0  0  0  0  0  0  0  0  0  0  0
   12.5135    6.5957   21.8396 C   0  0  0  0  0  0  0  0  0  0  0  0
   10.9406    8.2330   21.1350 C   0  0  0  0  0  0  0  0  0  0  0  0
    9.6648    8.5956   21.7310 C   0  0  0  0  0  0  0  0  0  0  0  0
   10.8829    1.7153   20.9865 C   0  0  0  0  0  0  0  0  0  0  0  0
    5.7768    2.8533   23.7910 C   0  0  0  0  0  0  0  0  0  0  0  0
    9.7977    1.4791   21.6912 N   0  0  0  0  0  0  0  0  0  0  0  0
    6.5976    9.3401   22.6478 N   0  0  0  0  0  0  0  0  0  0  0  0
   11.2031    3.0042   20.6246 C   0  0  0  0  0  0  0  0  0  0  0  0
   12.8688    7.7370   22.7287 C   0  0  0  0  0  0  0  0  0  0  0  0
    7.4487    9.1361   23.6506 C   0  0  0  0  0  0  0  0  0  0  0  0
    8.9772    2.5025   22.0273 C   0  0  0  0  0  0  0  0  0  0  0  0
   10.4859    4.0901   20.9730 C   0  0  0  0  0  0  0  0  0  0  0  0
   11.0962    9.3293   23.5072 C   0  0  0  0  0  0  0  0  0  0  0  0
    5.1273    7.8529   23.6208 N   0  0  0  0  0  0  0  0  0  0  0  0
    9.7552    9.2338   23.0171 N   0  0  0  0  0  0  0  0  0  0  0  0
   11.1797    6.7591   21.3326 N   0  0  0  0  0  0  0  0  0  0  0  0
   11.7728    8.0337   23.7267 C   0  0  0  0  0  0  0  0  0  0  0  0
    7.1194    8.3344   24.6775 C   0  0  0  0  0  0  0  0  0  0  0  0
    8.4311    4.7963   22.0500 C   0  0  0  0  0  0  0  0  0  0  0  0
    8.7393   10.8706   24.1871 O   0  0  0  0  0  0  0  0  0  0  0  0
    9.3093    3.8166   21.6712 C   0  0  0  0  0  0  0  0  0  0  0  0
  1  5  1  0
  1 15  4  0
  1 22  4  0
  2 20  1  0
  2 24  1  0
  3  6  4  0
  3 27  4  0
  4 22  4  0
  4 26  4  0
  6  7  4  0
  6 13  1  0
  7 19  4  0
  8 18  1  0
  8 23  1  0
  8 28  2  0
  9 17  1  0
  9 24  1  0
 10 11  1  0
 10 24  1  0
 11 23  1  0
 12 14  4  0
 12 16  4  0
 14 19  4  0
 15 18  4  0
 16 20  4  0
 17 25  1  0
 18 26  4  0
 19 29  4  0
 20 29  4  0
 21 23  1  0
 21 25  1  0
 27 29  4  0
M  END
$$$$

 Created by Python create_sdf_string function

 29 32  0  0  0  0  0  0  0  0999 V2000
    5.4450    8.7154   22.6662 C   0  0  0  0  0  0  0  0  0  0  0  0
   10.9154    5.4574   20.5483 C   0  0  0  0  0  0  0  0  0  0  0  0
    7.2709    4.5089   22.7542 C   0  0  0  0  0  0  0  0  0  0  0  0
    5.9698    7.6329   24.6581 C   0  0  0  0  0  0  0  0  0  0  0  0
    4.5542    8.9057   21.7104 O   0  0  0  0  0  0  0  0  0  0  0  0
    6.9895    3.2085   23.0690 C   0  0  0  0  0  0  0  0  0  0  0  0
    7.8391    2.2253   22.7260 N   0  0  0  0  0  0  0  0  0  0  0  0
    8.6968    9.8373   23.6359 C   0  0  0  0  0  0  0  0  0  0  0  0
   12.5135    6.5957   21.8396 C   0  0  0  0  0  0  0  0  0  0  0  0
   10.9406    8.2330   21.1350 C   0  0  0  0  0  0  0  0  0  0  0  0
    9.6648    8.5956   21.7310 C   0  0  0  0  0  0  0  0  0  0  0  0
   10.8829    1.7153   20.9865 C   0  0  0  0  0  0  0  0  0  0  0  0
    5.7768    2.8533   23.7910 C   0  0  0  0  0  0  0  0  0  0  0  0
    9.7977    1.4791   21.6912 N   0  0  0  0  0  0  0  0  0  0  0  0
    6.5976    9.3401   22.6478 N   0  0  0  0  0  0  0  0  0  0  0  0
   11.2031    3.0042   20.6246 C   0  0  0  0  0  0  0  0  0  0  0  0
   12.8688    7.7370   22.7287 C   0  0  0  0  0  0  0  0  0  0  0  0
    7.4487    9.1361   23.6506 C   0  0  0  0  0  0  0  0  0  0  0  0
    8.9772    2.5025   22.0273 C   0  0  0  0  0  0  0  0  0  0  0  0
   10.4859    4.0901   20.9730 C   0  0  0  0  0  0  0  0  0  0  0  0
   11.0962    9.3293   23.5072 C   0  0  0  0  0  0  0  0  0  0  0  0
    5.1273    7.8529   23.6208 N   0  0  0  0  0  0  0  0  0  0  0  0
    9.7552    9.2338   23.0171 N   0  0  0  0  0  0  0  0  0  0  0  0
   11.1797    6.7591   21.3326 N   0  0  0  0  0  0  0  0  0  0  0  0
   11.7728    8.0337   23.7267 C   0  0  0  0  0  0  0  0  0  0  0  0
    7.1194    8.3344   24.6775 C   0  0  0  0  0  0  0  0  0  0  0  0
    8.4311    4.7963   22.0500 C   0  0  0  0  0  0  0  0  0  0  0  0
    8.7393   10.8706   24.1871 O   0  0  0  0  0  0  0  0  0  0  0  0
    9.3093    3.8166   21.6712 C   0  0  0  0  0  0  0  0  0  0  0  0
  1  5  1  0
  1 15  4  0
  1 22  4  0
  2 20  1  0
  2 24  1  0
  3  6  4  0
  3 27  4  0
  4 22  4  0
  4 26  4  0
  6  7  4  0
  6 13  1  0
  7 19  4  0
  8 18  1  0
  8 23  1  0
  8 28  2  0
  9 17  1  0
  9 24  1  0
 10 11  1  0
 10 24  1  0
 11 23  1  0
 12 14  4  0
 12 16  4  0
 14 19  4  0
 15 18  4  0
 16 20  4  0
 17 25  1  0
 18 26  4  0
 19 29  4  0
 20 29  4  0
 21 23  1  0
 21 25  1  0
 27 29  4  0
M  END
$$$$

 Created by Python create_sdf_string function

 29 32  0  0  0  0  0  0  0  0999 V2000
    5.4450    8.7154   22.6662 C   0  0  0  0  0  0  0  0  0  0  0  0
   10.9154    5.4574   20.5483 C   0  0  0  0  0  0  0  0  0  0  0  0
    7.2709    4.5089   22.7542 C   0  0  0  0  0  0  0  0  0  0  0  0
    5.9698    7.6329   24.6581 C   0  0  0  0  0  0  0  0  0  0  0  0
    4.5542    8.9057   21.7104 O   0  0  0  0  0  0  0  0  0  0  0  0
    6.9895    3.2085   23.0690 C   0  0  0  0  0  0  0  0  0  0  0  0
    7.8391    2.2253   22.7260 N   0  0  0  0  0  0  0  0  0  0  0  0
    8.6968    9.8373   23.6359 C   0  0  0  0  0  0  0  0  0  0  0  0
   12.5135    6.5957   21.8396 C   0  0  0  0  0  0  0  0  0  0  0  0
   10.9406    8.2330   21.1350 C   0  0  0  0  0  0  0  0  0  0  0  0
    9.6648    8.5956   21.7310 C   0  0  0  0  0  0  0  0  0  0  0  0
   10.8829    1.7153   20.9865 C   0  0  0  0  0  0  0  0  0  0  0  0
    5.7768    2.8533   23.7910 C   0  0  0  0  0  0  0  0  0  0  0  0
    9.7977    1.4791   21.6912 N   0  0  0  0  0  0  0  0  0  0  0  0
    6.5976    9.3401   22.6478 N   0  0  0  0  0  0  0  0  0  0  0  0
   11.2031    3.0042   20.6246 C   0  0  0  0  0  0  0  0  0  0  0  0
   12.8688    7.7370   22.7287 C   0  0  0  0  0  0  0  0  0  0  0  0
    7.4487    9.1361   23.6506 C   0  0  0  0  0  0  0  0  0  0  0  0
    8.9772    2.5025   22.0273 C   0  0  0  0  0  0  0  0  0  0  0  0
   10.4859    4.0901   20.9730 C   0  0  0  0  0  0  0  0  0  0  0  0
   11.0962    9.3293   23.5072 C   0  0  0  0  0  0  0  0  0  0  0  0
    5.1273    7.8529   23.6208 N   0  0  0  0  0  0  0  0  0  0  0  0
    9.7552    9.2338   23.0171 N   0  0  0  0  0  0  0  0  0  0  0  0
   11.1797    6.7591   21.3326 N   0  0  0  0  0  0  0  0  0  0  0  0
   11.7728    8.0337   23.7267 C   0  0  0  0  0  0  0  0  0  0  0  0
    7.1194    8.3344   24.6775 C   0  0  0  0  0  0  0  0  0  0  0  0
    8.4311    4.7963   22.0500 C   0  0  0  0  0  0  0  0  0  0  0  0
    8.7393   10.8706   24.1871 O   0  0  0  0  0  0  0  0  0  0  0  0
    9.3093    3.8166   21.6712 C   0  0  0  0  0  0  0  0  0  0  0  0
  1  5  1  0
  1 15  4  0
  1 22  4  0
  2 20  1  0
  2 24  1  0
  3  6  4  0
  3 27  4  0
  4 22  4  0
  4 26  4  0
  6  7  4  0
  6 13  1  0
  7 19  4  0
  8 18  1  0
  8 23  1  0
  8 28  2  0
  9 17  1  0
  9 24  1  0
 10 11  1  0
 10 24  1  0
 11 23  1  0
 12 14  4  0
 12 16  4  0
 14 19  4  0
 15 18  4  0
 16 20  4  0
 17 25  1  0
 18 26  4  0
 19 29  4  0
 20 29  4  0
 21 23  1  0
 21 25  1  0
 27 29  4  0
M  END
$$$$

 Created by Python create_sdf_string function

 29 32  0  0  0  0  0  0  0  0999 V2000
    5.4450    8.7154   22.6662 C   0  0  0  0  0  0  0  0  0  0  0  0
   10.9154    5.4574   20.5483 C   0  0  0  0  0  0  0  0  0  0  0  0
    7.2709    4.5089   22.7542 C   0  0  0  0  0  0  0  0  0  0  0  0
    5.9698    7.6329   24.6581 C   0  0  0  0  0  0  0  0  0  0  0  0
    4.5542    8.9057   21.7104 O   0  0  0  0  0  0  0  0  0  0  0  0
    6.9895    3.2085   23.0690 C   0  0  0  0  0  0  0  0  0  0  0  0
    7.8391    2.2253   22.7260 N   0  0  0  0  0  0  0  0  0  0  0  0
    8.6968    9.8373   23.6359 C   0  0  0  0  0  0  0  0  0  0  0  0
   12.5135    6.5957   21.8396 C   0  0  0  0  0  0  0  0  0  0  0  0
   10.9406    8.2330   21.1350 C   0  0  0  0  0  0  0  0  0  0  0  0
    9.6648    8.5956   21.7310 C   0  0  0  0  0  0  0  0  0  0  0  0
   10.8829    1.7153   20.9865 C   0  0  0  0  0  0  0  0  0  0  0  0
    5.7768    2.8533   23.7910 C   0  0  0  0  0  0  0  0  0  0  0  0
    9.7977    1.4791   21.6912 N   0  0  0  0  0  0  0  0  0  0  0  0
    6.5976    9.3401   22.6478 N   0  0  0  0  0  0  0  0  0  0  0  0
   11.2031    3.0042   20.6246 C   0  0  0  0  0  0  0  0  0  0  0  0
   12.8688    7.7370   22.7287 C   0  0  0  0  0  0  0  0  0  0  0  0
    7.4487    9.1361   23.6506 C   0  0  0  0  0  0  0  0  0  0  0  0
    8.9772    2.5025   22.0273 C   0  0  0  0  0  0  0  0  0  0  0  0
   10.4859    4.0901   20.9730 C   0  0  0  0  0  0  0  0  0  0  0  0
   11.0962    9.3293   23.5072 C   0  0  0  0  0  0  0  0  0  0  0  0
    5.1273    7.8529   23.6208 N   0  0  0  0  0  0  0  0  0  0  0  0
    9.7552    9.2338   23.0171 N   0  0  0  0  0  0  0  0  0  0  0  0
   11.1797    6.7591   21.3326 N   0  0  0  0  0  0  0  0  0  0  0  0
   11.7728    8.0337   23.7267 C   0  0  0  0  0  0  0  0  0  0  0  0
    7.1194    8.3344   24.6775 C   0  0  0  0  0  0  0  0  0  0  0  0
    8.4311    4.7963   22.0500 C   0  0  0  0  0  0  0  0  0  0  0  0
    8.7393   10.8706   24.1871 O   0  0  0  0  0  0  0  0  0  0  0  0
    9.3093    3.8166   21.6712 C   0  0  0  0  0  0  0  0  0  0  0  0
  1  5  1  0
  1 15  4  0
  1 22  4  0
  2 20  1  0
  2 24  1  0
  3  6  4  0
  3 27  4  0
  4 22  4  0
  4 26  4  0
  6  7  4  0
  6 13  1  0
  7 19  4  0
  8 18  1  0
  8 23  1  0
  8 28  2  0
  9 17  1  0
  9 24  1  0
 10 11  1  0
 10 24  1  0
 11 23  1  0
 12 14  4  0
 12 16  4  0
 14 19  4  0
 15 18  4  0
 16 20  4  0
 17 25  1  0
 18 26  4  0
 19 29  4  0
 20 29  4  0
 21 23  1  0
 21 25  1  0
 27 29  4  0
M  END
$$$$

 Created by Python create_sdf_string function

 29 32  0  0  0  0  0  0  0  0999 V2000
    5.4450    8.7154   22.6662 C   0  0  0  0  0  0  0  0  0  0  0  0
   10.9154    5.4574   20.5483 C   0  0  0  0  0  0  0  0  0  0  0  0
    7.2709    4.5089   22.7542 C   0  0  0  0  0  0  0  0  0  0  0  0
    5.9698    7.6329   24.6581 C   0  0  0  0  0  0  0  0  0  0  0  0
    4.5542    8.9057   21.7104 O   0  0  0  0  0  0  0  0  0  0  0  0
    6.9895    3.2085   23.0690 C   0  0  0  0  0  0  0  0  0  0  0  0
    7.8391    2.2253   22.7260 N   0  0  0  0  0  0  0  0  0  0  0  0
    8.6968    9.8373   23.6359 C   0  0  0  0  0  0  0  0  0  0  0  0
   12.5135    6.5957   21.8396 C   0  0  0  0  0  0  0  0  0  0  0  0
   10.9406    8.2330   21.1350 C   0  0  0  0  0  0  0  0  0  0  0  0
    9.6648    8.5956   21.7310 C   0  0  0  0  0  0  0  0  0  0  0  0
   10.8829    1.7153   20.9865 C   0  0  0  0  0  0  0  0  0  0  0  0
    5.7768    2.8533   23.7910 C   0  0  0  0  0  0  0  0  0  0  0  0
    9.7977    1.4791   21.6912 N   0  0  0  0  0  0  0  0  0  0  0  0
    6.5976    9.3401   22.6478 N   0  0  0  0  0  0  0  0  0  0  0  0
   11.2031    3.0042   20.6246 C   0  0  0  0  0  0  0  0  0  0  0  0
   12.8688    7.7370   22.7287 C   0  0  0  0  0  0  0  0  0  0  0  0
    7.4487    9.1361   23.6506 C   0  0  0  0  0  0  0  0  0  0  0  0
    8.9772    2.5025   22.0273 C   0  0  0  0  0  0  0  0  0  0  0  0
   10.4859    4.0901   20.9730 C   0  0  0  0  0  0  0  0  0  0  0  0
   11.0962    9.3293   23.5072 C   0  0  0  0  0  0  0  0  0  0  0  0
    5.1273    7.8529   23.6208 N   0  0  0  0  0  0  0  0  0  0  0  0
    9.7552    9.2338   23.0171 N   0  0  0  0  0  0  0  0  0  0  0  0
   11.1797    6.7591   21.3326 N   0  0  0  0  0  0  0  0  0  0  0  0
   11.7728    8.0337   23.7267 C   0  0  0  0  0  0  0  0  0  0  0  0
    7.1194    8.3344   24.6775 C   0  0  0  0  0  0  0  0  0  0  0  0
    8.4311    4.7963   22.0500 C   0  0  0  0  0  0  0  0  0  0  0  0
    8.7393   10.8706   24.1871 O   0  0  0  0  0  0  0  0  0  0  0  0
    9.3093    3.8166   21.6712 C   0  0  0  0  0  0  0  0  0  0  0  0
  1  5  1  0
  1 15  4  0
  1 22  4  0
  2 20  1  0
  2 24  1  0
  3  6  4  0
  3 27  4  0
  4 22  4  0
  4 26  4  0
  6  7  4  0
  6 13  1  0
  7 19  4  0
  8 18  1  0
  8 23  1  0
  8 28  2  0
  9 17  1  0
  9 24  1  0
 10 11  1  0
 10 24  1  0
 11 23  1  0
 12 14  4  0
 12 16  4  0
 14 19  4  0
 15 18  4  0
 16 20  4  0
 17 25  1  0
 18 26  4  0
 19 29  4  0
 20 29  4  0
 21 23  1  0
 21 25  1  0
 27 29  4  0
M  END
$$$$

 Created by Python create_sdf_string function

 29 32  0  0  0  0  0  0  0  0999 V2000
    5.4450    8.7154   22.6662 C   0  0  0  0  0  0  0  0  0  0  0  0
   10.9154    5.4574   20.5483 C   0  0  0  0  0  0  0  0  0  0  0  0
    7.2709    4.5089   22.7542 C   0  0  0  0  0  0  0  0  0  0  0  0
    5.9698    7.6329   24.6581 C   0  0  0  0  0  0  0  0  0  0  0  0
    4.5542    8.9057   21.7104 O   0  0  0  0  0  0  0  0  0  0  0  0
    6.9895    3.2085   23.0690 C   0  0  0  0  0  0  0  0  0  0  0  0
    7.8391    2.2253   22.7260 N   0  0  0  0  0  0  0  0  0  0  0  0
    8.6968    9.8373   23.6359 C   0  0  0  0  0  0  0  0  0  0  0  0
   12.5135    6.5957   21.8396 C   0  0  0  0  0  0  0  0  0  0  0  0
   10.9406    8.2330   21.1350 C   0  0  0  0  0  0  0  0  0  0  0  0
    9.6648    8.5956   21.7310 C   0  0  0  0  0  0  0  0  0  0  0  0
   10.8829    1.7153   20.9865 C   0  0  0  0  0  0  0  0  0  0  0  0
    5.7768    2.8533   23.7910 C   0  0  0  0  0  0  0  0  0  0  0  0
    9.7977    1.4791   21.6912 N   0  0  0  0  0  0  0  0  0  0  0  0
    6.5976    9.3401   22.6478 N   0  0  0  0  0  0  0  0  0  0  0  0
   11.2031    3.0042   20.6246 C   0  0  0  0  0  0  0  0  0  0  0  0
   12.8688    7.7370   22.7287 C   0  0  0  0  0  0  0  0  0  0  0  0
    7.4487    9.1361   23.6506 C   0  0  0  0  0  0  0  0  0  0  0  0
    8.9772    2.5025   22.0273 C   0  0  0  0  0  0  0  0  0  0  0  0
   10.4859    4.0901   20.9730 C   0  0  0  0  0  0  0  0  0  0  0  0
   11.0962    9.3293   23.5072 C   0  0  0  0  0  0  0  0  0  0  0  0
    5.1273    7.8529   23.6208 N   0  0  0  0  0  0  0  0  0  0  0  0
    9.7552    9.2338   23.0171 N   0  0  0  0  0  0  0  0  0  0  0  0
   11.1797    6.7591   21.3326 N   0  0  0  0  0  0  0  0  0  0  0  0
   11.7728    8.0337   23.7267 C   0  0  0  0  0  0  0  0  0  0  0  0
    7.1194    8.3344   24.6775 C   0  0  0  0  0  0  0  0  0  0  0  0
    8.4311    4.7963   22.0500 C   0  0  0  0  0  0  0  0  0  0  0  0
    8.7393   10.8706   24.1871 O   0  0  0  0  0  0  0  0  0  0  0  0
    9.3093    3.8166   21.6712 C   0  0  0  0  0  0  0  0  0  0  0  0
  1  5  1  0
  1 15  4  0
  1 22  4  0
  2 20  1  0
  2 24  1  0
  3  6  4  0
  3 27  4  0
  4 22  4  0
  4 26  4  0
  6  7  4  0
  6 13  1  0
  7 19  4  0
  8 18  1  0
  8 23  1  0
  8 28  2  0
  9 17  1  0
  9 24  1  0
 10 11  1  0
 10 24  1  0
 11 23  1  0
 12 14  4  0
 12 16  4  0
 14 19  4  0
 15 18  4  0
 16 20  4  0
 17 25  1  0
 18 26  4  0
 19 29  4  0
 20 29  4  0
 21 23  1  0
 21 25  1  0
 27 29  4  0
M  END
$$$$

 Created by Python create_sdf_string function

 29 32  0  0  0  0  0  0  0  0999 V2000
    5.4450    8.7154   22.6662 C   0  0  0  0  0  0  0  0  0  0  0  0
   10.9154    5.4574   20.5483 C   0  0  0  0  0  0  0  0  0  0  0  0
    7.2709    4.5089   22.7542 C   0  0  0  0  0  0  0  0  0  0  0  0
    5.9698    7.6329   24.6581 C   0  0  0  0  0  0  0  0  0  0  0  0
    4.5542    8.9057   21.7104 O   0  0  0  0  0  0  0  0  0  0  0  0
    6.9895    3.2085   23.0690 C   0  0  0  0  0  0  0  0  0  0  0  0
    7.8391    2.2253   22.7260 N   0  0  0  0  0  0  0  0  0  0  0  0
    8.6968    9.8373   23.6359 C   0  0  0  0  0  0  0  0  0  0  0  0
   12.5135    6.5957   21.8396 C   0  0  0  0  0  0  0  0  0  0  0  0
   10.9406    8.2330   21.1350 C   0  0  0  0  0  0  0  0  0  0  0  0
    9.6648    8.5956   21.7310 C   0  0  0  0  0  0  0  0  0  0  0  0
   10.8829    1.7153   20.9865 C   0  0  0  0  0  0  0  0  0  0  0  0
    5.7768    2.8533   23.7910 C   0  0  0  0  0  0  0  0  0  0  0  0
    9.7977    1.4791   21.6912 N   0  0  0  0  0  0  0  0  0  0  0  0
    6.5976    9.3401   22.6478 N   0  0  0  0  0  0  0  0  0  0  0  0
   11.2031    3.0042   20.6246 C   0  0  0  0  0  0  0  0  0  0  0  0
   12.8688    7.7370   22.7287 C   0  0  0  0  0  0  0  0  0  0  0  0
    7.4487    9.1361   23.6506 C   0  0  0  0  0  0  0  0  0  0  0  0
    8.9772    2.5025   22.0273 C   0  0  0  0  0  0  0  0  0  0  0  0
   10.4859    4.0901   20.9730 C   0  0  0  0  0  0  0  0  0  0  0  0
   11.0962    9.3293   23.5072 C   0  0  0  0  0  0  0  0  0  0  0  0
    5.1273    7.8529   23.6208 N   0  0  0  0  0  0  0  0  0  0  0  0
    9.7552    9.2338   23.0171 N   0  0  0  0  0  0  0  0  0  0  0  0
   11.1797    6.7591   21.3326 N   0  0  0  0  0  0  0  0  0  0  0  0
   11.7728    8.0337   23.7267 C   0  0  0  0  0  0  0  0  0  0  0  0
    7.1194    8.3344   24.6775 C   0  0  0  0  0  0  0  0  0  0  0  0
    8.4311    4.7963   22.0500 C   0  0  0  0  0  0  0  0  0  0  0  0
    8.7393   10.8706   24.1871 O   0  0  0  0  0  0  0  0  0  0  0  0
    9.3093    3.8166   21.6712 C   0  0  0  0  0  0  0  0  0  0  0  0
  1  5  1  0
  1 15  4  0
  1 22  4  0
  2 20  1  0
  2 24  1  0
  3  6  4  0
  3 27  4  0
  4 22  4  0
  4 26  4  0
  6  7  4  0
  6 13  1  0
  7 19  4  0
  8 18  1  0
  8 23  1  0
  8 28  2  0
  9 17  1  0
  9 24  1  0
 10 11  1  0
 10 24  1  0
 11 23  1  0
 12 14  4  0
 12 16  4  0
 14 19  4  0
 15 18  4  0
 16 20  4  0
 17 25  1  0
 18 26  4  0
 19 29  4  0
 20 29  4  0
 21 23  1  0
 21 25  1  0
 27 29  4  0
M  END
$$$$

 Created by Python create_sdf_string function

 29 32  0  0  0  0  0  0  0  0999 V2000
    5.4450    8.7154   22.6662 C   0  0  0  0  0  0  0  0  0  0  0  0
   10.9154    5.4574   20.5483 C   0  0  0  0  0  0  0  0  0  0  0  0
    7.2709    4.5089   22.7542 C   0  0  0  0  0  0  0  0  0  0  0  0
    5.9698    7.6329   24.6581 C   0  0  0  0  0  0  0  0  0  0  0  0
    4.5542    8.9057   21.7104 O   0  0  0  0  0  0  0  0  0  0  0  0
    6.9895    3.2085   23.0690 C   0  0  0  0  0  0  0  0  0  0  0  0
    7.8391    2.2253   22.7260 N   0  0  0  0  0  0  0  0  0  0  0  0
    8.6968    9.8373   23.6359 C   0  0  0  0  0  0  0  0  0  0  0  0
   12.5135    6.5957   21.8396 C   0  0  0  0  0  0  0  0  0  0  0  0
   10.9406    8.2330   21.1350 C   0  0  0  0  0  0  0  0  0  0  0  0
    9.6648    8.5956   21.7310 C   0  0  0  0  0  0  0  0  0  0  0  0
   10.8829    1.7153   20.9865 C   0  0  0  0  0  0  0  0  0  0  0  0
    5.7768    2.8533   23.7910 C   0  0  0  0  0  0  0  0  0  0  0  0
    9.7977    1.4791   21.6912 N   0  0  0  0  0  0  0  0  0  0  0  0
    6.5976    9.3401   22.6478 N   0  0  0  0  0  0  0  0  0  0  0  0
   11.2031    3.0042   20.6246 C   0  0  0  0  0  0  0  0  0  0  0  0
   12.8688    7.7370   22.7287 C   0  0  0  0  0  0  0  0  0  0  0  0
    7.4487    9.1361   23.6506 C   0  0  0  0  0  0  0  0  0  0  0  0
    8.9772    2.5025   22.0273 C   0  0  0  0  0  0  0  0  0  0  0  0
   10.4859    4.0901   20.9730 C   0  0  0  0  0  0  0  0  0  0  0  0
   11.0962    9.3293   23.5072 C   0  0  0  0  0  0  0  0  0  0  0  0
    5.1273    7.8529   23.6208 N   0  0  0  0  0  0  0  0  0  0  0  0
    9.7552    9.2338   23.0171 N   0  0  0  0  0  0  0  0  0  0  0  0
   11.1797    6.7591   21.3326 N   0  0  0  0  0  0  0  0  0  0  0  0
   11.7728    8.0337   23.7267 C   0  0  0  0  0  0  0  0  0  0  0  0
    7.1194    8.3344   24.6775 C   0  0  0  0  0  0  0  0  0  0  0  0
    8.4311    4.7963   22.0500 C   0  0  0  0  0  0  0  0  0  0  0  0
    8.7393   10.8706   24.1871 O   0  0  0  0  0  0  0  0  0  0  0  0
    9.3093    3.8166   21.6712 C   0  0  0  0  0  0  0  0  0  0  0  0
  1  5  1  0
  1 15  4  0
  1 22  4  0
  2 20  1  0
  2 24  1  0
  3  6  4  0
  3 27  4  0
  4 22  4  0
  4 26  4  0
  6  7  4  0
  6 13  1  0
  7 19  4  0
  8 18  1  0
  8 23  1  0
  8 28  2  0
  9 17  1  0
  9 24  1  0
 10 11  1  0
 10 24  1  0
 11 23  1  0
 12 14  4  0
 12 16  4  0
 14 19  4  0
 15 18  4  0
 16 20  4  0
 17 25  1  0
 18 26  4  0
 19 29  4  0
 20 29  4  0
 21 23  1  0
 21 25  1  0
 27 29  4  0
M  END
$$$$

 Created by Python create_sdf_string function

 29 32  0  0  0  0  0  0  0  0999 V2000
    5.4450    8.7154   22.6662 C   0  0  0  0  0  0  0  0  0  0  0  0
   10.9154    5.4574   20.5483 C   0  0  0  0  0  0  0  0  0  0  0  0
    7.2709    4.5089   22.7542 C   0  0  0  0  0  0  0  0  0  0  0  0
    5.9698    7.6329   24.6581 C   0  0  0  0  0  0  0  0  0  0  0  0
    4.5542    8.9057   21.7104 O   0  0  0  0  0  0  0  0  0  0  0  0
    6.9895    3.2085   23.0690 C   0  0  0  0  0  0  0  0  0  0  0  0
    7.8391    2.2253   22.7260 N   0  0  0  0  0  0  0  0  0  0  0  0
    8.6968    9.8373   23.6359 C   0  0  0  0  0  0  0  0  0  0  0  0
   12.5135    6.5957   21.8396 C   0  0  0  0  0  0  0  0  0  0  0  0
   10.9406    8.2330   21.1350 C   0  0  0  0  0  0  0  0  0  0  0  0
    9.6648    8.5956   21.7310 C   0  0  0  0  0  0  0  0  0  0  0  0
   10.8829    1.7153   20.9865 C   0  0  0  0  0  0  0  0  0  0  0  0
    5.7768    2.8533   23.7910 C   0  0  0  0  0  0  0  0  0  0  0  0
    9.7977    1.4791   21.6912 N   0  0  0  0  0  0  0  0  0  0  0  0
    6.5976    9.3401   22.6478 N   0  0  0  0  0  0  0  0  0  0  0  0
   11.2031    3.0042   20.6246 C   0  0  0  0  0  0  0  0  0  0  0  0
   12.8688    7.7370   22.7287 C   0  0  0  0  0  0  0  0  0  0  0  0
    7.4487    9.1361   23.6506 C   0  0  0  0  0  0  0  0  0  0  0  0
    8.9772    2.5025   22.0273 C   0  0  0  0  0  0  0  0  0  0  0  0
   10.4859    4.0901   20.9730 C   0  0  0  0  0  0  0  0  0  0  0  0
   11.0962    9.3293   23.5072 C   0  0  0  0  0  0  0  0  0  0  0  0
    5.1273    7.8529   23.6208 N   0  0  0  0  0  0  0  0  0  0  0  0
    9.7552    9.2338   23.0171 N   0  0  0  0  0  0  0  0  0  0  0  0
   11.1797    6.7591   21.3326 N   0  0  0  0  0  0  0  0  0  0  0  0
   11.7728    8.0337   23.7267 C   0  0  0  0  0  0  0  0  0  0  0  0
    7.1194    8.3344   24.6775 C   0  0  0  0  0  0  0  0  0  0  0  0
    8.4311    4.7963   22.0500 C   0  0  0  0  0  0  0  0  0  0  0  0
    8.7393   10.8706   24.1871 O   0  0  0  0  0  0  0  0  0  0  0  0
    9.3093    3.8166   21.6712 C   0  0  0  0  0  0  0  0  0  0  0  0
  1  5  1  0
  1 15  4  0
  1 22  4  0
  2 20  1  0
  2 24  1  0
  3  6  4  0
  3 27  4  0
  4 22  4  0
  4 26  4  0
  6  7  4  0
  6 13  1  0
  7 19  4  0
  8 18  1  0
  8 23  1  0
  8 28  2  0
  9 17  1  0
  9 24  1  0
 10 11  1  0
 10 24  1  0
 11 23  1  0
 12 14  4  0
 12 16  4  0
 14 19  4  0
 15 18  4  0
 16 20  4  0
 17 25  1  0
 18 26  4  0
 19 29  4  0
 20 29  4  0
 21 23  1  0
 21 25  1  0
 27 29  4  0
M  END
$$$$

 Created by Python create_sdf_string function

 29 32  0  0  0  0  0  0  0  0999 V2000
    5.4450    8.7154   22.6662 C   0  0  0  0  0  0  0  0  0  0  0  0
   10.9154    5.4574   20.5483 C   0  0  0  0  0  0  0  0  0  0  0  0
    7.2709    4.5089   22.7542 C   0  0  0  0  0  0  0  0  0  0  0  0
    5.9698    7.6329   24.6581 C   0  0  0  0  0  0  0  0  0  0  0  0
    4.5542    8.9057   21.7104 O   0  0  0  0  0  0  0  0  0  0  0  0
    6.9895    3.2085   23.0690 C   0  0  0  0  0  0  0  0  0  0  0  0
    7.8391    2.2253   22.7260 N   0  0  0  0  0  0  0  0  0  0  0  0
    8.6968    9.8373   23.6359 C   0  0  0  0  0  0  0  0  0  0  0  0
   12.5135    6.5957   21.8396 C   0  0  0  0  0  0  0  0  0  0  0  0
   10.9406    8.2330   21.1350 C   0  0  0  0  0  0  0  0  0  0  0  0
    9.6648    8.5956   21.7310 C   0  0  0  0  0  0  0  0  0  0  0  0
   10.8829    1.7153   20.9865 C   0  0  0  0  0  0  0  0  0  0  0  0
    5.7768    2.8533   23.7910 C   0  0  0  0  0  0  0  0  0  0  0  0
    9.7977    1.4791   21.6912 N   0  0  0  0  0  0  0  0  0  0  0  0
    6.5976    9.3401   22.6478 N   0  0  0  0  0  0  0  0  0  0  0  0
   11.2031    3.0042   20.6246 C   0  0  0  0  0  0  0  0  0  0  0  0
   12.8688    7.7370   22.7287 C   0  0  0  0  0  0  0  0  0  0  0  0
    7.4487    9.1361   23.6506 C   0  0  0  0  0  0  0  0  0  0  0  0
    8.9772    2.5025   22.0273 C   0  0  0  0  0  0  0  0  0  0  0  0
   10.4859    4.0901   20.9730 C   0  0  0  0  0  0  0  0  0  0  0  0
   11.0962    9.3293   23.5072 C   0  0  0  0  0  0  0  0  0  0  0  0
    5.1273    7.8529   23.6208 N   0  0  0  0  0  0  0  0  0  0  0  0
    9.7552    9.2338   23.0171 N   0  0  0  0  0  0  0  0  0  0  0  0
   11.1797    6.7591   21.3326 N   0  0  0  0  0  0  0  0  0  0  0  0
   11.7728    8.0337   23.7267 C   0  0  0  0  0  0  0  0  0  0  0  0
    7.1194    8.3344   24.6775 C   0  0  0  0  0  0  0  0  0  0  0  0
    8.4311    4.7963   22.0500 C   0  0  0  0  0  0  0  0  0  0  0  0
    8.7393   10.8706   24.1871 O   0  0  0  0  0  0  0  0  0  0  0  0
    9.3093    3.8166   21.6712 C   0  0  0  0  0  0  0  0  0  0  0  0
  1  5  1  0
  1 15  4  0
  1 22  4  0
  2 20  1  0
  2 24  1  0
  3  6  4  0
  3 27  4  0
  4 22  4  0
  4 26  4  0
  6  7  4  0
  6 13  1  0
  7 19  4  0
  8 18  1  0
  8 23  1  0
  8 28  2  0
  9 17  1  0
  9 24  1  0
 10 11  1  0
 10 24  1  0
 11 23  1  0
 12 14  4  0
 12 16  4  0
 14 19  4  0
 15 18  4  0
 16 20  4  0
 17 25  1  0
 18 26  4  0
 19 29  4  0
 20 29  4  0
 21 23  1  0
 21 25  1  0
 27 29  4  0
M  END
$$$$

 Created by Python create_sdf_string function

 29 32  0  0  0  0  0  0  0  0999 V2000
    5.4450    8.7154   22.6662 C   0  0  0  0  0  0  0  0  0  0  0  0
   10.9154    5.4574   20.5483 C   0  0  0  0  0  0  0  0  0  0  0  0
    7.2709    4.5089   22.7542 C   0  0  0  0  0  0  0  0  0  0  0  0
    5.9698    7.6329   24.6581 C   0  0  0  0  0  0  0  0  0  0  0  0
    4.5542    8.9057   21.7104 O   0  0  0  0  0  0  0  0  0  0  0  0
    6.9895    3.2085   23.0690 C   0  0  0  0  0  0  0  0  0  0  0  0
    7.8391    2.2253   22.7260 N   0  0  0  0  0  0  0  0  0  0  0  0
    8.6968    9.8373   23.6359 C   0  0  0  0  0  0  0  0  0  0  0  0
   12.5135    6.5957   21.8396 C   0  0  0  0  0  0  0  0  0  0  0  0
   10.9406    8.2330   21.1350 C   0  0  0  0  0  0  0  0  0  0  0  0
    9.6648    8.5956   21.7310 C   0  0  0  0  0  0  0  0  0  0  0  0
   10.8829    1.7153   20.9865 C   0  0  0  0  0  0  0  0  0  0  0  0
    5.7768    2.8533   23.7910 C   0  0  0  0  0  0  0  0  0  0  0  0
    9.7977    1.4791   21.6912 N   0  0  0  0  0  0  0  0  0  0  0  0
    6.5976    9.3401   22.6478 N   0  0  0  0  0  0  0  0  0  0  0  0
   11.2031    3.0042   20.6246 C   0  0  0  0  0  0  0  0  0  0  0  0
   12.8688    7.7370   22.7287 C   0  0  0  0  0  0  0  0  0  0  0  0
    7.4487    9.1361   23.6506 C   0  0  0  0  0  0  0  0  0  0  0  0
    8.9772    2.5025   22.0273 C   0  0  0  0  0  0  0  0  0  0  0  0
   10.4859    4.0901   20.9730 C   0  0  0  0  0  0  0  0  0  0  0  0
   11.0962    9.3293   23.5072 C   0  0  0  0  0  0  0  0  0  0  0  0
    5.1273    7.8529   23.6208 N   0  0  0  0  0  0  0  0  0  0  0  0
    9.7552    9.2338   23.0171 N   0  0  0  0  0  0  0  0  0  0  0  0
   11.1797    6.7591   21.3326 N   0  0  0  0  0  0  0  0  0  0  0  0
   11.7728    8.0337   23.7267 C   0  0  0  0  0  0  0  0  0  0  0  0
    7.1194    8.3344   24.6775 C   0  0  0  0  0  0  0  0  0  0  0  0
    8.4311    4.7963   22.0500 C   0  0  0  0  0  0  0  0  0  0  0  0
    8.7393   10.8706   24.1871 O   0  0  0  0  0  0  0  0  0  0  0  0
    9.3093    3.8166   21.6712 C   0  0  0  0  0  0  0  0  0  0  0  0
  1  5  1  0
  1 15  4  0
  1 22  4  0
  2 20  1  0
  2 24  1  0
  3  6  4  0
  3 27  4  0
  4 22  4  0
  4 26  4  0
  6  7  4  0
  6 13  1  0
  7 19  4  0
  8 18  1  0
  8 23  1  0
  8 28  2  0
  9 17  1  0
  9 24  1  0
 10 11  1  0
 10 24  1  0
 11 23  1  0
 12 14  4  0
 12 16  4  0
 14 19  4  0
 15 18  4  0
 16 20  4  0
 17 25  1  0
 18 26  4  0
 19 29  4  0
 20 29  4  0
 21 23  1  0
 21 25  1  0
 27 29  4  0
M  END
$$$$

 Created by Python create_sdf_string function

 29 32  0  0  0  0  0  0  0  0999 V2000
    5.4450    8.7154   22.6662 C   0  0  0  0  0  0  0  0  0  0  0  0
   10.9154    5.4574   20.5483 C   0  0  0  0  0  0  0  0  0  0  0  0
    7.2709    4.5089   22.7542 C   0  0  0  0  0  0  0  0  0  0  0  0
    5.9698    7.6329   24.6581 C   0  0  0  0  0  0  0  0  0  0  0  0
    4.5542    8.9057   21.7104 O   0  0  0  0  0  0  0  0  0  0  0  0
    6.9895    3.2085   23.0690 C   0  0  0  0  0  0  0  0  0  0  0  0
    7.8391    2.2253   22.7260 N   0  0  0  0  0  0  0  0  0  0  0  0
    8.6968    9.8373   23.6359 C   0  0  0  0  0  0  0  0  0  0  0  0
   12.5135    6.5957   21.8396 C   0  0  0  0  0  0  0  0  0  0  0  0
   10.9406    8.2330   21.1350 C   0  0  0  0  0  0  0  0  0  0  0  0
    9.6648    8.5956   21.7310 C   0  0  0  0  0  0  0  0  0  0  0  0
   10.8829    1.7153   20.9865 C   0  0  0  0  0  0  0  0  0  0  0  0
    5.7768    2.8533   23.7910 C   0  0  0  0  0  0  0  0  0  0  0  0
    9.7977    1.4791   21.6912 N   0  0  0  0  0  0  0  0  0  0  0  0
    6.5976    9.3401   22.6478 N   0  0  0  0  0  0  0  0  0  0  0  0
   11.2031    3.0042   20.6246 C   0  0  0  0  0  0  0  0  0  0  0  0
   12.8688    7.7370   22.7287 C   0  0  0  0  0  0  0  0  0  0  0  0
    7.4487    9.1361   23.6506 C   0  0  0  0  0  0  0  0  0  0  0  0
    8.9772    2.5025   22.0273 C   0  0  0  0  0  0  0  0  0  0  0  0
   10.4859    4.0901   20.9730 C   0  0  0  0  0  0  0  0  0  0  0  0
   11.0962    9.3293   23.5072 C   0  0  0  0  0  0  0  0  0  0  0  0
    5.1273    7.8529   23.6208 N   0  0  0  0  0  0  0  0  0  0  0  0
    9.7552    9.2338   23.0171 N   0  0  0  0  0  0  0  0  0  0  0  0
   11.1797    6.7591   21.3326 N   0  0  0  0  0  0  0  0  0  0  0  0
   11.7728    8.0337   23.7267 C   0  0  0  0  0  0  0  0  0  0  0  0
    7.1194    8.3344   24.6775 C   0  0  0  0  0  0  0  0  0  0  0  0
    8.4311    4.7963   22.0500 C   0  0  0  0  0  0  0  0  0  0  0  0
    8.7393   10.8706   24.1871 O   0  0  0  0  0  0  0  0  0  0  0  0
    9.3093    3.8166   21.6712 C   0  0  0  0  0  0  0  0  0  0  0  0
  1  5  1  0
  1 15  4  0
  1 22  4  0
  2 20  1  0
  2 24  1  0
  3  6  4  0
  3 27  4  0
  4 22  4  0
  4 26  4  0
  6  7  4  0
  6 13  1  0
  7 19  4  0
  8 18  1  0
  8 23  1  0
  8 28  2  0
  9 17  1  0
  9 24  1  0
 10 11  1  0
 10 24  1  0
 11 23  1  0
 12 14  4  0
 12 16  4  0
 14 19  4  0
 15 18  4  0
 16 20  4  0
 17 25  1  0
 18 26  4  0
 19 29  4  0
 20 29  4  0
 21 23  1  0
 21 25  1  0
 27 29  4  0
M  END
$$$$

 Created by Python create_sdf_string function

 29 32  0  0  0  0  0  0  0  0999 V2000
    5.4450    8.7154   22.6662 C   0  0  0  0  0  0  0  0  0  0  0  0
   10.9154    5.4574   20.5483 C   0  0  0  0  0  0  0  0  0  0  0  0
    7.2709    4.5089   22.7542 C   0  0  0  0  0  0  0  0  0  0  0  0
    5.9698    7.6329   24.6581 C   0  0  0  0  0  0  0  0  0  0  0  0
    4.5542    8.9057   21.7104 O   0  0  0  0  0  0  0  0  0  0  0  0
    6.9895    3.2085   23.0690 C   0  0  0  0  0  0  0  0  0  0  0  0
    7.8391    2.2253   22.7260 N   0  0  0  0  0  0  0  0  0  0  0  0
    8.6968    9.8373   23.6359 C   0  0  0  0  0  0  0  0  0  0  0  0
   12.5135    6.5957   21.8396 C   0  0  0  0  0  0  0  0  0  0  0  0
   10.9406    8.2330   21.1350 C   0  0  0  0  0  0  0  0  0  0  0  0
    9.6648    8.5956   21.7310 C   0  0  0  0  0  0  0  0  0  0  0  0
   10.8829    1.7153   20.9865 C   0  0  0  0  0  0  0  0  0  0  0  0
    5.7768    2.8533   23.7910 C   0  0  0  0  0  0  0  0  0  0  0  0
    9.7977    1.4791   21.6912 N   0  0  0  0  0  0  0  0  0  0  0  0
    6.5976    9.3401   22.6478 N   0  0  0  0  0  0  0  0  0  0  0  0
   11.2031    3.0042   20.6246 C   0  0  0  0  0  0  0  0  0  0  0  0
   12.8688    7.7370   22.7287 C   0  0  0  0  0  0  0  0  0  0  0  0
    7.4487    9.1361   23.6506 C   0  0  0  0  0  0  0  0  0  0  0  0
    8.9772    2.5025   22.0273 C   0  0  0  0  0  0  0  0  0  0  0  0
   10.4859    4.0901   20.9730 C   0  0  0  0  0  0  0  0  0  0  0  0
   11.0962    9.3293   23.5072 C   0  0  0  0  0  0  0  0  0  0  0  0
    5.1273    7.8529   23.6208 N   0  0  0  0  0  0  0  0  0  0  0  0
    9.7552    9.2338   23.0171 N   0  0  0  0  0  0  0  0  0  0  0  0
   11.1797    6.7591   21.3326 N   0  0  0  0  0  0  0  0  0  0  0  0
   11.7728    8.0337   23.7267 C   0  0  0  0  0  0  0  0  0  0  0  0
    7.1194    8.3344   24.6775 C   0  0  0  0  0  0  0  0  0  0  0  0
    8.4311    4.7963   22.0500 C   0  0  0  0  0  0  0  0  0  0  0  0
    8.7393   10.8706   24.1871 O   0  0  0  0  0  0  0  0  0  0  0  0
    9.3093    3.8166   21.6712 C   0  0  0  0  0  0  0  0  0  0  0  0
  1  5  1  0
  1 15  4  0
  1 22  4  0
  2 20  1  0
  2 24  1  0
  3  6  4  0
  3 27  4  0
  4 22  4  0
  4 26  4  0
  6  7  4  0
  6 13  1  0
  7 19  4  0
  8 18  1  0
  8 23  1  0
  8 28  2  0
  9 17  1  0
  9 24  1  0
 10 11  1  0
 10 24  1  0
 11 23  1  0
 12 14  4  0
 12 16  4  0
 14 19  4  0
 15 18  4  0
 16 20  4  0
 17 25  1  0
 18 26  4  0
 19 29  4  0
 20 29  4  0
 21 23  1  0
 21 25  1  0
 27 29  4  0
M  END
$$$$

 Created by Python create_sdf_string function

 29 32  0  0  0  0  0  0  0  0999 V2000
    5.4450    8.7154   22.6662 C   0  0  0  0  0  0  0  0  0  0  0  0
   10.9154    5.4574   20.5483 C   0  0  0  0  0  0  0  0  0  0  0  0
    7.2709    4.5089   22.7542 C   0  0  0  0  0  0  0  0  0  0  0  0
    5.9698    7.6329   24.6581 C   0  0  0  0  0  0  0  0  0  0  0  0
    4.5542    8.9057   21.7104 O   0  0  0  0  0  0  0  0  0  0  0  0
    6.9895    3.2085   23.0690 C   0  0  0  0  0  0  0  0  0  0  0  0
    7.8391    2.2253   22.7260 N   0  0  0  0  0  0  0  0  0  0  0  0
    8.6968    9.8373   23.6359 C   0  0  0  0  0  0  0  0  0  0  0  0
   12.5135    6.5957   21.8396 C   0  0  0  0  0  0  0  0  0  0  0  0
   10.9406    8.2330   21.1350 C   0  0  0  0  0  0  0  0  0  0  0  0
    9.6648    8.5956   21.7310 C   0  0  0  0  0  0  0  0  0  0  0  0
   10.8829    1.7153   20.9865 C   0  0  0  0  0  0  0  0  0  0  0  0
    5.7768    2.8533   23.7910 C   0  0  0  0  0  0  0  0  0  0  0  0
    9.7977    1.4791   21.6912 N   0  0  0  0  0  0  0  0  0  0  0  0
    6.5976    9.3401   22.6478 N   0  0  0  0  0  0  0  0  0  0  0  0
   11.2031    3.0042   20.6246 C   0  0  0  0  0  0  0  0  0  0  0  0
   12.8688    7.7370   22.7287 C   0  0  0  0  0  0  0  0  0  0  0  0
    7.4487    9.1361   23.6506 C   0  0  0  0  0  0  0  0  0  0  0  0
    8.9772    2.5025   22.0273 C   0  0  0  0  0  0  0  0  0  0  0  0
   10.4859    4.0901   20.9730 C   0  0  0  0  0  0  0  0  0  0  0  0
   11.0962    9.3293   23.5072 C   0  0  0  0  0  0  0  0  0  0  0  0
    5.1273    7.8529   23.6208 N   0  0  0  0  0  0  0  0  0  0  0  0
    9.7552    9.2338   23.0171 N   0  0  0  0  0  0  0  0  0  0  0  0
   11.1797    6.7591   21.3326 N   0  0  0  0  0  0  0  0  0  0  0  0
   11.7728    8.0337   23.7267 C   0  0  0  0  0  0  0  0  0  0  0  0
    7.1194    8.3344   24.6775 C   0  0  0  0  0  0  0  0  0  0  0  0
    8.4311    4.7963   22.0500 C   0  0  0  0  0  0  0  0  0  0  0  0
    8.7393   10.8706   24.1871 O   0  0  0  0  0  0  0  0  0  0  0  0
    9.3093    3.8166   21.6712 C   0  0  0  0  0  0  0  0  0  0  0  0
  1  5  1  0
  1 15  4  0
  1 22  4  0
  2 20  1  0
  2 24  1  0
  3  6  4  0
  3 27  4  0
  4 22  4  0
  4 26  4  0
  6  7  4  0
  6 13  1  0
  7 19  4  0
  8 18  1  0
  8 23  1  0
  8 28  2  0
  9 17  1  0
  9 24  1  0
 10 11  1  0
 10 24  1  0
 11 23  1  0
 12 14  4  0
 12 16  4  0
 14 19  4  0
 15 18  4  0
 16 20  4  0
 17 25  1  0
 18 26  4  0
 19 29  4  0
 20 29  4  0
 21 23  1  0
 21 25  1  0
 27 29  4  0
M  END
$$$$

 Created by Python create_sdf_string function

 29 32  0  0  0  0  0  0  0  0999 V2000
    5.4450    8.7154   22.6662 C   0  0  0  0  0  0  0  0  0  0  0  0
   10.9154    5.4574   20.5483 C   0  0  0  0  0  0  0  0  0  0  0  0
    7.2709    4.5089   22.7542 C   0  0  0  0  0  0  0  0  0  0  0  0
    5.9698    7.6329   24.6581 C   0  0  0  0  0  0  0  0  0  0  0  0
    4.5542    8.9057   21.7104 O   0  0  0  0  0  0  0  0  0  0  0  0
    6.9895    3.2085   23.0690 C   0  0  0  0  0  0  0  0  0  0  0  0
    7.8391    2.2253   22.7260 N   0  0  0  0  0  0  0  0  0  0  0  0
    8.6968    9.8373   23.6359 C   0  0  0  0  0  0  0  0  0  0  0  0
   12.5135    6.5957   21.8396 C   0  0  0  0  0  0  0  0  0  0  0  0
   10.9406    8.2330   21.1350 C   0  0  0  0  0  0  0  0  0  0  0  0
    9.6648    8.5956   21.7310 C   0  0  0  0  0  0  0  0  0  0  0  0
   10.8829    1.7153   20.9865 C   0  0  0  0  0  0  0  0  0  0  0  0
    5.7768    2.8533   23.7910 C   0  0  0  0  0  0  0  0  0  0  0  0
    9.7977    1.4791   21.6912 N   0  0  0  0  0  0  0  0  0  0  0  0
    6.5976    9.3401   22.6478 N   0  0  0  0  0  0  0  0  0  0  0  0
   11.2031    3.0042   20.6246 C   0  0  0  0  0  0  0  0  0  0  0  0
   12.8688    7.7370   22.7287 C   0  0  0  0  0  0  0  0  0  0  0  0
    7.4487    9.1361   23.6506 C   0  0  0  0  0  0  0  0  0  0  0  0
    8.9772    2.5025   22.0273 C   0  0  0  0  0  0  0  0  0  0  0  0
   10.4859    4.0901   20.9730 C   0  0  0  0  0  0  0  0  0  0  0  0
   11.0962    9.3293   23.5072 C   0  0  0  0  0  0  0  0  0  0  0  0
    5.1273    7.8529   23.6208 N   0  0  0  0  0  0  0  0  0  0  0  0
    9.7552    9.2338   23.0171 N   0  0  0  0  0  0  0  0  0  0  0  0
   11.1797    6.7591   21.3326 N   0  0  0  0  0  0  0  0  0  0  0  0
   11.7728    8.0337   23.7267 C   0  0  0  0  0  0  0  0  0  0  0  0
    7.1194    8.3344   24.6775 C   0  0  0  0  0  0  0  0  0  0  0  0
    8.4311    4.7963   22.0500 C   0  0  0  0  0  0  0  0  0  0  0  0
    8.7393   10.8706   24.1871 O   0  0  0  0  0  0  0  0  0  0  0  0
    9.3093    3.8166   21.6712 C   0  0  0  0  0  0  0  0  0  0  0  0
  1  5  1  0
  1 15  4  0
  1 22  4  0
  2 20  1  0
  2 24  1  0
  3  6  4  0
  3 27  4  0
  4 22  4  0
  4 26  4  0
  6  7  4  0
  6 13  1  0
  7 19  4  0
  8 18  1  0
  8 23  1  0
  8 28  2  0
  9 17  1  0
  9 24  1  0
 10 11  1  0
 10 24  1  0
 11 23  1  0
 12 14  4  0
 12 16  4  0
 14 19  4  0
 15 18  4  0
 16 20  4  0
 17 25  1  0
 18 26  4  0
 19 29  4  0
 20 29  4  0
 21 23  1  0
 21 25  1  0
 27 29  4  0
M  END
$$$$

 Created by Python create_sdf_string function

 29 32  0  0  0  0  0  0  0  0999 V2000
    5.4450    8.7154   22.6662 C   0  0  0  0  0  0  0  0  0  0  0  0
   10.9154    5.4574   20.5483 C   0  0  0  0  0  0  0  0  0  0  0  0
    7.2709    4.5089   22.7542 C   0  0  0  0  0  0  0  0  0  0  0  0
    5.9698    7.6329   24.6581 C   0  0  0  0  0  0  0  0  0  0  0  0
    4.5542    8.9057   21.7104 O   0  0  0  0  0  0  0  0  0  0  0  0
    6.9895    3.2085   23.0690 C   0  0  0  0  0  0  0  0  0  0  0  0
    7.8391    2.2253   22.7260 N   0  0  0  0  0  0  0  0  0  0  0  0
    8.6968    9.8373   23.6359 C   0  0  0  0  0  0  0  0  0  0  0  0
   12.5135    6.5957   21.8396 C   0  0  0  0  0  0  0  0  0  0  0  0
   10.9406    8.2330   21.1350 C   0  0  0  0  0  0  0  0  0  0  0  0
    9.6648    8.5956   21.7310 C   0  0  0  0  0  0  0  0  0  0  0  0
   10.8829    1.7153   20.9865 C   0  0  0  0  0  0  0  0  0  0  0  0
    5.7768    2.8533   23.7910 C   0  0  0  0  0  0  0  0  0  0  0  0
    9.7977    1.4791   21.6912 N   0  0  0  0  0  0  0  0  0  0  0  0
    6.5976    9.3401   22.6478 N   0  0  0  0  0  0  0  0  0  0  0  0
   11.2031    3.0042   20.6246 C   0  0  0  0  0  0  0  0  0  0  0  0
   12.8688    7.7370   22.7287 C   0  0  0  0  0  0  0  0  0  0  0  0
    7.4487    9.1361   23.6506 C   0  0  0  0  0  0  0  0  0  0  0  0
    8.9772    2.5025   22.0273 C   0  0  0  0  0  0  0  0  0  0  0  0
   10.4859    4.0901   20.9730 C   0  0  0  0  0  0  0  0  0  0  0  0
   11.0962    9.3293   23.5072 C   0  0  0  0  0  0  0  0  0  0  0  0
    5.1273    7.8529   23.6208 N   0  0  0  0  0  0  0  0  0  0  0  0
    9.7552    9.2338   23.0171 N   0  0  0  0  0  0  0  0  0  0  0  0
   11.1797    6.7591   21.3326 N   0  0  0  0  0  0  0  0  0  0  0  0
   11.7728    8.0337   23.7267 C   0  0  0  0  0  0  0  0  0  0  0  0
    7.1194    8.3344   24.6775 C   0  0  0  0  0  0  0  0  0  0  0  0
    8.4311    4.7963   22.0500 C   0  0  0  0  0  0  0  0  0  0  0  0
    8.7393   10.8706   24.1871 O   0  0  0  0  0  0  0  0  0  0  0  0
    9.3093    3.8166   21.6712 C   0  0  0  0  0  0  0  0  0  0  0  0
  1  5  1  0
  1 15  4  0
  1 22  4  0
  2 20  1  0
  2 24  1  0
  3  6  4  0
  3 27  4  0
  4 22  4  0
  4 26  4  0
  6  7  4  0
  6 13  1  0
  7 19  4  0
  8 18  1  0
  8 23  1  0
  8 28  2  0
  9 17  1  0
  9 24  1  0
 10 11  1  0
 10 24  1  0
 11 23  1  0
 12 14  4  0
 12 16  4  0
 14 19  4  0
 15 18  4  0
 16 20  4  0
 17 25  1  0
 18 26  4  0
 19 29  4  0
 20 29  4  0
 21 23  1  0
 21 25  1  0
 27 29  4  0
M  END
$$$$

 Created by Python create_sdf_string function

 29 32  0  0  0  0  0  0  0  0999 V2000
    5.4450    8.7154   22.6662 C   0  0  0  0  0  0  0  0  0  0  0  0
   10.9154    5.4574   20.5483 C   0  0  0  0  0  0  0  0  0  0  0  0
    7.2709    4.5089   22.7542 C   0  0  0  0  0  0  0  0  0  0  0  0
    5.9698    7.6329   24.6581 C   0  0  0  0  0  0  0  0  0  0  0  0
    4.5542    8.9057   21.7104 O   0  0  0  0  0  0  0  0  0  0  0  0
    6.9895    3.2085   23.0690 C   0  0  0  0  0  0  0  0  0  0  0  0
    7.8391    2.2253   22.7260 N   0  0  0  0  0  0  0  0  0  0  0  0
    8.6968    9.8373   23.6359 C   0  0  0  0  0  0  0  0  0  0  0  0
   12.5135    6.5957   21.8396 C   0  0  0  0  0  0  0  0  0  0  0  0
   10.9406    8.2330   21.1350 C   0  0  0  0  0  0  0  0  0  0  0  0
    9.6648    8.5956   21.7310 C   0  0  0  0  0  0  0  0  0  0  0  0
   10.8829    1.7153   20.9865 C   0  0  0  0  0  0  0  0  0  0  0  0
    5.7768    2.8533   23.7910 C   0  0  0  0  0  0  0  0  0  0  0  0
    9.7977    1.4791   21.6912 N   0  0  0  0  0  0  0  0  0  0  0  0
    6.5976    9.3401   22.6478 N   0  0  0  0  0  0  0  0  0  0  0  0
   11.2031    3.0042   20.6246 C   0  0  0  0  0  0  0  0  0  0  0  0
   12.8688    7.7370   22.7287 C   0  0  0  0  0  0  0  0  0  0  0  0
    7.4487    9.1361   23.6506 C   0  0  0  0  0  0  0  0  0  0  0  0
    8.9772    2.5025   22.0273 C   0  0  0  0  0  0  0  0  0  0  0  0
   10.4859    4.0901   20.9730 C   0  0  0  0  0  0  0  0  0  0  0  0
   11.0962    9.3293   23.5072 C   0  0  0  0  0  0  0  0  0  0  0  0
    5.1273    7.8529   23.6208 N   0  0  0  0  0  0  0  0  0  0  0  0
    9.7552    9.2338   23.0171 N   0  0  0  0  0  0  0  0  0  0  0  0
   11.1797    6.7591   21.3326 N   0  0  0  0  0  0  0  0  0  0  0  0
   11.7728    8.0337   23.7267 C   0  0  0  0  0  0  0  0  0  0  0  0
    7.1194    8.3344   24.6775 C   0  0  0  0  0  0  0  0  0  0  0  0
    8.4311    4.7963   22.0500 C   0  0  0  0  0  0  0  0  0  0  0  0
    8.7393   10.8706   24.1871 O   0  0  0  0  0  0  0  0  0  0  0  0
    9.3093    3.8166   21.6712 C   0  0  0  0  0  0  0  0  0  0  0  0
  1  5  1  0
  1 15  4  0
  1 22  4  0
  2 20  1  0
  2 24  1  0
  3  6  4  0
  3 27  4  0
  4 22  4  0
  4 26  4  0
  6  7  4  0
  6 13  1  0
  7 19  4  0
  8 18  1  0
  8 23  1  0
  8 28  2  0
  9 17  1  0
  9 24  1  0
 10 11  1  0
 10 24  1  0
 11 23  1  0
 12 14  4  0
 12 16  4  0
 14 19  4  0
 15 18  4  0
 16 20  4  0
 17 25  1  0
 18 26  4  0
 19 29  4  0
 20 29  4  0
 21 23  1  0
 21 25  1  0
 27 29  4  0
M  END
$$$$

 Created by Python create_sdf_string function

 29 32  0  0  0  0  0  0  0  0999 V2000
    5.4450    8.7154   22.6662 C   0  0  0  0  0  0  0  0  0  0  0  0
   10.9154    5.4574   20.5483 C   0  0  0  0  0  0  0  0  0  0  0  0
    7.2709    4.5089   22.7542 C   0  0  0  0  0  0  0  0  0  0  0  0
    5.9698    7.6329   24.6581 C   0  0  0  0  0  0  0  0  0  0  0  0
    4.5542    8.9057   21.7104 O   0  0  0  0  0  0  0  0  0  0  0  0
    6.9895    3.2085   23.0690 C   0  0  0  0  0  0  0  0  0  0  0  0
    7.8391    2.2253   22.7260 N   0  0  0  0  0  0  0  0  0  0  0  0
    8.6968    9.8373   23.6359 C   0  0  0  0  0  0  0  0  0  0  0  0
   12.5135    6.5957   21.8396 C   0  0  0  0  0  0  0  0  0  0  0  0
   10.9406    8.2330   21.1350 C   0  0  0  0  0  0  0  0  0  0  0  0
    9.6648    8.5956   21.7310 C   0  0  0  0  0  0  0  0  0  0  0  0
   10.8829    1.7153   20.9865 C   0  0  0  0  0  0  0  0  0  0  0  0
    5.7768    2.8533   23.7910 C   0  0  0  0  0  0  0  0  0  0  0  0
    9.7977    1.4791   21.6912 N   0  0  0  0  0  0  0  0  0  0  0  0
    6.5976    9.3401   22.6478 N   0  0  0  0  0  0  0  0  0  0  0  0
   11.2031    3.0042   20.6246 C   0  0  0  0  0  0  0  0  0  0  0  0
   12.8688    7.7370   22.7287 C   0  0  0  0  0  0  0  0  0  0  0  0
    7.4487    9.1361   23.6506 C   0  0  0  0  0  0  0  0  0  0  0  0
    8.9772    2.5025   22.0273 C   0  0  0  0  0  0  0  0  0  0  0  0
   10.4859    4.0901   20.9730 C   0  0  0  0  0  0  0  0  0  0  0  0
   11.0962    9.3293   23.5072 C   0  0  0  0  0  0  0  0  0  0  0  0
    5.1273    7.8529   23.6208 N   0  0  0  0  0  0  0  0  0  0  0  0
    9.7552    9.2338   23.0171 N   0  0  0  0  0  0  0  0  0  0  0  0
   11.1797    6.7591   21.3326 N   0  0  0  0  0  0  0  0  0  0  0  0
   11.7728    8.0337   23.7267 C   0  0  0  0  0  0  0  0  0  0  0  0
    7.1194    8.3344   24.6775 C   0  0  0  0  0  0  0  0  0  0  0  0
    8.4311    4.7963   22.0500 C   0  0  0  0  0  0  0  0  0  0  0  0
    8.7393   10.8706   24.1871 O   0  0  0  0  0  0  0  0  0  0  0  0
    9.3093    3.8166   21.6712 C   0  0  0  0  0  0  0  0  0  0  0  0
  1  5  1  0
  1 15  4  0
  1 22  4  0
  2 20  1  0
  2 24  1  0
  3  6  4  0
  3 27  4  0
  4 22  4  0
  4 26  4  0
  6  7  4  0
  6 13  1  0
  7 19  4  0
  8 18  1  0
  8 23  1  0
  8 28  2  0
  9 17  1  0
  9 24  1  0
 10 11  1  0
 10 24  1  0
 11 23  1  0
 12 14  4  0
 12 16  4  0
 14 19  4  0
 15 18  4  0
 16 20  4  0
 17 25  1  0
 18 26  4  0
 19 29  4  0
 20 29  4  0
 21 23  1  0
 21 25  1  0
 27 29  4  0
M  END
$$$$

 Created by Python create_sdf_string function

 29 32  0  0  0  0  0  0  0  0999 V2000
    5.4450    8.7154   22.6662 C   0  0  0  0  0  0  0  0  0  0  0  0
   10.9154    5.4574   20.5483 C   0  0  0  0  0  0  0  0  0  0  0  0
    7.2709    4.5089   22.7542 C   0  0  0  0  0  0  0  0  0  0  0  0
    5.9698    7.6329   24.6581 C   0  0  0  0  0  0  0  0  0  0  0  0
    4.5542    8.9057   21.7104 O   0  0  0  0  0  0  0  0  0  0  0  0
    6.9895    3.2085   23.0690 C   0  0  0  0  0  0  0  0  0  0  0  0
    7.8391    2.2253   22.7260 N   0  0  0  0  0  0  0  0  0  0  0  0
    8.6968    9.8373   23.6359 C   0  0  0  0  0  0  0  0  0  0  0  0
   12.5135    6.5957   21.8396 C   0  0  0  0  0  0  0  0  0  0  0  0
   10.9406    8.2330   21.1350 C   0  0  0  0  0  0  0  0  0  0  0  0
    9.6648    8.5956   21.7310 C   0  0  0  0  0  0  0  0  0  0  0  0
   10.8829    1.7153   20.9865 C   0  0  0  0  0  0  0  0  0  0  0  0
    5.7768    2.8533   23.7910 C   0  0  0  0  0  0  0  0  0  0  0  0
    9.7977    1.4791   21.6912 N   0  0  0  0  0  0  0  0  0  0  0  0
    6.5976    9.3401   22.6478 N   0  0  0  0  0  0  0  0  0  0  0  0
   11.2031    3.0042   20.6246 C   0  0  0  0  0  0  0  0  0  0  0  0
   12.8688    7.7370   22.7287 C   0  0  0  0  0  0  0  0  0  0  0  0
    7.4487    9.1361   23.6506 C   0  0  0  0  0  0  0  0  0  0  0  0
    8.9772    2.5025   22.0273 C   0  0  0  0  0  0  0  0  0  0  0  0
   10.4859    4.0901   20.9730 C   0  0  0  0  0  0  0  0  0  0  0  0
   11.0962    9.3293   23.5072 C   0  0  0  0  0  0  0  0  0  0  0  0
    5.1273    7.8529   23.6208 N   0  0  0  0  0  0  0  0  0  0  0  0
    9.7552    9.2338   23.0171 N   0  0  0  0  0  0  0  0  0  0  0  0
   11.1797    6.7591   21.3326 N   0  0  0  0  0  0  0  0  0  0  0  0
   11.7728    8.0337   23.7267 C   0  0  0  0  0  0  0  0  0  0  0  0
    7.1194    8.3344   24.6775 C   0  0  0  0  0  0  0  0  0  0  0  0
    8.4311    4.7963   22.0500 C   0  0  0  0  0  0  0  0  0  0  0  0
    8.7393   10.8706   24.1871 O   0  0  0  0  0  0  0  0  0  0  0  0
    9.3093    3.8166   21.6712 C   0  0  0  0  0  0  0  0  0  0  0  0
  1  5  1  0
  1 15  4  0
  1 22  4  0
  2 20  1  0
  2 24  1  0
  3  6  4  0
  3 27  4  0
  4 22  4  0
  4 26  4  0
  6  7  4  0
  6 13  1  0
  7 19  4  0
  8 18  1  0
  8 23  1  0
  8 28  2  0
  9 17  1  0
  9 24  1  0
 10 11  1  0
 10 24  1  0
 11 23  1  0
 12 14  4  0
 12 16  4  0
 14 19  4  0
 15 18  4  0
 16 20  4  0
 17 25  1  0
 18 26  4  0
 19 29  4  0
 20 29  4  0
 21 23  1  0
 21 25  1  0
 27 29  4  0
M  END
$$$$

 Created by Python create_sdf_string function

 29 32  0  0  0  0  0  0  0  0999 V2000
    5.4450    8.7154   22.6662 C   0  0  0  0  0  0  0  0  0  0  0  0
   10.9154    5.4574   20.5483 C   0  0  0  0  0  0  0  0  0  0  0  0
    7.2709    4.5089   22.7542 C   0  0  0  0  0  0  0  0  0  0  0  0
    5.9698    7.6329   24.6581 C   0  0  0  0  0  0  0  0  0  0  0  0
    4.5542    8.9057   21.7104 O   0  0  0  0  0  0  0  0  0  0  0  0
    6.9895    3.2085   23.0690 C   0  0  0  0  0  0  0  0  0  0  0  0
    7.8391    2.2253   22.7260 N   0  0  0  0  0  0  0  0  0  0  0  0
    8.6968    9.8373   23.6359 C   0  0  0  0  0  0  0  0  0  0  0  0
   12.5135    6.5957   21.8396 C   0  0  0  0  0  0  0  0  0  0  0  0
   10.9406    8.2330   21.1350 C   0  0  0  0  0  0  0  0  0  0  0  0
    9.6648    8.5956   21.7310 C   0  0  0  0  0  0  0  0  0  0  0  0
   10.8829    1.7153   20.9865 C   0  0  0  0  0  0  0  0  0  0  0  0
    5.7768    2.8533   23.7910 C   0  0  0  0  0  0  0  0  0  0  0  0
    9.7977    1.4791   21.6912 N   0  0  0  0  0  0  0  0  0  0  0  0
    6.5976    9.3401   22.6478 N   0  0  0  0  0  0  0  0  0  0  0  0
   11.2031    3.0042   20.6246 C   0  0  0  0  0  0  0  0  0  0  0  0
   12.8688    7.7370   22.7287 C   0  0  0  0  0  0  0  0  0  0  0  0
    7.4487    9.1361   23.6506 C   0  0  0  0  0  0  0  0  0  0  0  0
    8.9772    2.5025   22.0273 C   0  0  0  0  0  0  0  0  0  0  0  0
   10.4859    4.0901   20.9730 C   0  0  0  0  0  0  0  0  0  0  0  0
   11.0962    9.3293   23.5072 C   0  0  0  0  0  0  0  0  0  0  0  0
    5.1273    7.8529   23.6208 N   0  0  0  0  0  0  0  0  0  0  0  0
    9.7552    9.2338   23.0171 N   0  0  0  0  0  0  0  0  0  0  0  0
   11.1797    6.7591   21.3326 N   0  0  0  0  0  0  0  0  0  0  0  0
   11.7728    8.0337   23.7267 C   0  0  0  0  0  0  0  0  0  0  0  0
    7.1194    8.3344   24.6775 C   0  0  0  0  0  0  0  0  0  0  0  0
    8.4311    4.7963   22.0500 C   0  0  0  0  0  0  0  0  0  0  0  0
    8.7393   10.8706   24.1871 O   0  0  0  0  0  0  0  0  0  0  0  0
    9.3093    3.8166   21.6712 C   0  0  0  0  0  0  0  0  0  0  0  0
  1  5  1  0
  1 15  4  0
  1 22  4  0
  2 20  1  0
  2 24  1  0
  3  6  4  0
  3 27  4  0
  4 22  4  0
  4 26  4  0
  6  7  4  0
  6 13  1  0
  7 19  4  0
  8 18  1  0
  8 23  1  0
  8 28  2  0
  9 17  1  0
  9 24  1  0
 10 11  1  0
 10 24  1  0
 11 23  1  0
 12 14  4  0
 12 16  4  0
 14 19  4  0
 15 18  4  0
 16 20  4  0
 17 25  1  0
 18 26  4  0
 19 29  4  0
 20 29  4  0
 21 23  1  0
 21 25  1  0
 27 29  4  0
M  END
$$$$

 Created by Python create_sdf_string function

 29 32  0  0  0  0  0  0  0  0999 V2000
    5.4450    8.7154   22.6662 C   0  0  0  0  0  0  0  0  0  0  0  0
   10.9154    5.4574   20.5483 C   0  0  0  0  0  0  0  0  0  0  0  0
    7.2709    4.5089   22.7542 C   0  0  0  0  0  0  0  0  0  0  0  0
    5.9698    7.6329   24.6581 C   0  0  0  0  0  0  0  0  0  0  0  0
    4.5542    8.9057   21.7104 O   0  0  0  0  0  0  0  0  0  0  0  0
    6.9895    3.2085   23.0690 C   0  0  0  0  0  0  0  0  0  0  0  0
    7.8391    2.2253   22.7260 N   0  0  0  0  0  0  0  0  0  0  0  0
    8.6968    9.8373   23.6359 C   0  0  0  0  0  0  0  0  0  0  0  0
   12.5135    6.5957   21.8396 C   0  0  0  0  0  0  0  0  0  0  0  0
   10.9406    8.2330   21.1350 C   0  0  0  0  0  0  0  0  0  0  0  0
    9.6648    8.5956   21.7310 C   0  0  0  0  0  0  0  0  0  0  0  0
   10.8829    1.7153   20.9865 C   0  0  0  0  0  0  0  0  0  0  0  0
    5.7768    2.8533   23.7910 C   0  0  0  0  0  0  0  0  0  0  0  0
    9.7977    1.4791   21.6912 N   0  0  0  0  0  0  0  0  0  0  0  0
    6.5976    9.3401   22.6478 N   0  0  0  0  0  0  0  0  0  0  0  0
   11.2031    3.0042   20.6246 C   0  0  0  0  0  0  0  0  0  0  0  0
   12.8688    7.7370   22.7287 C   0  0  0  0  0  0  0  0  0  0  0  0
    7.4487    9.1361   23.6506 C   0  0  0  0  0  0  0  0  0  0  0  0
    8.9772    2.5025   22.0273 C   0  0  0  0  0  0  0  0  0  0  0  0
   10.4859    4.0901   20.9730 C   0  0  0  0  0  0  0  0  0  0  0  0
   11.0962    9.3293   23.5072 C   0  0  0  0  0  0  0  0  0  0  0  0
    5.1273    7.8529   23.6208 N   0  0  0  0  0  0  0  0  0  0  0  0
    9.7552    9.2338   23.0171 N   0  0  0  0  0  0  0  0  0  0  0  0
   11.1797    6.7591   21.3326 N   0  0  0  0  0  0  0  0  0  0  0  0
   11.7728    8.0337   23.7267 C   0  0  0  0  0  0  0  0  0  0  0  0
    7.1194    8.3344   24.6775 C   0  0  0  0  0  0  0  0  0  0  0  0
    8.4311    4.7963   22.0500 C   0  0  0  0  0  0  0  0  0  0  0  0
    8.7393   10.8706   24.1871 O   0  0  0  0  0  0  0  0  0  0  0  0
    9.3093    3.8166   21.6712 C   0  0  0  0  0  0  0  0  0  0  0  0
  1  5  1  0
  1 15  4  0
  1 22  4  0
  2 20  1  0
  2 24  1  0
  3  6  4  0
  3 27  4  0
  4 22  4  0
  4 26  4  0
  6  7  4  0
  6 13  1  0
  7 19  4  0
  8 18  1  0
  8 23  1  0
  8 28  2  0
  9 17  1  0
  9 24  1  0
 10 11  1  0
 10 24  1  0
 11 23  1  0
 12 14  4  0
 12 16  4  0
 14 19  4  0
 15 18  4  0
 16 20  4  0
 17 25  1  0
 18 26  4  0
 19 29  4  0
 20 29  4  0
 21 23  1  0
 21 25  1  0
 27 29  4  0
M  END
$$$$

 Created by Python create_sdf_string function

 29 32  0  0  0  0  0  0  0  0999 V2000
    5.4450    8.7154   22.6662 C   0  0  0  0  0  0  0  0  0  0  0  0
   10.9154    5.4574   20.5483 C   0  0  0  0  0  0  0  0  0  0  0  0
    7.2709    4.5089   22.7542 C   0  0  0  0  0  0  0  0  0  0  0  0
    5.9698    7.6329   24.6581 C   0  0  0  0  0  0  0  0  0  0  0  0
    4.5542    8.9057   21.7104 O   0  0  0  0  0  0  0  0  0  0  0  0
    6.9895    3.2085   23.0690 C   0  0  0  0  0  0  0  0  0  0  0  0
    7.8391    2.2253   22.7260 N   0  0  0  0  0  0  0  0  0  0  0  0
    8.6968    9.8373   23.6359 C   0  0  0  0  0  0  0  0  0  0  0  0
   12.5135    6.5957   21.8396 C   0  0  0  0  0  0  0  0  0  0  0  0
   10.9406    8.2330   21.1350 C   0  0  0  0  0  0  0  0  0  0  0  0
    9.6648    8.5956   21.7310 C   0  0  0  0  0  0  0  0  0  0  0  0
   10.8829    1.7153   20.9865 C   0  0  0  0  0  0  0  0  0  0  0  0
    5.7768    2.8533   23.7910 C   0  0  0  0  0  0  0  0  0  0  0  0
    9.7977    1.4791   21.6912 N   0  0  0  0  0  0  0  0  0  0  0  0
    6.5976    9.3401   22.6478 N   0  0  0  0  0  0  0  0  0  0  0  0
   11.2031    3.0042   20.6246 C   0  0  0  0  0  0  0  0  0  0  0  0
   12.8688    7.7370   22.7287 C   0  0  0  0  0  0  0  0  0  0  0  0
    7.4487    9.1361   23.6506 C   0  0  0  0  0  0  0  0  0  0  0  0
    8.9772    2.5025   22.0273 C   0  0  0  0  0  0  0  0  0  0  0  0
   10.4859    4.0901   20.9730 C   0  0  0  0  0  0  0  0  0  0  0  0
   11.0962    9.3293   23.5072 C   0  0  0  0  0  0  0  0  0  0  0  0
    5.1273    7.8529   23.6208 N   0  0  0  0  0  0  0  0  0  0  0  0
    9.7552    9.2338   23.0171 N   0  0  0  0  0  0  0  0  0  0  0  0
   11.1797    6.7591   21.3326 N   0  0  0  0  0  0  0  0  0  0  0  0
   11.7728    8.0337   23.7267 C   0  0  0  0  0  0  0  0  0  0  0  0
    7.1194    8.3344   24.6775 C   0  0  0  0  0  0  0  0  0  0  0  0
    8.4311    4.7963   22.0500 C   0  0  0  0  0  0  0  0  0  0  0  0
    8.7393   10.8706   24.1871 O   0  0  0  0  0  0  0  0  0  0  0  0
    9.3093    3.8166   21.6712 C   0  0  0  0  0  0  0  0  0  0  0  0
  1  5  1  0
  1 15  4  0
  1 22  4  0
  2 20  1  0
  2 24  1  0
  3  6  4  0
  3 27  4  0
  4 22  4  0
  4 26  4  0
  6  7  4  0
  6 13  1  0
  7 19  4  0
  8 18  1  0
  8 23  1  0
  8 28  2  0
  9 17  1  0
  9 24  1  0
 10 11  1  0
 10 24  1  0
 11 23  1  0
 12 14  4  0
 12 16  4  0
 14 19  4  0
 15 18  4  0
 16 20  4  0
 17 25  1  0
 18 26  4  0
 19 29  4  0
 20 29  4  0
 21 23  1  0
 21 25  1  0
 27 29  4  0
M  END
$$$$

 Created by Python create_sdf_string function

 29 32  0  0  0  0  0  0  0  0999 V2000
    5.4450    8.7154   22.6662 C   0  0  0  0  0  0  0  0  0  0  0  0
   10.9154    5.4574   20.5483 C   0  0  0  0  0  0  0  0  0  0  0  0
    7.2709    4.5089   22.7542 C   0  0  0  0  0  0  0  0  0  0  0  0
    5.9698    7.6329   24.6581 C   0  0  0  0  0  0  0  0  0  0  0  0
    4.5542    8.9057   21.7104 O   0  0  0  0  0  0  0  0  0  0  0  0
    6.9895    3.2085   23.0690 C   0  0  0  0  0  0  0  0  0  0  0  0
    7.8391    2.2253   22.7260 N   0  0  0  0  0  0  0  0  0  0  0  0
    8.6968    9.8373   23.6359 C   0  0  0  0  0  0  0  0  0  0  0  0
   12.5135    6.5957   21.8396 C   0  0  0  0  0  0  0  0  0  0  0  0
   10.9406    8.2330   21.1350 C   0  0  0  0  0  0  0  0  0  0  0  0
    9.6648    8.5956   21.7310 C   0  0  0  0  0  0  0  0  0  0  0  0
   10.8829    1.7153   20.9865 C   0  0  0  0  0  0  0  0  0  0  0  0
    5.7768    2.8533   23.7910 C   0  0  0  0  0  0  0  0  0  0  0  0
    9.7977    1.4791   21.6912 N   0  0  0  0  0  0  0  0  0  0  0  0
    6.5976    9.3401   22.6478 N   0  0  0  0  0  0  0  0  0  0  0  0
   11.2031    3.0042   20.6246 C   0  0  0  0  0  0  0  0  0  0  0  0
   12.8688    7.7370   22.7287 C   0  0  0  0  0  0  0  0  0  0  0  0
    7.4487    9.1361   23.6506 C   0  0  0  0  0  0  0  0  0  0  0  0
    8.9772    2.5025   22.0273 C   0  0  0  0  0  0  0  0  0  0  0  0
   10.4859    4.0901   20.9730 C   0  0  0  0  0  0  0  0  0  0  0  0
   11.0962    9.3293   23.5072 C   0  0  0  0  0  0  0  0  0  0  0  0
    5.1273    7.8529   23.6208 N   0  0  0  0  0  0  0  0  0  0  0  0
    9.7552    9.2338   23.0171 N   0  0  0  0  0  0  0  0  0  0  0  0
   11.1797    6.7591   21.3326 N   0  0  0  0  0  0  0  0  0  0  0  0
   11.7728    8.0337   23.7267 C   0  0  0  0  0  0  0  0  0  0  0  0
    7.1194    8.3344   24.6775 C   0  0  0  0  0  0  0  0  0  0  0  0
    8.4311    4.7963   22.0500 C   0  0  0  0  0  0  0  0  0  0  0  0
    8.7393   10.8706   24.1871 O   0  0  0  0  0  0  0  0  0  0  0  0
    9.3093    3.8166   21.6712 C   0  0  0  0  0  0  0  0  0  0  0  0
  1  5  1  0
  1 15  4  0
  1 22  4  0
  2 20  1  0
  2 24  1  0
  3  6  4  0
  3 27  4  0
  4 22  4  0
  4 26  4  0
  6  7  4  0
  6 13  1  0
  7 19  4  0
  8 18  1  0
  8 23  1  0
  8 28  2  0
  9 17  1  0
  9 24  1  0
 10 11  1  0
 10 24  1  0
 11 23  1  0
 12 14  4  0
 12 16  4  0
 14 19  4  0
 15 18  4  0
 16 20  4  0
 17 25  1  0
 18 26  4  0
 19 29  4  0
 20 29  4  0
 21 23  1  0
 21 25  1  0
 27 29  4  0
M  END
$$$$

 Created by Python create_sdf_string function

 29 32  0  0  0  0  0  0  0  0999 V2000
    5.4450    8.7154   22.6662 C   0  0  0  0  0  0  0  0  0  0  0  0
   10.9154    5.4574   20.5483 C   0  0  0  0  0  0  0  0  0  0  0  0
    7.2709    4.5089   22.7542 C   0  0  0  0  0  0  0  0  0  0  0  0
    5.9698    7.6329   24.6581 C   0  0  0  0  0  0  0  0  0  0  0  0
    4.5542    8.9057   21.7104 O   0  0  0  0  0  0  0  0  0  0  0  0
    6.9895    3.2085   23.0690 C   0  0  0  0  0  0  0  0  0  0  0  0
    7.8391    2.2253   22.7260 N   0  0  0  0  0  0  0  0  0  0  0  0
    8.6968    9.8373   23.6359 C   0  0  0  0  0  0  0  0  0  0  0  0
   12.5135    6.5957   21.8396 C   0  0  0  0  0  0  0  0  0  0  0  0
   10.9406    8.2330   21.1350 C   0  0  0  0  0  0  0  0  0  0  0  0
    9.6648    8.5956   21.7310 C   0  0  0  0  0  0  0  0  0  0  0  0
   10.8829    1.7153   20.9865 C   0  0  0  0  0  0  0  0  0  0  0  0
    5.7768    2.8533   23.7910 C   0  0  0  0  0  0  0  0  0  0  0  0
    9.7977    1.4791   21.6912 N   0  0  0  0  0  0  0  0  0  0  0  0
    6.5976    9.3401   22.6478 N   0  0  0  0  0  0  0  0  0  0  0  0
   11.2031    3.0042   20.6246 C   0  0  0  0  0  0  0  0  0  0  0  0
   12.8688    7.7370   22.7287 C   0  0  0  0  0  0  0  0  0  0  0  0
    7.4487    9.1361   23.6506 C   0  0  0  0  0  0  0  0  0  0  0  0
    8.9772    2.5025   22.0273 C   0  0  0  0  0  0  0  0  0  0  0  0
   10.4859    4.0901   20.9730 C   0  0  0  0  0  0  0  0  0  0  0  0
   11.0962    9.3293   23.5072 C   0  0  0  0  0  0  0  0  0  0  0  0
    5.1273    7.8529   23.6208 N   0  0  0  0  0  0  0  0  0  0  0  0
    9.7552    9.2338   23.0171 N   0  0  0  0  0  0  0  0  0  0  0  0
   11.1797    6.7591   21.3326 N   0  0  0  0  0  0  0  0  0  0  0  0
   11.7728    8.0337   23.7267 C   0  0  0  0  0  0  0  0  0  0  0  0
    7.1194    8.3344   24.6775 C   0  0  0  0  0  0  0  0  0  0  0  0
    8.4311    4.7963   22.0500 C   0  0  0  0  0  0  0  0  0  0  0  0
    8.7393   10.8706   24.1871 O   0  0  0  0  0  0  0  0  0  0  0  0
    9.3093    3.8166   21.6712 C   0  0  0  0  0  0  0  0  0  0  0  0
  1  5  1  0
  1 15  4  0
  1 22  4  0
  2 20  1  0
  2 24  1  0
  3  6  4  0
  3 27  4  0
  4 22  4  0
  4 26  4  0
  6  7  4  0
  6 13  1  0
  7 19  4  0
  8 18  1  0
  8 23  1  0
  8 28  2  0
  9 17  1  0
  9 24  1  0
 10 11  1  0
 10 24  1  0
 11 23  1  0
 12 14  4  0
 12 16  4  0
 14 19  4  0
 15 18  4  0
 16 20  4  0
 17 25  1  0
 18 26  4  0
 19 29  4  0
 20 29  4  0
 21 23  1  0
 21 25  1  0
 27 29  4  0
M  END
$$$$

 Created by Python create_sdf_string function

 29 32  0  0  0  0  0  0  0  0999 V2000
    5.4450    8.7154   22.6662 C   0  0  0  0  0  0  0  0  0  0  0  0
   10.9154    5.4574   20.5483 C   0  0  0  0  0  0  0  0  0  0  0  0
    7.2709    4.5089   22.7542 C   0  0  0  0  0  0  0  0  0  0  0  0
    5.9698    7.6329   24.6581 C   0  0  0  0  0  0  0  0  0  0  0  0
    4.5542    8.9057   21.7104 O   0  0  0  0  0  0  0  0  0  0  0  0
    6.9895    3.2085   23.0690 C   0  0  0  0  0  0  0  0  0  0  0  0
    7.8391    2.2253   22.7260 N   0  0  0  0  0  0  0  0  0  0  0  0
    8.6968    9.8373   23.6359 C   0  0  0  0  0  0  0  0  0  0  0  0
   12.5135    6.5957   21.8396 C   0  0  0  0  0  0  0  0  0  0  0  0
   10.9406    8.2330   21.1350 C   0  0  0  0  0  0  0  0  0  0  0  0
    9.6648    8.5956   21.7310 C   0  0  0  0  0  0  0  0  0  0  0  0
   10.8829    1.7153   20.9865 C   0  0  0  0  0  0  0  0  0  0  0  0
    5.7768    2.8533   23.7910 C   0  0  0  0  0  0  0  0  0  0  0  0
    9.7977    1.4791   21.6912 N   0  0  0  0  0  0  0  0  0  0  0  0
    6.5976    9.3401   22.6478 N   0  0  0  0  0  0  0  0  0  0  0  0
   11.2031    3.0042   20.6246 C   0  0  0  0  0  0  0  0  0  0  0  0
   12.8688    7.7370   22.7287 C   0  0  0  0  0  0  0  0  0  0  0  0
    7.4487    9.1361   23.6506 C   0  0  0  0  0  0  0  0  0  0  0  0
    8.9772    2.5025   22.0273 C   0  0  0  0  0  0  0  0  0  0  0  0
   10.4859    4.0901   20.9730 C   0  0  0  0  0  0  0  0  0  0  0  0
   11.0962    9.3293   23.5072 C   0  0  0  0  0  0  0  0  0  0  0  0
    5.1273    7.8529   23.6208 N   0  0  0  0  0  0  0  0  0  0  0  0
    9.7552    9.2338   23.0171 N   0  0  0  0  0  0  0  0  0  0  0  0
   11.1797    6.7591   21.3326 N   0  0  0  0  0  0  0  0  0  0  0  0
   11.7728    8.0337   23.7267 C   0  0  0  0  0  0  0  0  0  0  0  0
    7.1194    8.3344   24.6775 C   0  0  0  0  0  0  0  0  0  0  0  0
    8.4311    4.7963   22.0500 C   0  0  0  0  0  0  0  0  0  0  0  0
    8.7393   10.8706   24.1871 O   0  0  0  0  0  0  0  0  0  0  0  0
    9.3093    3.8166   21.6712 C   0  0  0  0  0  0  0  0  0  0  0  0
  1  5  1  0
  1 15  4  0
  1 22  4  0
  2 20  1  0
  2 24  1  0
  3  6  4  0
  3 27  4  0
  4 22  4  0
  4 26  4  0
  6  7  4  0
  6 13  1  0
  7 19  4  0
  8 18  1  0
  8 23  1  0
  8 28  2  0
  9 17  1  0
  9 24  1  0
 10 11  1  0
 10 24  1  0
 11 23  1  0
 12 14  4  0
 12 16  4  0
 14 19  4  0
 15 18  4  0
 16 20  4  0
 17 25  1  0
 18 26  4  0
 19 29  4  0
 20 29  4  0
 21 23  1  0
 21 25  1  0
 27 29  4  0
M  END
$$$$

 Created by Python create_sdf_string function

 29 32  0  0  0  0  0  0  0  0999 V2000
    5.4450    8.7154   22.6662 C   0  0  0  0  0  0  0  0  0  0  0  0
   10.9154    5.4574   20.5483 C   0  0  0  0  0  0  0  0  0  0  0  0
    7.2709    4.5089   22.7542 C   0  0  0  0  0  0  0  0  0  0  0  0
    5.9698    7.6329   24.6581 C   0  0  0  0  0  0  0  0  0  0  0  0
    4.5542    8.9057   21.7104 O   0  0  0  0  0  0  0  0  0  0  0  0
    6.9895    3.2085   23.0690 C   0  0  0  0  0  0  0  0  0  0  0  0
    7.8391    2.2253   22.7260 N   0  0  0  0  0  0  0  0  0  0  0  0
    8.6968    9.8373   23.6359 C   0  0  0  0  0  0  0  0  0  0  0  0
   12.5135    6.5957   21.8396 C   0  0  0  0  0  0  0  0  0  0  0  0
   10.9406    8.2330   21.1350 C   0  0  0  0  0  0  0  0  0  0  0  0
    9.6648    8.5956   21.7310 C   0  0  0  0  0  0  0  0  0  0  0  0
   10.8829    1.7153   20.9865 C   0  0  0  0  0  0  0  0  0  0  0  0
    5.7768    2.8533   23.7910 C   0  0  0  0  0  0  0  0  0  0  0  0
    9.7977    1.4791   21.6912 N   0  0  0  0  0  0  0  0  0  0  0  0
    6.5976    9.3401   22.6478 N   0  0  0  0  0  0  0  0  0  0  0  0
   11.2031    3.0042   20.6246 C   0  0  0  0  0  0  0  0  0  0  0  0
   12.8688    7.7370   22.7287 C   0  0  0  0  0  0  0  0  0  0  0  0
    7.4487    9.1361   23.6506 C   0  0  0  0  0  0  0  0  0  0  0  0
    8.9772    2.5025   22.0273 C   0  0  0  0  0  0  0  0  0  0  0  0
   10.4859    4.0901   20.9730 C   0  0  0  0  0  0  0  0  0  0  0  0
   11.0962    9.3293   23.5072 C   0  0  0  0  0  0  0  0  0  0  0  0
    5.1273    7.8529   23.6208 N   0  0  0  0  0  0  0  0  0  0  0  0
    9.7552    9.2338   23.0171 N   0  0  0  0  0  0  0  0  0  0  0  0
   11.1797    6.7591   21.3326 N   0  0  0  0  0  0  0  0  0  0  0  0
   11.7728    8.0337   23.7267 C   0  0  0  0  0  0  0  0  0  0  0  0
    7.1194    8.3344   24.6775 C   0  0  0  0  0  0  0  0  0  0  0  0
    8.4311    4.7963   22.0500 C   0  0  0  0  0  0  0  0  0  0  0  0
    8.7393   10.8706   24.1871 O   0  0  0  0  0  0  0  0  0  0  0  0
    9.3093    3.8166   21.6712 C   0  0  0  0  0  0  0  0  0  0  0  0
  1  5  1  0
  1 15  4  0
  1 22  4  0
  2 20  1  0
  2 24  1  0
  3  6  4  0
  3 27  4  0
  4 22  4  0
  4 26  4  0
  6  7  4  0
  6 13  1  0
  7 19  4  0
  8 18  1  0
  8 23  1  0
  8 28  2  0
  9 17  1  0
  9 24  1  0
 10 11  1  0
 10 24  1  0
 11 23  1  0
 12 14  4  0
 12 16  4  0
 14 19  4  0
 15 18  4  0
 16 20  4  0
 17 25  1  0
 18 26  4  0
 19 29  4  0
 20 29  4  0
 21 23  1  0
 21 25  1  0
 27 29  4  0
M  END
$$$$

 Created by Python create_sdf_string function

 29 32  0  0  0  0  0  0  0  0999 V2000
    5.4450    8.7154   22.6662 C   0  0  0  0  0  0  0  0  0  0  0  0
   10.9154    5.4574   20.5483 C   0  0  0  0  0  0  0  0  0  0  0  0
    7.2709    4.5089   22.7542 C   0  0  0  0  0  0  0  0  0  0  0  0
    5.9698    7.6329   24.6581 C   0  0  0  0  0  0  0  0  0  0  0  0
    4.5542    8.9057   21.7104 O   0  0  0  0  0  0  0  0  0  0  0  0
    6.9895    3.2085   23.0690 C   0  0  0  0  0  0  0  0  0  0  0  0
    7.8391    2.2253   22.7260 N   0  0  0  0  0  0  0  0  0  0  0  0
    8.6968    9.8373   23.6359 C   0  0  0  0  0  0  0  0  0  0  0  0
   12.5135    6.5957   21.8396 C   0  0  0  0  0  0  0  0  0  0  0  0
   10.9406    8.2330   21.1350 C   0  0  0  0  0  0  0  0  0  0  0  0
    9.6648    8.5956   21.7310 C   0  0  0  0  0  0  0  0  0  0  0  0
   10.8829    1.7153   20.9865 C   0  0  0  0  0  0  0  0  0  0  0  0
    5.7768    2.8533   23.7910 C   0  0  0  0  0  0  0  0  0  0  0  0
    9.7977    1.4791   21.6912 N   0  0  0  0  0  0  0  0  0  0  0  0
    6.5976    9.3401   22.6478 N   0  0  0  0  0  0  0  0  0  0  0  0
   11.2031    3.0042   20.6246 C   0  0  0  0  0  0  0  0  0  0  0  0
   12.8688    7.7370   22.7287 C   0  0  0  0  0  0  0  0  0  0  0  0
    7.4487    9.1361   23.6506 C   0  0  0  0  0  0  0  0  0  0  0  0
    8.9772    2.5025   22.0273 C   0  0  0  0  0  0  0  0  0  0  0  0
   10.4859    4.0901   20.9730 C   0  0  0  0  0  0  0  0  0  0  0  0
   11.0962    9.3293   23.5072 C   0  0  0  0  0  0  0  0  0  0  0  0
    5.1273    7.8529   23.6208 N   0  0  0  0  0  0  0  0  0  0  0  0
    9.7552    9.2338   23.0171 N   0  0  0  0  0  0  0  0  0  0  0  0
   11.1797    6.7591   21.3326 N   0  0  0  0  0  0  0  0  0  0  0  0
   11.7728    8.0337   23.7267 C   0  0  0  0  0  0  0  0  0  0  0  0
    7.1194    8.3344   24.6775 C   0  0  0  0  0  0  0  0  0  0  0  0
    8.4311    4.7963   22.0500 C   0  0  0  0  0  0  0  0  0  0  0  0
    8.7393   10.8706   24.1871 O   0  0  0  0  0  0  0  0  0  0  0  0
    9.3093    3.8166   21.6712 C   0  0  0  0  0  0  0  0  0  0  0  0
  1  5  1  0
  1 15  4  0
  1 22  4  0
  2 20  1  0
  2 24  1  0
  3  6  4  0
  3 27  4  0
  4 22  4  0
  4 26  4  0
  6  7  4  0
  6 13  1  0
  7 19  4  0
  8 18  1  0
  8 23  1  0
  8 28  2  0
  9 17  1  0
  9 24  1  0
 10 11  1  0
 10 24  1  0
 11 23  1  0
 12 14  4  0
 12 16  4  0
 14 19  4  0
 15 18  4  0
 16 20  4  0
 17 25  1  0
 18 26  4  0
 19 29  4  0
 20 29  4  0
 21 23  1  0
 21 25  1  0
 27 29  4  0
M  END
$$$$

 Created by Python create_sdf_string function

 29 32  0  0  0  0  0  0  0  0999 V2000
    5.4450    8.7154   22.6662 C   0  0  0  0  0  0  0  0  0  0  0  0
   10.9154    5.4574   20.5483 C   0  0  0  0  0  0  0  0  0  0  0  0
    7.2709    4.5089   22.7542 C   0  0  0  0  0  0  0  0  0  0  0  0
    5.9698    7.6329   24.6581 C   0  0  0  0  0  0  0  0  0  0  0  0
    4.5542    8.9057   21.7104 O   0  0  0  0  0  0  0  0  0  0  0  0
    6.9895    3.2085   23.0690 C   0  0  0  0  0  0  0  0  0  0  0  0
    7.8391    2.2253   22.7260 N   0  0  0  0  0  0  0  0  0  0  0  0
    8.6968    9.8373   23.6359 C   0  0  0  0  0  0  0  0  0  0  0  0
   12.5135    6.5957   21.8396 C   0  0  0  0  0  0  0  0  0  0  0  0
   10.9406    8.2330   21.1350 C   0  0  0  0  0  0  0  0  0  0  0  0
    9.6648    8.5956   21.7310 C   0  0  0  0  0  0  0  0  0  0  0  0
   10.8829    1.7153   20.9865 C   0  0  0  0  0  0  0  0  0  0  0  0
    5.7768    2.8533   23.7910 C   0  0  0  0  0  0  0  0  0  0  0  0
    9.7977    1.4791   21.6912 N   0  0  0  0  0  0  0  0  0  0  0  0
    6.5976    9.3401   22.6478 N   0  0  0  0  0  0  0  0  0  0  0  0
   11.2031    3.0042   20.6246 C   0  0  0  0  0  0  0  0  0  0  0  0
   12.8688    7.7370   22.7287 C   0  0  0  0  0  0  0  0  0  0  0  0
    7.4487    9.1361   23.6506 C   0  0  0  0  0  0  0  0  0  0  0  0
    8.9772    2.5025   22.0273 C   0  0  0  0  0  0  0  0  0  0  0  0
   10.4859    4.0901   20.9730 C   0  0  0  0  0  0  0  0  0  0  0  0
   11.0962    9.3293   23.5072 C   0  0  0  0  0  0  0  0  0  0  0  0
    5.1273    7.8529   23.6208 N   0  0  0  0  0  0  0  0  0  0  0  0
    9.7552    9.2338   23.0171 N   0  0  0  0  0  0  0  0  0  0  0  0
   11.1797    6.7591   21.3326 N   0  0  0  0  0  0  0  0  0  0  0  0
   11.7728    8.0337   23.7267 C   0  0  0  0  0  0  0  0  0  0  0  0
    7.1194    8.3344   24.6775 C   0  0  0  0  0  0  0  0  0  0  0  0
    8.4311    4.7963   22.0500 C   0  0  0  0  0  0  0  0  0  0  0  0
    8.7393   10.8706   24.1871 O   0  0  0  0  0  0  0  0  0  0  0  0
    9.3093    3.8166   21.6712 C   0  0  0  0  0  0  0  0  0  0  0  0
  1  5  1  0
  1 15  4  0
  1 22  4  0
  2 20  1  0
  2 24  1  0
  3  6  4  0
  3 27  4  0
  4 22  4  0
  4 26  4  0
  6  7  4  0
  6 13  1  0
  7 19  4  0
  8 18  1  0
  8 23  1  0
  8 28  2  0
  9 17  1  0
  9 24  1  0
 10 11  1  0
 10 24  1  0
 11 23  1  0
 12 14  4  0
 12 16  4  0
 14 19  4  0
 15 18  4  0
 16 20  4  0
 17 25  1  0
 18 26  4  0
 19 29  4  0
 20 29  4  0
 21 23  1  0
 21 25  1  0
 27 29  4  0
M  END
$$$$

 Created by Python create_sdf_string function

 29 32  0  0  0  0  0  0  0  0999 V2000
    5.4450    8.7154   22.6662 C   0  0  0  0  0  0  0  0  0  0  0  0
   10.9154    5.4574   20.5483 C   0  0  0  0  0  0  0  0  0  0  0  0
    7.2709    4.5089   22.7542 C   0  0  0  0  0  0  0  0  0  0  0  0
    5.9698    7.6329   24.6581 C   0  0  0  0  0  0  0  0  0  0  0  0
    4.5542    8.9057   21.7104 O   0  0  0  0  0  0  0  0  0  0  0  0
    6.9895    3.2085   23.0690 C   0  0  0  0  0  0  0  0  0  0  0  0
    7.8391    2.2253   22.7260 N   0  0  0  0  0  0  0  0  0  0  0  0
    8.6968    9.8373   23.6359 C   0  0  0  0  0  0  0  0  0  0  0  0
   12.5135    6.5957   21.8396 C   0  0  0  0  0  0  0  0  0  0  0  0
   10.9406    8.2330   21.1350 C   0  0  0  0  0  0  0  0  0  0  0  0
    9.6648    8.5956   21.7310 C   0  0  0  0  0  0  0  0  0  0  0  0
   10.8829    1.7153   20.9865 C   0  0  0  0  0  0  0  0  0  0  0  0
    5.7768    2.8533   23.7910 C   0  0  0  0  0  0  0  0  0  0  0  0
    9.7977    1.4791   21.6912 N   0  0  0  0  0  0  0  0  0  0  0  0
    6.5976    9.3401   22.6478 N   0  0  0  0  0  0  0  0  0  0  0  0
   11.2031    3.0042   20.6246 C   0  0  0  0  0  0  0  0  0  0  0  0
   12.8688    7.7370   22.7287 C   0  0  0  0  0  0  0  0  0  0  0  0
    7.4487    9.1361   23.6506 C   0  0  0  0  0  0  0  0  0  0  0  0
    8.9772    2.5025   22.0273 C   0  0  0  0  0  0  0  0  0  0  0  0
   10.4859    4.0901   20.9730 C   0  0  0  0  0  0  0  0  0  0  0  0
   11.0962    9.3293   23.5072 C   0  0  0  0  0  0  0  0  0  0  0  0
    5.1273    7.8529   23.6208 N   0  0  0  0  0  0  0  0  0  0  0  0
    9.7552    9.2338   23.0171 N   0  0  0  0  0  0  0  0  0  0  0  0
   11.1797    6.7591   21.3326 N   0  0  0  0  0  0  0  0  0  0  0  0
   11.7728    8.0337   23.7267 C   0  0  0  0  0  0  0  0  0  0  0  0
    7.1194    8.3344   24.6775 C   0  0  0  0  0  0  0  0  0  0  0  0
    8.4311    4.7963   22.0500 C   0  0  0  0  0  0  0  0  0  0  0  0
    8.7393   10.8706   24.1871 O   0  0  0  0  0  0  0  0  0  0  0  0
    9.3093    3.8166   21.6712 C   0  0  0  0  0  0  0  0  0  0  0  0
  1  5  1  0
  1 15  4  0
  1 22  4  0
  2 20  1  0
  2 24  1  0
  3  6  4  0
  3 27  4  0
  4 22  4  0
  4 26  4  0
  6  7  4  0
  6 13  1  0
  7 19  4  0
  8 18  1  0
  8 23  1  0
  8 28  2  0
  9 17  1  0
  9 24  1  0
 10 11  1  0
 10 24  1  0
 11 23  1  0
 12 14  4  0
 12 16  4  0
 14 19  4  0
 15 18  4  0
 16 20  4  0
 17 25  1  0
 18 26  4  0
 19 29  4  0
 20 29  4  0
 21 23  1  0
 21 25  1  0
 27 29  4  0
M  END
$$$$

 Created by Python create_sdf_string function

 29 32  0  0  0  0  0  0  0  0999 V2000
    5.4450    8.7154   22.6662 C   0  0  0  0  0  0  0  0  0  0  0  0
   10.9154    5.4574   20.5483 C   0  0  0  0  0  0  0  0  0  0  0  0
    7.2709    4.5089   22.7542 C   0  0  0  0  0  0  0  0  0  0  0  0
    5.9698    7.6329   24.6581 C   0  0  0  0  0  0  0  0  0  0  0  0
    4.5542    8.9057   21.7104 O   0  0  0  0  0  0  0  0  0  0  0  0
    6.9895    3.2085   23.0690 C   0  0  0  0  0  0  0  0  0  0  0  0
    7.8391    2.2253   22.7260 N   0  0  0  0  0  0  0  0  0  0  0  0
    8.6968    9.8373   23.6359 C   0  0  0  0  0  0  0  0  0  0  0  0
   12.5135    6.5957   21.8396 C   0  0  0  0  0  0  0  0  0  0  0  0
   10.9406    8.2330   21.1350 C   0  0  0  0  0  0  0  0  0  0  0  0
    9.6648    8.5956   21.7310 C   0  0  0  0  0  0  0  0  0  0  0  0
   10.8829    1.7153   20.9865 C   0  0  0  0  0  0  0  0  0  0  0  0
    5.7768    2.8533   23.7910 C   0  0  0  0  0  0  0  0  0  0  0  0
    9.7977    1.4791   21.6912 N   0  0  0  0  0  0  0  0  0  0  0  0
    6.5976    9.3401   22.6478 N   0  0  0  0  0  0  0  0  0  0  0  0
   11.2031    3.0042   20.6246 C   0  0  0  0  0  0  0  0  0  0  0  0
   12.8688    7.7370   22.7287 C   0  0  0  0  0  0  0  0  0  0  0  0
    7.4487    9.1361   23.6506 C   0  0  0  0  0  0  0  0  0  0  0  0
    8.9772    2.5025   22.0273 C   0  0  0  0  0  0  0  0  0  0  0  0
   10.4859    4.0901   20.9730 C   0  0  0  0  0  0  0  0  0  0  0  0
   11.0962    9.3293   23.5072 C   0  0  0  0  0  0  0  0  0  0  0  0
    5.1273    7.8529   23.6208 N   0  0  0  0  0  0  0  0  0  0  0  0
    9.7552    9.2338   23.0171 N   0  0  0  0  0  0  0  0  0  0  0  0
   11.1797    6.7591   21.3326 N   0  0  0  0  0  0  0  0  0  0  0  0
   11.7728    8.0337   23.7267 C   0  0  0  0  0  0  0  0  0  0  0  0
    7.1194    8.3344   24.6775 C   0  0  0  0  0  0  0  0  0  0  0  0
    8.4311    4.7963   22.0500 C   0  0  0  0  0  0  0  0  0  0  0  0
    8.7393   10.8706   24.1871 O   0  0  0  0  0  0  0  0  0  0  0  0
    9.3093    3.8166   21.6712 C   0  0  0  0  0  0  0  0  0  0  0  0
  1  5  1  0
  1 15  4  0
  1 22  4  0
  2 20  1  0
  2 24  1  0
  3  6  4  0
  3 27  4  0
  4 22  4  0
  4 26  4  0
  6  7  4  0
  6 13  1  0
  7 19  4  0
  8 18  1  0
  8 23  1  0
  8 28  2  0
  9 17  1  0
  9 24  1  0
 10 11  1  0
 10 24  1  0
 11 23  1  0
 12 14  4  0
 12 16  4  0
 14 19  4  0
 15 18  4  0
 16 20  4  0
 17 25  1  0
 18 26  4  0
 19 29  4  0
 20 29  4  0
 21 23  1  0
 21 25  1  0
 27 29  4  0
M  END
$$$$

 Created by Python create_sdf_string function

 29 32  0  0  0  0  0  0  0  0999 V2000
    5.4450    8.7154   22.6662 C   0  0  0  0  0  0  0  0  0  0  0  0
   10.9154    5.4574   20.5483 C   0  0  0  0  0  0  0  0  0  0  0  0
    7.2709    4.5089   22.7542 C   0  0  0  0  0  0  0  0  0  0  0  0
    5.9698    7.6329   24.6581 C   0  0  0  0  0  0  0  0  0  0  0  0
    4.5542    8.9057   21.7104 O   0  0  0  0  0  0  0  0  0  0  0  0
    6.9895    3.2085   23.0690 C   0  0  0  0  0  0  0  0  0  0  0  0
    7.8391    2.2253   22.7260 N   0  0  0  0  0  0  0  0  0  0  0  0
    8.6968    9.8373   23.6359 C   0  0  0  0  0  0  0  0  0  0  0  0
   12.5135    6.5957   21.8396 C   0  0  0  0  0  0  0  0  0  0  0  0
   10.9406    8.2330   21.1350 C   0  0  0  0  0  0  0  0  0  0  0  0
    9.6648    8.5956   21.7310 C   0  0  0  0  0  0  0  0  0  0  0  0
   10.8829    1.7153   20.9865 C   0  0  0  0  0  0  0  0  0  0  0  0
    5.7768    2.8533   23.7910 C   0  0  0  0  0  0  0  0  0  0  0  0
    9.7977    1.4791   21.6912 N   0  0  0  0  0  0  0  0  0  0  0  0
    6.5976    9.3401   22.6478 N   0  0  0  0  0  0  0  0  0  0  0  0
   11.2031    3.0042   20.6246 C   0  0  0  0  0  0  0  0  0  0  0  0
   12.8688    7.7370   22.7287 C   0  0  0  0  0  0  0  0  0  0  0  0
    7.4487    9.1361   23.6506 C   0  0  0  0  0  0  0  0  0  0  0  0
    8.9772    2.5025   22.0273 C   0  0  0  0  0  0  0  0  0  0  0  0
   10.4859    4.0901   20.9730 C   0  0  0  0  0  0  0  0  0  0  0  0
   11.0962    9.3293   23.5072 C   0  0  0  0  0  0  0  0  0  0  0  0
    5.1273    7.8529   23.6208 N   0  0  0  0  0  0  0  0  0  0  0  0
    9.7552    9.2338   23.0171 N   0  0  0  0  0  0  0  0  0  0  0  0
   11.1797    6.7591   21.3326 N   0  0  0  0  0  0  0  0  0  0  0  0
   11.7728    8.0337   23.7267 C   0  0  0  0  0  0  0  0  0  0  0  0
    7.1194    8.3344   24.6775 C   0  0  0  0  0  0  0  0  0  0  0  0
    8.4311    4.7963   22.0500 C   0  0  0  0  0  0  0  0  0  0  0  0
    8.7393   10.8706   24.1871 O   0  0  0  0  0  0  0  0  0  0  0  0
    9.3093    3.8166   21.6712 C   0  0  0  0  0  0  0  0  0  0  0  0
  1  5  1  0
  1 15  4  0
  1 22  4  0
  2 20  1  0
  2 24  1  0
  3  6  4  0
  3 27  4  0
  4 22  4  0
  4 26  4  0
  6  7  4  0
  6 13  1  0
  7 19  4  0
  8 18  1  0
  8 23  1  0
  8 28  2  0
  9 17  1  0
  9 24  1  0
 10 11  1  0
 10 24  1  0
 11 23  1  0
 12 14  4  0
 12 16  4  0
 14 19  4  0
 15 18  4  0
 16 20  4  0
 17 25  1  0
 18 26  4  0
 19 29  4  0
 20 29  4  0
 21 23  1  0
 21 25  1  0
 27 29  4  0
M  END
$$$$

 Created by Python create_sdf_string function

 29 32  0  0  0  0  0  0  0  0999 V2000
    5.4450    8.7154   22.6662 C   0  0  0  0  0  0  0  0  0  0  0  0
   10.9154    5.4574   20.5483 C   0  0  0  0  0  0  0  0  0  0  0  0
    7.2709    4.5089   22.7542 C   0  0  0  0  0  0  0  0  0  0  0  0
    5.9698    7.6329   24.6581 C   0  0  0  0  0  0  0  0  0  0  0  0
    4.5542    8.9057   21.7104 O   0  0  0  0  0  0  0  0  0  0  0  0
    6.9895    3.2085   23.0690 C   0  0  0  0  0  0  0  0  0  0  0  0
    7.8391    2.2253   22.7260 N   0  0  0  0  0  0  0  0  0  0  0  0
    8.6968    9.8373   23.6359 C   0  0  0  0  0  0  0  0  0  0  0  0
   12.5135    6.5957   21.8396 C   0  0  0  0  0  0  0  0  0  0  0  0
   10.9406    8.2330   21.1350 C   0  0  0  0  0  0  0  0  0  0  0  0
    9.6648    8.5956   21.7310 C   0  0  0  0  0  0  0  0  0  0  0  0
   10.8829    1.7153   20.9865 C   0  0  0  0  0  0  0  0  0  0  0  0
    5.7768    2.8533   23.7910 C   0  0  0  0  0  0  0  0  0  0  0  0
    9.7977    1.4791   21.6912 N   0  0  0  0  0  0  0  0  0  0  0  0
    6.5976    9.3401   22.6478 N   0  0  0  0  0  0  0  0  0  0  0  0
   11.2031    3.0042   20.6246 C   0  0  0  0  0  0  0  0  0  0  0  0
   12.8688    7.7370   22.7287 C   0  0  0  0  0  0  0  0  0  0  0  0
    7.4487    9.1361   23.6506 C   0  0  0  0  0  0  0  0  0  0  0  0
    8.9772    2.5025   22.0273 C   0  0  0  0  0  0  0  0  0  0  0  0
   10.4859    4.0901   20.9730 C   0  0  0  0  0  0  0  0  0  0  0  0
   11.0962    9.3293   23.5072 C   0  0  0  0  0  0  0  0  0  0  0  0
    5.1273    7.8529   23.6208 N   0  0  0  0  0  0  0  0  0  0  0  0
    9.7552    9.2338   23.0171 N   0  0  0  0  0  0  0  0  0  0  0  0
   11.1797    6.7591   21.3326 N   0  0  0  0  0  0  0  0  0  0  0  0
   11.7728    8.0337   23.7267 C   0  0  0  0  0  0  0  0  0  0  0  0
    7.1194    8.3344   24.6775 C   0  0  0  0  0  0  0  0  0  0  0  0
    8.4311    4.7963   22.0500 C   0  0  0  0  0  0  0  0  0  0  0  0
    8.7393   10.8706   24.1871 O   0  0  0  0  0  0  0  0  0  0  0  0
    9.3093    3.8166   21.6712 C   0  0  0  0  0  0  0  0  0  0  0  0
  1  5  1  0
  1 15  4  0
  1 22  4  0
  2 20  1  0
  2 24  1  0
  3  6  4  0
  3 27  4  0
  4 22  4  0
  4 26  4  0
  6  7  4  0
  6 13  1  0
  7 19  4  0
  8 18  1  0
  8 23  1  0
  8 28  2  0
  9 17  1  0
  9 24  1  0
 10 11  1  0
 10 24  1  0
 11 23  1  0
 12 14  4  0
 12 16  4  0
 14 19  4  0
 15 18  4  0
 16 20  4  0
 17 25  1  0
 18 26  4  0
 19 29  4  0
 20 29  4  0
 21 23  1  0
 21 25  1  0
 27 29  4  0
M  END
$$$$

 Created by Python create_sdf_string function

 29 32  0  0  0  0  0  0  0  0999 V2000
    5.4450    8.7154   22.6662 C   0  0  0  0  0  0  0  0  0  0  0  0
   10.9154    5.4574   20.5483 C   0  0  0  0  0  0  0  0  0  0  0  0
    7.2709    4.5089   22.7542 C   0  0  0  0  0  0  0  0  0  0  0  0
    5.9698    7.6329   24.6581 C   0  0  0  0  0  0  0  0  0  0  0  0
    4.5542    8.9057   21.7104 O   0  0  0  0  0  0  0  0  0  0  0  0
    6.9895    3.2085   23.0690 C   0  0  0  0  0  0  0  0  0  0  0  0
    7.8391    2.2253   22.7260 N   0  0  0  0  0  0  0  0  0  0  0  0
    8.6968    9.8373   23.6359 C   0  0  0  0  0  0  0  0  0  0  0  0
   12.5135    6.5957   21.8396 C   0  0  0  0  0  0  0  0  0  0  0  0
   10.9406    8.2330   21.1350 C   0  0  0  0  0  0  0  0  0  0  0  0
    9.6648    8.5956   21.7310 C   0  0  0  0  0  0  0  0  0  0  0  0
   10.8829    1.7153   20.9865 C   0  0  0  0  0  0  0  0  0  0  0  0
    5.7768    2.8533   23.7910 C   0  0  0  0  0  0  0  0  0  0  0  0
    9.7977    1.4791   21.6912 N   0  0  0  0  0  0  0  0  0  0  0  0
    6.5976    9.3401   22.6478 N   0  0  0  0  0  0  0  0  0  0  0  0
   11.2031    3.0042   20.6246 C   0  0  0  0  0  0  0  0  0  0  0  0
   12.8688    7.7370   22.7287 C   0  0  0  0  0  0  0  0  0  0  0  0
    7.4487    9.1361   23.6506 C   0  0  0  0  0  0  0  0  0  0  0  0
    8.9772    2.5025   22.0273 C   0  0  0  0  0  0  0  0  0  0  0  0
   10.4859    4.0901   20.9730 C   0  0  0  0  0  0  0  0  0  0  0  0
   11.0962    9.3293   23.5072 C   0  0  0  0  0  0  0  0  0  0  0  0
    5.1273    7.8529   23.6208 N   0  0  0  0  0  0  0  0  0  0  0  0
    9.7552    9.2338   23.0171 N   0  0  0  0  0  0  0  0  0  0  0  0
   11.1797    6.7591   21.3326 N   0  0  0  0  0  0  0  0  0  0  0  0
   11.7728    8.0337   23.7267 C   0  0  0  0  0  0  0  0  0  0  0  0
    7.1194    8.3344   24.6775 C   0  0  0  0  0  0  0  0  0  0  0  0
    8.4311    4.7963   22.0500 C   0  0  0  0  0  0  0  0  0  0  0  0
    8.7393   10.8706   24.1871 O   0  0  0  0  0  0  0  0  0  0  0  0
    9.3093    3.8166   21.6712 C   0  0  0  0  0  0  0  0  0  0  0  0
  1  5  1  0
  1 15  4  0
  1 22  4  0
  2 20  1  0
  2 24  1  0
  3  6  4  0
  3 27  4  0
  4 22  4  0
  4 26  4  0
  6  7  4  0
  6 13  1  0
  7 19  4  0
  8 18  1  0
  8 23  1  0
  8 28  2  0
  9 17  1  0
  9 24  1  0
 10 11  1  0
 10 24  1  0
 11 23  1  0
 12 14  4  0
 12 16  4  0
 14 19  4  0
 15 18  4  0
 16 20  4  0
 17 25  1  0
 18 26  4  0
 19 29  4  0
 20 29  4  0
 21 23  1  0
 21 25  1  0
 27 29  4  0
M  END
$$$$

 Created by Python create_sdf_string function

 29 32  0  0  0  0  0  0  0  0999 V2000
    5.4450    8.7154   22.6662 C   0  0  0  0  0  0  0  0  0  0  0  0
   10.9154    5.4574   20.5483 C   0  0  0  0  0  0  0  0  0  0  0  0
    7.2709    4.5089   22.7542 C   0  0  0  0  0  0  0  0  0  0  0  0
    5.9698    7.6329   24.6581 C   0  0  0  0  0  0  0  0  0  0  0  0
    4.5542    8.9057   21.7104 O   0  0  0  0  0  0  0  0  0  0  0  0
    6.9895    3.2085   23.0690 C   0  0  0  0  0  0  0  0  0  0  0  0
    7.8391    2.2253   22.7260 N   0  0  0  0  0  0  0  0  0  0  0  0
    8.6968    9.8373   23.6359 C   0  0  0  0  0  0  0  0  0  0  0  0
   12.5135    6.5957   21.8396 C   0  0  0  0  0  0  0  0  0  0  0  0
   10.9406    8.2330   21.1350 C   0  0  0  0  0  0  0  0  0  0  0  0
    9.6648    8.5956   21.7310 C   0  0  0  0  0  0  0  0  0  0  0  0
   10.8829    1.7153   20.9865 C   0  0  0  0  0  0  0  0  0  0  0  0
    5.7768    2.8533   23.7910 C   0  0  0  0  0  0  0  0  0  0  0  0
    9.7977    1.4791   21.6912 N   0  0  0  0  0  0  0  0  0  0  0  0
    6.5976    9.3401   22.6478 N   0  0  0  0  0  0  0  0  0  0  0  0
   11.2031    3.0042   20.6246 C   0  0  0  0  0  0  0  0  0  0  0  0
   12.8688    7.7370   22.7287 C   0  0  0  0  0  0  0  0  0  0  0  0
    7.4487    9.1361   23.6506 C   0  0  0  0  0  0  0  0  0  0  0  0
    8.9772    2.5025   22.0273 C   0  0  0  0  0  0  0  0  0  0  0  0
   10.4859    4.0901   20.9730 C   0  0  0  0  0  0  0  0  0  0  0  0
   11.0962    9.3293   23.5072 C   0  0  0  0  0  0  0  0  0  0  0  0
    5.1273    7.8529   23.6208 N   0  0  0  0  0  0  0  0  0  0  0  0
    9.7552    9.2338   23.0171 N   0  0  0  0  0  0  0  0  0  0  0  0
   11.1797    6.7591   21.3326 N   0  0  0  0  0  0  0  0  0  0  0  0
   11.7728    8.0337   23.7267 C   0  0  0  0  0  0  0  0  0  0  0  0
    7.1194    8.3344   24.6775 C   0  0  0  0  0  0  0  0  0  0  0  0
    8.4311    4.7963   22.0500 C   0  0  0  0  0  0  0  0  0  0  0  0
    8.7393   10.8706   24.1871 O   0  0  0  0  0  0  0  0  0  0  0  0
    9.3093    3.8166   21.6712 C   0  0  0  0  0  0  0  0  0  0  0  0
  1  5  1  0
  1 15  4  0
  1 22  4  0
  2 20  1  0
  2 24  1  0
  3  6  4  0
  3 27  4  0
  4 22  4  0
  4 26  4  0
  6  7  4  0
  6 13  1  0
  7 19  4  0
  8 18  1  0
  8 23  1  0
  8 28  2  0
  9 17  1  0
  9 24  1  0
 10 11  1  0
 10 24  1  0
 11 23  1  0
 12 14  4  0
 12 16  4  0
 14 19  4  0
 15 18  4  0
 16 20  4  0
 17 25  1  0
 18 26  4  0
 19 29  4  0
 20 29  4  0
 21 23  1  0
 21 25  1  0
 27 29  4  0
M  END
$$$$

 Created by Python create_sdf_string function

 29 32  0  0  0  0  0  0  0  0999 V2000
    5.4450    8.7154   22.6662 C   0  0  0  0  0  0  0  0  0  0  0  0
   10.9154    5.4574   20.5483 C   0  0  0  0  0  0  0  0  0  0  0  0
    7.2709    4.5089   22.7542 C   0  0  0  0  0  0  0  0  0  0  0  0
    5.9698    7.6329   24.6581 C   0  0  0  0  0  0  0  0  0  0  0  0
    4.5542    8.9057   21.7104 O   0  0  0  0  0  0  0  0  0  0  0  0
    6.9895    3.2085   23.0690 C   0  0  0  0  0  0  0  0  0  0  0  0
    7.8391    2.2253   22.7260 N   0  0  0  0  0  0  0  0  0  0  0  0
    8.6968    9.8373   23.6359 C   0  0  0  0  0  0  0  0  0  0  0  0
   12.5135    6.5957   21.8396 C   0  0  0  0  0  0  0  0  0  0  0  0
   10.9406    8.2330   21.1350 C   0  0  0  0  0  0  0  0  0  0  0  0
    9.6648    8.5956   21.7310 C   0  0  0  0  0  0  0  0  0  0  0  0
   10.8829    1.7153   20.9865 C   0  0  0  0  0  0  0  0  0  0  0  0
    5.7768    2.8533   23.7910 C   0  0  0  0  0  0  0  0  0  0  0  0
    9.7977    1.4791   21.6912 N   0  0  0  0  0  0  0  0  0  0  0  0
    6.5976    9.3401   22.6478 N   0  0  0  0  0  0  0  0  0  0  0  0
   11.2031    3.0042   20.6246 C   0  0  0  0  0  0  0  0  0  0  0  0
   12.8688    7.7370   22.7287 C   0  0  0  0  0  0  0  0  0  0  0  0
    7.4487    9.1361   23.6506 C   0  0  0  0  0  0  0  0  0  0  0  0
    8.9772    2.5025   22.0273 C   0  0  0  0  0  0  0  0  0  0  0  0
   10.4859    4.0901   20.9730 C   0  0  0  0  0  0  0  0  0  0  0  0
   11.0962    9.3293   23.5072 C   0  0  0  0  0  0  0  0  0  0  0  0
    5.1273    7.8529   23.6208 N   0  0  0  0  0  0  0  0  0  0  0  0
    9.7552    9.2338   23.0171 N   0  0  0  0  0  0  0  0  0  0  0  0
   11.1797    6.7591   21.3326 N   0  0  0  0  0  0  0  0  0  0  0  0
   11.7728    8.0337   23.7267 C   0  0  0  0  0  0  0  0  0  0  0  0
    7.1194    8.3344   24.6775 C   0  0  0  0  0  0  0  0  0  0  0  0
    8.4311    4.7963   22.0500 C   0  0  0  0  0  0  0  0  0  0  0  0
    8.7393   10.8706   24.1871 O   0  0  0  0  0  0  0  0  0  0  0  0
    9.3093    3.8166   21.6712 C   0  0  0  0  0  0  0  0  0  0  0  0
  1  5  1  0
  1 15  4  0
  1 22  4  0
  2 20  1  0
  2 24  1  0
  3  6  4  0
  3 27  4  0
  4 22  4  0
  4 26  4  0
  6  7  4  0
  6 13  1  0
  7 19  4  0
  8 18  1  0
  8 23  1  0
  8 28  2  0
  9 17  1  0
  9 24  1  0
 10 11  1  0
 10 24  1  0
 11 23  1  0
 12 14  4  0
 12 16  4  0
 14 19  4  0
 15 18  4  0
 16 20  4  0
 17 25  1  0
 18 26  4  0
 19 29  4  0
 20 29  4  0
 21 23  1  0
 21 25  1  0
 27 29  4  0
M  END
$$$$

 Created by Python create_sdf_string function

 29 32  0  0  0  0  0  0  0  0999 V2000
    5.4450    8.7154   22.6662 C   0  0  0  0  0  0  0  0  0  0  0  0
   10.9154    5.4574   20.5483 C   0  0  0  0  0  0  0  0  0  0  0  0
    7.2709    4.5089   22.7542 C   0  0  0  0  0  0  0  0  0  0  0  0
    5.9698    7.6329   24.6581 C   0  0  0  0  0  0  0  0  0  0  0  0
    4.5542    8.9057   21.7104 O   0  0  0  0  0  0  0  0  0  0  0  0
    6.9895    3.2085   23.0690 C   0  0  0  0  0  0  0  0  0  0  0  0
    7.8391    2.2253   22.7260 N   0  0  0  0  0  0  0  0  0  0  0  0
    8.6968    9.8373   23.6359 C   0  0  0  0  0  0  0  0  0  0  0  0
   12.5135    6.5957   21.8396 C   0  0  0  0  0  0  0  0  0  0  0  0
   10.9406    8.2330   21.1350 C   0  0  0  0  0  0  0  0  0  0  0  0
    9.6648    8.5956   21.7310 C   0  0  0  0  0  0  0  0  0  0  0  0
   10.8829    1.7153   20.9865 C   0  0  0  0  0  0  0  0  0  0  0  0
    5.7768    2.8533   23.7910 C   0  0  0  0  0  0  0  0  0  0  0  0
    9.7977    1.4791   21.6912 N   0  0  0  0  0  0  0  0  0  0  0  0
    6.5976    9.3401   22.6478 N   0  0  0  0  0  0  0  0  0  0  0  0
   11.2031    3.0042   20.6246 C   0  0  0  0  0  0  0  0  0  0  0  0
   12.8688    7.7370   22.7287 C   0  0  0  0  0  0  0  0  0  0  0  0
    7.4487    9.1361   23.6506 C   0  0  0  0  0  0  0  0  0  0  0  0
    8.9772    2.5025   22.0273 C   0  0  0  0  0  0  0  0  0  0  0  0
   10.4859    4.0901   20.9730 C   0  0  0  0  0  0  0  0  0  0  0  0
   11.0962    9.3293   23.5072 C   0  0  0  0  0  0  0  0  0  0  0  0
    5.1273    7.8529   23.6208 N   0  0  0  0  0  0  0  0  0  0  0  0
    9.7552    9.2338   23.0171 N   0  0  0  0  0  0  0  0  0  0  0  0
   11.1797    6.7591   21.3326 N   0  0  0  0  0  0  0  0  0  0  0  0
   11.7728    8.0337   23.7267 C   0  0  0  0  0  0  0  0  0  0  0  0
    7.1194    8.3344   24.6775 C   0  0  0  0  0  0  0  0  0  0  0  0
    8.4311    4.7963   22.0500 C   0  0  0  0  0  0  0  0  0  0  0  0
    8.7393   10.8706   24.1871 O   0  0  0  0  0  0  0  0  0  0  0  0
    9.3093    3.8166   21.6712 C   0  0  0  0  0  0  0  0  0  0  0  0
  1  5  1  0
  1 15  4  0
  1 22  4  0
  2 20  1  0
  2 24  1  0
  3  6  4  0
  3 27  4  0
  4 22  4  0
  4 26  4  0
  6  7  4  0
  6 13  1  0
  7 19  4  0
  8 18  1  0
  8 23  1  0
  8 28  2  0
  9 17  1  0
  9 24  1  0
 10 11  1  0
 10 24  1  0
 11 23  1  0
 12 14  4  0
 12 16  4  0
 14 19  4  0
 15 18  4  0
 16 20  4  0
 17 25  1  0
 18 26  4  0
 19 29  4  0
 20 29  4  0
 21 23  1  0
 21 25  1  0
 27 29  4  0
M  END
$$$$

 Created by Python create_sdf_string function

 29 32  0  0  0  0  0  0  0  0999 V2000
    5.4450    8.7154   22.6662 C   0  0  0  0  0  0  0  0  0  0  0  0
   10.9154    5.4574   20.5483 C   0  0  0  0  0  0  0  0  0  0  0  0
    7.2709    4.5089   22.7542 C   0  0  0  0  0  0  0  0  0  0  0  0
    5.9698    7.6329   24.6581 C   0  0  0  0  0  0  0  0  0  0  0  0
    4.5542    8.9057   21.7104 O   0  0  0  0  0  0  0  0  0  0  0  0
    6.9895    3.2085   23.0690 C   0  0  0  0  0  0  0  0  0  0  0  0
    7.8391    2.2253   22.7260 N   0  0  0  0  0  0  0  0  0  0  0  0
    8.6968    9.8373   23.6359 C   0  0  0  0  0  0  0  0  0  0  0  0
   12.5135    6.5957   21.8396 C   0  0  0  0  0  0  0  0  0  0  0  0
   10.9406    8.2330   21.1350 C   0  0  0  0  0  0  0  0  0  0  0  0
    9.6648    8.5956   21.7310 C   0  0  0  0  0  0  0  0  0  0  0  0
   10.8829    1.7153   20.9865 C   0  0  0  0  0  0  0  0  0  0  0  0
    5.7768    2.8533   23.7910 C   0  0  0  0  0  0  0  0  0  0  0  0
    9.7977    1.4791   21.6912 N   0  0  0  0  0  0  0  0  0  0  0  0
    6.5976    9.3401   22.6478 N   0  0  0  0  0  0  0  0  0  0  0  0
   11.2031    3.0042   20.6246 C   0  0  0  0  0  0  0  0  0  0  0  0
   12.8688    7.7370   22.7287 C   0  0  0  0  0  0  0  0  0  0  0  0
    7.4487    9.1361   23.6506 C   0  0  0  0  0  0  0  0  0  0  0  0
    8.9772    2.5025   22.0273 C   0  0  0  0  0  0  0  0  0  0  0  0
   10.4859    4.0901   20.9730 C   0  0  0  0  0  0  0  0  0  0  0  0
   11.0962    9.3293   23.5072 C   0  0  0  0  0  0  0  0  0  0  0  0
    5.1273    7.8529   23.6208 N   0  0  0  0  0  0  0  0  0  0  0  0
    9.7552    9.2338   23.0171 N   0  0  0  0  0  0  0  0  0  0  0  0
   11.1797    6.7591   21.3326 N   0  0  0  0  0  0  0  0  0  0  0  0
   11.7728    8.0337   23.7267 C   0  0  0  0  0  0  0  0  0  0  0  0
    7.1194    8.3344   24.6775 C   0  0  0  0  0  0  0  0  0  0  0  0
    8.4311    4.7963   22.0500 C   0  0  0  0  0  0  0  0  0  0  0  0
    8.7393   10.8706   24.1871 O   0  0  0  0  0  0  0  0  0  0  0  0
    9.3093    3.8166   21.6712 C   0  0  0  0  0  0  0  0  0  0  0  0
  1  5  1  0
  1 15  4  0
  1 22  4  0
  2 20  1  0
  2 24  1  0
  3  6  4  0
  3 27  4  0
  4 22  4  0
  4 26  4  0
  6  7  4  0
  6 13  1  0
  7 19  4  0
  8 18  1  0
  8 23  1  0
  8 28  2  0
  9 17  1  0
  9 24  1  0
 10 11  1  0
 10 24  1  0
 11 23  1  0
 12 14  4  0
 12 16  4  0
 14 19  4  0
 15 18  4  0
 16 20  4  0
 17 25  1  0
 18 26  4  0
 19 29  4  0
 20 29  4  0
 21 23  1  0
 21 25  1  0
 27 29  4  0
M  END
$$$$

 Created by Python create_sdf_string function

 29 32  0  0  0  0  0  0  0  0999 V2000
    5.4450    8.7154   22.6662 C   0  0  0  0  0  0  0  0  0  0  0  0
   10.9154    5.4574   20.5483 C   0  0  0  0  0  0  0  0  0  0  0  0
    7.2709    4.5089   22.7542 C   0  0  0  0  0  0  0  0  0  0  0  0
    5.9698    7.6329   24.6581 C   0  0  0  0  0  0  0  0  0  0  0  0
    4.5542    8.9057   21.7104 O   0  0  0  0  0  0  0  0  0  0  0  0
    6.9895    3.2085   23.0690 C   0  0  0  0  0  0  0  0  0  0  0  0
    7.8391    2.2253   22.7260 N   0  0  0  0  0  0  0  0  0  0  0  0
    8.6968    9.8373   23.6359 C   0  0  0  0  0  0  0  0  0  0  0  0
   12.5135    6.5957   21.8396 C   0  0  0  0  0  0  0  0  0  0  0  0
   10.9406    8.2330   21.1350 C   0  0  0  0  0  0  0  0  0  0  0  0
    9.6648    8.5956   21.7310 C   0  0  0  0  0  0  0  0  0  0  0  0
   10.8829    1.7153   20.9865 C   0  0  0  0  0  0  0  0  0  0  0  0
    5.7768    2.8533   23.7910 C   0  0  0  0  0  0  0  0  0  0  0  0
    9.7977    1.4791   21.6912 N   0  0  0  0  0  0  0  0  0  0  0  0
    6.5976    9.3401   22.6478 N   0  0  0  0  0  0  0  0  0  0  0  0
   11.2031    3.0042   20.6246 C   0  0  0  0  0  0  0  0  0  0  0  0
   12.8688    7.7370   22.7287 C   0  0  0  0  0  0  0  0  0  0  0  0
    7.4487    9.1361   23.6506 C   0  0  0  0  0  0  0  0  0  0  0  0
    8.9772    2.5025   22.0273 C   0  0  0  0  0  0  0  0  0  0  0  0
   10.4859    4.0901   20.9730 C   0  0  0  0  0  0  0  0  0  0  0  0
   11.0962    9.3293   23.5072 C   0  0  0  0  0  0  0  0  0  0  0  0
    5.1273    7.8529   23.6208 N   0  0  0  0  0  0  0  0  0  0  0  0
    9.7552    9.2338   23.0171 N   0  0  0  0  0  0  0  0  0  0  0  0
   11.1797    6.7591   21.3326 N   0  0  0  0  0  0  0  0  0  0  0  0
   11.7728    8.0337   23.7267 C   0  0  0  0  0  0  0  0  0  0  0  0
    7.1194    8.3344   24.6775 C   0  0  0  0  0  0  0  0  0  0  0  0
    8.4311    4.7963   22.0500 C   0  0  0  0  0  0  0  0  0  0  0  0
    8.7393   10.8706   24.1871 O   0  0  0  0  0  0  0  0  0  0  0  0
    9.3093    3.8166   21.6712 C   0  0  0  0  0  0  0  0  0  0  0  0
  1  5  1  0
  1 15  4  0
  1 22  4  0
  2 20  1  0
  2 24  1  0
  3  6  4  0
  3 27  4  0
  4 22  4  0
  4 26  4  0
  6  7  4  0
  6 13  1  0
  7 19  4  0
  8 18  1  0
  8 23  1  0
  8 28  2  0
  9 17  1  0
  9 24  1  0
 10 11  1  0
 10 24  1  0
 11 23  1  0
 12 14  4  0
 12 16  4  0
 14 19  4  0
 15 18  4  0
 16 20  4  0
 17 25  1  0
 18 26  4  0
 19 29  4  0
 20 29  4  0
 21 23  1  0
 21 25  1  0
 27 29  4  0
M  END
$$$$

 Created by Python create_sdf_string function

 29 32  0  0  0  0  0  0  0  0999 V2000
    5.4450    8.7154   22.6662 C   0  0  0  0  0  0  0  0  0  0  0  0
   10.9154    5.4574   20.5483 C   0  0  0  0  0  0  0  0  0  0  0  0
    7.2709    4.5089   22.7542 C   0  0  0  0  0  0  0  0  0  0  0  0
    5.9698    7.6329   24.6581 C   0  0  0  0  0  0  0  0  0  0  0  0
    4.5542    8.9057   21.7104 O   0  0  0  0  0  0  0  0  0  0  0  0
    6.9895    3.2085   23.0690 C   0  0  0  0  0  0  0  0  0  0  0  0
    7.8391    2.2253   22.7260 N   0  0  0  0  0  0  0  0  0  0  0  0
    8.6968    9.8373   23.6359 C   0  0  0  0  0  0  0  0  0  0  0  0
   12.5135    6.5957   21.8396 C   0  0  0  0  0  0  0  0  0  0  0  0
   10.9406    8.2330   21.1350 C   0  0  0  0  0  0  0  0  0  0  0  0
    9.6648    8.5956   21.7310 C   0  0  0  0  0  0  0  0  0  0  0  0
   10.8829    1.7153   20.9865 C   0  0  0  0  0  0  0  0  0  0  0  0
    5.7768    2.8533   23.7910 C   0  0  0  0  0  0  0  0  0  0  0  0
    9.7977    1.4791   21.6912 N   0  0  0  0  0  0  0  0  0  0  0  0
    6.5976    9.3401   22.6478 N   0  0  0  0  0  0  0  0  0  0  0  0
   11.2031    3.0042   20.6246 C   0  0  0  0  0  0  0  0  0  0  0  0
   12.8688    7.7370   22.7287 C   0  0  0  0  0  0  0  0  0  0  0  0
    7.4487    9.1361   23.6506 C   0  0  0  0  0  0  0  0  0  0  0  0
    8.9772    2.5025   22.0273 C   0  0  0  0  0  0  0  0  0  0  0  0
   10.4859    4.0901   20.9730 C   0  0  0  0  0  0  0  0  0  0  0  0
   11.0962    9.3293   23.5072 C   0  0  0  0  0  0  0  0  0  0  0  0
    5.1273    7.8529   23.6208 N   0  0  0  0  0  0  0  0  0  0  0  0
    9.7552    9.2338   23.0171 N   0  0  0  0  0  0  0  0  0  0  0  0
   11.1797    6.7591   21.3326 N   0  0  0  0  0  0  0  0  0  0  0  0
   11.7728    8.0337   23.7267 C   0  0  0  0  0  0  0  0  0  0  0  0
    7.1194    8.3344   24.6775 C   0  0  0  0  0  0  0  0  0  0  0  0
    8.4311    4.7963   22.0500 C   0  0  0  0  0  0  0  0  0  0  0  0
    8.7393   10.8706   24.1871 O   0  0  0  0  0  0  0  0  0  0  0  0
    9.3093    3.8166   21.6712 C   0  0  0  0  0  0  0  0  0  0  0  0
  1  5  1  0
  1 15  4  0
  1 22  4  0
  2 20  1  0
  2 24  1  0
  3  6  4  0
  3 27  4  0
  4 22  4  0
  4 26  4  0
  6  7  4  0
  6 13  1  0
  7 19  4  0
  8 18  1  0
  8 23  1  0
  8 28  2  0
  9 17  1  0
  9 24  1  0
 10 11  1  0
 10 24  1  0
 11 23  1  0
 12 14  4  0
 12 16  4  0
 14 19  4  0
 15 18  4  0
 16 20  4  0
 17 25  1  0
 18 26  4  0
 19 29  4  0
 20 29  4  0
 21 23  1  0
 21 25  1  0
 27 29  4  0
M  END
$$$$

 Created by Python create_sdf_string function

 29 32  0  0  0  0  0  0  0  0999 V2000
    5.4450    8.7154   22.6662 C   0  0  0  0  0  0  0  0  0  0  0  0
   10.9154    5.4574   20.5483 C   0  0  0  0  0  0  0  0  0  0  0  0
    7.2709    4.5089   22.7542 C   0  0  0  0  0  0  0  0  0  0  0  0
    5.9698    7.6329   24.6581 C   0  0  0  0  0  0  0  0  0  0  0  0
    4.5542    8.9057   21.7104 O   0  0  0  0  0  0  0  0  0  0  0  0
    6.9895    3.2085   23.0690 C   0  0  0  0  0  0  0  0  0  0  0  0
    7.8391    2.2253   22.7260 N   0  0  0  0  0  0  0  0  0  0  0  0
    8.6968    9.8373   23.6359 C   0  0  0  0  0  0  0  0  0  0  0  0
   12.5135    6.5957   21.8396 C   0  0  0  0  0  0  0  0  0  0  0  0
   10.9406    8.2330   21.1350 C   0  0  0  0  0  0  0  0  0  0  0  0
    9.6648    8.5956   21.7310 C   0  0  0  0  0  0  0  0  0  0  0  0
   10.8829    1.7153   20.9865 C   0  0  0  0  0  0  0  0  0  0  0  0
    5.7768    2.8533   23.7910 C   0  0  0  0  0  0  0  0  0  0  0  0
    9.7977    1.4791   21.6912 N   0  0  0  0  0  0  0  0  0  0  0  0
    6.5976    9.3401   22.6478 N   0  0  0  0  0  0  0  0  0  0  0  0
   11.2031    3.0042   20.6246 C   0  0  0  0  0  0  0  0  0  0  0  0
   12.8688    7.7370   22.7287 C   0  0  0  0  0  0  0  0  0  0  0  0
    7.4487    9.1361   23.6506 C   0  0  0  0  0  0  0  0  0  0  0  0
    8.9772    2.5025   22.0273 C   0  0  0  0  0  0  0  0  0  0  0  0
   10.4859    4.0901   20.9730 C   0  0  0  0  0  0  0  0  0  0  0  0
   11.0962    9.3293   23.5072 C   0  0  0  0  0  0  0  0  0  0  0  0
    5.1273    7.8529   23.6208 N   0  0  0  0  0  0  0  0  0  0  0  0
    9.7552    9.2338   23.0171 N   0  0  0  0  0  0  0  0  0  0  0  0
   11.1797    6.7591   21.3326 N   0  0  0  0  0  0  0  0  0  0  0  0
   11.7728    8.0337   23.7267 C   0  0  0  0  0  0  0  0  0  0  0  0
    7.1194    8.3344   24.6775 C   0  0  0  0  0  0  0  0  0  0  0  0
    8.4311    4.7963   22.0500 C   0  0  0  0  0  0  0  0  0  0  0  0
    8.7393   10.8706   24.1871 O   0  0  0  0  0  0  0  0  0  0  0  0
    9.3093    3.8166   21.6712 C   0  0  0  0  0  0  0  0  0  0  0  0
  1  5  1  0
  1 15  4  0
  1 22  4  0
  2 20  1  0
  2 24  1  0
  3  6  4  0
  3 27  4  0
  4 22  4  0
  4 26  4  0
  6  7  4  0
  6 13  1  0
  7 19  4  0
  8 18  1  0
  8 23  1  0
  8 28  2  0
  9 17  1  0
  9 24  1  0
 10 11  1  0
 10 24  1  0
 11 23  1  0
 12 14  4  0
 12 16  4  0
 14 19  4  0
 15 18  4  0
 16 20  4  0
 17 25  1  0
 18 26  4  0
 19 29  4  0
 20 29  4  0
 21 23  1  0
 21 25  1  0
 27 29  4  0
M  END
$$$$

 Created by Python create_sdf_string function

 29 32  0  0  0  0  0  0  0  0999 V2000
    5.4450    8.7154   22.6662 C   0  0  0  0  0  0  0  0  0  0  0  0
   10.9154    5.4574   20.5483 C   0  0  0  0  0  0  0  0  0  0  0  0
    7.2709    4.5089   22.7542 C   0  0  0  0  0  0  0  0  0  0  0  0
    5.9698    7.6329   24.6581 C   0  0  0  0  0  0  0  0  0  0  0  0
    4.5542    8.9057   21.7104 O   0  0  0  0  0  0  0  0  0  0  0  0
    6.9895    3.2085   23.0690 C   0  0  0  0  0  0  0  0  0  0  0  0
    7.8391    2.2253   22.7260 N   0  0  0  0  0  0  0  0  0  0  0  0
    8.6968    9.8373   23.6359 C   0  0  0  0  0  0  0  0  0  0  0  0
   12.5135    6.5957   21.8396 C   0  0  0  0  0  0  0  0  0  0  0  0
   10.9406    8.2330   21.1350 C   0  0  0  0  0  0  0  0  0  0  0  0
    9.6648    8.5956   21.7310 C   0  0  0  0  0  0  0  0  0  0  0  0
   10.8829    1.7153   20.9865 C   0  0  0  0  0  0  0  0  0  0  0  0
    5.7768    2.8533   23.7910 C   0  0  0  0  0  0  0  0  0  0  0  0
    9.7977    1.4791   21.6912 N   0  0  0  0  0  0  0  0  0  0  0  0
    6.5976    9.3401   22.6478 N   0  0  0  0  0  0  0  0  0  0  0  0
   11.2031    3.0042   20.6246 C   0  0  0  0  0  0  0  0  0  0  0  0
   12.8688    7.7370   22.7287 C   0  0  0  0  0  0  0  0  0  0  0  0
    7.4487    9.1361   23.6506 C   0  0  0  0  0  0  0  0  0  0  0  0
    8.9772    2.5025   22.0273 C   0  0  0  0  0  0  0  0  0  0  0  0
   10.4859    4.0901   20.9730 C   0  0  0  0  0  0  0  0  0  0  0  0
   11.0962    9.3293   23.5072 C   0  0  0  0  0  0  0  0  0  0  0  0
    5.1273    7.8529   23.6208 N   0  0  0  0  0  0  0  0  0  0  0  0
    9.7552    9.2338   23.0171 N   0  0  0  0  0  0  0  0  0  0  0  0
   11.1797    6.7591   21.3326 N   0  0  0  0  0  0  0  0  0  0  0  0
   11.7728    8.0337   23.7267 C   0  0  0  0  0  0  0  0  0  0  0  0
    7.1194    8.3344   24.6775 C   0  0  0  0  0  0  0  0  0  0  0  0
    8.4311    4.7963   22.0500 C   0  0  0  0  0  0  0  0  0  0  0  0
    8.7393   10.8706   24.1871 O   0  0  0  0  0  0  0  0  0  0  0  0
    9.3093    3.8166   21.6712 C   0  0  0  0  0  0  0  0  0  0  0  0
  1  5  1  0
  1 15  4  0
  1 22  4  0
  2 20  1  0
  2 24  1  0
  3  6  4  0
  3 27  4  0
  4 22  4  0
  4 26  4  0
  6  7  4  0
  6 13  1  0
  7 19  4  0
  8 18  1  0
  8 23  1  0
  8 28  2  0
  9 17  1  0
  9 24  1  0
 10 11  1  0
 10 24  1  0
 11 23  1  0
 12 14  4  0
 12 16  4  0
 14 19  4  0
 15 18  4  0
 16 20  4  0
 17 25  1  0
 18 26  4  0
 19 29  4  0
 20 29  4  0
 21 23  1  0
 21 25  1  0
 27 29  4  0
M  END
$$$$

 Created by Python create_sdf_string function

 29 32  0  0  0  0  0  0  0  0999 V2000
    5.4450    8.7154   22.6662 C   0  0  0  0  0  0  0  0  0  0  0  0
   10.9154    5.4574   20.5483 C   0  0  0  0  0  0  0  0  0  0  0  0
    7.2709    4.5089   22.7542 C   0  0  0  0  0  0  0  0  0  0  0  0
    5.9698    7.6329   24.6581 C   0  0  0  0  0  0  0  0  0  0  0  0
    4.5542    8.9057   21.7104 O   0  0  0  0  0  0  0  0  0  0  0  0
    6.9895    3.2085   23.0690 C   0  0  0  0  0  0  0  0  0  0  0  0
    7.8391    2.2253   22.7260 N   0  0  0  0  0  0  0  0  0  0  0  0
    8.6968    9.8373   23.6359 C   0  0  0  0  0  0  0  0  0  0  0  0
   12.5135    6.5957   21.8396 C   0  0  0  0  0  0  0  0  0  0  0  0
   10.9406    8.2330   21.1350 C   0  0  0  0  0  0  0  0  0  0  0  0
    9.6648    8.5956   21.7310 C   0  0  0  0  0  0  0  0  0  0  0  0
   10.8829    1.7153   20.9865 C   0  0  0  0  0  0  0  0  0  0  0  0
    5.7768    2.8533   23.7910 C   0  0  0  0  0  0  0  0  0  0  0  0
    9.7977    1.4791   21.6912 N   0  0  0  0  0  0  0  0  0  0  0  0
    6.5976    9.3401   22.6478 N   0  0  0  0  0  0  0  0  0  0  0  0
   11.2031    3.0042   20.6246 C   0  0  0  0  0  0  0  0  0  0  0  0
   12.8688    7.7370   22.7287 C   0  0  0  0  0  0  0  0  0  0  0  0
    7.4487    9.1361   23.6506 C   0  0  0  0  0  0  0  0  0  0  0  0
    8.9772    2.5025   22.0273 C   0  0  0  0  0  0  0  0  0  0  0  0
   10.4859    4.0901   20.9730 C   0  0  0  0  0  0  0  0  0  0  0  0
   11.0962    9.3293   23.5072 C   0  0  0  0  0  0  0  0  0  0  0  0
    5.1273    7.8529   23.6208 N   0  0  0  0  0  0  0  0  0  0  0  0
    9.7552    9.2338   23.0171 N   0  0  0  0  0  0  0  0  0  0  0  0
   11.1797    6.7591   21.3326 N   0  0  0  0  0  0  0  0  0  0  0  0
   11.7728    8.0337   23.7267 C   0  0  0  0  0  0  0  0  0  0  0  0
    7.1194    8.3344   24.6775 C   0  0  0  0  0  0  0  0  0  0  0  0
    8.4311    4.7963   22.0500 C   0  0  0  0  0  0  0  0  0  0  0  0
    8.7393   10.8706   24.1871 O   0  0  0  0  0  0  0  0  0  0  0  0
    9.3093    3.8166   21.6712 C   0  0  0  0  0  0  0  0  0  0  0  0
  1  5  1  0
  1 15  4  0
  1 22  4  0
  2 20  1  0
  2 24  1  0
  3  6  4  0
  3 27  4  0
  4 22  4  0
  4 26  4  0
  6  7  4  0
  6 13  1  0
  7 19  4  0
  8 18  1  0
  8 23  1  0
  8 28  2  0
  9 17  1  0
  9 24  1  0
 10 11  1  0
 10 24  1  0
 11 23  1  0
 12 14  4  0
 12 16  4  0
 14 19  4  0
 15 18  4  0
 16 20  4  0
 17 25  1  0
 18 26  4  0
 19 29  4  0
 20 29  4  0
 21 23  1  0
 21 25  1  0
 27 29  4  0
M  END
$$$$

 Created by Python create_sdf_string function

 29 32  0  0  0  0  0  0  0  0999 V2000
    5.4450    8.7154   22.6662 C   0  0  0  0  0  0  0  0  0  0  0  0
   10.9154    5.4574   20.5483 C   0  0  0  0  0  0  0  0  0  0  0  0
    7.2709    4.5089   22.7542 C   0  0  0  0  0  0  0  0  0  0  0  0
    5.9698    7.6329   24.6581 C   0  0  0  0  0  0  0  0  0  0  0  0
    4.5542    8.9057   21.7104 O   0  0  0  0  0  0  0  0  0  0  0  0
    6.9895    3.2085   23.0690 C   0  0  0  0  0  0  0  0  0  0  0  0
    7.8391    2.2253   22.7260 N   0  0  0  0  0  0  0  0  0  0  0  0
    8.6968    9.8373   23.6359 C   0  0  0  0  0  0  0  0  0  0  0  0
   12.5135    6.5957   21.8396 C   0  0  0  0  0  0  0  0  0  0  0  0
   10.9406    8.2330   21.1350 C   0  0  0  0  0  0  0  0  0  0  0  0
    9.6648    8.5956   21.7310 C   0  0  0  0  0  0  0  0  0  0  0  0
   10.8829    1.7153   20.9865 C   0  0  0  0  0  0  0  0  0  0  0  0
    5.7768    2.8533   23.7910 C   0  0  0  0  0  0  0  0  0  0  0  0
    9.7977    1.4791   21.6912 N   0  0  0  0  0  0  0  0  0  0  0  0
    6.5976    9.3401   22.6478 N   0  0  0  0  0  0  0  0  0  0  0  0
   11.2031    3.0042   20.6246 C   0  0  0  0  0  0  0  0  0  0  0  0
   12.8688    7.7370   22.7287 C   0  0  0  0  0  0  0  0  0  0  0  0
    7.4487    9.1361   23.6506 C   0  0  0  0  0  0  0  0  0  0  0  0
    8.9772    2.5025   22.0273 C   0  0  0  0  0  0  0  0  0  0  0  0
   10.4859    4.0901   20.9730 C   0  0  0  0  0  0  0  0  0  0  0  0
   11.0962    9.3293   23.5072 C   0  0  0  0  0  0  0  0  0  0  0  0
    5.1273    7.8529   23.6208 N   0  0  0  0  0  0  0  0  0  0  0  0
    9.7552    9.2338   23.0171 N   0  0  0  0  0  0  0  0  0  0  0  0
   11.1797    6.7591   21.3326 N   0  0  0  0  0  0  0  0  0  0  0  0
   11.7728    8.0337   23.7267 C   0  0  0  0  0  0  0  0  0  0  0  0
    7.1194    8.3344   24.6775 C   0  0  0  0  0  0  0  0  0  0  0  0
    8.4311    4.7963   22.0500 C   0  0  0  0  0  0  0  0  0  0  0  0
    8.7393   10.8706   24.1871 O   0  0  0  0  0  0  0  0  0  0  0  0
    9.3093    3.8166   21.6712 C   0  0  0  0  0  0  0  0  0  0  0  0
  1  5  1  0
  1 15  4  0
  1 22  4  0
  2 20  1  0
  2 24  1  0
  3  6  4  0
  3 27  4  0
  4 22  4  0
  4 26  4  0
  6  7  4  0
  6 13  1  0
  7 19  4  0
  8 18  1  0
  8 23  1  0
  8 28  2  0
  9 17  1  0
  9 24  1  0
 10 11  1  0
 10 24  1  0
 11 23  1  0
 12 14  4  0
 12 16  4  0
 14 19  4  0
 15 18  4  0
 16 20  4  0
 17 25  1  0
 18 26  4  0
 19 29  4  0
 20 29  4  0
 21 23  1  0
 21 25  1  0
 27 29  4  0
M  END
$$$$

 Created by Python create_sdf_string function

 29 32  0  0  0  0  0  0  0  0999 V2000
    5.4450    8.7154   22.6662 C   0  0  0  0  0  0  0  0  0  0  0  0
   10.9154    5.4574   20.5483 C   0  0  0  0  0  0  0  0  0  0  0  0
    7.2709    4.5089   22.7542 C   0  0  0  0  0  0  0  0  0  0  0  0
    5.9698    7.6329   24.6581 C   0  0  0  0  0  0  0  0  0  0  0  0
    4.5542    8.9057   21.7104 O   0  0  0  0  0  0  0  0  0  0  0  0
    6.9895    3.2085   23.0690 C   0  0  0  0  0  0  0  0  0  0  0  0
    7.8391    2.2253   22.7260 N   0  0  0  0  0  0  0  0  0  0  0  0
    8.6968    9.8373   23.6359 C   0  0  0  0  0  0  0  0  0  0  0  0
   12.5135    6.5957   21.8396 C   0  0  0  0  0  0  0  0  0  0  0  0
   10.9406    8.2330   21.1350 C   0  0  0  0  0  0  0  0  0  0  0  0
    9.6648    8.5956   21.7310 C   0  0  0  0  0  0  0  0  0  0  0  0
   10.8829    1.7153   20.9865 C   0  0  0  0  0  0  0  0  0  0  0  0
    5.7768    2.8533   23.7910 C   0  0  0  0  0  0  0  0  0  0  0  0
    9.7977    1.4791   21.6912 N   0  0  0  0  0  0  0  0  0  0  0  0
    6.5976    9.3401   22.6478 N   0  0  0  0  0  0  0  0  0  0  0  0
   11.2031    3.0042   20.6246 C   0  0  0  0  0  0  0  0  0  0  0  0
   12.8688    7.7370   22.7287 C   0  0  0  0  0  0  0  0  0  0  0  0
    7.4487    9.1361   23.6506 C   0  0  0  0  0  0  0  0  0  0  0  0
    8.9772    2.5025   22.0273 C   0  0  0  0  0  0  0  0  0  0  0  0
   10.4859    4.0901   20.9730 C   0  0  0  0  0  0  0  0  0  0  0  0
   11.0962    9.3293   23.5072 C   0  0  0  0  0  0  0  0  0  0  0  0
    5.1273    7.8529   23.6208 N   0  0  0  0  0  0  0  0  0  0  0  0
    9.7552    9.2338   23.0171 N   0  0  0  0  0  0  0  0  0  0  0  0
   11.1797    6.7591   21.3326 N   0  0  0  0  0  0  0  0  0  0  0  0
   11.7728    8.0337   23.7267 C   0  0  0  0  0  0  0  0  0  0  0  0
    7.1194    8.3344   24.6775 C   0  0  0  0  0  0  0  0  0  0  0  0
    8.4311    4.7963   22.0500 C   0  0  0  0  0  0  0  0  0  0  0  0
    8.7393   10.8706   24.1871 O   0  0  0  0  0  0  0  0  0  0  0  0
    9.3093    3.8166   21.6712 C   0  0  0  0  0  0  0  0  0  0  0  0
  1  5  1  0
  1 15  4  0
  1 22  4  0
  2 20  1  0
  2 24  1  0
  3  6  4  0
  3 27  4  0
  4 22  4  0
  4 26  4  0
  6  7  4  0
  6 13  1  0
  7 19  4  0
  8 18  1  0
  8 23  1  0
  8 28  2  0
  9 17  1  0
  9 24  1  0
 10 11  1  0
 10 24  1  0
 11 23  1  0
 12 14  4  0
 12 16  4  0
 14 19  4  0
 15 18  4  0
 16 20  4  0
 17 25  1  0
 18 26  4  0
 19 29  4  0
 20 29  4  0
 21 23  1  0
 21 25  1  0
 27 29  4  0
M  END
$$$$

 Created by Python create_sdf_string function

 29 32  0  0  0  0  0  0  0  0999 V2000
    5.4450    8.7154   22.6662 C   0  0  0  0  0  0  0  0  0  0  0  0
   10.9154    5.4574   20.5483 C   0  0  0  0  0  0  0  0  0  0  0  0
    7.2709    4.5089   22.7542 C   0  0  0  0  0  0  0  0  0  0  0  0
    5.9698    7.6329   24.6581 C   0  0  0  0  0  0  0  0  0  0  0  0
    4.5542    8.9057   21.7104 O   0  0  0  0  0  0  0  0  0  0  0  0
    6.9895    3.2085   23.0690 C   0  0  0  0  0  0  0  0  0  0  0  0
    7.8391    2.2253   22.7260 N   0  0  0  0  0  0  0  0  0  0  0  0
    8.6968    9.8373   23.6359 C   0  0  0  0  0  0  0  0  0  0  0  0
   12.5135    6.5957   21.8396 C   0  0  0  0  0  0  0  0  0  0  0  0
   10.9406    8.2330   21.1350 C   0  0  0  0  0  0  0  0  0  0  0  0
    9.6648    8.5956   21.7310 C   0  0  0  0  0  0  0  0  0  0  0  0
   10.8829    1.7153   20.9865 C   0  0  0  0  0  0  0  0  0  0  0  0
    5.7768    2.8533   23.7910 C   0  0  0  0  0  0  0  0  0  0  0  0
    9.7977    1.4791   21.6912 N   0  0  0  0  0  0  0  0  0  0  0  0
    6.5976    9.3401   22.6478 N   0  0  0  0  0  0  0  0  0  0  0  0
   11.2031    3.0042   20.6246 C   0  0  0  0  0  0  0  0  0  0  0  0
   12.8688    7.7370   22.7287 C   0  0  0  0  0  0  0  0  0  0  0  0
    7.4487    9.1361   23.6506 C   0  0  0  0  0  0  0  0  0  0  0  0
    8.9772    2.5025   22.0273 C   0  0  0  0  0  0  0  0  0  0  0  0
   10.4859    4.0901   20.9730 C   0  0  0  0  0  0  0  0  0  0  0  0
   11.0962    9.3293   23.5072 C   0  0  0  0  0  0  0  0  0  0  0  0
    5.1273    7.8529   23.6208 N   0  0  0  0  0  0  0  0  0  0  0  0
    9.7552    9.2338   23.0171 N   0  0  0  0  0  0  0  0  0  0  0  0
   11.1797    6.7591   21.3326 N   0  0  0  0  0  0  0  0  0  0  0  0
   11.7728    8.0337   23.7267 C   0  0  0  0  0  0  0  0  0  0  0  0
    7.1194    8.3344   24.6775 C   0  0  0  0  0  0  0  0  0  0  0  0
    8.4311    4.7963   22.0500 C   0  0  0  0  0  0  0  0  0  0  0  0
    8.7393   10.8706   24.1871 O   0  0  0  0  0  0  0  0  0  0  0  0
    9.3093    3.8166   21.6712 C   0  0  0  0  0  0  0  0  0  0  0  0
  1  5  1  0
  1 15  4  0
  1 22  4  0
  2 20  1  0
  2 24  1  0
  3  6  4  0
  3 27  4  0
  4 22  4  0
  4 26  4  0
  6  7  4  0
  6 13  1  0
  7 19  4  0
  8 18  1  0
  8 23  1  0
  8 28  2  0
  9 17  1  0
  9 24  1  0
 10 11  1  0
 10 24  1  0
 11 23  1  0
 12 14  4  0
 12 16  4  0
 14 19  4  0
 15 18  4  0
 16 20  4  0
 17 25  1  0
 18 26  4  0
 19 29  4  0
 20 29  4  0
 21 23  1  0
 21 25  1  0
 27 29  4  0
M  END
$$$$

 Created by Python create_sdf_string function

 29 32  0  0  0  0  0  0  0  0999 V2000
    5.4450    8.7154   22.6662 C   0  0  0  0  0  0  0  0  0  0  0  0
   10.9154    5.4574   20.5483 C   0  0  0  0  0  0  0  0  0  0  0  0
    7.2709    4.5089   22.7542 C   0  0  0  0  0  0  0  0  0  0  0  0
    5.9698    7.6329   24.6581 C   0  0  0  0  0  0  0  0  0  0  0  0
    4.5542    8.9057   21.7104 O   0  0  0  0  0  0  0  0  0  0  0  0
    6.9895    3.2085   23.0690 C   0  0  0  0  0  0  0  0  0  0  0  0
    7.8391    2.2253   22.7260 N   0  0  0  0  0  0  0  0  0  0  0  0
    8.6968    9.8373   23.6359 C   0  0  0  0  0  0  0  0  0  0  0  0
   12.5135    6.5957   21.8396 C   0  0  0  0  0  0  0  0  0  0  0  0
   10.9406    8.2330   21.1350 C   0  0  0  0  0  0  0  0  0  0  0  0
    9.6648    8.5956   21.7310 C   0  0  0  0  0  0  0  0  0  0  0  0
   10.8829    1.7153   20.9865 C   0  0  0  0  0  0  0  0  0  0  0  0
    5.7768    2.8533   23.7910 C   0  0  0  0  0  0  0  0  0  0  0  0
    9.7977    1.4791   21.6912 N   0  0  0  0  0  0  0  0  0  0  0  0
    6.5976    9.3401   22.6478 N   0  0  0  0  0  0  0  0  0  0  0  0
   11.2031    3.0042   20.6246 C   0  0  0  0  0  0  0  0  0  0  0  0
   12.8688    7.7370   22.7287 C   0  0  0  0  0  0  0  0  0  0  0  0
    7.4487    9.1361   23.6506 C   0  0  0  0  0  0  0  0  0  0  0  0
    8.9772    2.5025   22.0273 C   0  0  0  0  0  0  0  0  0  0  0  0
   10.4859    4.0901   20.9730 C   0  0  0  0  0  0  0  0  0  0  0  0
   11.0962    9.3293   23.5072 C   0  0  0  0  0  0  0  0  0  0  0  0
    5.1273    7.8529   23.6208 N   0  0  0  0  0  0  0  0  0  0  0  0
    9.7552    9.2338   23.0171 N   0  0  0  0  0  0  0  0  0  0  0  0
   11.1797    6.7591   21.3326 N   0  0  0  0  0  0  0  0  0  0  0  0
   11.7728    8.0337   23.7267 C   0  0  0  0  0  0  0  0  0  0  0  0
    7.1194    8.3344   24.6775 C   0  0  0  0  0  0  0  0  0  0  0  0
    8.4311    4.7963   22.0500 C   0  0  0  0  0  0  0  0  0  0  0  0
    8.7393   10.8706   24.1871 O   0  0  0  0  0  0  0  0  0  0  0  0
    9.3093    3.8166   21.6712 C   0  0  0  0  0  0  0  0  0  0  0  0
  1  5  1  0
  1 15  4  0
  1 22  4  0
  2 20  1  0
  2 24  1  0
  3  6  4  0
  3 27  4  0
  4 22  4  0
  4 26  4  0
  6  7  4  0
  6 13  1  0
  7 19  4  0
  8 18  1  0
  8 23  1  0
  8 28  2  0
  9 17  1  0
  9 24  1  0
 10 11  1  0
 10 24  1  0
 11 23  1  0
 12 14  4  0
 12 16  4  0
 14 19  4  0
 15 18  4  0
 16 20  4  0
 17 25  1  0
 18 26  4  0
 19 29  4  0
 20 29  4  0
 21 23  1  0
 21 25  1  0
 27 29  4  0
M  END
$$$$

 Created by Python create_sdf_string function

 29 32  0  0  0  0  0  0  0  0999 V2000
    5.4450    8.7154   22.6662 C   0  0  0  0  0  0  0  0  0  0  0  0
   10.9154    5.4574   20.5483 C   0  0  0  0  0  0  0  0  0  0  0  0
    7.2709    4.5089   22.7542 C   0  0  0  0  0  0  0  0  0  0  0  0
    5.9698    7.6329   24.6581 C   0  0  0  0  0  0  0  0  0  0  0  0
    4.5542    8.9057   21.7104 O   0  0  0  0  0  0  0  0  0  0  0  0
    6.9895    3.2085   23.0690 C   0  0  0  0  0  0  0  0  0  0  0  0
    7.8391    2.2253   22.7260 N   0  0  0  0  0  0  0  0  0  0  0  0
    8.6968    9.8373   23.6359 C   0  0  0  0  0  0  0  0  0  0  0  0
   12.5135    6.5957   21.8396 C   0  0  0  0  0  0  0  0  0  0  0  0
   10.9406    8.2330   21.1350 C   0  0  0  0  0  0  0  0  0  0  0  0
    9.6648    8.5956   21.7310 C   0  0  0  0  0  0  0  0  0  0  0  0
   10.8829    1.7153   20.9865 C   0  0  0  0  0  0  0  0  0  0  0  0
    5.7768    2.8533   23.7910 C   0  0  0  0  0  0  0  0  0  0  0  0
    9.7977    1.4791   21.6912 N   0  0  0  0  0  0  0  0  0  0  0  0
    6.5976    9.3401   22.6478 N   0  0  0  0  0  0  0  0  0  0  0  0
   11.2031    3.0042   20.6246 C   0  0  0  0  0  0  0  0  0  0  0  0
   12.8688    7.7370   22.7287 C   0  0  0  0  0  0  0  0  0  0  0  0
    7.4487    9.1361   23.6506 C   0  0  0  0  0  0  0  0  0  0  0  0
    8.9772    2.5025   22.0273 C   0  0  0  0  0  0  0  0  0  0  0  0
   10.4859    4.0901   20.9730 C   0  0  0  0  0  0  0  0  0  0  0  0
   11.0962    9.3293   23.5072 C   0  0  0  0  0  0  0  0  0  0  0  0
    5.1273    7.8529   23.6208 N   0  0  0  0  0  0  0  0  0  0  0  0
    9.7552    9.2338   23.0171 N   0  0  0  0  0  0  0  0  0  0  0  0
   11.1797    6.7591   21.3326 N   0  0  0  0  0  0  0  0  0  0  0  0
   11.7728    8.0337   23.7267 C   0  0  0  0  0  0  0  0  0  0  0  0
    7.1194    8.3344   24.6775 C   0  0  0  0  0  0  0  0  0  0  0  0
    8.4311    4.7963   22.0500 C   0  0  0  0  0  0  0  0  0  0  0  0
    8.7393   10.8706   24.1871 O   0  0  0  0  0  0  0  0  0  0  0  0
    9.3093    3.8166   21.6712 C   0  0  0  0  0  0  0  0  0  0  0  0
  1  5  1  0
  1 15  4  0
  1 22  4  0
  2 20  1  0
  2 24  1  0
  3  6  4  0
  3 27  4  0
  4 22  4  0
  4 26  4  0
  6  7  4  0
  6 13  1  0
  7 19  4  0
  8 18  1  0
  8 23  1  0
  8 28  2  0
  9 17  1  0
  9 24  1  0
 10 11  1  0
 10 24  1  0
 11 23  1  0
 12 14  4  0
 12 16  4  0
 14 19  4  0
 15 18  4  0
 16 20  4  0
 17 25  1  0
 18 26  4  0
 19 29  4  0
 20 29  4  0
 21 23  1  0
 21 25  1  0
 27 29  4  0
M  END
$$$$

 Created by Python create_sdf_string function

 29 32  0  0  0  0  0  0  0  0999 V2000
    5.4450    8.7154   22.6662 C   0  0  0  0  0  0  0  0  0  0  0  0
   10.9154    5.4574   20.5483 C   0  0  0  0  0  0  0  0  0  0  0  0
    7.2709    4.5089   22.7542 C   0  0  0  0  0  0  0  0  0  0  0  0
    5.9698    7.6329   24.6581 C   0  0  0  0  0  0  0  0  0  0  0  0
    4.5542    8.9057   21.7104 O   0  0  0  0  0  0  0  0  0  0  0  0
    6.9895    3.2085   23.0690 C   0  0  0  0  0  0  0  0  0  0  0  0
    7.8391    2.2253   22.7260 N   0  0  0  0  0  0  0  0  0  0  0  0
    8.6968    9.8373   23.6359 C   0  0  0  0  0  0  0  0  0  0  0  0
   12.5135    6.5957   21.8396 C   0  0  0  0  0  0  0  0  0  0  0  0
   10.9406    8.2330   21.1350 C   0  0  0  0  0  0  0  0  0  0  0  0
    9.6648    8.5956   21.7310 C   0  0  0  0  0  0  0  0  0  0  0  0
   10.8829    1.7153   20.9865 C   0  0  0  0  0  0  0  0  0  0  0  0
    5.7768    2.8533   23.7910 C   0  0  0  0  0  0  0  0  0  0  0  0
    9.7977    1.4791   21.6912 N   0  0  0  0  0  0  0  0  0  0  0  0
    6.5976    9.3401   22.6478 N   0  0  0  0  0  0  0  0  0  0  0  0
   11.2031    3.0042   20.6246 C   0  0  0  0  0  0  0  0  0  0  0  0
   12.8688    7.7370   22.7287 C   0  0  0  0  0  0  0  0  0  0  0  0
    7.4487    9.1361   23.6506 C   0  0  0  0  0  0  0  0  0  0  0  0
    8.9772    2.5025   22.0273 C   0  0  0  0  0  0  0  0  0  0  0  0
   10.4859    4.0901   20.9730 C   0  0  0  0  0  0  0  0  0  0  0  0
   11.0962    9.3293   23.5072 C   0  0  0  0  0  0  0  0  0  0  0  0
    5.1273    7.8529   23.6208 N   0  0  0  0  0  0  0  0  0  0  0  0
    9.7552    9.2338   23.0171 N   0  0  0  0  0  0  0  0  0  0  0  0
   11.1797    6.7591   21.3326 N   0  0  0  0  0  0  0  0  0  0  0  0
   11.7728    8.0337   23.7267 C   0  0  0  0  0  0  0  0  0  0  0  0
    7.1194    8.3344   24.6775 C   0  0  0  0  0  0  0  0  0  0  0  0
    8.4311    4.7963   22.0500 C   0  0  0  0  0  0  0  0  0  0  0  0
    8.7393   10.8706   24.1871 O   0  0  0  0  0  0  0  0  0  0  0  0
    9.3093    3.8166   21.6712 C   0  0  0  0  0  0  0  0  0  0  0  0
  1  5  1  0
  1 15  4  0
  1 22  4  0
  2 20  1  0
  2 24  1  0
  3  6  4  0
  3 27  4  0
  4 22  4  0
  4 26  4  0
  6  7  4  0
  6 13  1  0
  7 19  4  0
  8 18  1  0
  8 23  1  0
  8 28  2  0
  9 17  1  0
  9 24  1  0
 10 11  1  0
 10 24  1  0
 11 23  1  0
 12 14  4  0
 12 16  4  0
 14 19  4  0
 15 18  4  0
 16 20  4  0
 17 25  1  0
 18 26  4  0
 19 29  4  0
 20 29  4  0
 21 23  1  0
 21 25  1  0
 27 29  4  0
M  END
$$$$

 Created by Python create_sdf_string function

 29 32  0  0  0  0  0  0  0  0999 V2000
    5.4450    8.7154   22.6662 C   0  0  0  0  0  0  0  0  0  0  0  0
   10.9154    5.4574   20.5483 C   0  0  0  0  0  0  0  0  0  0  0  0
    7.2709    4.5089   22.7542 C   0  0  0  0  0  0  0  0  0  0  0  0
    5.9698    7.6329   24.6581 C   0  0  0  0  0  0  0  0  0  0  0  0
    4.5542    8.9057   21.7104 O   0  0  0  0  0  0  0  0  0  0  0  0
    6.9895    3.2085   23.0690 C   0  0  0  0  0  0  0  0  0  0  0  0
    7.8391    2.2253   22.7260 N   0  0  0  0  0  0  0  0  0  0  0  0
    8.6968    9.8373   23.6359 C   0  0  0  0  0  0  0  0  0  0  0  0
   12.5135    6.5957   21.8396 C   0  0  0  0  0  0  0  0  0  0  0  0
   10.9406    8.2330   21.1350 C   0  0  0  0  0  0  0  0  0  0  0  0
    9.6648    8.5956   21.7310 C   0  0  0  0  0  0  0  0  0  0  0  0
   10.8829    1.7153   20.9865 C   0  0  0  0  0  0  0  0  0  0  0  0
    5.7768    2.8533   23.7910 C   0  0  0  0  0  0  0  0  0  0  0  0
    9.7977    1.4791   21.6912 N   0  0  0  0  0  0  0  0  0  0  0  0
    6.5976    9.3401   22.6478 N   0  0  0  0  0  0  0  0  0  0  0  0
   11.2031    3.0042   20.6246 C   0  0  0  0  0  0  0  0  0  0  0  0
   12.8688    7.7370   22.7287 C   0  0  0  0  0  0  0  0  0  0  0  0
    7.4487    9.1361   23.6506 C   0  0  0  0  0  0  0  0  0  0  0  0
    8.9772    2.5025   22.0273 C   0  0  0  0  0  0  0  0  0  0  0  0
   10.4859    4.0901   20.9730 C   0  0  0  0  0  0  0  0  0  0  0  0
   11.0962    9.3293   23.5072 C   0  0  0  0  0  0  0  0  0  0  0  0
    5.1273    7.8529   23.6208 N   0  0  0  0  0  0  0  0  0  0  0  0
    9.7552    9.2338   23.0171 N   0  0  0  0  0  0  0  0  0  0  0  0
   11.1797    6.7591   21.3326 N   0  0  0  0  0  0  0  0  0  0  0  0
   11.7728    8.0337   23.7267 C   0  0  0  0  0  0  0  0  0  0  0  0
    7.1194    8.3344   24.6775 C   0  0  0  0  0  0  0  0  0  0  0  0
    8.4311    4.7963   22.0500 C   0  0  0  0  0  0  0  0  0  0  0  0
    8.7393   10.8706   24.1871 O   0  0  0  0  0  0  0  0  0  0  0  0
    9.3093    3.8166   21.6712 C   0  0  0  0  0  0  0  0  0  0  0  0
  1  5  1  0
  1 15  4  0
  1 22  4  0
  2 20  1  0
  2 24  1  0
  3  6  4  0
  3 27  4  0
  4 22  4  0
  4 26  4  0
  6  7  4  0
  6 13  1  0
  7 19  4  0
  8 18  1  0
  8 23  1  0
  8 28  2  0
  9 17  1  0
  9 24  1  0
 10 11  1  0
 10 24  1  0
 11 23  1  0
 12 14  4  0
 12 16  4  0
 14 19  4  0
 15 18  4  0
 16 20  4  0
 17 25  1  0
 18 26  4  0
 19 29  4  0
 20 29  4  0
 21 23  1  0
 21 25  1  0
 27 29  4  0
M  END
$$$$

 Created by Python create_sdf_string function

 29 32  0  0  0  0  0  0  0  0999 V2000
    5.4450    8.7154   22.6662 C   0  0  0  0  0  0  0  0  0  0  0  0
   10.9154    5.4574   20.5483 C   0  0  0  0  0  0  0  0  0  0  0  0
    7.2709    4.5089   22.7542 C   0  0  0  0  0  0  0  0  0  0  0  0
    5.9698    7.6329   24.6581 C   0  0  0  0  0  0  0  0  0  0  0  0
    4.5542    8.9057   21.7104 O   0  0  0  0  0  0  0  0  0  0  0  0
    6.9895    3.2085   23.0690 C   0  0  0  0  0  0  0  0  0  0  0  0
    7.8391    2.2253   22.7260 N   0  0  0  0  0  0  0  0  0  0  0  0
    8.6968    9.8373   23.6359 C   0  0  0  0  0  0  0  0  0  0  0  0
   12.5135    6.5957   21.8396 C   0  0  0  0  0  0  0  0  0  0  0  0
   10.9406    8.2330   21.1350 C   0  0  0  0  0  0  0  0  0  0  0  0
    9.6648    8.5956   21.7310 C   0  0  0  0  0  0  0  0  0  0  0  0
   10.8829    1.7153   20.9865 C   0  0  0  0  0  0  0  0  0  0  0  0
    5.7768    2.8533   23.7910 C   0  0  0  0  0  0  0  0  0  0  0  0
    9.7977    1.4791   21.6912 N   0  0  0  0  0  0  0  0  0  0  0  0
    6.5976    9.3401   22.6478 N   0  0  0  0  0  0  0  0  0  0  0  0
   11.2031    3.0042   20.6246 C   0  0  0  0  0  0  0  0  0  0  0  0
   12.8688    7.7370   22.7287 C   0  0  0  0  0  0  0  0  0  0  0  0
    7.4487    9.1361   23.6506 C   0  0  0  0  0  0  0  0  0  0  0  0
    8.9772    2.5025   22.0273 C   0  0  0  0  0  0  0  0  0  0  0  0
   10.4859    4.0901   20.9730 C   0  0  0  0  0  0  0  0  0  0  0  0
   11.0962    9.3293   23.5072 C   0  0  0  0  0  0  0  0  0  0  0  0
    5.1273    7.8529   23.6208 N   0  0  0  0  0  0  0  0  0  0  0  0
    9.7552    9.2338   23.0171 N   0  0  0  0  0  0  0  0  0  0  0  0
   11.1797    6.7591   21.3326 N   0  0  0  0  0  0  0  0  0  0  0  0
   11.7728    8.0337   23.7267 C   0  0  0  0  0  0  0  0  0  0  0  0
    7.1194    8.3344   24.6775 C   0  0  0  0  0  0  0  0  0  0  0  0
    8.4311    4.7963   22.0500 C   0  0  0  0  0  0  0  0  0  0  0  0
    8.7393   10.8706   24.1871 O   0  0  0  0  0  0  0  0  0  0  0  0
    9.3093    3.8166   21.6712 C   0  0  0  0  0  0  0  0  0  0  0  0
  1  5  1  0
  1 15  4  0
  1 22  4  0
  2 20  1  0
  2 24  1  0
  3  6  4  0
  3 27  4  0
  4 22  4  0
  4 26  4  0
  6  7  4  0
  6 13  1  0
  7 19  4  0
  8 18  1  0
  8 23  1  0
  8 28  2  0
  9 17  1  0
  9 24  1  0
 10 11  1  0
 10 24  1  0
 11 23  1  0
 12 14  4  0
 12 16  4  0
 14 19  4  0
 15 18  4  0
 16 20  4  0
 17 25  1  0
 18 26  4  0
 19 29  4  0
 20 29  4  0
 21 23  1  0
 21 25  1  0
 27 29  4  0
M  END
$$$$

 Created by Python create_sdf_string function

 29 32  0  0  0  0  0  0  0  0999 V2000
    5.4450    8.7154   22.6662 C   0  0  0  0  0  0  0  0  0  0  0  0
   10.9154    5.4574   20.5483 C   0  0  0  0  0  0  0  0  0  0  0  0
    7.2709    4.5089   22.7542 C   0  0  0  0  0  0  0  0  0  0  0  0
    5.9698    7.6329   24.6581 C   0  0  0  0  0  0  0  0  0  0  0  0
    4.5542    8.9057   21.7104 O   0  0  0  0  0  0  0  0  0  0  0  0
    6.9895    3.2085   23.0690 C   0  0  0  0  0  0  0  0  0  0  0  0
    7.8391    2.2253   22.7260 N   0  0  0  0  0  0  0  0  0  0  0  0
    8.6968    9.8373   23.6359 C   0  0  0  0  0  0  0  0  0  0  0  0
   12.5135    6.5957   21.8396 C   0  0  0  0  0  0  0  0  0  0  0  0
   10.9406    8.2330   21.1350 C   0  0  0  0  0  0  0  0  0  0  0  0
    9.6648    8.5956   21.7310 C   0  0  0  0  0  0  0  0  0  0  0  0
   10.8829    1.7153   20.9865 C   0  0  0  0  0  0  0  0  0  0  0  0
    5.7768    2.8533   23.7910 C   0  0  0  0  0  0  0  0  0  0  0  0
    9.7977    1.4791   21.6912 N   0  0  0  0  0  0  0  0  0  0  0  0
    6.5976    9.3401   22.6478 N   0  0  0  0  0  0  0  0  0  0  0  0
   11.2031    3.0042   20.6246 C   0  0  0  0  0  0  0  0  0  0  0  0
   12.8688    7.7370   22.7287 C   0  0  0  0  0  0  0  0  0  0  0  0
    7.4487    9.1361   23.6506 C   0  0  0  0  0  0  0  0  0  0  0  0
    8.9772    2.5025   22.0273 C   0  0  0  0  0  0  0  0  0  0  0  0
   10.4859    4.0901   20.9730 C   0  0  0  0  0  0  0  0  0  0  0  0
   11.0962    9.3293   23.5072 C   0  0  0  0  0  0  0  0  0  0  0  0
    5.1273    7.8529   23.6208 N   0  0  0  0  0  0  0  0  0  0  0  0
    9.7552    9.2338   23.0171 N   0  0  0  0  0  0  0  0  0  0  0  0
   11.1797    6.7591   21.3326 N   0  0  0  0  0  0  0  0  0  0  0  0
   11.7728    8.0337   23.7267 C   0  0  0  0  0  0  0  0  0  0  0  0
    7.1194    8.3344   24.6775 C   0  0  0  0  0  0  0  0  0  0  0  0
    8.4311    4.7963   22.0500 C   0  0  0  0  0  0  0  0  0  0  0  0
    8.7393   10.8706   24.1871 O   0  0  0  0  0  0  0  0  0  0  0  0
    9.3093    3.8166   21.6712 C   0  0  0  0  0  0  0  0  0  0  0  0
  1  5  1  0
  1 15  4  0
  1 22  4  0
  2 20  1  0
  2 24  1  0
  3  6  4  0
  3 27  4  0
  4 22  4  0
  4 26  4  0
  6  7  4  0
  6 13  1  0
  7 19  4  0
  8 18  1  0
  8 23  1  0
  8 28  2  0
  9 17  1  0
  9 24  1  0
 10 11  1  0
 10 24  1  0
 11 23  1  0
 12 14  4  0
 12 16  4  0
 14 19  4  0
 15 18  4  0
 16 20  4  0
 17 25  1  0
 18 26  4  0
 19 29  4  0
 20 29  4  0
 21 23  1  0
 21 25  1  0
 27 29  4  0
M  END
$$$$

 Created by Python create_sdf_string function

 29 32  0  0  0  0  0  0  0  0999 V2000
    5.4450    8.7154   22.6662 C   0  0  0  0  0  0  0  0  0  0  0  0
   10.9154    5.4574   20.5483 C   0  0  0  0  0  0  0  0  0  0  0  0
    7.2709    4.5089   22.7542 C   0  0  0  0  0  0  0  0  0  0  0  0
    5.9698    7.6329   24.6581 C   0  0  0  0  0  0  0  0  0  0  0  0
    4.5542    8.9057   21.7104 O   0  0  0  0  0  0  0  0  0  0  0  0
    6.9895    3.2085   23.0690 C   0  0  0  0  0  0  0  0  0  0  0  0
    7.8391    2.2253   22.7260 N   0  0  0  0  0  0  0  0  0  0  0  0
    8.6968    9.8373   23.6359 C   0  0  0  0  0  0  0  0  0  0  0  0
   12.5135    6.5957   21.8396 C   0  0  0  0  0  0  0  0  0  0  0  0
   10.9406    8.2330   21.1350 C   0  0  0  0  0  0  0  0  0  0  0  0
    9.6648    8.5956   21.7310 C   0  0  0  0  0  0  0  0  0  0  0  0
   10.8829    1.7153   20.9865 C   0  0  0  0  0  0  0  0  0  0  0  0
    5.7768    2.8533   23.7910 C   0  0  0  0  0  0  0  0  0  0  0  0
    9.7977    1.4791   21.6912 N   0  0  0  0  0  0  0  0  0  0  0  0
    6.5976    9.3401   22.6478 N   0  0  0  0  0  0  0  0  0  0  0  0
   11.2031    3.0042   20.6246 C   0  0  0  0  0  0  0  0  0  0  0  0
   12.8688    7.7370   22.7287 C   0  0  0  0  0  0  0  0  0  0  0  0
    7.4487    9.1361   23.6506 C   0  0  0  0  0  0  0  0  0  0  0  0
    8.9772    2.5025   22.0273 C   0  0  0  0  0  0  0  0  0  0  0  0
   10.4859    4.0901   20.9730 C   0  0  0  0  0  0  0  0  0  0  0  0
   11.0962    9.3293   23.5072 C   0  0  0  0  0  0  0  0  0  0  0  0
    5.1273    7.8529   23.6208 N   0  0  0  0  0  0  0  0  0  0  0  0
    9.7552    9.2338   23.0171 N   0  0  0  0  0  0  0  0  0  0  0  0
   11.1797    6.7591   21.3326 N   0  0  0  0  0  0  0  0  0  0  0  0
   11.7728    8.0337   23.7267 C   0  0  0  0  0  0  0  0  0  0  0  0
    7.1194    8.3344   24.6775 C   0  0  0  0  0  0  0  0  0  0  0  0
    8.4311    4.7963   22.0500 C   0  0  0  0  0  0  0  0  0  0  0  0
    8.7393   10.8706   24.1871 O   0  0  0  0  0  0  0  0  0  0  0  0
    9.3093    3.8166   21.6712 C   0  0  0  0  0  0  0  0  0  0  0  0
  1  5  1  0
  1 15  4  0
  1 22  4  0
  2 20  1  0
  2 24  1  0
  3  6  4  0
  3 27  4  0
  4 22  4  0
  4 26  4  0
  6  7  4  0
  6 13  1  0
  7 19  4  0
  8 18  1  0
  8 23  1  0
  8 28  2  0
  9 17  1  0
  9 24  1  0
 10 11  1  0
 10 24  1  0
 11 23  1  0
 12 14  4  0
 12 16  4  0
 14 19  4  0
 15 18  4  0
 16 20  4  0
 17 25  1  0
 18 26  4  0
 19 29  4  0
 20 29  4  0
 21 23  1  0
 21 25  1  0
 27 29  4  0
M  END
$$$$

 Created by Python create_sdf_string function

 29 32  0  0  0  0  0  0  0  0999 V2000
    5.4450    8.7154   22.6662 C   0  0  0  0  0  0  0  0  0  0  0  0
   10.9154    5.4574   20.5483 C   0  0  0  0  0  0  0  0  0  0  0  0
    7.2709    4.5089   22.7542 C   0  0  0  0  0  0  0  0  0  0  0  0
    5.9698    7.6329   24.6581 C   0  0  0  0  0  0  0  0  0  0  0  0
    4.5542    8.9057   21.7104 O   0  0  0  0  0  0  0  0  0  0  0  0
    6.9895    3.2085   23.0690 C   0  0  0  0  0  0  0  0  0  0  0  0
    7.8391    2.2253   22.7260 N   0  0  0  0  0  0  0  0  0  0  0  0
    8.6968    9.8373   23.6359 C   0  0  0  0  0  0  0  0  0  0  0  0
   12.5135    6.5957   21.8396 C   0  0  0  0  0  0  0  0  0  0  0  0
   10.9406    8.2330   21.1350 C   0  0  0  0  0  0  0  0  0  0  0  0
    9.6648    8.5956   21.7310 C   0  0  0  0  0  0  0  0  0  0  0  0
   10.8829    1.7153   20.9865 C   0  0  0  0  0  0  0  0  0  0  0  0
    5.7768    2.8533   23.7910 C   0  0  0  0  0  0  0  0  0  0  0  0
    9.7977    1.4791   21.6912 N   0  0  0  0  0  0  0  0  0  0  0  0
    6.5976    9.3401   22.6478 N   0  0  0  0  0  0  0  0  0  0  0  0
   11.2031    3.0042   20.6246 C   0  0  0  0  0  0  0  0  0  0  0  0
   12.8688    7.7370   22.7287 C   0  0  0  0  0  0  0  0  0  0  0  0
    7.4487    9.1361   23.6506 C   0  0  0  0  0  0  0  0  0  0  0  0
    8.9772    2.5025   22.0273 C   0  0  0  0  0  0  0  0  0  0  0  0
   10.4859    4.0901   20.9730 C   0  0  0  0  0  0  0  0  0  0  0  0
   11.0962    9.3293   23.5072 C   0  0  0  0  0  0  0  0  0  0  0  0
    5.1273    7.8529   23.6208 N   0  0  0  0  0  0  0  0  0  0  0  0
    9.7552    9.2338   23.0171 N   0  0  0  0  0  0  0  0  0  0  0  0
   11.1797    6.7591   21.3326 N   0  0  0  0  0  0  0  0  0  0  0  0
   11.7728    8.0337   23.7267 C   0  0  0  0  0  0  0  0  0  0  0  0
    7.1194    8.3344   24.6775 C   0  0  0  0  0  0  0  0  0  0  0  0
    8.4311    4.7963   22.0500 C   0  0  0  0  0  0  0  0  0  0  0  0
    8.7393   10.8706   24.1871 O   0  0  0  0  0  0  0  0  0  0  0  0
    9.3093    3.8166   21.6712 C   0  0  0  0  0  0  0  0  0  0  0  0
  1  5  1  0
  1 15  4  0
  1 22  4  0
  2 20  1  0
  2 24  1  0
  3  6  4  0
  3 27  4  0
  4 22  4  0
  4 26  4  0
  6  7  4  0
  6 13  1  0
  7 19  4  0
  8 18  1  0
  8 23  1  0
  8 28  2  0
  9 17  1  0
  9 24  1  0
 10 11  1  0
 10 24  1  0
 11 23  1  0
 12 14  4  0
 12 16  4  0
 14 19  4  0
 15 18  4  0
 16 20  4  0
 17 25  1  0
 18 26  4  0
 19 29  4  0
 20 29  4  0
 21 23  1  0
 21 25  1  0
 27 29  4  0
M  END
$$$$

 Created by Python create_sdf_string function

 29 32  0  0  0  0  0  0  0  0999 V2000
    5.4450    8.7154   22.6662 C   0  0  0  0  0  0  0  0  0  0  0  0
   10.9154    5.4574   20.5483 C   0  0  0  0  0  0  0  0  0  0  0  0
    7.2709    4.5089   22.7542 C   0  0  0  0  0  0  0  0  0  0  0  0
    5.9698    7.6329   24.6581 C   0  0  0  0  0  0  0  0  0  0  0  0
    4.5542    8.9057   21.7104 O   0  0  0  0  0  0  0  0  0  0  0  0
    6.9895    3.2085   23.0690 C   0  0  0  0  0  0  0  0  0  0  0  0
    7.8391    2.2253   22.7260 N   0  0  0  0  0  0  0  0  0  0  0  0
    8.6968    9.8373   23.6359 C   0  0  0  0  0  0  0  0  0  0  0  0
   12.5135    6.5957   21.8396 C   0  0  0  0  0  0  0  0  0  0  0  0
   10.9406    8.2330   21.1350 C   0  0  0  0  0  0  0  0  0  0  0  0
    9.6648    8.5956   21.7310 C   0  0  0  0  0  0  0  0  0  0  0  0
   10.8829    1.7153   20.9865 C   0  0  0  0  0  0  0  0  0  0  0  0
    5.7768    2.8533   23.7910 C   0  0  0  0  0  0  0  0  0  0  0  0
    9.7977    1.4791   21.6912 N   0  0  0  0  0  0  0  0  0  0  0  0
    6.5976    9.3401   22.6478 N   0  0  0  0  0  0  0  0  0  0  0  0
   11.2031    3.0042   20.6246 C   0  0  0  0  0  0  0  0  0  0  0  0
   12.8688    7.7370   22.7287 C   0  0  0  0  0  0  0  0  0  0  0  0
    7.4487    9.1361   23.6506 C   0  0  0  0  0  0  0  0  0  0  0  0
    8.9772    2.5025   22.0273 C   0  0  0  0  0  0  0  0  0  0  0  0
   10.4859    4.0901   20.9730 C   0  0  0  0  0  0  0  0  0  0  0  0
   11.0962    9.3293   23.5072 C   0  0  0  0  0  0  0  0  0  0  0  0
    5.1273    7.8529   23.6208 N   0  0  0  0  0  0  0  0  0  0  0  0
    9.7552    9.2338   23.0171 N   0  0  0  0  0  0  0  0  0  0  0  0
   11.1797    6.7591   21.3326 N   0  0  0  0  0  0  0  0  0  0  0  0
   11.7728    8.0337   23.7267 C   0  0  0  0  0  0  0  0  0  0  0  0
    7.1194    8.3344   24.6775 C   0  0  0  0  0  0  0  0  0  0  0  0
    8.4311    4.7963   22.0500 C   0  0  0  0  0  0  0  0  0  0  0  0
    8.7393   10.8706   24.1871 O   0  0  0  0  0  0  0  0  0  0  0  0
    9.3093    3.8166   21.6712 C   0  0  0  0  0  0  0  0  0  0  0  0
  1  5  1  0
  1 15  4  0
  1 22  4  0
  2 20  1  0
  2 24  1  0
  3  6  4  0
  3 27  4  0
  4 22  4  0
  4 26  4  0
  6  7  4  0
  6 13  1  0
  7 19  4  0
  8 18  1  0
  8 23  1  0
  8 28  2  0
  9 17  1  0
  9 24  1  0
 10 11  1  0
 10 24  1  0
 11 23  1  0
 12 14  4  0
 12 16  4  0
 14 19  4  0
 15 18  4  0
 16 20  4  0
 17 25  1  0
 18 26  4  0
 19 29  4  0
 20 29  4  0
 21 23  1  0
 21 25  1  0
 27 29  4  0
M  END
$$$$

 Created by Python create_sdf_string function

 29 32  0  0  0  0  0  0  0  0999 V2000
    5.4450    8.7154   22.6662 C   0  0  0  0  0  0  0  0  0  0  0  0
   10.9154    5.4574   20.5483 C   0  0  0  0  0  0  0  0  0  0  0  0
    7.2709    4.5089   22.7542 C   0  0  0  0  0  0  0  0  0  0  0  0
    5.9698    7.6329   24.6581 C   0  0  0  0  0  0  0  0  0  0  0  0
    4.5542    8.9057   21.7104 O   0  0  0  0  0  0  0  0  0  0  0  0
    6.9895    3.2085   23.0690 C   0  0  0  0  0  0  0  0  0  0  0  0
    7.8391    2.2253   22.7260 N   0  0  0  0  0  0  0  0  0  0  0  0
    8.6968    9.8373   23.6359 C   0  0  0  0  0  0  0  0  0  0  0  0
   12.5135    6.5957   21.8396 C   0  0  0  0  0  0  0  0  0  0  0  0
   10.9406    8.2330   21.1350 C   0  0  0  0  0  0  0  0  0  0  0  0
    9.6648    8.5956   21.7310 C   0  0  0  0  0  0  0  0  0  0  0  0
   10.8829    1.7153   20.9865 C   0  0  0  0  0  0  0  0  0  0  0  0
    5.7768    2.8533   23.7910 C   0  0  0  0  0  0  0  0  0  0  0  0
    9.7977    1.4791   21.6912 N   0  0  0  0  0  0  0  0  0  0  0  0
    6.5976    9.3401   22.6478 N   0  0  0  0  0  0  0  0  0  0  0  0
   11.2031    3.0042   20.6246 C   0  0  0  0  0  0  0  0  0  0  0  0
   12.8688    7.7370   22.7287 C   0  0  0  0  0  0  0  0  0  0  0  0
    7.4487    9.1361   23.6506 C   0  0  0  0  0  0  0  0  0  0  0  0
    8.9772    2.5025   22.0273 C   0  0  0  0  0  0  0  0  0  0  0  0
   10.4859    4.0901   20.9730 C   0  0  0  0  0  0  0  0  0  0  0  0
   11.0962    9.3293   23.5072 C   0  0  0  0  0  0  0  0  0  0  0  0
    5.1273    7.8529   23.6208 N   0  0  0  0  0  0  0  0  0  0  0  0
    9.7552    9.2338   23.0171 N   0  0  0  0  0  0  0  0  0  0  0  0
   11.1797    6.7591   21.3326 N   0  0  0  0  0  0  0  0  0  0  0  0
   11.7728    8.0337   23.7267 C   0  0  0  0  0  0  0  0  0  0  0  0
    7.1194    8.3344   24.6775 C   0  0  0  0  0  0  0  0  0  0  0  0
    8.4311    4.7963   22.0500 C   0  0  0  0  0  0  0  0  0  0  0  0
    8.7393   10.8706   24.1871 O   0  0  0  0  0  0  0  0  0  0  0  0
    9.3093    3.8166   21.6712 C   0  0  0  0  0  0  0  0  0  0  0  0
  1  5  1  0
  1 15  4  0
  1 22  4  0
  2 20  1  0
  2 24  1  0
  3  6  4  0
  3 27  4  0
  4 22  4  0
  4 26  4  0
  6  7  4  0
  6 13  1  0
  7 19  4  0
  8 18  1  0
  8 23  1  0
  8 28  2  0
  9 17  1  0
  9 24  1  0
 10 11  1  0
 10 24  1  0
 11 23  1  0
 12 14  4  0
 12 16  4  0
 14 19  4  0
 15 18  4  0
 16 20  4  0
 17 25  1  0
 18 26  4  0
 19 29  4  0
 20 29  4  0
 21 23  1  0
 21 25  1  0
 27 29  4  0
M  END
$$$$

 Created by Python create_sdf_string function

 29 32  0  0  0  0  0  0  0  0999 V2000
    5.4450    8.7154   22.6662 C   0  0  0  0  0  0  0  0  0  0  0  0
   10.9154    5.4574   20.5483 C   0  0  0  0  0  0  0  0  0  0  0  0
    7.2709    4.5089   22.7542 C   0  0  0  0  0  0  0  0  0  0  0  0
    5.9698    7.6329   24.6581 C   0  0  0  0  0  0  0  0  0  0  0  0
    4.5542    8.9057   21.7104 O   0  0  0  0  0  0  0  0  0  0  0  0
    6.9895    3.2085   23.0690 C   0  0  0  0  0  0  0  0  0  0  0  0
    7.8391    2.2253   22.7260 N   0  0  0  0  0  0  0  0  0  0  0  0
    8.6968    9.8373   23.6359 C   0  0  0  0  0  0  0  0  0  0  0  0
   12.5135    6.5957   21.8396 C   0  0  0  0  0  0  0  0  0  0  0  0
   10.9406    8.2330   21.1350 C   0  0  0  0  0  0  0  0  0  0  0  0
    9.6648    8.5956   21.7310 C   0  0  0  0  0  0  0  0  0  0  0  0
   10.8829    1.7153   20.9865 C   0  0  0  0  0  0  0  0  0  0  0  0
    5.7768    2.8533   23.7910 C   0  0  0  0  0  0  0  0  0  0  0  0
    9.7977    1.4791   21.6912 N   0  0  0  0  0  0  0  0  0  0  0  0
    6.5976    9.3401   22.6478 N   0  0  0  0  0  0  0  0  0  0  0  0
   11.2031    3.0042   20.6246 C   0  0  0  0  0  0  0  0  0  0  0  0
   12.8688    7.7370   22.7287 C   0  0  0  0  0  0  0  0  0  0  0  0
    7.4487    9.1361   23.6506 C   0  0  0  0  0  0  0  0  0  0  0  0
    8.9772    2.5025   22.0273 C   0  0  0  0  0  0  0  0  0  0  0  0
   10.4859    4.0901   20.9730 C   0  0  0  0  0  0  0  0  0  0  0  0
   11.0962    9.3293   23.5072 C   0  0  0  0  0  0  0  0  0  0  0  0
    5.1273    7.8529   23.6208 N   0  0  0  0  0  0  0  0  0  0  0  0
    9.7552    9.2338   23.0171 N   0  0  0  0  0  0  0  0  0  0  0  0
   11.1797    6.7591   21.3326 N   0  0  0  0  0  0  0  0  0  0  0  0
   11.7728    8.0337   23.7267 C   0  0  0  0  0  0  0  0  0  0  0  0
    7.1194    8.3344   24.6775 C   0  0  0  0  0  0  0  0  0  0  0  0
    8.4311    4.7963   22.0500 C   0  0  0  0  0  0  0  0  0  0  0  0
    8.7393   10.8706   24.1871 O   0  0  0  0  0  0  0  0  0  0  0  0
    9.3093    3.8166   21.6712 C   0  0  0  0  0  0  0  0  0  0  0  0
  1  5  1  0
  1 15  4  0
  1 22  4  0
  2 20  1  0
  2 24  1  0
  3  6  4  0
  3 27  4  0
  4 22  4  0
  4 26  4  0
  6  7  4  0
  6 13  1  0
  7 19  4  0
  8 18  1  0
  8 23  1  0
  8 28  2  0
  9 17  1  0
  9 24  1  0
 10 11  1  0
 10 24  1  0
 11 23  1  0
 12 14  4  0
 12 16  4  0
 14 19  4  0
 15 18  4  0
 16 20  4  0
 17 25  1  0
 18 26  4  0
 19 29  4  0
 20 29  4  0
 21 23  1  0
 21 25  1  0
 27 29  4  0
M  END
$$$$

 Created by Python create_sdf_string function

 29 32  0  0  0  0  0  0  0  0999 V2000
    5.4450    8.7154   22.6662 C   0  0  0  0  0  0  0  0  0  0  0  0
   10.9154    5.4574   20.5483 C   0  0  0  0  0  0  0  0  0  0  0  0
    7.2709    4.5089   22.7542 C   0  0  0  0  0  0  0  0  0  0  0  0
    5.9698    7.6329   24.6581 C   0  0  0  0  0  0  0  0  0  0  0  0
    4.5542    8.9057   21.7104 O   0  0  0  0  0  0  0  0  0  0  0  0
    6.9895    3.2085   23.0690 C   0  0  0  0  0  0  0  0  0  0  0  0
    7.8391    2.2253   22.7260 N   0  0  0  0  0  0  0  0  0  0  0  0
    8.6968    9.8373   23.6359 C   0  0  0  0  0  0  0  0  0  0  0  0
   12.5135    6.5957   21.8396 C   0  0  0  0  0  0  0  0  0  0  0  0
   10.9406    8.2330   21.1350 C   0  0  0  0  0  0  0  0  0  0  0  0
    9.6648    8.5956   21.7310 C   0  0  0  0  0  0  0  0  0  0  0  0
   10.8829    1.7153   20.9865 C   0  0  0  0  0  0  0  0  0  0  0  0
    5.7768    2.8533   23.7910 C   0  0  0  0  0  0  0  0  0  0  0  0
    9.7977    1.4791   21.6912 N   0  0  0  0  0  0  0  0  0  0  0  0
    6.5976    9.3401   22.6478 N   0  0  0  0  0  0  0  0  0  0  0  0
   11.2031    3.0042   20.6246 C   0  0  0  0  0  0  0  0  0  0  0  0
   12.8688    7.7370   22.7287 C   0  0  0  0  0  0  0  0  0  0  0  0
    7.4487    9.1361   23.6506 C   0  0  0  0  0  0  0  0  0  0  0  0
    8.9772    2.5025   22.0273 C   0  0  0  0  0  0  0  0  0  0  0  0
   10.4859    4.0901   20.9730 C   0  0  0  0  0  0  0  0  0  0  0  0
   11.0962    9.3293   23.5072 C   0  0  0  0  0  0  0  0  0  0  0  0
    5.1273    7.8529   23.6208 N   0  0  0  0  0  0  0  0  0  0  0  0
    9.7552    9.2338   23.0171 N   0  0  0  0  0  0  0  0  0  0  0  0
   11.1797    6.7591   21.3326 N   0  0  0  0  0  0  0  0  0  0  0  0
   11.7728    8.0337   23.7267 C   0  0  0  0  0  0  0  0  0  0  0  0
    7.1194    8.3344   24.6775 C   0  0  0  0  0  0  0  0  0  0  0  0
    8.4311    4.7963   22.0500 C   0  0  0  0  0  0  0  0  0  0  0  0
    8.7393   10.8706   24.1871 O   0  0  0  0  0  0  0  0  0  0  0  0
    9.3093    3.8166   21.6712 C   0  0  0  0  0  0  0  0  0  0  0  0
  1  5  1  0
  1 15  4  0
  1 22  4  0
  2 20  1  0
  2 24  1  0
  3  6  4  0
  3 27  4  0
  4 22  4  0
  4 26  4  0
  6  7  4  0
  6 13  1  0
  7 19  4  0
  8 18  1  0
  8 23  1  0
  8 28  2  0
  9 17  1  0
  9 24  1  0
 10 11  1  0
 10 24  1  0
 11 23  1  0
 12 14  4  0
 12 16  4  0
 14 19  4  0
 15 18  4  0
 16 20  4  0
 17 25  1  0
 18 26  4  0
 19 29  4  0
 20 29  4  0
 21 23  1  0
 21 25  1  0
 27 29  4  0
M  END
$$$$

 Created by Python create_sdf_string function

 29 32  0  0  0  0  0  0  0  0999 V2000
    5.4450    8.7154   22.6662 C   0  0  0  0  0  0  0  0  0  0  0  0
   10.9154    5.4574   20.5483 C   0  0  0  0  0  0  0  0  0  0  0  0
    7.2709    4.5089   22.7542 C   0  0  0  0  0  0  0  0  0  0  0  0
    5.9698    7.6329   24.6581 C   0  0  0  0  0  0  0  0  0  0  0  0
    4.5542    8.9057   21.7104 O   0  0  0  0  0  0  0  0  0  0  0  0
    6.9895    3.2085   23.0690 C   0  0  0  0  0  0  0  0  0  0  0  0
    7.8391    2.2253   22.7260 N   0  0  0  0  0  0  0  0  0  0  0  0
    8.6968    9.8373   23.6359 C   0  0  0  0  0  0  0  0  0  0  0  0
   12.5135    6.5957   21.8396 C   0  0  0  0  0  0  0  0  0  0  0  0
   10.9406    8.2330   21.1350 C   0  0  0  0  0  0  0  0  0  0  0  0
    9.6648    8.5956   21.7310 C   0  0  0  0  0  0  0  0  0  0  0  0
   10.8829    1.7153   20.9865 C   0  0  0  0  0  0  0  0  0  0  0  0
    5.7768    2.8533   23.7910 C   0  0  0  0  0  0  0  0  0  0  0  0
    9.7977    1.4791   21.6912 N   0  0  0  0  0  0  0  0  0  0  0  0
    6.5976    9.3401   22.6478 N   0  0  0  0  0  0  0  0  0  0  0  0
   11.2031    3.0042   20.6246 C   0  0  0  0  0  0  0  0  0  0  0  0
   12.8688    7.7370   22.7287 C   0  0  0  0  0  0  0  0  0  0  0  0
    7.4487    9.1361   23.6506 C   0  0  0  0  0  0  0  0  0  0  0  0
    8.9772    2.5025   22.0273 C   0  0  0  0  0  0  0  0  0  0  0  0
   10.4859    4.0901   20.9730 C   0  0  0  0  0  0  0  0  0  0  0  0
   11.0962    9.3293   23.5072 C   0  0  0  0  0  0  0  0  0  0  0  0
    5.1273    7.8529   23.6208 N   0  0  0  0  0  0  0  0  0  0  0  0
    9.7552    9.2338   23.0171 N   0  0  0  0  0  0  0  0  0  0  0  0
   11.1797    6.7591   21.3326 N   0  0  0  0  0  0  0  0  0  0  0  0
   11.7728    8.0337   23.7267 C   0  0  0  0  0  0  0  0  0  0  0  0
    7.1194    8.3344   24.6775 C   0  0  0  0  0  0  0  0  0  0  0  0
    8.4311    4.7963   22.0500 C   0  0  0  0  0  0  0  0  0  0  0  0
    8.7393   10.8706   24.1871 O   0  0  0  0  0  0  0  0  0  0  0  0
    9.3093    3.8166   21.6712 C   0  0  0  0  0  0  0  0  0  0  0  0
  1  5  1  0
  1 15  4  0
  1 22  4  0
  2 20  1  0
  2 24  1  0
  3  6  4  0
  3 27  4  0
  4 22  4  0
  4 26  4  0
  6  7  4  0
  6 13  1  0
  7 19  4  0
  8 18  1  0
  8 23  1  0
  8 28  2  0
  9 17  1  0
  9 24  1  0
 10 11  1  0
 10 24  1  0
 11 23  1  0
 12 14  4  0
 12 16  4  0
 14 19  4  0
 15 18  4  0
 16 20  4  0
 17 25  1  0
 18 26  4  0
 19 29  4  0
 20 29  4  0
 21 23  1  0
 21 25  1  0
 27 29  4  0
M  END
$$$$

 Created by Python create_sdf_string function

 29 32  0  0  0  0  0  0  0  0999 V2000
    5.4450    8.7154   22.6662 C   0  0  0  0  0  0  0  0  0  0  0  0
   10.9154    5.4574   20.5483 C   0  0  0  0  0  0  0  0  0  0  0  0
    7.2709    4.5089   22.7542 C   0  0  0  0  0  0  0  0  0  0  0  0
    5.9698    7.6329   24.6581 C   0  0  0  0  0  0  0  0  0  0  0  0
    4.5542    8.9057   21.7104 O   0  0  0  0  0  0  0  0  0  0  0  0
    6.9895    3.2085   23.0690 C   0  0  0  0  0  0  0  0  0  0  0  0
    7.8391    2.2253   22.7260 N   0  0  0  0  0  0  0  0  0  0  0  0
    8.6968    9.8373   23.6359 C   0  0  0  0  0  0  0  0  0  0  0  0
   12.5135    6.5957   21.8396 C   0  0  0  0  0  0  0  0  0  0  0  0
   10.9406    8.2330   21.1350 C   0  0  0  0  0  0  0  0  0  0  0  0
    9.6648    8.5956   21.7310 C   0  0  0  0  0  0  0  0  0  0  0  0
   10.8829    1.7153   20.9865 C   0  0  0  0  0  0  0  0  0  0  0  0
    5.7768    2.8533   23.7910 C   0  0  0  0  0  0  0  0  0  0  0  0
    9.7977    1.4791   21.6912 N   0  0  0  0  0  0  0  0  0  0  0  0
    6.5976    9.3401   22.6478 N   0  0  0  0  0  0  0  0  0  0  0  0
   11.2031    3.0042   20.6246 C   0  0  0  0  0  0  0  0  0  0  0  0
   12.8688    7.7370   22.7287 C   0  0  0  0  0  0  0  0  0  0  0  0
    7.4487    9.1361   23.6506 C   0  0  0  0  0  0  0  0  0  0  0  0
    8.9772    2.5025   22.0273 C   0  0  0  0  0  0  0  0  0  0  0  0
   10.4859    4.0901   20.9730 C   0  0  0  0  0  0  0  0  0  0  0  0
   11.0962    9.3293   23.5072 C   0  0  0  0  0  0  0  0  0  0  0  0
    5.1273    7.8529   23.6208 N   0  0  0  0  0  0  0  0  0  0  0  0
    9.7552    9.2338   23.0171 N   0  0  0  0  0  0  0  0  0  0  0  0
   11.1797    6.7591   21.3326 N   0  0  0  0  0  0  0  0  0  0  0  0
   11.7728    8.0337   23.7267 C   0  0  0  0  0  0  0  0  0  0  0  0
    7.1194    8.3344   24.6775 C   0  0  0  0  0  0  0  0  0  0  0  0
    8.4311    4.7963   22.0500 C   0  0  0  0  0  0  0  0  0  0  0  0
    8.7393   10.8706   24.1871 O   0  0  0  0  0  0  0  0  0  0  0  0
    9.3093    3.8166   21.6712 C   0  0  0  0  0  0  0  0  0  0  0  0
  1  5  1  0
  1 15  4  0
  1 22  4  0
  2 20  1  0
  2 24  1  0
  3  6  4  0
  3 27  4  0
  4 22  4  0
  4 26  4  0
  6  7  4  0
  6 13  1  0
  7 19  4  0
  8 18  1  0
  8 23  1  0
  8 28  2  0
  9 17  1  0
  9 24  1  0
 10 11  1  0
 10 24  1  0
 11 23  1  0
 12 14  4  0
 12 16  4  0
 14 19  4  0
 15 18  4  0
 16 20  4  0
 17 25  1  0
 18 26  4  0
 19 29  4  0
 20 29  4  0
 21 23  1  0
 21 25  1  0
 27 29  4  0
M  END
$$$$

 Created by Python create_sdf_string function

 29 32  0  0  0  0  0  0  0  0999 V2000
    5.4450    8.7154   22.6662 C   0  0  0  0  0  0  0  0  0  0  0  0
   10.9154    5.4574   20.5483 C   0  0  0  0  0  0  0  0  0  0  0  0
    7.2709    4.5089   22.7542 C   0  0  0  0  0  0  0  0  0  0  0  0
    5.9698    7.6329   24.6581 C   0  0  0  0  0  0  0  0  0  0  0  0
    4.5542    8.9057   21.7104 O   0  0  0  0  0  0  0  0  0  0  0  0
    6.9895    3.2085   23.0690 C   0  0  0  0  0  0  0  0  0  0  0  0
    7.8391    2.2253   22.7260 N   0  0  0  0  0  0  0  0  0  0  0  0
    8.6968    9.8373   23.6359 C   0  0  0  0  0  0  0  0  0  0  0  0
   12.5135    6.5957   21.8396 C   0  0  0  0  0  0  0  0  0  0  0  0
   10.9406    8.2330   21.1350 C   0  0  0  0  0  0  0  0  0  0  0  0
    9.6648    8.5956   21.7310 C   0  0  0  0  0  0  0  0  0  0  0  0
   10.8829    1.7153   20.9865 C   0  0  0  0  0  0  0  0  0  0  0  0
    5.7768    2.8533   23.7910 C   0  0  0  0  0  0  0  0  0  0  0  0
    9.7977    1.4791   21.6912 N   0  0  0  0  0  0  0  0  0  0  0  0
    6.5976    9.3401   22.6478 N   0  0  0  0  0  0  0  0  0  0  0  0
   11.2031    3.0042   20.6246 C   0  0  0  0  0  0  0  0  0  0  0  0
   12.8688    7.7370   22.7287 C   0  0  0  0  0  0  0  0  0  0  0  0
    7.4487    9.1361   23.6506 C   0  0  0  0  0  0  0  0  0  0  0  0
    8.9772    2.5025   22.0273 C   0  0  0  0  0  0  0  0  0  0  0  0
   10.4859    4.0901   20.9730 C   0  0  0  0  0  0  0  0  0  0  0  0
   11.0962    9.3293   23.5072 C   0  0  0  0  0  0  0  0  0  0  0  0
    5.1273    7.8529   23.6208 N   0  0  0  0  0  0  0  0  0  0  0  0
    9.7552    9.2338   23.0171 N   0  0  0  0  0  0  0  0  0  0  0  0
   11.1797    6.7591   21.3326 N   0  0  0  0  0  0  0  0  0  0  0  0
   11.7728    8.0337   23.7267 C   0  0  0  0  0  0  0  0  0  0  0  0
    7.1194    8.3344   24.6775 C   0  0  0  0  0  0  0  0  0  0  0  0
    8.4311    4.7963   22.0500 C   0  0  0  0  0  0  0  0  0  0  0  0
    8.7393   10.8706   24.1871 O   0  0  0  0  0  0  0  0  0  0  0  0
    9.3093    3.8166   21.6712 C   0  0  0  0  0  0  0  0  0  0  0  0
  1  5  1  0
  1 15  4  0
  1 22  4  0
  2 20  1  0
  2 24  1  0
  3  6  4  0
  3 27  4  0
  4 22  4  0
  4 26  4  0
  6  7  4  0
  6 13  1  0
  7 19  4  0
  8 18  1  0
  8 23  1  0
  8 28  2  0
  9 17  1  0
  9 24  1  0
 10 11  1  0
 10 24  1  0
 11 23  1  0
 12 14  4  0
 12 16  4  0
 14 19  4  0
 15 18  4  0
 16 20  4  0
 17 25  1  0
 18 26  4  0
 19 29  4  0
 20 29  4  0
 21 23  1  0
 21 25  1  0
 27 29  4  0
M  END
$$$$

 Created by Python create_sdf_string function

 29 32  0  0  0  0  0  0  0  0999 V2000
    5.4450    8.7154   22.6662 C   0  0  0  0  0  0  0  0  0  0  0  0
   10.9154    5.4574   20.5483 C   0  0  0  0  0  0  0  0  0  0  0  0
    7.2709    4.5089   22.7542 C   0  0  0  0  0  0  0  0  0  0  0  0
    5.9698    7.6329   24.6581 C   0  0  0  0  0  0  0  0  0  0  0  0
    4.5542    8.9057   21.7104 O   0  0  0  0  0  0  0  0  0  0  0  0
    6.9895    3.2085   23.0690 C   0  0  0  0  0  0  0  0  0  0  0  0
    7.8391    2.2253   22.7260 N   0  0  0  0  0  0  0  0  0  0  0  0
    8.6968    9.8373   23.6359 C   0  0  0  0  0  0  0  0  0  0  0  0
   12.5135    6.5957   21.8396 C   0  0  0  0  0  0  0  0  0  0  0  0
   10.9406    8.2330   21.1350 C   0  0  0  0  0  0  0  0  0  0  0  0
    9.6648    8.5956   21.7310 C   0  0  0  0  0  0  0  0  0  0  0  0
   10.8829    1.7153   20.9865 C   0  0  0  0  0  0  0  0  0  0  0  0
    5.7768    2.8533   23.7910 C   0  0  0  0  0  0  0  0  0  0  0  0
    9.7977    1.4791   21.6912 N   0  0  0  0  0  0  0  0  0  0  0  0
    6.5976    9.3401   22.6478 N   0  0  0  0  0  0  0  0  0  0  0  0
   11.2031    3.0042   20.6246 C   0  0  0  0  0  0  0  0  0  0  0  0
   12.8688    7.7370   22.7287 C   0  0  0  0  0  0  0  0  0  0  0  0
    7.4487    9.1361   23.6506 C   0  0  0  0  0  0  0  0  0  0  0  0
    8.9772    2.5025   22.0273 C   0  0  0  0  0  0  0  0  0  0  0  0
   10.4859    4.0901   20.9730 C   0  0  0  0  0  0  0  0  0  0  0  0
   11.0962    9.3293   23.5072 C   0  0  0  0  0  0  0  0  0  0  0  0
    5.1273    7.8529   23.6208 N   0  0  0  0  0  0  0  0  0  0  0  0
    9.7552    9.2338   23.0171 N   0  0  0  0  0  0  0  0  0  0  0  0
   11.1797    6.7591   21.3326 N   0  0  0  0  0  0  0  0  0  0  0  0
   11.7728    8.0337   23.7267 C   0  0  0  0  0  0  0  0  0  0  0  0
    7.1194    8.3344   24.6775 C   0  0  0  0  0  0  0  0  0  0  0  0
    8.4311    4.7963   22.0500 C   0  0  0  0  0  0  0  0  0  0  0  0
    8.7393   10.8706   24.1871 O   0  0  0  0  0  0  0  0  0  0  0  0
    9.3093    3.8166   21.6712 C   0  0  0  0  0  0  0  0  0  0  0  0
  1  5  1  0
  1 15  4  0
  1 22  4  0
  2 20  1  0
  2 24  1  0
  3  6  4  0
  3 27  4  0
  4 22  4  0
  4 26  4  0
  6  7  4  0
  6 13  1  0
  7 19  4  0
  8 18  1  0
  8 23  1  0
  8 28  2  0
  9 17  1  0
  9 24  1  0
 10 11  1  0
 10 24  1  0
 11 23  1  0
 12 14  4  0
 12 16  4  0
 14 19  4  0
 15 18  4  0
 16 20  4  0
 17 25  1  0
 18 26  4  0
 19 29  4  0
 20 29  4  0
 21 23  1  0
 21 25  1  0
 27 29  4  0
M  END
$$$$

 Created by Python create_sdf_string function

 29 32  0  0  0  0  0  0  0  0999 V2000
    5.4450    8.7154   22.6662 C   0  0  0  0  0  0  0  0  0  0  0  0
   10.9154    5.4574   20.5483 C   0  0  0  0  0  0  0  0  0  0  0  0
    7.2709    4.5089   22.7542 C   0  0  0  0  0  0  0  0  0  0  0  0
    5.9698    7.6329   24.6581 C   0  0  0  0  0  0  0  0  0  0  0  0
    4.5542    8.9057   21.7104 O   0  0  0  0  0  0  0  0  0  0  0  0
    6.9895    3.2085   23.0690 C   0  0  0  0  0  0  0  0  0  0  0  0
    7.8391    2.2253   22.7260 N   0  0  0  0  0  0  0  0  0  0  0  0
    8.6968    9.8373   23.6359 C   0  0  0  0  0  0  0  0  0  0  0  0
   12.5135    6.5957   21.8396 C   0  0  0  0  0  0  0  0  0  0  0  0
   10.9406    8.2330   21.1350 C   0  0  0  0  0  0  0  0  0  0  0  0
    9.6648    8.5956   21.7310 C   0  0  0  0  0  0  0  0  0  0  0  0
   10.8829    1.7153   20.9865 C   0  0  0  0  0  0  0  0  0  0  0  0
    5.7768    2.8533   23.7910 C   0  0  0  0  0  0  0  0  0  0  0  0
    9.7977    1.4791   21.6912 N   0  0  0  0  0  0  0  0  0  0  0  0
    6.5976    9.3401   22.6478 N   0  0  0  0  0  0  0  0  0  0  0  0
   11.2031    3.0042   20.6246 C   0  0  0  0  0  0  0  0  0  0  0  0
   12.8688    7.7370   22.7287 C   0  0  0  0  0  0  0  0  0  0  0  0
    7.4487    9.1361   23.6506 C   0  0  0  0  0  0  0  0  0  0  0  0
    8.9772    2.5025   22.0273 C   0  0  0  0  0  0  0  0  0  0  0  0
   10.4859    4.0901   20.9730 C   0  0  0  0  0  0  0  0  0  0  0  0
   11.0962    9.3293   23.5072 C   0  0  0  0  0  0  0  0  0  0  0  0
    5.1273    7.8529   23.6208 N   0  0  0  0  0  0  0  0  0  0  0  0
    9.7552    9.2338   23.0171 N   0  0  0  0  0  0  0  0  0  0  0  0
   11.1797    6.7591   21.3326 N   0  0  0  0  0  0  0  0  0  0  0  0
   11.7728    8.0337   23.7267 C   0  0  0  0  0  0  0  0  0  0  0  0
    7.1194    8.3344   24.6775 C   0  0  0  0  0  0  0  0  0  0  0  0
    8.4311    4.7963   22.0500 C   0  0  0  0  0  0  0  0  0  0  0  0
    8.7393   10.8706   24.1871 O   0  0  0  0  0  0  0  0  0  0  0  0
    9.3093    3.8166   21.6712 C   0  0  0  0  0  0  0  0  0  0  0  0
  1  5  1  0
  1 15  4  0
  1 22  4  0
  2 20  1  0
  2 24  1  0
  3  6  4  0
  3 27  4  0
  4 22  4  0
  4 26  4  0
  6  7  4  0
  6 13  1  0
  7 19  4  0
  8 18  1  0
  8 23  1  0
  8 28  2  0
  9 17  1  0
  9 24  1  0
 10 11  1  0
 10 24  1  0
 11 23  1  0
 12 14  4  0
 12 16  4  0
 14 19  4  0
 15 18  4  0
 16 20  4  0
 17 25  1  0
 18 26  4  0
 19 29  4  0
 20 29  4  0
 21 23  1  0
 21 25  1  0
 27 29  4  0
M  END
$$$$

 Created by Python create_sdf_string function

 29 32  0  0  0  0  0  0  0  0999 V2000
    5.4450    8.7154   22.6662 C   0  0  0  0  0  0  0  0  0  0  0  0
   10.9154    5.4574   20.5483 C   0  0  0  0  0  0  0  0  0  0  0  0
    7.2709    4.5089   22.7542 C   0  0  0  0  0  0  0  0  0  0  0  0
    5.9698    7.6329   24.6581 C   0  0  0  0  0  0  0  0  0  0  0  0
    4.5542    8.9057   21.7104 O   0  0  0  0  0  0  0  0  0  0  0  0
    6.9895    3.2085   23.0690 C   0  0  0  0  0  0  0  0  0  0  0  0
    7.8391    2.2253   22.7260 N   0  0  0  0  0  0  0  0  0  0  0  0
    8.6968    9.8373   23.6359 C   0  0  0  0  0  0  0  0  0  0  0  0
   12.5135    6.5957   21.8396 C   0  0  0  0  0  0  0  0  0  0  0  0
   10.9406    8.2330   21.1350 C   0  0  0  0  0  0  0  0  0  0  0  0
    9.6648    8.5956   21.7310 C   0  0  0  0  0  0  0  0  0  0  0  0
   10.8829    1.7153   20.9865 C   0  0  0  0  0  0  0  0  0  0  0  0
    5.7768    2.8533   23.7910 C   0  0  0  0  0  0  0  0  0  0  0  0
    9.7977    1.4791   21.6912 N   0  0  0  0  0  0  0  0  0  0  0  0
    6.5976    9.3401   22.6478 N   0  0  0  0  0  0  0  0  0  0  0  0
   11.2031    3.0042   20.6246 C   0  0  0  0  0  0  0  0  0  0  0  0
   12.8688    7.7370   22.7287 C   0  0  0  0  0  0  0  0  0  0  0  0
    7.4487    9.1361   23.6506 C   0  0  0  0  0  0  0  0  0  0  0  0
    8.9772    2.5025   22.0273 C   0  0  0  0  0  0  0  0  0  0  0  0
   10.4859    4.0901   20.9730 C   0  0  0  0  0  0  0  0  0  0  0  0
   11.0962    9.3293   23.5072 C   0  0  0  0  0  0  0  0  0  0  0  0
    5.1273    7.8529   23.6208 N   0  0  0  0  0  0  0  0  0  0  0  0
    9.7552    9.2338   23.0171 N   0  0  0  0  0  0  0  0  0  0  0  0
   11.1797    6.7591   21.3326 N   0  0  0  0  0  0  0  0  0  0  0  0
   11.7728    8.0337   23.7267 C   0  0  0  0  0  0  0  0  0  0  0  0
    7.1194    8.3344   24.6775 C   0  0  0  0  0  0  0  0  0  0  0  0
    8.4311    4.7963   22.0500 C   0  0  0  0  0  0  0  0  0  0  0  0
    8.7393   10.8706   24.1871 O   0  0  0  0  0  0  0  0  0  0  0  0
    9.3093    3.8166   21.6712 C   0  0  0  0  0  0  0  0  0  0  0  0
  1  5  1  0
  1 15  4  0
  1 22  4  0
  2 20  1  0
  2 24  1  0
  3  6  4  0
  3 27  4  0
  4 22  4  0
  4 26  4  0
  6  7  4  0
  6 13  1  0
  7 19  4  0
  8 18  1  0
  8 23  1  0
  8 28  2  0
  9 17  1  0
  9 24  1  0
 10 11  1  0
 10 24  1  0
 11 23  1  0
 12 14  4  0
 12 16  4  0
 14 19  4  0
 15 18  4  0
 16 20  4  0
 17 25  1  0
 18 26  4  0
 19 29  4  0
 20 29  4  0
 21 23  1  0
 21 25  1  0
 27 29  4  0
M  END
$$$$

 Created by Python create_sdf_string function

 29 32  0  0  0  0  0  0  0  0999 V2000
    5.4450    8.7154   22.6662 C   0  0  0  0  0  0  0  0  0  0  0  0
   10.9154    5.4574   20.5483 C   0  0  0  0  0  0  0  0  0  0  0  0
    7.2709    4.5089   22.7542 C   0  0  0  0  0  0  0  0  0  0  0  0
    5.9698    7.6329   24.6581 C   0  0  0  0  0  0  0  0  0  0  0  0
    4.5542    8.9057   21.7104 O   0  0  0  0  0  0  0  0  0  0  0  0
    6.9895    3.2085   23.0690 C   0  0  0  0  0  0  0  0  0  0  0  0
    7.8391    2.2253   22.7260 N   0  0  0  0  0  0  0  0  0  0  0  0
    8.6968    9.8373   23.6359 C   0  0  0  0  0  0  0  0  0  0  0  0
   12.5135    6.5957   21.8396 C   0  0  0  0  0  0  0  0  0  0  0  0
   10.9406    8.2330   21.1350 C   0  0  0  0  0  0  0  0  0  0  0  0
    9.6648    8.5956   21.7310 C   0  0  0  0  0  0  0  0  0  0  0  0
   10.8829    1.7153   20.9865 C   0  0  0  0  0  0  0  0  0  0  0  0
    5.7768    2.8533   23.7910 C   0  0  0  0  0  0  0  0  0  0  0  0
    9.7977    1.4791   21.6912 N   0  0  0  0  0  0  0  0  0  0  0  0
    6.5976    9.3401   22.6478 N   0  0  0  0  0  0  0  0  0  0  0  0
   11.2031    3.0042   20.6246 C   0  0  0  0  0  0  0  0  0  0  0  0
   12.8688    7.7370   22.7287 C   0  0  0  0  0  0  0  0  0  0  0  0
    7.4487    9.1361   23.6506 C   0  0  0  0  0  0  0  0  0  0  0  0
    8.9772    2.5025   22.0273 C   0  0  0  0  0  0  0  0  0  0  0  0
   10.4859    4.0901   20.9730 C   0  0  0  0  0  0  0  0  0  0  0  0
   11.0962    9.3293   23.5072 C   0  0  0  0  0  0  0  0  0  0  0  0
    5.1273    7.8529   23.6208 N   0  0  0  0  0  0  0  0  0  0  0  0
    9.7552    9.2338   23.0171 N   0  0  0  0  0  0  0  0  0  0  0  0
   11.1797    6.7591   21.3326 N   0  0  0  0  0  0  0  0  0  0  0  0
   11.7728    8.0337   23.7267 C   0  0  0  0  0  0  0  0  0  0  0  0
    7.1194    8.3344   24.6775 C   0  0  0  0  0  0  0  0  0  0  0  0
    8.4311    4.7963   22.0500 C   0  0  0  0  0  0  0  0  0  0  0  0
    8.7393   10.8706   24.1871 O   0  0  0  0  0  0  0  0  0  0  0  0
    9.3093    3.8166   21.6712 C   0  0  0  0  0  0  0  0  0  0  0  0
  1  5  1  0
  1 15  4  0
  1 22  4  0
  2 20  1  0
  2 24  1  0
  3  6  4  0
  3 27  4  0
  4 22  4  0
  4 26  4  0
  6  7  4  0
  6 13  1  0
  7 19  4  0
  8 18  1  0
  8 23  1  0
  8 28  2  0
  9 17  1  0
  9 24  1  0
 10 11  1  0
 10 24  1  0
 11 23  1  0
 12 14  4  0
 12 16  4  0
 14 19  4  0
 15 18  4  0
 16 20  4  0
 17 25  1  0
 18 26  4  0
 19 29  4  0
 20 29  4  0
 21 23  1  0
 21 25  1  0
 27 29  4  0
M  END
$$$$

 Created by Python create_sdf_string function

 29 32  0  0  0  0  0  0  0  0999 V2000
    5.4450    8.7154   22.6662 C   0  0  0  0  0  0  0  0  0  0  0  0
   10.9154    5.4574   20.5483 C   0  0  0  0  0  0  0  0  0  0  0  0
    7.2709    4.5089   22.7542 C   0  0  0  0  0  0  0  0  0  0  0  0
    5.9698    7.6329   24.6581 C   0  0  0  0  0  0  0  0  0  0  0  0
    4.5542    8.9057   21.7104 O   0  0  0  0  0  0  0  0  0  0  0  0
    6.9895    3.2085   23.0690 C   0  0  0  0  0  0  0  0  0  0  0  0
    7.8391    2.2253   22.7260 N   0  0  0  0  0  0  0  0  0  0  0  0
    8.6968    9.8373   23.6359 C   0  0  0  0  0  0  0  0  0  0  0  0
   12.5135    6.5957   21.8396 C   0  0  0  0  0  0  0  0  0  0  0  0
   10.9406    8.2330   21.1350 C   0  0  0  0  0  0  0  0  0  0  0  0
    9.6648    8.5956   21.7310 C   0  0  0  0  0  0  0  0  0  0  0  0
   10.8829    1.7153   20.9865 C   0  0  0  0  0  0  0  0  0  0  0  0
    5.7768    2.8533   23.7910 C   0  0  0  0  0  0  0  0  0  0  0  0
    9.7977    1.4791   21.6912 N   0  0  0  0  0  0  0  0  0  0  0  0
    6.5976    9.3401   22.6478 N   0  0  0  0  0  0  0  0  0  0  0  0
   11.2031    3.0042   20.6246 C   0  0  0  0  0  0  0  0  0  0  0  0
   12.8688    7.7370   22.7287 C   0  0  0  0  0  0  0  0  0  0  0  0
    7.4487    9.1361   23.6506 C   0  0  0  0  0  0  0  0  0  0  0  0
    8.9772    2.5025   22.0273 C   0  0  0  0  0  0  0  0  0  0  0  0
   10.4859    4.0901   20.9730 C   0  0  0  0  0  0  0  0  0  0  0  0
   11.0962    9.3293   23.5072 C   0  0  0  0  0  0  0  0  0  0  0  0
    5.1273    7.8529   23.6208 N   0  0  0  0  0  0  0  0  0  0  0  0
    9.7552    9.2338   23.0171 N   0  0  0  0  0  0  0  0  0  0  0  0
   11.1797    6.7591   21.3326 N   0  0  0  0  0  0  0  0  0  0  0  0
   11.7728    8.0337   23.7267 C   0  0  0  0  0  0  0  0  0  0  0  0
    7.1194    8.3344   24.6775 C   0  0  0  0  0  0  0  0  0  0  0  0
    8.4311    4.7963   22.0500 C   0  0  0  0  0  0  0  0  0  0  0  0
    8.7393   10.8706   24.1871 O   0  0  0  0  0  0  0  0  0  0  0  0
    9.3093    3.8166   21.6712 C   0  0  0  0  0  0  0  0  0  0  0  0
  1  5  1  0
  1 15  4  0
  1 22  4  0
  2 20  1  0
  2 24  1  0
  3  6  4  0
  3 27  4  0
  4 22  4  0
  4 26  4  0
  6  7  4  0
  6 13  1  0
  7 19  4  0
  8 18  1  0
  8 23  1  0
  8 28  2  0
  9 17  1  0
  9 24  1  0
 10 11  1  0
 10 24  1  0
 11 23  1  0
 12 14  4  0
 12 16  4  0
 14 19  4  0
 15 18  4  0
 16 20  4  0
 17 25  1  0
 18 26  4  0
 19 29  4  0
 20 29  4  0
 21 23  1  0
 21 25  1  0
 27 29  4  0
M  END
$$$$

 Created by Python create_sdf_string function

 29 32  0  0  0  0  0  0  0  0999 V2000
    5.4450    8.7154   22.6662 C   0  0  0  0  0  0  0  0  0  0  0  0
   10.9154    5.4574   20.5483 C   0  0  0  0  0  0  0  0  0  0  0  0
    7.2709    4.5089   22.7542 C   0  0  0  0  0  0  0  0  0  0  0  0
    5.9698    7.6329   24.6581 C   0  0  0  0  0  0  0  0  0  0  0  0
    4.5542    8.9057   21.7104 O   0  0  0  0  0  0  0  0  0  0  0  0
    6.9895    3.2085   23.0690 C   0  0  0  0  0  0  0  0  0  0  0  0
    7.8391    2.2253   22.7260 N   0  0  0  0  0  0  0  0  0  0  0  0
    8.6968    9.8373   23.6359 C   0  0  0  0  0  0  0  0  0  0  0  0
   12.5135    6.5957   21.8396 C   0  0  0  0  0  0  0  0  0  0  0  0
   10.9406    8.2330   21.1350 C   0  0  0  0  0  0  0  0  0  0  0  0
    9.6648    8.5956   21.7310 C   0  0  0  0  0  0  0  0  0  0  0  0
   10.8829    1.7153   20.9865 C   0  0  0  0  0  0  0  0  0  0  0  0
    5.7768    2.8533   23.7910 C   0  0  0  0  0  0  0  0  0  0  0  0
    9.7977    1.4791   21.6912 N   0  0  0  0  0  0  0  0  0  0  0  0
    6.5976    9.3401   22.6478 N   0  0  0  0  0  0  0  0  0  0  0  0
   11.2031    3.0042   20.6246 C   0  0  0  0  0  0  0  0  0  0  0  0
   12.8688    7.7370   22.7287 C   0  0  0  0  0  0  0  0  0  0  0  0
    7.4487    9.1361   23.6506 C   0  0  0  0  0  0  0  0  0  0  0  0
    8.9772    2.5025   22.0273 C   0  0  0  0  0  0  0  0  0  0  0  0
   10.4859    4.0901   20.9730 C   0  0  0  0  0  0  0  0  0  0  0  0
   11.0962    9.3293   23.5072 C   0  0  0  0  0  0  0  0  0  0  0  0
    5.1273    7.8529   23.6208 N   0  0  0  0  0  0  0  0  0  0  0  0
    9.7552    9.2338   23.0171 N   0  0  0  0  0  0  0  0  0  0  0  0
   11.1797    6.7591   21.3326 N   0  0  0  0  0  0  0  0  0  0  0  0
   11.7728    8.0337   23.7267 C   0  0  0  0  0  0  0  0  0  0  0  0
    7.1194    8.3344   24.6775 C   0  0  0  0  0  0  0  0  0  0  0  0
    8.4311    4.7963   22.0500 C   0  0  0  0  0  0  0  0  0  0  0  0
    8.7393   10.8706   24.1871 O   0  0  0  0  0  0  0  0  0  0  0  0
    9.3093    3.8166   21.6712 C   0  0  0  0  0  0  0  0  0  0  0  0
  1  5  1  0
  1 15  4  0
  1 22  4  0
  2 20  1  0
  2 24  1  0
  3  6  4  0
  3 27  4  0
  4 22  4  0
  4 26  4  0
  6  7  4  0
  6 13  1  0
  7 19  4  0
  8 18  1  0
  8 23  1  0
  8 28  2  0
  9 17  1  0
  9 24  1  0
 10 11  1  0
 10 24  1  0
 11 23  1  0
 12 14  4  0
 12 16  4  0
 14 19  4  0
 15 18  4  0
 16 20  4  0
 17 25  1  0
 18 26  4  0
 19 29  4  0
 20 29  4  0
 21 23  1  0
 21 25  1  0
 27 29  4  0
M  END
$$$$

 Created by Python create_sdf_string function

 29 32  0  0  0  0  0  0  0  0999 V2000
    5.4450    8.7154   22.6662 C   0  0  0  0  0  0  0  0  0  0  0  0
   10.9154    5.4574   20.5483 C   0  0  0  0  0  0  0  0  0  0  0  0
    7.2709    4.5089   22.7542 C   0  0  0  0  0  0  0  0  0  0  0  0
    5.9698    7.6329   24.6581 C   0  0  0  0  0  0  0  0  0  0  0  0
    4.5542    8.9057   21.7104 O   0  0  0  0  0  0  0  0  0  0  0  0
    6.9895    3.2085   23.0690 C   0  0  0  0  0  0  0  0  0  0  0  0
    7.8391    2.2253   22.7260 N   0  0  0  0  0  0  0  0  0  0  0  0
    8.6968    9.8373   23.6359 C   0  0  0  0  0  0  0  0  0  0  0  0
   12.5135    6.5957   21.8396 C   0  0  0  0  0  0  0  0  0  0  0  0
   10.9406    8.2330   21.1350 C   0  0  0  0  0  0  0  0  0  0  0  0
    9.6648    8.5956   21.7310 C   0  0  0  0  0  0  0  0  0  0  0  0
   10.8829    1.7153   20.9865 C   0  0  0  0  0  0  0  0  0  0  0  0
    5.7768    2.8533   23.7910 C   0  0  0  0  0  0  0  0  0  0  0  0
    9.7977    1.4791   21.6912 N   0  0  0  0  0  0  0  0  0  0  0  0
    6.5976    9.3401   22.6478 N   0  0  0  0  0  0  0  0  0  0  0  0
   11.2031    3.0042   20.6246 C   0  0  0  0  0  0  0  0  0  0  0  0
   12.8688    7.7370   22.7287 C   0  0  0  0  0  0  0  0  0  0  0  0
    7.4487    9.1361   23.6506 C   0  0  0  0  0  0  0  0  0  0  0  0
    8.9772    2.5025   22.0273 C   0  0  0  0  0  0  0  0  0  0  0  0
   10.4859    4.0901   20.9730 C   0  0  0  0  0  0  0  0  0  0  0  0
   11.0962    9.3293   23.5072 C   0  0  0  0  0  0  0  0  0  0  0  0
    5.1273    7.8529   23.6208 N   0  0  0  0  0  0  0  0  0  0  0  0
    9.7552    9.2338   23.0171 N   0  0  0  0  0  0  0  0  0  0  0  0
   11.1797    6.7591   21.3326 N   0  0  0  0  0  0  0  0  0  0  0  0
   11.7728    8.0337   23.7267 C   0  0  0  0  0  0  0  0  0  0  0  0
    7.1194    8.3344   24.6775 C   0  0  0  0  0  0  0  0  0  0  0  0
    8.4311    4.7963   22.0500 C   0  0  0  0  0  0  0  0  0  0  0  0
    8.7393   10.8706   24.1871 O   0  0  0  0  0  0  0  0  0  0  0  0
    9.3093    3.8166   21.6712 C   0  0  0  0  0  0  0  0  0  0  0  0
  1  5  1  0
  1 15  4  0
  1 22  4  0
  2 20  1  0
  2 24  1  0
  3  6  4  0
  3 27  4  0
  4 22  4  0
  4 26  4  0
  6  7  4  0
  6 13  1  0
  7 19  4  0
  8 18  1  0
  8 23  1  0
  8 28  2  0
  9 17  1  0
  9 24  1  0
 10 11  1  0
 10 24  1  0
 11 23  1  0
 12 14  4  0
 12 16  4  0
 14 19  4  0
 15 18  4  0
 16 20  4  0
 17 25  1  0
 18 26  4  0
 19 29  4  0
 20 29  4  0
 21 23  1  0
 21 25  1  0
 27 29  4  0
M  END
$$$$

 Created by Python create_sdf_string function

 29 32  0  0  0  0  0  0  0  0999 V2000
    5.4450    8.7154   22.6662 C   0  0  0  0  0  0  0  0  0  0  0  0
   10.9154    5.4574   20.5483 C   0  0  0  0  0  0  0  0  0  0  0  0
    7.2709    4.5089   22.7542 C   0  0  0  0  0  0  0  0  0  0  0  0
    5.9698    7.6329   24.6581 C   0  0  0  0  0  0  0  0  0  0  0  0
    4.5542    8.9057   21.7104 O   0  0  0  0  0  0  0  0  0  0  0  0
    6.9895    3.2085   23.0690 C   0  0  0  0  0  0  0  0  0  0  0  0
    7.8391    2.2253   22.7260 N   0  0  0  0  0  0  0  0  0  0  0  0
    8.6968    9.8373   23.6359 C   0  0  0  0  0  0  0  0  0  0  0  0
   12.5135    6.5957   21.8396 C   0  0  0  0  0  0  0  0  0  0  0  0
   10.9406    8.2330   21.1350 C   0  0  0  0  0  0  0  0  0  0  0  0
    9.6648    8.5956   21.7310 C   0  0  0  0  0  0  0  0  0  0  0  0
   10.8829    1.7153   20.9865 C   0  0  0  0  0  0  0  0  0  0  0  0
    5.7768    2.8533   23.7910 C   0  0  0  0  0  0  0  0  0  0  0  0
    9.7977    1.4791   21.6912 N   0  0  0  0  0  0  0  0  0  0  0  0
    6.5976    9.3401   22.6478 N   0  0  0  0  0  0  0  0  0  0  0  0
   11.2031    3.0042   20.6246 C   0  0  0  0  0  0  0  0  0  0  0  0
   12.8688    7.7370   22.7287 C   0  0  0  0  0  0  0  0  0  0  0  0
    7.4487    9.1361   23.6506 C   0  0  0  0  0  0  0  0  0  0  0  0
    8.9772    2.5025   22.0273 C   0  0  0  0  0  0  0  0  0  0  0  0
   10.4859    4.0901   20.9730 C   0  0  0  0  0  0  0  0  0  0  0  0
   11.0962    9.3293   23.5072 C   0  0  0  0  0  0  0  0  0  0  0  0
    5.1273    7.8529   23.6208 N   0  0  0  0  0  0  0  0  0  0  0  0
    9.7552    9.2338   23.0171 N   0  0  0  0  0  0  0  0  0  0  0  0
   11.1797    6.7591   21.3326 N   0  0  0  0  0  0  0  0  0  0  0  0
   11.7728    8.0337   23.7267 C   0  0  0  0  0  0  0  0  0  0  0  0
    7.1194    8.3344   24.6775 C   0  0  0  0  0  0  0  0  0  0  0  0
    8.4311    4.7963   22.0500 C   0  0  0  0  0  0  0  0  0  0  0  0
    8.7393   10.8706   24.1871 O   0  0  0  0  0  0  0  0  0  0  0  0
    9.3093    3.8166   21.6712 C   0  0  0  0  0  0  0  0  0  0  0  0
  1  5  1  0
  1 15  4  0
  1 22  4  0
  2 20  1  0
  2 24  1  0
  3  6  4  0
  3 27  4  0
  4 22  4  0
  4 26  4  0
  6  7  4  0
  6 13  1  0
  7 19  4  0
  8 18  1  0
  8 23  1  0
  8 28  2  0
  9 17  1  0
  9 24  1  0
 10 11  1  0
 10 24  1  0
 11 23  1  0
 12 14  4  0
 12 16  4  0
 14 19  4  0
 15 18  4  0
 16 20  4  0
 17 25  1  0
 18 26  4  0
 19 29  4  0
 20 29  4  0
 21 23  1  0
 21 25  1  0
 27 29  4  0
M  END
$$$$

 Created by Python create_sdf_string function

 29 32  0  0  0  0  0  0  0  0999 V2000
    5.4450    8.7154   22.6662 C   0  0  0  0  0  0  0  0  0  0  0  0
   10.9154    5.4574   20.5483 C   0  0  0  0  0  0  0  0  0  0  0  0
    7.2709    4.5089   22.7542 C   0  0  0  0  0  0  0  0  0  0  0  0
    5.9698    7.6329   24.6581 C   0  0  0  0  0  0  0  0  0  0  0  0
    4.5542    8.9057   21.7104 O   0  0  0  0  0  0  0  0  0  0  0  0
    6.9895    3.2085   23.0690 C   0  0  0  0  0  0  0  0  0  0  0  0
    7.8391    2.2253   22.7260 N   0  0  0  0  0  0  0  0  0  0  0  0
    8.6968    9.8373   23.6359 C   0  0  0  0  0  0  0  0  0  0  0  0
   12.5135    6.5957   21.8396 C   0  0  0  0  0  0  0  0  0  0  0  0
   10.9406    8.2330   21.1350 C   0  0  0  0  0  0  0  0  0  0  0  0
    9.6648    8.5956   21.7310 C   0  0  0  0  0  0  0  0  0  0  0  0
   10.8829    1.7153   20.9865 C   0  0  0  0  0  0  0  0  0  0  0  0
    5.7768    2.8533   23.7910 C   0  0  0  0  0  0  0  0  0  0  0  0
    9.7977    1.4791   21.6912 N   0  0  0  0  0  0  0  0  0  0  0  0
    6.5976    9.3401   22.6478 N   0  0  0  0  0  0  0  0  0  0  0  0
   11.2031    3.0042   20.6246 C   0  0  0  0  0  0  0  0  0  0  0  0
   12.8688    7.7370   22.7287 C   0  0  0  0  0  0  0  0  0  0  0  0
    7.4487    9.1361   23.6506 C   0  0  0  0  0  0  0  0  0  0  0  0
    8.9772    2.5025   22.0273 C   0  0  0  0  0  0  0  0  0  0  0  0
   10.4859    4.0901   20.9730 C   0  0  0  0  0  0  0  0  0  0  0  0
   11.0962    9.3293   23.5072 C   0  0  0  0  0  0  0  0  0  0  0  0
    5.1273    7.8529   23.6208 N   0  0  0  0  0  0  0  0  0  0  0  0
    9.7552    9.2338   23.0171 N   0  0  0  0  0  0  0  0  0  0  0  0
   11.1797    6.7591   21.3326 N   0  0  0  0  0  0  0  0  0  0  0  0
   11.7728    8.0337   23.7267 C   0  0  0  0  0  0  0  0  0  0  0  0
    7.1194    8.3344   24.6775 C   0  0  0  0  0  0  0  0  0  0  0  0
    8.4311    4.7963   22.0500 C   0  0  0  0  0  0  0  0  0  0  0  0
    8.7393   10.8706   24.1871 O   0  0  0  0  0  0  0  0  0  0  0  0
    9.3093    3.8166   21.6712 C   0  0  0  0  0  0  0  0  0  0  0  0
  1  5  1  0
  1 15  4  0
  1 22  4  0
  2 20  1  0
  2 24  1  0
  3  6  4  0
  3 27  4  0
  4 22  4  0
  4 26  4  0
  6  7  4  0
  6 13  1  0
  7 19  4  0
  8 18  1  0
  8 23  1  0
  8 28  2  0
  9 17  1  0
  9 24  1  0
 10 11  1  0
 10 24  1  0
 11 23  1  0
 12 14  4  0
 12 16  4  0
 14 19  4  0
 15 18  4  0
 16 20  4  0
 17 25  1  0
 18 26  4  0
 19 29  4  0
 20 29  4  0
 21 23  1  0
 21 25  1  0
 27 29  4  0
M  END
$$$$

 Created by Python create_sdf_string function

 29 32  0  0  0  0  0  0  0  0999 V2000
    5.4450    8.7154   22.6662 C   0  0  0  0  0  0  0  0  0  0  0  0
   10.9154    5.4574   20.5483 C   0  0  0  0  0  0  0  0  0  0  0  0
    7.2709    4.5089   22.7542 C   0  0  0  0  0  0  0  0  0  0  0  0
    5.9698    7.6329   24.6581 C   0  0  0  0  0  0  0  0  0  0  0  0
    4.5542    8.9057   21.7104 O   0  0  0  0  0  0  0  0  0  0  0  0
    6.9895    3.2085   23.0690 C   0  0  0  0  0  0  0  0  0  0  0  0
    7.8391    2.2253   22.7260 N   0  0  0  0  0  0  0  0  0  0  0  0
    8.6968    9.8373   23.6359 C   0  0  0  0  0  0  0  0  0  0  0  0
   12.5135    6.5957   21.8396 C   0  0  0  0  0  0  0  0  0  0  0  0
   10.9406    8.2330   21.1350 C   0  0  0  0  0  0  0  0  0  0  0  0
    9.6648    8.5956   21.7310 C   0  0  0  0  0  0  0  0  0  0  0  0
   10.8829    1.7153   20.9865 C   0  0  0  0  0  0  0  0  0  0  0  0
    5.7768    2.8533   23.7910 C   0  0  0  0  0  0  0  0  0  0  0  0
    9.7977    1.4791   21.6912 N   0  0  0  0  0  0  0  0  0  0  0  0
    6.5976    9.3401   22.6478 N   0  0  0  0  0  0  0  0  0  0  0  0
   11.2031    3.0042   20.6246 C   0  0  0  0  0  0  0  0  0  0  0  0
   12.8688    7.7370   22.7287 C   0  0  0  0  0  0  0  0  0  0  0  0
    7.4487    9.1361   23.6506 C   0  0  0  0  0  0  0  0  0  0  0  0
    8.9772    2.5025   22.0273 C   0  0  0  0  0  0  0  0  0  0  0  0
   10.4859    4.0901   20.9730 C   0  0  0  0  0  0  0  0  0  0  0  0
   11.0962    9.3293   23.5072 C   0  0  0  0  0  0  0  0  0  0  0  0
    5.1273    7.8529   23.6208 N   0  0  0  0  0  0  0  0  0  0  0  0
    9.7552    9.2338   23.0171 N   0  0  0  0  0  0  0  0  0  0  0  0
   11.1797    6.7591   21.3326 N   0  0  0  0  0  0  0  0  0  0  0  0
   11.7728    8.0337   23.7267 C   0  0  0  0  0  0  0  0  0  0  0  0
    7.1194    8.3344   24.6775 C   0  0  0  0  0  0  0  0  0  0  0  0
    8.4311    4.7963   22.0500 C   0  0  0  0  0  0  0  0  0  0  0  0
    8.7393   10.8706   24.1871 O   0  0  0  0  0  0  0  0  0  0  0  0
    9.3093    3.8166   21.6712 C   0  0  0  0  0  0  0  0  0  0  0  0
  1  5  1  0
  1 15  4  0
  1 22  4  0
  2 20  1  0
  2 24  1  0
  3  6  4  0
  3 27  4  0
  4 22  4  0
  4 26  4  0
  6  7  4  0
  6 13  1  0
  7 19  4  0
  8 18  1  0
  8 23  1  0
  8 28  2  0
  9 17  1  0
  9 24  1  0
 10 11  1  0
 10 24  1  0
 11 23  1  0
 12 14  4  0
 12 16  4  0
 14 19  4  0
 15 18  4  0
 16 20  4  0
 17 25  1  0
 18 26  4  0
 19 29  4  0
 20 29  4  0
 21 23  1  0
 21 25  1  0
 27 29  4  0
M  END
$$$$

 Created by Python create_sdf_string function

 29 32  0  0  0  0  0  0  0  0999 V2000
    5.4450    8.7154   22.6662 C   0  0  0  0  0  0  0  0  0  0  0  0
   10.9154    5.4574   20.5483 C   0  0  0  0  0  0  0  0  0  0  0  0
    7.2709    4.5089   22.7542 C   0  0  0  0  0  0  0  0  0  0  0  0
    5.9698    7.6329   24.6581 C   0  0  0  0  0  0  0  0  0  0  0  0
    4.5542    8.9057   21.7104 O   0  0  0  0  0  0  0  0  0  0  0  0
    6.9895    3.2085   23.0690 C   0  0  0  0  0  0  0  0  0  0  0  0
    7.8391    2.2253   22.7260 N   0  0  0  0  0  0  0  0  0  0  0  0
    8.6968    9.8373   23.6359 C   0  0  0  0  0  0  0  0  0  0  0  0
   12.5135    6.5957   21.8396 C   0  0  0  0  0  0  0  0  0  0  0  0
   10.9406    8.2330   21.1350 C   0  0  0  0  0  0  0  0  0  0  0  0
    9.6648    8.5956   21.7310 C   0  0  0  0  0  0  0  0  0  0  0  0
   10.8829    1.7153   20.9865 C   0  0  0  0  0  0  0  0  0  0  0  0
    5.7768    2.8533   23.7910 C   0  0  0  0  0  0  0  0  0  0  0  0
    9.7977    1.4791   21.6912 N   0  0  0  0  0  0  0  0  0  0  0  0
    6.5976    9.3401   22.6478 N   0  0  0  0  0  0  0  0  0  0  0  0
   11.2031    3.0042   20.6246 C   0  0  0  0  0  0  0  0  0  0  0  0
   12.8688    7.7370   22.7287 C   0  0  0  0  0  0  0  0  0  0  0  0
    7.4487    9.1361   23.6506 C   0  0  0  0  0  0  0  0  0  0  0  0
    8.9772    2.5025   22.0273 C   0  0  0  0  0  0  0  0  0  0  0  0
   10.4859    4.0901   20.9730 C   0  0  0  0  0  0  0  0  0  0  0  0
   11.0962    9.3293   23.5072 C   0  0  0  0  0  0  0  0  0  0  0  0
    5.1273    7.8529   23.6208 N   0  0  0  0  0  0  0  0  0  0  0  0
    9.7552    9.2338   23.0171 N   0  0  0  0  0  0  0  0  0  0  0  0
   11.1797    6.7591   21.3326 N   0  0  0  0  0  0  0  0  0  0  0  0
   11.7728    8.0337   23.7267 C   0  0  0  0  0  0  0  0  0  0  0  0
    7.1194    8.3344   24.6775 C   0  0  0  0  0  0  0  0  0  0  0  0
    8.4311    4.7963   22.0500 C   0  0  0  0  0  0  0  0  0  0  0  0
    8.7393   10.8706   24.1871 O   0  0  0  0  0  0  0  0  0  0  0  0
    9.3093    3.8166   21.6712 C   0  0  0  0  0  0  0  0  0  0  0  0
  1  5  1  0
  1 15  4  0
  1 22  4  0
  2 20  1  0
  2 24  1  0
  3  6  4  0
  3 27  4  0
  4 22  4  0
  4 26  4  0
  6  7  4  0
  6 13  1  0
  7 19  4  0
  8 18  1  0
  8 23  1  0
  8 28  2  0
  9 17  1  0
  9 24  1  0
 10 11  1  0
 10 24  1  0
 11 23  1  0
 12 14  4  0
 12 16  4  0
 14 19  4  0
 15 18  4  0
 16 20  4  0
 17 25  1  0
 18 26  4  0
 19 29  4  0
 20 29  4  0
 21 23  1  0
 21 25  1  0
 27 29  4  0
M  END
$$$$

 Created by Python create_sdf_string function

 29 32  0  0  0  0  0  0  0  0999 V2000
    5.4450    8.7154   22.6662 C   0  0  0  0  0  0  0  0  0  0  0  0
   10.9154    5.4574   20.5483 C   0  0  0  0  0  0  0  0  0  0  0  0
    7.2709    4.5089   22.7542 C   0  0  0  0  0  0  0  0  0  0  0  0
    5.9698    7.6329   24.6581 C   0  0  0  0  0  0  0  0  0  0  0  0
    4.5542    8.9057   21.7104 O   0  0  0  0  0  0  0  0  0  0  0  0
    6.9895    3.2085   23.0690 C   0  0  0  0  0  0  0  0  0  0  0  0
    7.8391    2.2253   22.7260 N   0  0  0  0  0  0  0  0  0  0  0  0
    8.6968    9.8373   23.6359 C   0  0  0  0  0  0  0  0  0  0  0  0
   12.5135    6.5957   21.8396 C   0  0  0  0  0  0  0  0  0  0  0  0
   10.9406    8.2330   21.1350 C   0  0  0  0  0  0  0  0  0  0  0  0
    9.6648    8.5956   21.7310 C   0  0  0  0  0  0  0  0  0  0  0  0
   10.8829    1.7153   20.9865 C   0  0  0  0  0  0  0  0  0  0  0  0
    5.7768    2.8533   23.7910 C   0  0  0  0  0  0  0  0  0  0  0  0
    9.7977    1.4791   21.6912 N   0  0  0  0  0  0  0  0  0  0  0  0
    6.5976    9.3401   22.6478 N   0  0  0  0  0  0  0  0  0  0  0  0
   11.2031    3.0042   20.6246 C   0  0  0  0  0  0  0  0  0  0  0  0
   12.8688    7.7370   22.7287 C   0  0  0  0  0  0  0  0  0  0  0  0
    7.4487    9.1361   23.6506 C   0  0  0  0  0  0  0  0  0  0  0  0
    8.9772    2.5025   22.0273 C   0  0  0  0  0  0  0  0  0  0  0  0
   10.4859    4.0901   20.9730 C   0  0  0  0  0  0  0  0  0  0  0  0
   11.0962    9.3293   23.5072 C   0  0  0  0  0  0  0  0  0  0  0  0
    5.1273    7.8529   23.6208 N   0  0  0  0  0  0  0  0  0  0  0  0
    9.7552    9.2338   23.0171 N   0  0  0  0  0  0  0  0  0  0  0  0
   11.1797    6.7591   21.3326 N   0  0  0  0  0  0  0  0  0  0  0  0
   11.7728    8.0337   23.7267 C   0  0  0  0  0  0  0  0  0  0  0  0
    7.1194    8.3344   24.6775 C   0  0  0  0  0  0  0  0  0  0  0  0
    8.4311    4.7963   22.0500 C   0  0  0  0  0  0  0  0  0  0  0  0
    8.7393   10.8706   24.1871 O   0  0  0  0  0  0  0  0  0  0  0  0
    9.3093    3.8166   21.6712 C   0  0  0  0  0  0  0  0  0  0  0  0
  1  5  1  0
  1 15  4  0
  1 22  4  0
  2 20  1  0
  2 24  1  0
  3  6  4  0
  3 27  4  0
  4 22  4  0
  4 26  4  0
  6  7  4  0
  6 13  1  0
  7 19  4  0
  8 18  1  0
  8 23  1  0
  8 28  2  0
  9 17  1  0
  9 24  1  0
 10 11  1  0
 10 24  1  0
 11 23  1  0
 12 14  4  0
 12 16  4  0
 14 19  4  0
 15 18  4  0
 16 20  4  0
 17 25  1  0
 18 26  4  0
 19 29  4  0
 20 29  4  0
 21 23  1  0
 21 25  1  0
 27 29  4  0
M  END
$$$$

 Created by Python create_sdf_string function

 29 32  0  0  0  0  0  0  0  0999 V2000
    5.4450    8.7154   22.6662 C   0  0  0  0  0  0  0  0  0  0  0  0
   10.9154    5.4574   20.5483 C   0  0  0  0  0  0  0  0  0  0  0  0
    7.2709    4.5089   22.7542 C   0  0  0  0  0  0  0  0  0  0  0  0
    5.9698    7.6329   24.6581 C   0  0  0  0  0  0  0  0  0  0  0  0
    4.5542    8.9057   21.7104 O   0  0  0  0  0  0  0  0  0  0  0  0
    6.9895    3.2085   23.0690 C   0  0  0  0  0  0  0  0  0  0  0  0
    7.8391    2.2253   22.7260 N   0  0  0  0  0  0  0  0  0  0  0  0
    8.6968    9.8373   23.6359 C   0  0  0  0  0  0  0  0  0  0  0  0
   12.5135    6.5957   21.8396 C   0  0  0  0  0  0  0  0  0  0  0  0
   10.9406    8.2330   21.1350 C   0  0  0  0  0  0  0  0  0  0  0  0
    9.6648    8.5956   21.7310 C   0  0  0  0  0  0  0  0  0  0  0  0
   10.8829    1.7153   20.9865 C   0  0  0  0  0  0  0  0  0  0  0  0
    5.7768    2.8533   23.7910 C   0  0  0  0  0  0  0  0  0  0  0  0
    9.7977    1.4791   21.6912 N   0  0  0  0  0  0  0  0  0  0  0  0
    6.5976    9.3401   22.6478 N   0  0  0  0  0  0  0  0  0  0  0  0
   11.2031    3.0042   20.6246 C   0  0  0  0  0  0  0  0  0  0  0  0
   12.8688    7.7370   22.7287 C   0  0  0  0  0  0  0  0  0  0  0  0
    7.4487    9.1361   23.6506 C   0  0  0  0  0  0  0  0  0  0  0  0
    8.9772    2.5025   22.0273 C   0  0  0  0  0  0  0  0  0  0  0  0
   10.4859    4.0901   20.9730 C   0  0  0  0  0  0  0  0  0  0  0  0
   11.0962    9.3293   23.5072 C   0  0  0  0  0  0  0  0  0  0  0  0
    5.1273    7.8529   23.6208 N   0  0  0  0  0  0  0  0  0  0  0  0
    9.7552    9.2338   23.0171 N   0  0  0  0  0  0  0  0  0  0  0  0
   11.1797    6.7591   21.3326 N   0  0  0  0  0  0  0  0  0  0  0  0
   11.7728    8.0337   23.7267 C   0  0  0  0  0  0  0  0  0  0  0  0
    7.1194    8.3344   24.6775 C   0  0  0  0  0  0  0  0  0  0  0  0
    8.4311    4.7963   22.0500 C   0  0  0  0  0  0  0  0  0  0  0  0
    8.7393   10.8706   24.1871 O   0  0  0  0  0  0  0  0  0  0  0  0
    9.3093    3.8166   21.6712 C   0  0  0  0  0  0  0  0  0  0  0  0
  1  5  1  0
  1 15  4  0
  1 22  4  0
  2 20  1  0
  2 24  1  0
  3  6  4  0
  3 27  4  0
  4 22  4  0
  4 26  4  0
  6  7  4  0
  6 13  1  0
  7 19  4  0
  8 18  1  0
  8 23  1  0
  8 28  2  0
  9 17  1  0
  9 24  1  0
 10 11  1  0
 10 24  1  0
 11 23  1  0
 12 14  4  0
 12 16  4  0
 14 19  4  0
 15 18  4  0
 16 20  4  0
 17 25  1  0
 18 26  4  0
 19 29  4  0
 20 29  4  0
 21 23  1  0
 21 25  1  0
 27 29  4  0
M  END
$$$$

 Created by Python create_sdf_string function

 29 32  0  0  0  0  0  0  0  0999 V2000
    5.4450    8.7154   22.6662 C   0  0  0  0  0  0  0  0  0  0  0  0
   10.9154    5.4574   20.5483 C   0  0  0  0  0  0  0  0  0  0  0  0
    7.2709    4.5089   22.7542 C   0  0  0  0  0  0  0  0  0  0  0  0
    5.9698    7.6329   24.6581 C   0  0  0  0  0  0  0  0  0  0  0  0
    4.5542    8.9057   21.7104 O   0  0  0  0  0  0  0  0  0  0  0  0
    6.9895    3.2085   23.0690 C   0  0  0  0  0  0  0  0  0  0  0  0
    7.8391    2.2253   22.7260 N   0  0  0  0  0  0  0  0  0  0  0  0
    8.6968    9.8373   23.6359 C   0  0  0  0  0  0  0  0  0  0  0  0
   12.5135    6.5957   21.8396 C   0  0  0  0  0  0  0  0  0  0  0  0
   10.9406    8.2330   21.1350 C   0  0  0  0  0  0  0  0  0  0  0  0
    9.6648    8.5956   21.7310 C   0  0  0  0  0  0  0  0  0  0  0  0
   10.8829    1.7153   20.9865 C   0  0  0  0  0  0  0  0  0  0  0  0
    5.7768    2.8533   23.7910 C   0  0  0  0  0  0  0  0  0  0  0  0
    9.7977    1.4791   21.6912 N   0  0  0  0  0  0  0  0  0  0  0  0
    6.5976    9.3401   22.6478 N   0  0  0  0  0  0  0  0  0  0  0  0
   11.2031    3.0042   20.6246 C   0  0  0  0  0  0  0  0  0  0  0  0
   12.8688    7.7370   22.7287 C   0  0  0  0  0  0  0  0  0  0  0  0
    7.4487    9.1361   23.6506 C   0  0  0  0  0  0  0  0  0  0  0  0
    8.9772    2.5025   22.0273 C   0  0  0  0  0  0  0  0  0  0  0  0
   10.4859    4.0901   20.9730 C   0  0  0  0  0  0  0  0  0  0  0  0
   11.0962    9.3293   23.5072 C   0  0  0  0  0  0  0  0  0  0  0  0
    5.1273    7.8529   23.6208 N   0  0  0  0  0  0  0  0  0  0  0  0
    9.7552    9.2338   23.0171 N   0  0  0  0  0  0  0  0  0  0  0  0
   11.1797    6.7591   21.3326 N   0  0  0  0  0  0  0  0  0  0  0  0
   11.7728    8.0337   23.7267 C   0  0  0  0  0  0  0  0  0  0  0  0
    7.1194    8.3344   24.6775 C   0  0  0  0  0  0  0  0  0  0  0  0
    8.4311    4.7963   22.0500 C   0  0  0  0  0  0  0  0  0  0  0  0
    8.7393   10.8706   24.1871 O   0  0  0  0  0  0  0  0  0  0  0  0
    9.3093    3.8166   21.6712 C   0  0  0  0  0  0  0  0  0  0  0  0
  1  5  1  0
  1 15  4  0
  1 22  4  0
  2 20  1  0
  2 24  1  0
  3  6  4  0
  3 27  4  0
  4 22  4  0
  4 26  4  0
  6  7  4  0
  6 13  1  0
  7 19  4  0
  8 18  1  0
  8 23  1  0
  8 28  2  0
  9 17  1  0
  9 24  1  0
 10 11  1  0
 10 24  1  0
 11 23  1  0
 12 14  4  0
 12 16  4  0
 14 19  4  0
 15 18  4  0
 16 20  4  0
 17 25  1  0
 18 26  4  0
 19 29  4  0
 20 29  4  0
 21 23  1  0
 21 25  1  0
 27 29  4  0
M  END
$$$$

 Created by Python create_sdf_string function

 29 32  0  0  0  0  0  0  0  0999 V2000
    5.4450    8.7154   22.6662 C   0  0  0  0  0  0  0  0  0  0  0  0
   10.9154    5.4574   20.5483 C   0  0  0  0  0  0  0  0  0  0  0  0
    7.2709    4.5089   22.7542 C   0  0  0  0  0  0  0  0  0  0  0  0
    5.9698    7.6329   24.6581 C   0  0  0  0  0  0  0  0  0  0  0  0
    4.5542    8.9057   21.7104 O   0  0  0  0  0  0  0  0  0  0  0  0
    6.9895    3.2085   23.0690 C   0  0  0  0  0  0  0  0  0  0  0  0
    7.8391    2.2253   22.7260 N   0  0  0  0  0  0  0  0  0  0  0  0
    8.6968    9.8373   23.6359 C   0  0  0  0  0  0  0  0  0  0  0  0
   12.5135    6.5957   21.8396 C   0  0  0  0  0  0  0  0  0  0  0  0
   10.9406    8.2330   21.1350 C   0  0  0  0  0  0  0  0  0  0  0  0
    9.6648    8.5956   21.7310 C   0  0  0  0  0  0  0  0  0  0  0  0
   10.8829    1.7153   20.9865 C   0  0  0  0  0  0  0  0  0  0  0  0
    5.7768    2.8533   23.7910 C   0  0  0  0  0  0  0  0  0  0  0  0
    9.7977    1.4791   21.6912 N   0  0  0  0  0  0  0  0  0  0  0  0
    6.5976    9.3401   22.6478 N   0  0  0  0  0  0  0  0  0  0  0  0
   11.2031    3.0042   20.6246 C   0  0  0  0  0  0  0  0  0  0  0  0
   12.8688    7.7370   22.7287 C   0  0  0  0  0  0  0  0  0  0  0  0
    7.4487    9.1361   23.6506 C   0  0  0  0  0  0  0  0  0  0  0  0
    8.9772    2.5025   22.0273 C   0  0  0  0  0  0  0  0  0  0  0  0
   10.4859    4.0901   20.9730 C   0  0  0  0  0  0  0  0  0  0  0  0
   11.0962    9.3293   23.5072 C   0  0  0  0  0  0  0  0  0  0  0  0
    5.1273    7.8529   23.6208 N   0  0  0  0  0  0  0  0  0  0  0  0
    9.7552    9.2338   23.0171 N   0  0  0  0  0  0  0  0  0  0  0  0
   11.1797    6.7591   21.3326 N   0  0  0  0  0  0  0  0  0  0  0  0
   11.7728    8.0337   23.7267 C   0  0  0  0  0  0  0  0  0  0  0  0
    7.1194    8.3344   24.6775 C   0  0  0  0  0  0  0  0  0  0  0  0
    8.4311    4.7963   22.0500 C   0  0  0  0  0  0  0  0  0  0  0  0
    8.7393   10.8706   24.1871 O   0  0  0  0  0  0  0  0  0  0  0  0
    9.3093    3.8166   21.6712 C   0  0  0  0  0  0  0  0  0  0  0  0
  1  5  1  0
  1 15  4  0
  1 22  4  0
  2 20  1  0
  2 24  1  0
  3  6  4  0
  3 27  4  0
  4 22  4  0
  4 26  4  0
  6  7  4  0
  6 13  1  0
  7 19  4  0
  8 18  1  0
  8 23  1  0
  8 28  2  0
  9 17  1  0
  9 24  1  0
 10 11  1  0
 10 24  1  0
 11 23  1  0
 12 14  4  0
 12 16  4  0
 14 19  4  0
 15 18  4  0
 16 20  4  0
 17 25  1  0
 18 26  4  0
 19 29  4  0
 20 29  4  0
 21 23  1  0
 21 25  1  0
 27 29  4  0
M  END
$$$$

 Created by Python create_sdf_string function

 29 32  0  0  0  0  0  0  0  0999 V2000
    5.4450    8.7154   22.6662 C   0  0  0  0  0  0  0  0  0  0  0  0
   10.9154    5.4574   20.5483 C   0  0  0  0  0  0  0  0  0  0  0  0
    7.2709    4.5089   22.7542 C   0  0  0  0  0  0  0  0  0  0  0  0
    5.9698    7.6329   24.6581 C   0  0  0  0  0  0  0  0  0  0  0  0
    4.5542    8.9057   21.7104 O   0  0  0  0  0  0  0  0  0  0  0  0
    6.9895    3.2085   23.0690 C   0  0  0  0  0  0  0  0  0  0  0  0
    7.8391    2.2253   22.7260 N   0  0  0  0  0  0  0  0  0  0  0  0
    8.6968    9.8373   23.6359 C   0  0  0  0  0  0  0  0  0  0  0  0
   12.5135    6.5957   21.8396 C   0  0  0  0  0  0  0  0  0  0  0  0
   10.9406    8.2330   21.1350 C   0  0  0  0  0  0  0  0  0  0  0  0
    9.6648    8.5956   21.7310 C   0  0  0  0  0  0  0  0  0  0  0  0
   10.8829    1.7153   20.9865 C   0  0  0  0  0  0  0  0  0  0  0  0
    5.7768    2.8533   23.7910 C   0  0  0  0  0  0  0  0  0  0  0  0
    9.7977    1.4791   21.6912 N   0  0  0  0  0  0  0  0  0  0  0  0
    6.5976    9.3401   22.6478 N   0  0  0  0  0  0  0  0  0  0  0  0
   11.2031    3.0042   20.6246 C   0  0  0  0  0  0  0  0  0  0  0  0
   12.8688    7.7370   22.7287 C   0  0  0  0  0  0  0  0  0  0  0  0
    7.4487    9.1361   23.6506 C   0  0  0  0  0  0  0  0  0  0  0  0
    8.9772    2.5025   22.0273 C   0  0  0  0  0  0  0  0  0  0  0  0
   10.4859    4.0901   20.9730 C   0  0  0  0  0  0  0  0  0  0  0  0
   11.0962    9.3293   23.5072 C   0  0  0  0  0  0  0  0  0  0  0  0
    5.1273    7.8529   23.6208 N   0  0  0  0  0  0  0  0  0  0  0  0
    9.7552    9.2338   23.0171 N   0  0  0  0  0  0  0  0  0  0  0  0
   11.1797    6.7591   21.3326 N   0  0  0  0  0  0  0  0  0  0  0  0
   11.7728    8.0337   23.7267 C   0  0  0  0  0  0  0  0  0  0  0  0
    7.1194    8.3344   24.6775 C   0  0  0  0  0  0  0  0  0  0  0  0
    8.4311    4.7963   22.0500 C   0  0  0  0  0  0  0  0  0  0  0  0
    8.7393   10.8706   24.1871 O   0  0  0  0  0  0  0  0  0  0  0  0
    9.3093    3.8166   21.6712 C   0  0  0  0  0  0  0  0  0  0  0  0
  1  5  1  0
  1 15  4  0
  1 22  4  0
  2 20  1  0
  2 24  1  0
  3  6  4  0
  3 27  4  0
  4 22  4  0
  4 26  4  0
  6  7  4  0
  6 13  1  0
  7 19  4  0
  8 18  1  0
  8 23  1  0
  8 28  2  0
  9 17  1  0
  9 24  1  0
 10 11  1  0
 10 24  1  0
 11 23  1  0
 12 14  4  0
 12 16  4  0
 14 19  4  0
 15 18  4  0
 16 20  4  0
 17 25  1  0
 18 26  4  0
 19 29  4  0
 20 29  4  0
 21 23  1  0
 21 25  1  0
 27 29  4  0
M  END
$$$$

 Created by Python create_sdf_string function

 29 32  0  0  0  0  0  0  0  0999 V2000
    5.4450    8.7154   22.6662 C   0  0  0  0  0  0  0  0  0  0  0  0
   10.9154    5.4574   20.5483 C   0  0  0  0  0  0  0  0  0  0  0  0
    7.2709    4.5089   22.7542 C   0  0  0  0  0  0  0  0  0  0  0  0
    5.9698    7.6329   24.6581 C   0  0  0  0  0  0  0  0  0  0  0  0
    4.5542    8.9057   21.7104 O   0  0  0  0  0  0  0  0  0  0  0  0
    6.9895    3.2085   23.0690 C   0  0  0  0  0  0  0  0  0  0  0  0
    7.8391    2.2253   22.7260 N   0  0  0  0  0  0  0  0  0  0  0  0
    8.6968    9.8373   23.6359 C   0  0  0  0  0  0  0  0  0  0  0  0
   12.5135    6.5957   21.8396 C   0  0  0  0  0  0  0  0  0  0  0  0
   10.9406    8.2330   21.1350 C   0  0  0  0  0  0  0  0  0  0  0  0
    9.6648    8.5956   21.7310 C   0  0  0  0  0  0  0  0  0  0  0  0
   10.8829    1.7153   20.9865 C   0  0  0  0  0  0  0  0  0  0  0  0
    5.7768    2.8533   23.7910 C   0  0  0  0  0  0  0  0  0  0  0  0
    9.7977    1.4791   21.6912 N   0  0  0  0  0  0  0  0  0  0  0  0
    6.5976    9.3401   22.6478 N   0  0  0  0  0  0  0  0  0  0  0  0
   11.2031    3.0042   20.6246 C   0  0  0  0  0  0  0  0  0  0  0  0
   12.8688    7.7370   22.7287 C   0  0  0  0  0  0  0  0  0  0  0  0
    7.4487    9.1361   23.6506 C   0  0  0  0  0  0  0  0  0  0  0  0
    8.9772    2.5025   22.0273 C   0  0  0  0  0  0  0  0  0  0  0  0
   10.4859    4.0901   20.9730 C   0  0  0  0  0  0  0  0  0  0  0  0
   11.0962    9.3293   23.5072 C   0  0  0  0  0  0  0  0  0  0  0  0
    5.1273    7.8529   23.6208 N   0  0  0  0  0  0  0  0  0  0  0  0
    9.7552    9.2338   23.0171 N   0  0  0  0  0  0  0  0  0  0  0  0
   11.1797    6.7591   21.3326 N   0  0  0  0  0  0  0  0  0  0  0  0
   11.7728    8.0337   23.7267 C   0  0  0  0  0  0  0  0  0  0  0  0
    7.1194    8.3344   24.6775 C   0  0  0  0  0  0  0  0  0  0  0  0
    8.4311    4.7963   22.0500 C   0  0  0  0  0  0  0  0  0  0  0  0
    8.7393   10.8706   24.1871 O   0  0  0  0  0  0  0  0  0  0  0  0
    9.3093    3.8166   21.6712 C   0  0  0  0  0  0  0  0  0  0  0  0
  1  5  1  0
  1 15  4  0
  1 22  4  0
  2 20  1  0
  2 24  1  0
  3  6  4  0
  3 27  4  0
  4 22  4  0
  4 26  4  0
  6  7  4  0
  6 13  1  0
  7 19  4  0
  8 18  1  0
  8 23  1  0
  8 28  2  0
  9 17  1  0
  9 24  1  0
 10 11  1  0
 10 24  1  0
 11 23  1  0
 12 14  4  0
 12 16  4  0
 14 19  4  0
 15 18  4  0
 16 20  4  0
 17 25  1  0
 18 26  4  0
 19 29  4  0
 20 29  4  0
 21 23  1  0
 21 25  1  0
 27 29  4  0
M  END
$$$$

 Created by Python create_sdf_string function

 29 32  0  0  0  0  0  0  0  0999 V2000
    5.4450    8.7154   22.6662 C   0  0  0  0  0  0  0  0  0  0  0  0
   10.9154    5.4574   20.5483 C   0  0  0  0  0  0  0  0  0  0  0  0
    7.2709    4.5089   22.7542 C   0  0  0  0  0  0  0  0  0  0  0  0
    5.9698    7.6329   24.6581 C   0  0  0  0  0  0  0  0  0  0  0  0
    4.5542    8.9057   21.7104 O   0  0  0  0  0  0  0  0  0  0  0  0
    6.9895    3.2085   23.0690 C   0  0  0  0  0  0  0  0  0  0  0  0
    7.8391    2.2253   22.7260 N   0  0  0  0  0  0  0  0  0  0  0  0
    8.6968    9.8373   23.6359 C   0  0  0  0  0  0  0  0  0  0  0  0
   12.5135    6.5957   21.8396 C   0  0  0  0  0  0  0  0  0  0  0  0
   10.9406    8.2330   21.1350 C   0  0  0  0  0  0  0  0  0  0  0  0
    9.6648    8.5956   21.7310 C   0  0  0  0  0  0  0  0  0  0  0  0
   10.8829    1.7153   20.9865 C   0  0  0  0  0  0  0  0  0  0  0  0
    5.7768    2.8533   23.7910 C   0  0  0  0  0  0  0  0  0  0  0  0
    9.7977    1.4791   21.6912 N   0  0  0  0  0  0  0  0  0  0  0  0
    6.5976    9.3401   22.6478 N   0  0  0  0  0  0  0  0  0  0  0  0
   11.2031    3.0042   20.6246 C   0  0  0  0  0  0  0  0  0  0  0  0
   12.8688    7.7370   22.7287 C   0  0  0  0  0  0  0  0  0  0  0  0
    7.4487    9.1361   23.6506 C   0  0  0  0  0  0  0  0  0  0  0  0
    8.9772    2.5025   22.0273 C   0  0  0  0  0  0  0  0  0  0  0  0
   10.4859    4.0901   20.9730 C   0  0  0  0  0  0  0  0  0  0  0  0
   11.0962    9.3293   23.5072 C   0  0  0  0  0  0  0  0  0  0  0  0
    5.1273    7.8529   23.6208 N   0  0  0  0  0  0  0  0  0  0  0  0
    9.7552    9.2338   23.0171 N   0  0  0  0  0  0  0  0  0  0  0  0
   11.1797    6.7591   21.3326 N   0  0  0  0  0  0  0  0  0  0  0  0
   11.7728    8.0337   23.7267 C   0  0  0  0  0  0  0  0  0  0  0  0
    7.1194    8.3344   24.6775 C   0  0  0  0  0  0  0  0  0  0  0  0
    8.4311    4.7963   22.0500 C   0  0  0  0  0  0  0  0  0  0  0  0
    8.7393   10.8706   24.1871 O   0  0  0  0  0  0  0  0  0  0  0  0
    9.3093    3.8166   21.6712 C   0  0  0  0  0  0  0  0  0  0  0  0
  1  5  1  0
  1 15  4  0
  1 22  4  0
  2 20  1  0
  2 24  1  0
  3  6  4  0
  3 27  4  0
  4 22  4  0
  4 26  4  0
  6  7  4  0
  6 13  1  0
  7 19  4  0
  8 18  1  0
  8 23  1  0
  8 28  2  0
  9 17  1  0
  9 24  1  0
 10 11  1  0
 10 24  1  0
 11 23  1  0
 12 14  4  0
 12 16  4  0
 14 19  4  0
 15 18  4  0
 16 20  4  0
 17 25  1  0
 18 26  4  0
 19 29  4  0
 20 29  4  0
 21 23  1  0
 21 25  1  0
 27 29  4  0
M  END
$$$$

 Created by Python create_sdf_string function

 29 32  0  0  0  0  0  0  0  0999 V2000
    5.4450    8.7154   22.6662 C   0  0  0  0  0  0  0  0  0  0  0  0
   10.9154    5.4574   20.5483 C   0  0  0  0  0  0  0  0  0  0  0  0
    7.2709    4.5089   22.7542 C   0  0  0  0  0  0  0  0  0  0  0  0
    5.9698    7.6329   24.6581 C   0  0  0  0  0  0  0  0  0  0  0  0
    4.5542    8.9057   21.7104 O   0  0  0  0  0  0  0  0  0  0  0  0
    6.9895    3.2085   23.0690 C   0  0  0  0  0  0  0  0  0  0  0  0
    7.8391    2.2253   22.7260 N   0  0  0  0  0  0  0  0  0  0  0  0
    8.6968    9.8373   23.6359 C   0  0  0  0  0  0  0  0  0  0  0  0
   12.5135    6.5957   21.8396 C   0  0  0  0  0  0  0  0  0  0  0  0
   10.9406    8.2330   21.1350 C   0  0  0  0  0  0  0  0  0  0  0  0
    9.6648    8.5956   21.7310 C   0  0  0  0  0  0  0  0  0  0  0  0
   10.8829    1.7153   20.9865 C   0  0  0  0  0  0  0  0  0  0  0  0
    5.7768    2.8533   23.7910 C   0  0  0  0  0  0  0  0  0  0  0  0
    9.7977    1.4791   21.6912 N   0  0  0  0  0  0  0  0  0  0  0  0
    6.5976    9.3401   22.6478 N   0  0  0  0  0  0  0  0  0  0  0  0
   11.2031    3.0042   20.6246 C   0  0  0  0  0  0  0  0  0  0  0  0
   12.8688    7.7370   22.7287 C   0  0  0  0  0  0  0  0  0  0  0  0
    7.4487    9.1361   23.6506 C   0  0  0  0  0  0  0  0  0  0  0  0
    8.9772    2.5025   22.0273 C   0  0  0  0  0  0  0  0  0  0  0  0
   10.4859    4.0901   20.9730 C   0  0  0  0  0  0  0  0  0  0  0  0
   11.0962    9.3293   23.5072 C   0  0  0  0  0  0  0  0  0  0  0  0
    5.1273    7.8529   23.6208 N   0  0  0  0  0  0  0  0  0  0  0  0
    9.7552    9.2338   23.0171 N   0  0  0  0  0  0  0  0  0  0  0  0
   11.1797    6.7591   21.3326 N   0  0  0  0  0  0  0  0  0  0  0  0
   11.7728    8.0337   23.7267 C   0  0  0  0  0  0  0  0  0  0  0  0
    7.1194    8.3344   24.6775 C   0  0  0  0  0  0  0  0  0  0  0  0
    8.4311    4.7963   22.0500 C   0  0  0  0  0  0  0  0  0  0  0  0
    8.7393   10.8706   24.1871 O   0  0  0  0  0  0  0  0  0  0  0  0
    9.3093    3.8166   21.6712 C   0  0  0  0  0  0  0  0  0  0  0  0
  1  5  1  0
  1 15  4  0
  1 22  4  0
  2 20  1  0
  2 24  1  0
  3  6  4  0
  3 27  4  0
  4 22  4  0
  4 26  4  0
  6  7  4  0
  6 13  1  0
  7 19  4  0
  8 18  1  0
  8 23  1  0
  8 28  2  0
  9 17  1  0
  9 24  1  0
 10 11  1  0
 10 24  1  0
 11 23  1  0
 12 14  4  0
 12 16  4  0
 14 19  4  0
 15 18  4  0
 16 20  4  0
 17 25  1  0
 18 26  4  0
 19 29  4  0
 20 29  4  0
 21 23  1  0
 21 25  1  0
 27 29  4  0
M  END
$$$$

 Created by Python create_sdf_string function

 29 32  0  0  0  0  0  0  0  0999 V2000
    5.4450    8.7154   22.6662 C   0  0  0  0  0  0  0  0  0  0  0  0
   10.9154    5.4574   20.5483 C   0  0  0  0  0  0  0  0  0  0  0  0
    7.2709    4.5089   22.7542 C   0  0  0  0  0  0  0  0  0  0  0  0
    5.9698    7.6329   24.6581 C   0  0  0  0  0  0  0  0  0  0  0  0
    4.5542    8.9057   21.7104 O   0  0  0  0  0  0  0  0  0  0  0  0
    6.9895    3.2085   23.0690 C   0  0  0  0  0  0  0  0  0  0  0  0
    7.8391    2.2253   22.7260 N   0  0  0  0  0  0  0  0  0  0  0  0
    8.6968    9.8373   23.6359 C   0  0  0  0  0  0  0  0  0  0  0  0
   12.5135    6.5957   21.8396 C   0  0  0  0  0  0  0  0  0  0  0  0
   10.9406    8.2330   21.1350 C   0  0  0  0  0  0  0  0  0  0  0  0
    9.6648    8.5956   21.7310 C   0  0  0  0  0  0  0  0  0  0  0  0
   10.8829    1.7153   20.9865 C   0  0  0  0  0  0  0  0  0  0  0  0
    5.7768    2.8533   23.7910 C   0  0  0  0  0  0  0  0  0  0  0  0
    9.7977    1.4791   21.6912 N   0  0  0  0  0  0  0  0  0  0  0  0
    6.5976    9.3401   22.6478 N   0  0  0  0  0  0  0  0  0  0  0  0
   11.2031    3.0042   20.6246 C   0  0  0  0  0  0  0  0  0  0  0  0
   12.8688    7.7370   22.7287 C   0  0  0  0  0  0  0  0  0  0  0  0
    7.4487    9.1361   23.6506 C   0  0  0  0  0  0  0  0  0  0  0  0
    8.9772    2.5025   22.0273 C   0  0  0  0  0  0  0  0  0  0  0  0
   10.4859    4.0901   20.9730 C   0  0  0  0  0  0  0  0  0  0  0  0
   11.0962    9.3293   23.5072 C   0  0  0  0  0  0  0  0  0  0  0  0
    5.1273    7.8529   23.6208 N   0  0  0  0  0  0  0  0  0  0  0  0
    9.7552    9.2338   23.0171 N   0  0  0  0  0  0  0  0  0  0  0  0
   11.1797    6.7591   21.3326 N   0  0  0  0  0  0  0  0  0  0  0  0
   11.7728    8.0337   23.7267 C   0  0  0  0  0  0  0  0  0  0  0  0
    7.1194    8.3344   24.6775 C   0  0  0  0  0  0  0  0  0  0  0  0
    8.4311    4.7963   22.0500 C   0  0  0  0  0  0  0  0  0  0  0  0
    8.7393   10.8706   24.1871 O   0  0  0  0  0  0  0  0  0  0  0  0
    9.3093    3.8166   21.6712 C   0  0  0  0  0  0  0  0  0  0  0  0
  1  5  1  0
  1 15  4  0
  1 22  4  0
  2 20  1  0
  2 24  1  0
  3  6  4  0
  3 27  4  0
  4 22  4  0
  4 26  4  0
  6  7  4  0
  6 13  1  0
  7 19  4  0
  8 18  1  0
  8 23  1  0
  8 28  2  0
  9 17  1  0
  9 24  1  0
 10 11  1  0
 10 24  1  0
 11 23  1  0
 12 14  4  0
 12 16  4  0
 14 19  4  0
 15 18  4  0
 16 20  4  0
 17 25  1  0
 18 26  4  0
 19 29  4  0
 20 29  4  0
 21 23  1  0
 21 25  1  0
 27 29  4  0
M  END
$$$$

 Created by Python create_sdf_string function

 29 32  0  0  0  0  0  0  0  0999 V2000
    5.4450    8.7154   22.6662 C   0  0  0  0  0  0  0  0  0  0  0  0
   10.9154    5.4574   20.5483 C   0  0  0  0  0  0  0  0  0  0  0  0
    7.2709    4.5089   22.7542 C   0  0  0  0  0  0  0  0  0  0  0  0
    5.9698    7.6329   24.6581 C   0  0  0  0  0  0  0  0  0  0  0  0
    4.5542    8.9057   21.7104 O   0  0  0  0  0  0  0  0  0  0  0  0
    6.9895    3.2085   23.0690 C   0  0  0  0  0  0  0  0  0  0  0  0
    7.8391    2.2253   22.7260 N   0  0  0  0  0  0  0  0  0  0  0  0
    8.6968    9.8373   23.6359 C   0  0  0  0  0  0  0  0  0  0  0  0
   12.5135    6.5957   21.8396 C   0  0  0  0  0  0  0  0  0  0  0  0
   10.9406    8.2330   21.1350 C   0  0  0  0  0  0  0  0  0  0  0  0
    9.6648    8.5956   21.7310 C   0  0  0  0  0  0  0  0  0  0  0  0
   10.8829    1.7153   20.9865 C   0  0  0  0  0  0  0  0  0  0  0  0
    5.7768    2.8533   23.7910 C   0  0  0  0  0  0  0  0  0  0  0  0
    9.7977    1.4791   21.6912 N   0  0  0  0  0  0  0  0  0  0  0  0
    6.5976    9.3401   22.6478 N   0  0  0  0  0  0  0  0  0  0  0  0
   11.2031    3.0042   20.6246 C   0  0  0  0  0  0  0  0  0  0  0  0
   12.8688    7.7370   22.7287 C   0  0  0  0  0  0  0  0  0  0  0  0
    7.4487    9.1361   23.6506 C   0  0  0  0  0  0  0  0  0  0  0  0
    8.9772    2.5025   22.0273 C   0  0  0  0  0  0  0  0  0  0  0  0
   10.4859    4.0901   20.9730 C   0  0  0  0  0  0  0  0  0  0  0  0
   11.0962    9.3293   23.5072 C   0  0  0  0  0  0  0  0  0  0  0  0
    5.1273    7.8529   23.6208 N   0  0  0  0  0  0  0  0  0  0  0  0
    9.7552    9.2338   23.0171 N   0  0  0  0  0  0  0  0  0  0  0  0
   11.1797    6.7591   21.3326 N   0  0  0  0  0  0  0  0  0  0  0  0
   11.7728    8.0337   23.7267 C   0  0  0  0  0  0  0  0  0  0  0  0
    7.1194    8.3344   24.6775 C   0  0  0  0  0  0  0  0  0  0  0  0
    8.4311    4.7963   22.0500 C   0  0  0  0  0  0  0  0  0  0  0  0
    8.7393   10.8706   24.1871 O   0  0  0  0  0  0  0  0  0  0  0  0
    9.3093    3.8166   21.6712 C   0  0  0  0  0  0  0  0  0  0  0  0
  1  5  1  0
  1 15  4  0
  1 22  4  0
  2 20  1  0
  2 24  1  0
  3  6  4  0
  3 27  4  0
  4 22  4  0
  4 26  4  0
  6  7  4  0
  6 13  1  0
  7 19  4  0
  8 18  1  0
  8 23  1  0
  8 28  2  0
  9 17  1  0
  9 24  1  0
 10 11  1  0
 10 24  1  0
 11 23  1  0
 12 14  4  0
 12 16  4  0
 14 19  4  0
 15 18  4  0
 16 20  4  0
 17 25  1  0
 18 26  4  0
 19 29  4  0
 20 29  4  0
 21 23  1  0
 21 25  1  0
 27 29  4  0
M  END
$$$$

 Created by Python create_sdf_string function

 29 32  0  0  0  0  0  0  0  0999 V2000
    5.4450    8.7154   22.6662 C   0  0  0  0  0  0  0  0  0  0  0  0
   10.9154    5.4574   20.5483 C   0  0  0  0  0  0  0  0  0  0  0  0
    7.2709    4.5089   22.7542 C   0  0  0  0  0  0  0  0  0  0  0  0
    5.9698    7.6329   24.6581 C   0  0  0  0  0  0  0  0  0  0  0  0
    4.5542    8.9057   21.7104 O   0  0  0  0  0  0  0  0  0  0  0  0
    6.9895    3.2085   23.0690 C   0  0  0  0  0  0  0  0  0  0  0  0
    7.8391    2.2253   22.7260 N   0  0  0  0  0  0  0  0  0  0  0  0
    8.6968    9.8373   23.6359 C   0  0  0  0  0  0  0  0  0  0  0  0
   12.5135    6.5957   21.8396 C   0  0  0  0  0  0  0  0  0  0  0  0
   10.9406    8.2330   21.1350 C   0  0  0  0  0  0  0  0  0  0  0  0
    9.6648    8.5956   21.7310 C   0  0  0  0  0  0  0  0  0  0  0  0
   10.8829    1.7153   20.9865 C   0  0  0  0  0  0  0  0  0  0  0  0
    5.7768    2.8533   23.7910 C   0  0  0  0  0  0  0  0  0  0  0  0
    9.7977    1.4791   21.6912 N   0  0  0  0  0  0  0  0  0  0  0  0
    6.5976    9.3401   22.6478 N   0  0  0  0  0  0  0  0  0  0  0  0
   11.2031    3.0042   20.6246 C   0  0  0  0  0  0  0  0  0  0  0  0
   12.8688    7.7370   22.7287 C   0  0  0  0  0  0  0  0  0  0  0  0
    7.4487    9.1361   23.6506 C   0  0  0  0  0  0  0  0  0  0  0  0
    8.9772    2.5025   22.0273 C   0  0  0  0  0  0  0  0  0  0  0  0
   10.4859    4.0901   20.9730 C   0  0  0  0  0  0  0  0  0  0  0  0
   11.0962    9.3293   23.5072 C   0  0  0  0  0  0  0  0  0  0  0  0
    5.1273    7.8529   23.6208 N   0  0  0  0  0  0  0  0  0  0  0  0
    9.7552    9.2338   23.0171 N   0  0  0  0  0  0  0  0  0  0  0  0
   11.1797    6.7591   21.3326 N   0  0  0  0  0  0  0  0  0  0  0  0
   11.7728    8.0337   23.7267 C   0  0  0  0  0  0  0  0  0  0  0  0
    7.1194    8.3344   24.6775 C   0  0  0  0  0  0  0  0  0  0  0  0
    8.4311    4.7963   22.0500 C   0  0  0  0  0  0  0  0  0  0  0  0
    8.7393   10.8706   24.1871 O   0  0  0  0  0  0  0  0  0  0  0  0
    9.3093    3.8166   21.6712 C   0  0  0  0  0  0  0  0  0  0  0  0
  1  5  1  0
  1 15  4  0
  1 22  4  0
  2 20  1  0
  2 24  1  0
  3  6  4  0
  3 27  4  0
  4 22  4  0
  4 26  4  0
  6  7  4  0
  6 13  1  0
  7 19  4  0
  8 18  1  0
  8 23  1  0
  8 28  2  0
  9 17  1  0
  9 24  1  0
 10 11  1  0
 10 24  1  0
 11 23  1  0
 12 14  4  0
 12 16  4  0
 14 19  4  0
 15 18  4  0
 16 20  4  0
 17 25  1  0
 18 26  4  0
 19 29  4  0
 20 29  4  0
 21 23  1  0
 21 25  1  0
 27 29  4  0
M  END
$$$$

 Created by Python create_sdf_string function

 29 32  0  0  0  0  0  0  0  0999 V2000
    5.4450    8.7154   22.6662 C   0  0  0  0  0  0  0  0  0  0  0  0
   10.9154    5.4574   20.5483 C   0  0  0  0  0  0  0  0  0  0  0  0
    7.2709    4.5089   22.7542 C   0  0  0  0  0  0  0  0  0  0  0  0
    5.9698    7.6329   24.6581 C   0  0  0  0  0  0  0  0  0  0  0  0
    4.5542    8.9057   21.7104 O   0  0  0  0  0  0  0  0  0  0  0  0
    6.9895    3.2085   23.0690 C   0  0  0  0  0  0  0  0  0  0  0  0
    7.8391    2.2253   22.7260 N   0  0  0  0  0  0  0  0  0  0  0  0
    8.6968    9.8373   23.6359 C   0  0  0  0  0  0  0  0  0  0  0  0
   12.5135    6.5957   21.8396 C   0  0  0  0  0  0  0  0  0  0  0  0
   10.9406    8.2330   21.1350 C   0  0  0  0  0  0  0  0  0  0  0  0
    9.6648    8.5956   21.7310 C   0  0  0  0  0  0  0  0  0  0  0  0
   10.8829    1.7153   20.9865 C   0  0  0  0  0  0  0  0  0  0  0  0
    5.7768    2.8533   23.7910 C   0  0  0  0  0  0  0  0  0  0  0  0
    9.7977    1.4791   21.6912 N   0  0  0  0  0  0  0  0  0  0  0  0
    6.5976    9.3401   22.6478 N   0  0  0  0  0  0  0  0  0  0  0  0
   11.2031    3.0042   20.6246 C   0  0  0  0  0  0  0  0  0  0  0  0
   12.8688    7.7370   22.7287 C   0  0  0  0  0  0  0  0  0  0  0  0
    7.4487    9.1361   23.6506 C   0  0  0  0  0  0  0  0  0  0  0  0
    8.9772    2.5025   22.0273 C   0  0  0  0  0  0  0  0  0  0  0  0
   10.4859    4.0901   20.9730 C   0  0  0  0  0  0  0  0  0  0  0  0
   11.0962    9.3293   23.5072 C   0  0  0  0  0  0  0  0  0  0  0  0
    5.1273    7.8529   23.6208 N   0  0  0  0  0  0  0  0  0  0  0  0
    9.7552    9.2338   23.0171 N   0  0  0  0  0  0  0  0  0  0  0  0
   11.1797    6.7591   21.3326 N   0  0  0  0  0  0  0  0  0  0  0  0
   11.7728    8.0337   23.7267 C   0  0  0  0  0  0  0  0  0  0  0  0
    7.1194    8.3344   24.6775 C   0  0  0  0  0  0  0  0  0  0  0  0
    8.4311    4.7963   22.0500 C   0  0  0  0  0  0  0  0  0  0  0  0
    8.7393   10.8706   24.1871 O   0  0  0  0  0  0  0  0  0  0  0  0
    9.3093    3.8166   21.6712 C   0  0  0  0  0  0  0  0  0  0  0  0
  1  5  1  0
  1 15  4  0
  1 22  4  0
  2 20  1  0
  2 24  1  0
  3  6  4  0
  3 27  4  0
  4 22  4  0
  4 26  4  0
  6  7  4  0
  6 13  1  0
  7 19  4  0
  8 18  1  0
  8 23  1  0
  8 28  2  0
  9 17  1  0
  9 24  1  0
 10 11  1  0
 10 24  1  0
 11 23  1  0
 12 14  4  0
 12 16  4  0
 14 19  4  0
 15 18  4  0
 16 20  4  0
 17 25  1  0
 18 26  4  0
 19 29  4  0
 20 29  4  0
 21 23  1  0
 21 25  1  0
 27 29  4  0
M  END
$$$$

 Created by Python create_sdf_string function

 29 32  0  0  0  0  0  0  0  0999 V2000
    5.4450    8.7154   22.6662 C   0  0  0  0  0  0  0  0  0  0  0  0
   10.9154    5.4574   20.5483 C   0  0  0  0  0  0  0  0  0  0  0  0
    7.2709    4.5089   22.7542 C   0  0  0  0  0  0  0  0  0  0  0  0
    5.9698    7.6329   24.6581 C   0  0  0  0  0  0  0  0  0  0  0  0
    4.5542    8.9057   21.7104 O   0  0  0  0  0  0  0  0  0  0  0  0
    6.9895    3.2085   23.0690 C   0  0  0  0  0  0  0  0  0  0  0  0
    7.8391    2.2253   22.7260 N   0  0  0  0  0  0  0  0  0  0  0  0
    8.6968    9.8373   23.6359 C   0  0  0  0  0  0  0  0  0  0  0  0
   12.5135    6.5957   21.8396 C   0  0  0  0  0  0  0  0  0  0  0  0
   10.9406    8.2330   21.1350 C   0  0  0  0  0  0  0  0  0  0  0  0
    9.6648    8.5956   21.7310 C   0  0  0  0  0  0  0  0  0  0  0  0
   10.8829    1.7153   20.9865 C   0  0  0  0  0  0  0  0  0  0  0  0
    5.7768    2.8533   23.7910 C   0  0  0  0  0  0  0  0  0  0  0  0
    9.7977    1.4791   21.6912 N   0  0  0  0  0  0  0  0  0  0  0  0
    6.5976    9.3401   22.6478 N   0  0  0  0  0  0  0  0  0  0  0  0
   11.2031    3.0042   20.6246 C   0  0  0  0  0  0  0  0  0  0  0  0
   12.8688    7.7370   22.7287 C   0  0  0  0  0  0  0  0  0  0  0  0
    7.4487    9.1361   23.6506 C   0  0  0  0  0  0  0  0  0  0  0  0
    8.9772    2.5025   22.0273 C   0  0  0  0  0  0  0  0  0  0  0  0
   10.4859    4.0901   20.9730 C   0  0  0  0  0  0  0  0  0  0  0  0
   11.0962    9.3293   23.5072 C   0  0  0  0  0  0  0  0  0  0  0  0
    5.1273    7.8529   23.6208 N   0  0  0  0  0  0  0  0  0  0  0  0
    9.7552    9.2338   23.0171 N   0  0  0  0  0  0  0  0  0  0  0  0
   11.1797    6.7591   21.3326 N   0  0  0  0  0  0  0  0  0  0  0  0
   11.7728    8.0337   23.7267 C   0  0  0  0  0  0  0  0  0  0  0  0
    7.1194    8.3344   24.6775 C   0  0  0  0  0  0  0  0  0  0  0  0
    8.4311    4.7963   22.0500 C   0  0  0  0  0  0  0  0  0  0  0  0
    8.7393   10.8706   24.1871 O   0  0  0  0  0  0  0  0  0  0  0  0
    9.3093    3.8166   21.6712 C   0  0  0  0  0  0  0  0  0  0  0  0
  1  5  1  0
  1 15  4  0
  1 22  4  0
  2 20  1  0
  2 24  1  0
  3  6  4  0
  3 27  4  0
  4 22  4  0
  4 26  4  0
  6  7  4  0
  6 13  1  0
  7 19  4  0
  8 18  1  0
  8 23  1  0
  8 28  2  0
  9 17  1  0
  9 24  1  0
 10 11  1  0
 10 24  1  0
 11 23  1  0
 12 14  4  0
 12 16  4  0
 14 19  4  0
 15 18  4  0
 16 20  4  0
 17 25  1  0
 18 26  4  0
 19 29  4  0
 20 29  4  0
 21 23  1  0
 21 25  1  0
 27 29  4  0
M  END
$$$$

 Created by Python create_sdf_string function

 29 32  0  0  0  0  0  0  0  0999 V2000
    5.4450    8.7154   22.6662 C   0  0  0  0  0  0  0  0  0  0  0  0
   10.9154    5.4574   20.5483 C   0  0  0  0  0  0  0  0  0  0  0  0
    7.2709    4.5089   22.7542 C   0  0  0  0  0  0  0  0  0  0  0  0
    5.9698    7.6329   24.6581 C   0  0  0  0  0  0  0  0  0  0  0  0
    4.5542    8.9057   21.7104 O   0  0  0  0  0  0  0  0  0  0  0  0
    6.9895    3.2085   23.0690 C   0  0  0  0  0  0  0  0  0  0  0  0
    7.8391    2.2253   22.7260 N   0  0  0  0  0  0  0  0  0  0  0  0
    8.6968    9.8373   23.6359 C   0  0  0  0  0  0  0  0  0  0  0  0
   12.5135    6.5957   21.8396 C   0  0  0  0  0  0  0  0  0  0  0  0
   10.9406    8.2330   21.1350 C   0  0  0  0  0  0  0  0  0  0  0  0
    9.6648    8.5956   21.7310 C   0  0  0  0  0  0  0  0  0  0  0  0
   10.8829    1.7153   20.9865 C   0  0  0  0  0  0  0  0  0  0  0  0
    5.7768    2.8533   23.7910 C   0  0  0  0  0  0  0  0  0  0  0  0
    9.7977    1.4791   21.6912 N   0  0  0  0  0  0  0  0  0  0  0  0
    6.5976    9.3401   22.6478 N   0  0  0  0  0  0  0  0  0  0  0  0
   11.2031    3.0042   20.6246 C   0  0  0  0  0  0  0  0  0  0  0  0
   12.8688    7.7370   22.7287 C   0  0  0  0  0  0  0  0  0  0  0  0
    7.4487    9.1361   23.6506 C   0  0  0  0  0  0  0  0  0  0  0  0
    8.9772    2.5025   22.0273 C   0  0  0  0  0  0  0  0  0  0  0  0
   10.4859    4.0901   20.9730 C   0  0  0  0  0  0  0  0  0  0  0  0
   11.0962    9.3293   23.5072 C   0  0  0  0  0  0  0  0  0  0  0  0
    5.1273    7.8529   23.6208 N   0  0  0  0  0  0  0  0  0  0  0  0
    9.7552    9.2338   23.0171 N   0  0  0  0  0  0  0  0  0  0  0  0
   11.1797    6.7591   21.3326 N   0  0  0  0  0  0  0  0  0  0  0  0
   11.7728    8.0337   23.7267 C   0  0  0  0  0  0  0  0  0  0  0  0
    7.1194    8.3344   24.6775 C   0  0  0  0  0  0  0  0  0  0  0  0
    8.4311    4.7963   22.0500 C   0  0  0  0  0  0  0  0  0  0  0  0
    8.7393   10.8706   24.1871 O   0  0  0  0  0  0  0  0  0  0  0  0
    9.3093    3.8166   21.6712 C   0  0  0  0  0  0  0  0  0  0  0  0
  1  5  1  0
  1 15  4  0
  1 22  4  0
  2 20  1  0
  2 24  1  0
  3  6  4  0
  3 27  4  0
  4 22  4  0
  4 26  4  0
  6  7  4  0
  6 13  1  0
  7 19  4  0
  8 18  1  0
  8 23  1  0
  8 28  2  0
  9 17  1  0
  9 24  1  0
 10 11  1  0
 10 24  1  0
 11 23  1  0
 12 14  4  0
 12 16  4  0
 14 19  4  0
 15 18  4  0
 16 20  4  0
 17 25  1  0
 18 26  4  0
 19 29  4  0
 20 29  4  0
 21 23  1  0
 21 25  1  0
 27 29  4  0
M  END
$$$$

 Created by Python create_sdf_string function

 29 32  0  0  0  0  0  0  0  0999 V2000
    5.4450    8.7154   22.6662 C   0  0  0  0  0  0  0  0  0  0  0  0
   10.9154    5.4574   20.5483 C   0  0  0  0  0  0  0  0  0  0  0  0
    7.2709    4.5089   22.7542 C   0  0  0  0  0  0  0  0  0  0  0  0
    5.9698    7.6329   24.6581 C   0  0  0  0  0  0  0  0  0  0  0  0
    4.5542    8.9057   21.7104 O   0  0  0  0  0  0  0  0  0  0  0  0
    6.9895    3.2085   23.0690 C   0  0  0  0  0  0  0  0  0  0  0  0
    7.8391    2.2253   22.7260 N   0  0  0  0  0  0  0  0  0  0  0  0
    8.6968    9.8373   23.6359 C   0  0  0  0  0  0  0  0  0  0  0  0
   12.5135    6.5957   21.8396 C   0  0  0  0  0  0  0  0  0  0  0  0
   10.9406    8.2330   21.1350 C   0  0  0  0  0  0  0  0  0  0  0  0
    9.6648    8.5956   21.7310 C   0  0  0  0  0  0  0  0  0  0  0  0
   10.8829    1.7153   20.9865 C   0  0  0  0  0  0  0  0  0  0  0  0
    5.7768    2.8533   23.7910 C   0  0  0  0  0  0  0  0  0  0  0  0
    9.7977    1.4791   21.6912 N   0  0  0  0  0  0  0  0  0  0  0  0
    6.5976    9.3401   22.6478 N   0  0  0  0  0  0  0  0  0  0  0  0
   11.2031    3.0042   20.6246 C   0  0  0  0  0  0  0  0  0  0  0  0
   12.8688    7.7370   22.7287 C   0  0  0  0  0  0  0  0  0  0  0  0
    7.4487    9.1361   23.6506 C   0  0  0  0  0  0  0  0  0  0  0  0
    8.9772    2.5025   22.0273 C   0  0  0  0  0  0  0  0  0  0  0  0
   10.4859    4.0901   20.9730 C   0  0  0  0  0  0  0  0  0  0  0  0
   11.0962    9.3293   23.5072 C   0  0  0  0  0  0  0  0  0  0  0  0
    5.1273    7.8529   23.6208 N   0  0  0  0  0  0  0  0  0  0  0  0
    9.7552    9.2338   23.0171 N   0  0  0  0  0  0  0  0  0  0  0  0
   11.1797    6.7591   21.3326 N   0  0  0  0  0  0  0  0  0  0  0  0
   11.7728    8.0337   23.7267 C   0  0  0  0  0  0  0  0  0  0  0  0
    7.1194    8.3344   24.6775 C   0  0  0  0  0  0  0  0  0  0  0  0
    8.4311    4.7963   22.0500 C   0  0  0  0  0  0  0  0  0  0  0  0
    8.7393   10.8706   24.1871 O   0  0  0  0  0  0  0  0  0  0  0  0
    9.3093    3.8166   21.6712 C   0  0  0  0  0  0  0  0  0  0  0  0
  1  5  1  0
  1 15  4  0
  1 22  4  0
  2 20  1  0
  2 24  1  0
  3  6  4  0
  3 27  4  0
  4 22  4  0
  4 26  4  0
  6  7  4  0
  6 13  1  0
  7 19  4  0
  8 18  1  0
  8 23  1  0
  8 28  2  0
  9 17  1  0
  9 24  1  0
 10 11  1  0
 10 24  1  0
 11 23  1  0
 12 14  4  0
 12 16  4  0
 14 19  4  0
 15 18  4  0
 16 20  4  0
 17 25  1  0
 18 26  4  0
 19 29  4  0
 20 29  4  0
 21 23  1  0
 21 25  1  0
 27 29  4  0
M  END
$$$$

 Created by Python create_sdf_string function

 29 32  0  0  0  0  0  0  0  0999 V2000
    5.4450    8.7154   22.6662 C   0  0  0  0  0  0  0  0  0  0  0  0
   10.9154    5.4574   20.5483 C   0  0  0  0  0  0  0  0  0  0  0  0
    7.2709    4.5089   22.7542 C   0  0  0  0  0  0  0  0  0  0  0  0
    5.9698    7.6329   24.6581 C   0  0  0  0  0  0  0  0  0  0  0  0
    4.5542    8.9057   21.7104 O   0  0  0  0  0  0  0  0  0  0  0  0
    6.9895    3.2085   23.0690 C   0  0  0  0  0  0  0  0  0  0  0  0
    7.8391    2.2253   22.7260 N   0  0  0  0  0  0  0  0  0  0  0  0
    8.6968    9.8373   23.6359 C   0  0  0  0  0  0  0  0  0  0  0  0
   12.5135    6.5957   21.8396 C   0  0  0  0  0  0  0  0  0  0  0  0
   10.9406    8.2330   21.1350 C   0  0  0  0  0  0  0  0  0  0  0  0
    9.6648    8.5956   21.7310 C   0  0  0  0  0  0  0  0  0  0  0  0
   10.8829    1.7153   20.9865 C   0  0  0  0  0  0  0  0  0  0  0  0
    5.7768    2.8533   23.7910 C   0  0  0  0  0  0  0  0  0  0  0  0
    9.7977    1.4791   21.6912 N   0  0  0  0  0  0  0  0  0  0  0  0
    6.5976    9.3401   22.6478 N   0  0  0  0  0  0  0  0  0  0  0  0
   11.2031    3.0042   20.6246 C   0  0  0  0  0  0  0  0  0  0  0  0
   12.8688    7.7370   22.7287 C   0  0  0  0  0  0  0  0  0  0  0  0
    7.4487    9.1361   23.6506 C   0  0  0  0  0  0  0  0  0  0  0  0
    8.9772    2.5025   22.0273 C   0  0  0  0  0  0  0  0  0  0  0  0
   10.4859    4.0901   20.9730 C   0  0  0  0  0  0  0  0  0  0  0  0
   11.0962    9.3293   23.5072 C   0  0  0  0  0  0  0  0  0  0  0  0
    5.1273    7.8529   23.6208 N   0  0  0  0  0  0  0  0  0  0  0  0
    9.7552    9.2338   23.0171 N   0  0  0  0  0  0  0  0  0  0  0  0
   11.1797    6.7591   21.3326 N   0  0  0  0  0  0  0  0  0  0  0  0
   11.7728    8.0337   23.7267 C   0  0  0  0  0  0  0  0  0  0  0  0
    7.1194    8.3344   24.6775 C   0  0  0  0  0  0  0  0  0  0  0  0
    8.4311    4.7963   22.0500 C   0  0  0  0  0  0  0  0  0  0  0  0
    8.7393   10.8706   24.1871 O   0  0  0  0  0  0  0  0  0  0  0  0
    9.3093    3.8166   21.6712 C   0  0  0  0  0  0  0  0  0  0  0  0
  1  5  1  0
  1 15  4  0
  1 22  4  0
  2 20  1  0
  2 24  1  0
  3  6  4  0
  3 27  4  0
  4 22  4  0
  4 26  4  0
  6  7  4  0
  6 13  1  0
  7 19  4  0
  8 18  1  0
  8 23  1  0
  8 28  2  0
  9 17  1  0
  9 24  1  0
 10 11  1  0
 10 24  1  0
 11 23  1  0
 12 14  4  0
 12 16  4  0
 14 19  4  0
 15 18  4  0
 16 20  4  0
 17 25  1  0
 18 26  4  0
 19 29  4  0
 20 29  4  0
 21 23  1  0
 21 25  1  0
 27 29  4  0
M  END
$$$$

 Created by Python create_sdf_string function

 29 32  0  0  0  0  0  0  0  0999 V2000
    5.4450    8.7154   22.6662 C   0  0  0  0  0  0  0  0  0  0  0  0
   10.9154    5.4574   20.5483 C   0  0  0  0  0  0  0  0  0  0  0  0
    7.2709    4.5089   22.7542 C   0  0  0  0  0  0  0  0  0  0  0  0
    5.9698    7.6329   24.6581 C   0  0  0  0  0  0  0  0  0  0  0  0
    4.5542    8.9057   21.7104 O   0  0  0  0  0  0  0  0  0  0  0  0
    6.9895    3.2085   23.0690 C   0  0  0  0  0  0  0  0  0  0  0  0
    7.8391    2.2253   22.7260 N   0  0  0  0  0  0  0  0  0  0  0  0
    8.6968    9.8373   23.6359 C   0  0  0  0  0  0  0  0  0  0  0  0
   12.5135    6.5957   21.8396 C   0  0  0  0  0  0  0  0  0  0  0  0
   10.9406    8.2330   21.1350 C   0  0  0  0  0  0  0  0  0  0  0  0
    9.6648    8.5956   21.7310 C   0  0  0  0  0  0  0  0  0  0  0  0
   10.8829    1.7153   20.9865 C   0  0  0  0  0  0  0  0  0  0  0  0
    5.7768    2.8533   23.7910 C   0  0  0  0  0  0  0  0  0  0  0  0
    9.7977    1.4791   21.6912 N   0  0  0  0  0  0  0  0  0  0  0  0
    6.5976    9.3401   22.6478 N   0  0  0  0  0  0  0  0  0  0  0  0
   11.2031    3.0042   20.6246 C   0  0  0  0  0  0  0  0  0  0  0  0
   12.8688    7.7370   22.7287 C   0  0  0  0  0  0  0  0  0  0  0  0
    7.4487    9.1361   23.6506 C   0  0  0  0  0  0  0  0  0  0  0  0
    8.9772    2.5025   22.0273 C   0  0  0  0  0  0  0  0  0  0  0  0
   10.4859    4.0901   20.9730 C   0  0  0  0  0  0  0  0  0  0  0  0
   11.0962    9.3293   23.5072 C   0  0  0  0  0  0  0  0  0  0  0  0
    5.1273    7.8529   23.6208 N   0  0  0  0  0  0  0  0  0  0  0  0
    9.7552    9.2338   23.0171 N   0  0  0  0  0  0  0  0  0  0  0  0
   11.1797    6.7591   21.3326 N   0  0  0  0  0  0  0  0  0  0  0  0
   11.7728    8.0337   23.7267 C   0  0  0  0  0  0  0  0  0  0  0  0
    7.1194    8.3344   24.6775 C   0  0  0  0  0  0  0  0  0  0  0  0
    8.4311    4.7963   22.0500 C   0  0  0  0  0  0  0  0  0  0  0  0
    8.7393   10.8706   24.1871 O   0  0  0  0  0  0  0  0  0  0  0  0
    9.3093    3.8166   21.6712 C   0  0  0  0  0  0  0  0  0  0  0  0
  1  5  1  0
  1 15  4  0
  1 22  4  0
  2 20  1  0
  2 24  1  0
  3  6  4  0
  3 27  4  0
  4 22  4  0
  4 26  4  0
  6  7  4  0
  6 13  1  0
  7 19  4  0
  8 18  1  0
  8 23  1  0
  8 28  2  0
  9 17  1  0
  9 24  1  0
 10 11  1  0
 10 24  1  0
 11 23  1  0
 12 14  4  0
 12 16  4  0
 14 19  4  0
 15 18  4  0
 16 20  4  0
 17 25  1  0
 18 26  4  0
 19 29  4  0
 20 29  4  0
 21 23  1  0
 21 25  1  0
 27 29  4  0
M  END
$$$$

 Created by Python create_sdf_string function

 29 32  0  0  0  0  0  0  0  0999 V2000
    5.4450    8.7154   22.6662 C   0  0  0  0  0  0  0  0  0  0  0  0
   10.9154    5.4574   20.5483 C   0  0  0  0  0  0  0  0  0  0  0  0
    7.2709    4.5089   22.7542 C   0  0  0  0  0  0  0  0  0  0  0  0
    5.9698    7.6329   24.6581 C   0  0  0  0  0  0  0  0  0  0  0  0
    4.5542    8.9057   21.7104 O   0  0  0  0  0  0  0  0  0  0  0  0
    6.9895    3.2085   23.0690 C   0  0  0  0  0  0  0  0  0  0  0  0
    7.8391    2.2253   22.7260 N   0  0  0  0  0  0  0  0  0  0  0  0
    8.6968    9.8373   23.6359 C   0  0  0  0  0  0  0  0  0  0  0  0
   12.5135    6.5957   21.8396 C   0  0  0  0  0  0  0  0  0  0  0  0
   10.9406    8.2330   21.1350 C   0  0  0  0  0  0  0  0  0  0  0  0
    9.6648    8.5956   21.7310 C   0  0  0  0  0  0  0  0  0  0  0  0
   10.8829    1.7153   20.9865 C   0  0  0  0  0  0  0  0  0  0  0  0
    5.7768    2.8533   23.7910 C   0  0  0  0  0  0  0  0  0  0  0  0
    9.7977    1.4791   21.6912 N   0  0  0  0  0  0  0  0  0  0  0  0
    6.5976    9.3401   22.6478 N   0  0  0  0  0  0  0  0  0  0  0  0
   11.2031    3.0042   20.6246 C   0  0  0  0  0  0  0  0  0  0  0  0
   12.8688    7.7370   22.7287 C   0  0  0  0  0  0  0  0  0  0  0  0
    7.4487    9.1361   23.6506 C   0  0  0  0  0  0  0  0  0  0  0  0
    8.9772    2.5025   22.0273 C   0  0  0  0  0  0  0  0  0  0  0  0
   10.4859    4.0901   20.9730 C   0  0  0  0  0  0  0  0  0  0  0  0
   11.0962    9.3293   23.5072 C   0  0  0  0  0  0  0  0  0  0  0  0
    5.1273    7.8529   23.6208 N   0  0  0  0  0  0  0  0  0  0  0  0
    9.7552    9.2338   23.0171 N   0  0  0  0  0  0  0  0  0  0  0  0
   11.1797    6.7591   21.3326 N   0  0  0  0  0  0  0  0  0  0  0  0
   11.7728    8.0337   23.7267 C   0  0  0  0  0  0  0  0  0  0  0  0
    7.1194    8.3344   24.6775 C   0  0  0  0  0  0  0  0  0  0  0  0
    8.4311    4.7963   22.0500 C   0  0  0  0  0  0  0  0  0  0  0  0
    8.7393   10.8706   24.1871 O   0  0  0  0  0  0  0  0  0  0  0  0
    9.3093    3.8166   21.6712 C   0  0  0  0  0  0  0  0  0  0  0  0
  1  5  1  0
  1 15  4  0
  1 22  4  0
  2 20  1  0
  2 24  1  0
  3  6  4  0
  3 27  4  0
  4 22  4  0
  4 26  4  0
  6  7  4  0
  6 13  1  0
  7 19  4  0
  8 18  1  0
  8 23  1  0
  8 28  2  0
  9 17  1  0
  9 24  1  0
 10 11  1  0
 10 24  1  0
 11 23  1  0
 12 14  4  0
 12 16  4  0
 14 19  4  0
 15 18  4  0
 16 20  4  0
 17 25  1  0
 18 26  4  0
 19 29  4  0
 20 29  4  0
 21 23  1  0
 21 25  1  0
 27 29  4  0
M  END
$$$$

 Created by Python create_sdf_string function

 29 32  0  0  0  0  0  0  0  0999 V2000
    5.4450    8.7154   22.6662 C   0  0  0  0  0  0  0  0  0  0  0  0
   10.9154    5.4574   20.5483 C   0  0  0  0  0  0  0  0  0  0  0  0
    7.2709    4.5089   22.7542 C   0  0  0  0  0  0  0  0  0  0  0  0
    5.9698    7.6329   24.6581 C   0  0  0  0  0  0  0  0  0  0  0  0
    4.5542    8.9057   21.7104 O   0  0  0  0  0  0  0  0  0  0  0  0
    6.9895    3.2085   23.0690 C   0  0  0  0  0  0  0  0  0  0  0  0
    7.8391    2.2253   22.7260 N   0  0  0  0  0  0  0  0  0  0  0  0
    8.6968    9.8373   23.6359 C   0  0  0  0  0  0  0  0  0  0  0  0
   12.5135    6.5957   21.8396 C   0  0  0  0  0  0  0  0  0  0  0  0
   10.9406    8.2330   21.1350 C   0  0  0  0  0  0  0  0  0  0  0  0
    9.6648    8.5956   21.7310 C   0  0  0  0  0  0  0  0  0  0  0  0
   10.8829    1.7153   20.9865 C   0  0  0  0  0  0  0  0  0  0  0  0
    5.7768    2.8533   23.7910 C   0  0  0  0  0  0  0  0  0  0  0  0
    9.7977    1.4791   21.6912 N   0  0  0  0  0  0  0  0  0  0  0  0
    6.5976    9.3401   22.6478 N   0  0  0  0  0  0  0  0  0  0  0  0
   11.2031    3.0042   20.6246 C   0  0  0  0  0  0  0  0  0  0  0  0
   12.8688    7.7370   22.7287 C   0  0  0  0  0  0  0  0  0  0  0  0
    7.4487    9.1361   23.6506 C   0  0  0  0  0  0  0  0  0  0  0  0
    8.9772    2.5025   22.0273 C   0  0  0  0  0  0  0  0  0  0  0  0
   10.4859    4.0901   20.9730 C   0  0  0  0  0  0  0  0  0  0  0  0
   11.0962    9.3293   23.5072 C   0  0  0  0  0  0  0  0  0  0  0  0
    5.1273    7.8529   23.6208 N   0  0  0  0  0  0  0  0  0  0  0  0
    9.7552    9.2338   23.0171 N   0  0  0  0  0  0  0  0  0  0  0  0
   11.1797    6.7591   21.3326 N   0  0  0  0  0  0  0  0  0  0  0  0
   11.7728    8.0337   23.7267 C   0  0  0  0  0  0  0  0  0  0  0  0
    7.1194    8.3344   24.6775 C   0  0  0  0  0  0  0  0  0  0  0  0
    8.4311    4.7963   22.0500 C   0  0  0  0  0  0  0  0  0  0  0  0
    8.7393   10.8706   24.1871 O   0  0  0  0  0  0  0  0  0  0  0  0
    9.3093    3.8166   21.6712 C   0  0  0  0  0  0  0  0  0  0  0  0
  1  5  1  0
  1 15  4  0
  1 22  4  0
  2 20  1  0
  2 24  1  0
  3  6  4  0
  3 27  4  0
  4 22  4  0
  4 26  4  0
  6  7  4  0
  6 13  1  0
  7 19  4  0
  8 18  1  0
  8 23  1  0
  8 28  2  0
  9 17  1  0
  9 24  1  0
 10 11  1  0
 10 24  1  0
 11 23  1  0
 12 14  4  0
 12 16  4  0
 14 19  4  0
 15 18  4  0
 16 20  4  0
 17 25  1  0
 18 26  4  0
 19 29  4  0
 20 29  4  0
 21 23  1  0
 21 25  1  0
 27 29  4  0
M  END
$$$$

 Created by Python create_sdf_string function

 29 32  0  0  0  0  0  0  0  0999 V2000
    5.4450    8.7154   22.6662 C   0  0  0  0  0  0  0  0  0  0  0  0
   10.9154    5.4574   20.5483 C   0  0  0  0  0  0  0  0  0  0  0  0
    7.2709    4.5089   22.7542 C   0  0  0  0  0  0  0  0  0  0  0  0
    5.9698    7.6329   24.6581 C   0  0  0  0  0  0  0  0  0  0  0  0
    4.5542    8.9057   21.7104 O   0  0  0  0  0  0  0  0  0  0  0  0
    6.9895    3.2085   23.0690 C   0  0  0  0  0  0  0  0  0  0  0  0
    7.8391    2.2253   22.7260 N   0  0  0  0  0  0  0  0  0  0  0  0
    8.6968    9.8373   23.6359 C   0  0  0  0  0  0  0  0  0  0  0  0
   12.5135    6.5957   21.8396 C   0  0  0  0  0  0  0  0  0  0  0  0
   10.9406    8.2330   21.1350 C   0  0  0  0  0  0  0  0  0  0  0  0
    9.6648    8.5956   21.7310 C   0  0  0  0  0  0  0  0  0  0  0  0
   10.8829    1.7153   20.9865 C   0  0  0  0  0  0  0  0  0  0  0  0
    5.7768    2.8533   23.7910 C   0  0  0  0  0  0  0  0  0  0  0  0
    9.7977    1.4791   21.6912 N   0  0  0  0  0  0  0  0  0  0  0  0
    6.5976    9.3401   22.6478 N   0  0  0  0  0  0  0  0  0  0  0  0
   11.2031    3.0042   20.6246 C   0  0  0  0  0  0  0  0  0  0  0  0
   12.8688    7.7370   22.7287 C   0  0  0  0  0  0  0  0  0  0  0  0
    7.4487    9.1361   23.6506 C   0  0  0  0  0  0  0  0  0  0  0  0
    8.9772    2.5025   22.0273 C   0  0  0  0  0  0  0  0  0  0  0  0
   10.4859    4.0901   20.9730 C   0  0  0  0  0  0  0  0  0  0  0  0
   11.0962    9.3293   23.5072 C   0  0  0  0  0  0  0  0  0  0  0  0
    5.1273    7.8529   23.6208 N   0  0  0  0  0  0  0  0  0  0  0  0
    9.7552    9.2338   23.0171 N   0  0  0  0  0  0  0  0  0  0  0  0
   11.1797    6.7591   21.3326 N   0  0  0  0  0  0  0  0  0  0  0  0
   11.7728    8.0337   23.7267 C   0  0  0  0  0  0  0  0  0  0  0  0
    7.1194    8.3344   24.6775 C   0  0  0  0  0  0  0  0  0  0  0  0
    8.4311    4.7963   22.0500 C   0  0  0  0  0  0  0  0  0  0  0  0
    8.7393   10.8706   24.1871 O   0  0  0  0  0  0  0  0  0  0  0  0
    9.3093    3.8166   21.6712 C   0  0  0  0  0  0  0  0  0  0  0  0
  1  5  1  0
  1 15  4  0
  1 22  4  0
  2 20  1  0
  2 24  1  0
  3  6  4  0
  3 27  4  0
  4 22  4  0
  4 26  4  0
  6  7  4  0
  6 13  1  0
  7 19  4  0
  8 18  1  0
  8 23  1  0
  8 28  2  0
  9 17  1  0
  9 24  1  0
 10 11  1  0
 10 24  1  0
 11 23  1  0
 12 14  4  0
 12 16  4  0
 14 19  4  0
 15 18  4  0
 16 20  4  0
 17 25  1  0
 18 26  4  0
 19 29  4  0
 20 29  4  0
 21 23  1  0
 21 25  1  0
 27 29  4  0
M  END
$$$$

 Created by Python create_sdf_string function

 29 32  0  0  0  0  0  0  0  0999 V2000
    5.4450    8.7154   22.6662 C   0  0  0  0  0  0  0  0  0  0  0  0
   10.9154    5.4574   20.5483 C   0  0  0  0  0  0  0  0  0  0  0  0
    7.2709    4.5089   22.7542 C   0  0  0  0  0  0  0  0  0  0  0  0
    5.9698    7.6329   24.6581 C   0  0  0  0  0  0  0  0  0  0  0  0
    4.5542    8.9057   21.7104 O   0  0  0  0  0  0  0  0  0  0  0  0
    6.9895    3.2085   23.0690 C   0  0  0  0  0  0  0  0  0  0  0  0
    7.8391    2.2253   22.7260 N   0  0  0  0  0  0  0  0  0  0  0  0
    8.6968    9.8373   23.6359 C   0  0  0  0  0  0  0  0  0  0  0  0
   12.5135    6.5957   21.8396 C   0  0  0  0  0  0  0  0  0  0  0  0
   10.9406    8.2330   21.1350 C   0  0  0  0  0  0  0  0  0  0  0  0
    9.6648    8.5956   21.7310 C   0  0  0  0  0  0  0  0  0  0  0  0
   10.8829    1.7153   20.9865 C   0  0  0  0  0  0  0  0  0  0  0  0
    5.7768    2.8533   23.7910 C   0  0  0  0  0  0  0  0  0  0  0  0
    9.7977    1.4791   21.6912 N   0  0  0  0  0  0  0  0  0  0  0  0
    6.5976    9.3401   22.6478 N   0  0  0  0  0  0  0  0  0  0  0  0
   11.2031    3.0042   20.6246 C   0  0  0  0  0  0  0  0  0  0  0  0
   12.8688    7.7370   22.7287 C   0  0  0  0  0  0  0  0  0  0  0  0
    7.4487    9.1361   23.6506 C   0  0  0  0  0  0  0  0  0  0  0  0
    8.9772    2.5025   22.0273 C   0  0  0  0  0  0  0  0  0  0  0  0
   10.4859    4.0901   20.9730 C   0  0  0  0  0  0  0  0  0  0  0  0
   11.0962    9.3293   23.5072 C   0  0  0  0  0  0  0  0  0  0  0  0
    5.1273    7.8529   23.6208 N   0  0  0  0  0  0  0  0  0  0  0  0
    9.7552    9.2338   23.0171 N   0  0  0  0  0  0  0  0  0  0  0  0
   11.1797    6.7591   21.3326 N   0  0  0  0  0  0  0  0  0  0  0  0
   11.7728    8.0337   23.7267 C   0  0  0  0  0  0  0  0  0  0  0  0
    7.1194    8.3344   24.6775 C   0  0  0  0  0  0  0  0  0  0  0  0
    8.4311    4.7963   22.0500 C   0  0  0  0  0  0  0  0  0  0  0  0
    8.7393   10.8706   24.1871 O   0  0  0  0  0  0  0  0  0  0  0  0
    9.3093    3.8166   21.6712 C   0  0  0  0  0  0  0  0  0  0  0  0
  1  5  1  0
  1 15  4  0
  1 22  4  0
  2 20  1  0
  2 24  1  0
  3  6  4  0
  3 27  4  0
  4 22  4  0
  4 26  4  0
  6  7  4  0
  6 13  1  0
  7 19  4  0
  8 18  1  0
  8 23  1  0
  8 28  2  0
  9 17  1  0
  9 24  1  0
 10 11  1  0
 10 24  1  0
 11 23  1  0
 12 14  4  0
 12 16  4  0
 14 19  4  0
 15 18  4  0
 16 20  4  0
 17 25  1  0
 18 26  4  0
 19 29  4  0
 20 29  4  0
 21 23  1  0
 21 25  1  0
 27 29  4  0
M  END
$$$$

 Created by Python create_sdf_string function

 29 32  0  0  0  0  0  0  0  0999 V2000
    5.4450    8.7154   22.6662 C   0  0  0  0  0  0  0  0  0  0  0  0
   10.9154    5.4574   20.5483 C   0  0  0  0  0  0  0  0  0  0  0  0
    7.2709    4.5089   22.7542 C   0  0  0  0  0  0  0  0  0  0  0  0
    5.9698    7.6329   24.6581 C   0  0  0  0  0  0  0  0  0  0  0  0
    4.5542    8.9057   21.7104 O   0  0  0  0  0  0  0  0  0  0  0  0
    6.9895    3.2085   23.0690 C   0  0  0  0  0  0  0  0  0  0  0  0
    7.8391    2.2253   22.7260 N   0  0  0  0  0  0  0  0  0  0  0  0
    8.6968    9.8373   23.6359 C   0  0  0  0  0  0  0  0  0  0  0  0
   12.5135    6.5957   21.8396 C   0  0  0  0  0  0  0  0  0  0  0  0
   10.9406    8.2330   21.1350 C   0  0  0  0  0  0  0  0  0  0  0  0
    9.6648    8.5956   21.7310 C   0  0  0  0  0  0  0  0  0  0  0  0
   10.8829    1.7153   20.9865 C   0  0  0  0  0  0  0  0  0  0  0  0
    5.7768    2.8533   23.7910 C   0  0  0  0  0  0  0  0  0  0  0  0
    9.7977    1.4791   21.6912 N   0  0  0  0  0  0  0  0  0  0  0  0
    6.5976    9.3401   22.6478 N   0  0  0  0  0  0  0  0  0  0  0  0
   11.2031    3.0042   20.6246 C   0  0  0  0  0  0  0  0  0  0  0  0
   12.8688    7.7370   22.7287 C   0  0  0  0  0  0  0  0  0  0  0  0
    7.4487    9.1361   23.6506 C   0  0  0  0  0  0  0  0  0  0  0  0
    8.9772    2.5025   22.0273 C   0  0  0  0  0  0  0  0  0  0  0  0
   10.4859    4.0901   20.9730 C   0  0  0  0  0  0  0  0  0  0  0  0
   11.0962    9.3293   23.5072 C   0  0  0  0  0  0  0  0  0  0  0  0
    5.1273    7.8529   23.6208 N   0  0  0  0  0  0  0  0  0  0  0  0
    9.7552    9.2338   23.0171 N   0  0  0  0  0  0  0  0  0  0  0  0
   11.1797    6.7591   21.3326 N   0  0  0  0  0  0  0  0  0  0  0  0
   11.7728    8.0337   23.7267 C   0  0  0  0  0  0  0  0  0  0  0  0
    7.1194    8.3344   24.6775 C   0  0  0  0  0  0  0  0  0  0  0  0
    8.4311    4.7963   22.0500 C   0  0  0  0  0  0  0  0  0  0  0  0
    8.7393   10.8706   24.1871 O   0  0  0  0  0  0  0  0  0  0  0  0
    9.3093    3.8166   21.6712 C   0  0  0  0  0  0  0  0  0  0  0  0
  1  5  1  0
  1 15  4  0
  1 22  4  0
  2 20  1  0
  2 24  1  0
  3  6  4  0
  3 27  4  0
  4 22  4  0
  4 26  4  0
  6  7  4  0
  6 13  1  0
  7 19  4  0
  8 18  1  0
  8 23  1  0
  8 28  2  0
  9 17  1  0
  9 24  1  0
 10 11  1  0
 10 24  1  0
 11 23  1  0
 12 14  4  0
 12 16  4  0
 14 19  4  0
 15 18  4  0
 16 20  4  0
 17 25  1  0
 18 26  4  0
 19 29  4  0
 20 29  4  0
 21 23  1  0
 21 25  1  0
 27 29  4  0
M  END
$$$$

 Created by Python create_sdf_string function

 29 32  0  0  0  0  0  0  0  0999 V2000
    5.4450    8.7154   22.6662 C   0  0  0  0  0  0  0  0  0  0  0  0
   10.9154    5.4574   20.5483 C   0  0  0  0  0  0  0  0  0  0  0  0
    7.2709    4.5089   22.7542 C   0  0  0  0  0  0  0  0  0  0  0  0
    5.9698    7.6329   24.6581 C   0  0  0  0  0  0  0  0  0  0  0  0
    4.5542    8.9057   21.7104 O   0  0  0  0  0  0  0  0  0  0  0  0
    6.9895    3.2085   23.0690 C   0  0  0  0  0  0  0  0  0  0  0  0
    7.8391    2.2253   22.7260 N   0  0  0  0  0  0  0  0  0  0  0  0
    8.6968    9.8373   23.6359 C   0  0  0  0  0  0  0  0  0  0  0  0
   12.5135    6.5957   21.8396 C   0  0  0  0  0  0  0  0  0  0  0  0
   10.9406    8.2330   21.1350 C   0  0  0  0  0  0  0  0  0  0  0  0
    9.6648    8.5956   21.7310 C   0  0  0  0  0  0  0  0  0  0  0  0
   10.8829    1.7153   20.9865 C   0  0  0  0  0  0  0  0  0  0  0  0
    5.7768    2.8533   23.7910 C   0  0  0  0  0  0  0  0  0  0  0  0
    9.7977    1.4791   21.6912 N   0  0  0  0  0  0  0  0  0  0  0  0
    6.5976    9.3401   22.6478 N   0  0  0  0  0  0  0  0  0  0  0  0
   11.2031    3.0042   20.6246 C   0  0  0  0  0  0  0  0  0  0  0  0
   12.8688    7.7370   22.7287 C   0  0  0  0  0  0  0  0  0  0  0  0
    7.4487    9.1361   23.6506 C   0  0  0  0  0  0  0  0  0  0  0  0
    8.9772    2.5025   22.0273 C   0  0  0  0  0  0  0  0  0  0  0  0
   10.4859    4.0901   20.9730 C   0  0  0  0  0  0  0  0  0  0  0  0
   11.0962    9.3293   23.5072 C   0  0  0  0  0  0  0  0  0  0  0  0
    5.1273    7.8529   23.6208 N   0  0  0  0  0  0  0  0  0  0  0  0
    9.7552    9.2338   23.0171 N   0  0  0  0  0  0  0  0  0  0  0  0
   11.1797    6.7591   21.3326 N   0  0  0  0  0  0  0  0  0  0  0  0
   11.7728    8.0337   23.7267 C   0  0  0  0  0  0  0  0  0  0  0  0
    7.1194    8.3344   24.6775 C   0  0  0  0  0  0  0  0  0  0  0  0
    8.4311    4.7963   22.0500 C   0  0  0  0  0  0  0  0  0  0  0  0
    8.7393   10.8706   24.1871 O   0  0  0  0  0  0  0  0  0  0  0  0
    9.3093    3.8166   21.6712 C   0  0  0  0  0  0  0  0  0  0  0  0
  1  5  1  0
  1 15  4  0
  1 22  4  0
  2 20  1  0
  2 24  1  0
  3  6  4  0
  3 27  4  0
  4 22  4  0
  4 26  4  0
  6  7  4  0
  6 13  1  0
  7 19  4  0
  8 18  1  0
  8 23  1  0
  8 28  2  0
  9 17  1  0
  9 24  1  0
 10 11  1  0
 10 24  1  0
 11 23  1  0
 12 14  4  0
 12 16  4  0
 14 19  4  0
 15 18  4  0
 16 20  4  0
 17 25  1  0
 18 26  4  0
 19 29  4  0
 20 29  4  0
 21 23  1  0
 21 25  1  0
 27 29  4  0
M  END
$$$$

 Created by Python create_sdf_string function

 29 32  0  0  0  0  0  0  0  0999 V2000
    5.4450    8.7154   22.6662 C   0  0  0  0  0  0  0  0  0  0  0  0
   10.9154    5.4574   20.5483 C   0  0  0  0  0  0  0  0  0  0  0  0
    7.2709    4.5089   22.7542 C   0  0  0  0  0  0  0  0  0  0  0  0
    5.9698    7.6329   24.6581 C   0  0  0  0  0  0  0  0  0  0  0  0
    4.5542    8.9057   21.7104 O   0  0  0  0  0  0  0  0  0  0  0  0
    6.9895    3.2085   23.0690 C   0  0  0  0  0  0  0  0  0  0  0  0
    7.8391    2.2253   22.7260 N   0  0  0  0  0  0  0  0  0  0  0  0
    8.6968    9.8373   23.6359 C   0  0  0  0  0  0  0  0  0  0  0  0
   12.5135    6.5957   21.8396 C   0  0  0  0  0  0  0  0  0  0  0  0
   10.9406    8.2330   21.1350 C   0  0  0  0  0  0  0  0  0  0  0  0
    9.6648    8.5956   21.7310 C   0  0  0  0  0  0  0  0  0  0  0  0
   10.8829    1.7153   20.9865 C   0  0  0  0  0  0  0  0  0  0  0  0
    5.7768    2.8533   23.7910 C   0  0  0  0  0  0  0  0  0  0  0  0
    9.7977    1.4791   21.6912 N   0  0  0  0  0  0  0  0  0  0  0  0
    6.5976    9.3401   22.6478 N   0  0  0  0  0  0  0  0  0  0  0  0
   11.2031    3.0042   20.6246 C   0  0  0  0  0  0  0  0  0  0  0  0
   12.8688    7.7370   22.7287 C   0  0  0  0  0  0  0  0  0  0  0  0
    7.4487    9.1361   23.6506 C   0  0  0  0  0  0  0  0  0  0  0  0
    8.9772    2.5025   22.0273 C   0  0  0  0  0  0  0  0  0  0  0  0
   10.4859    4.0901   20.9730 C   0  0  0  0  0  0  0  0  0  0  0  0
   11.0962    9.3293   23.5072 C   0  0  0  0  0  0  0  0  0  0  0  0
    5.1273    7.8529   23.6208 N   0  0  0  0  0  0  0  0  0  0  0  0
    9.7552    9.2338   23.0171 N   0  0  0  0  0  0  0  0  0  0  0  0
   11.1797    6.7591   21.3326 N   0  0  0  0  0  0  0  0  0  0  0  0
   11.7728    8.0337   23.7267 C   0  0  0  0  0  0  0  0  0  0  0  0
    7.1194    8.3344   24.6775 C   0  0  0  0  0  0  0  0  0  0  0  0
    8.4311    4.7963   22.0500 C   0  0  0  0  0  0  0  0  0  0  0  0
    8.7393   10.8706   24.1871 O   0  0  0  0  0  0  0  0  0  0  0  0
    9.3093    3.8166   21.6712 C   0  0  0  0  0  0  0  0  0  0  0  0
  1  5  1  0
  1 15  4  0
  1 22  4  0
  2 20  1  0
  2 24  1  0
  3  6  4  0
  3 27  4  0
  4 22  4  0
  4 26  4  0
  6  7  4  0
  6 13  1  0
  7 19  4  0
  8 18  1  0
  8 23  1  0
  8 28  2  0
  9 17  1  0
  9 24  1  0
 10 11  1  0
 10 24  1  0
 11 23  1  0
 12 14  4  0
 12 16  4  0
 14 19  4  0
 15 18  4  0
 16 20  4  0
 17 25  1  0
 18 26  4  0
 19 29  4  0
 20 29  4  0
 21 23  1  0
 21 25  1  0
 27 29  4  0
M  END
$$$$

 Created by Python create_sdf_string function

 29 32  0  0  0  0  0  0  0  0999 V2000
    5.4450    8.7154   22.6662 C   0  0  0  0  0  0  0  0  0  0  0  0
   10.9154    5.4574   20.5483 C   0  0  0  0  0  0  0  0  0  0  0  0
    7.2709    4.5089   22.7542 C   0  0  0  0  0  0  0  0  0  0  0  0
    5.9698    7.6329   24.6581 C   0  0  0  0  0  0  0  0  0  0  0  0
    4.5542    8.9057   21.7104 O   0  0  0  0  0  0  0  0  0  0  0  0
    6.9895    3.2085   23.0690 C   0  0  0  0  0  0  0  0  0  0  0  0
    7.8391    2.2253   22.7260 N   0  0  0  0  0  0  0  0  0  0  0  0
    8.6968    9.8373   23.6359 C   0  0  0  0  0  0  0  0  0  0  0  0
   12.5135    6.5957   21.8396 C   0  0  0  0  0  0  0  0  0  0  0  0
   10.9406    8.2330   21.1350 C   0  0  0  0  0  0  0  0  0  0  0  0
    9.6648    8.5956   21.7310 C   0  0  0  0  0  0  0  0  0  0  0  0
   10.8829    1.7153   20.9865 C   0  0  0  0  0  0  0  0  0  0  0  0
    5.7768    2.8533   23.7910 C   0  0  0  0  0  0  0  0  0  0  0  0
    9.7977    1.4791   21.6912 N   0  0  0  0  0  0  0  0  0  0  0  0
    6.5976    9.3401   22.6478 N   0  0  0  0  0  0  0  0  0  0  0  0
   11.2031    3.0042   20.6246 C   0  0  0  0  0  0  0  0  0  0  0  0
   12.8688    7.7370   22.7287 C   0  0  0  0  0  0  0  0  0  0  0  0
    7.4487    9.1361   23.6506 C   0  0  0  0  0  0  0  0  0  0  0  0
    8.9772    2.5025   22.0273 C   0  0  0  0  0  0  0  0  0  0  0  0
   10.4859    4.0901   20.9730 C   0  0  0  0  0  0  0  0  0  0  0  0
   11.0962    9.3293   23.5072 C   0  0  0  0  0  0  0  0  0  0  0  0
    5.1273    7.8529   23.6208 N   0  0  0  0  0  0  0  0  0  0  0  0
    9.7552    9.2338   23.0171 N   0  0  0  0  0  0  0  0  0  0  0  0
   11.1797    6.7591   21.3326 N   0  0  0  0  0  0  0  0  0  0  0  0
   11.7728    8.0337   23.7267 C   0  0  0  0  0  0  0  0  0  0  0  0
    7.1194    8.3344   24.6775 C   0  0  0  0  0  0  0  0  0  0  0  0
    8.4311    4.7963   22.0500 C   0  0  0  0  0  0  0  0  0  0  0  0
    8.7393   10.8706   24.1871 O   0  0  0  0  0  0  0  0  0  0  0  0
    9.3093    3.8166   21.6712 C   0  0  0  0  0  0  0  0  0  0  0  0
  1  5  1  0
  1 15  4  0
  1 22  4  0
  2 20  1  0
  2 24  1  0
  3  6  4  0
  3 27  4  0
  4 22  4  0
  4 26  4  0
  6  7  4  0
  6 13  1  0
  7 19  4  0
  8 18  1  0
  8 23  1  0
  8 28  2  0
  9 17  1  0
  9 24  1  0
 10 11  1  0
 10 24  1  0
 11 23  1  0
 12 14  4  0
 12 16  4  0
 14 19  4  0
 15 18  4  0
 16 20  4  0
 17 25  1  0
 18 26  4  0
 19 29  4  0
 20 29  4  0
 21 23  1  0
 21 25  1  0
 27 29  4  0
M  END
$$$$

 Created by Python create_sdf_string function

 29 32  0  0  0  0  0  0  0  0999 V2000
    5.4450    8.7154   22.6662 C   0  0  0  0  0  0  0  0  0  0  0  0
   10.9154    5.4574   20.5483 C   0  0  0  0  0  0  0  0  0  0  0  0
    7.2709    4.5089   22.7542 C   0  0  0  0  0  0  0  0  0  0  0  0
    5.9698    7.6329   24.6581 C   0  0  0  0  0  0  0  0  0  0  0  0
    4.5542    8.9057   21.7104 O   0  0  0  0  0  0  0  0  0  0  0  0
    6.9895    3.2085   23.0690 C   0  0  0  0  0  0  0  0  0  0  0  0
    7.8391    2.2253   22.7260 N   0  0  0  0  0  0  0  0  0  0  0  0
    8.6968    9.8373   23.6359 C   0  0  0  0  0  0  0  0  0  0  0  0
   12.5135    6.5957   21.8396 C   0  0  0  0  0  0  0  0  0  0  0  0
   10.9406    8.2330   21.1350 C   0  0  0  0  0  0  0  0  0  0  0  0
    9.6648    8.5956   21.7310 C   0  0  0  0  0  0  0  0  0  0  0  0
   10.8829    1.7153   20.9865 C   0  0  0  0  0  0  0  0  0  0  0  0
    5.7768    2.8533   23.7910 C   0  0  0  0  0  0  0  0  0  0  0  0
    9.7977    1.4791   21.6912 N   0  0  0  0  0  0  0  0  0  0  0  0
    6.5976    9.3401   22.6478 N   0  0  0  0  0  0  0  0  0  0  0  0
   11.2031    3.0042   20.6246 C   0  0  0  0  0  0  0  0  0  0  0  0
   12.8688    7.7370   22.7287 C   0  0  0  0  0  0  0  0  0  0  0  0
    7.4487    9.1361   23.6506 C   0  0  0  0  0  0  0  0  0  0  0  0
    8.9772    2.5025   22.0273 C   0  0  0  0  0  0  0  0  0  0  0  0
   10.4859    4.0901   20.9730 C   0  0  0  0  0  0  0  0  0  0  0  0
   11.0962    9.3293   23.5072 C   0  0  0  0  0  0  0  0  0  0  0  0
    5.1273    7.8529   23.6208 N   0  0  0  0  0  0  0  0  0  0  0  0
    9.7552    9.2338   23.0171 N   0  0  0  0  0  0  0  0  0  0  0  0
   11.1797    6.7591   21.3326 N   0  0  0  0  0  0  0  0  0  0  0  0
   11.7728    8.0337   23.7267 C   0  0  0  0  0  0  0  0  0  0  0  0
    7.1194    8.3344   24.6775 C   0  0  0  0  0  0  0  0  0  0  0  0
    8.4311    4.7963   22.0500 C   0  0  0  0  0  0  0  0  0  0  0  0
    8.7393   10.8706   24.1871 O   0  0  0  0  0  0  0  0  0  0  0  0
    9.3093    3.8166   21.6712 C   0  0  0  0  0  0  0  0  0  0  0  0
  1  5  1  0
  1 15  4  0
  1 22  4  0
  2 20  1  0
  2 24  1  0
  3  6  4  0
  3 27  4  0
  4 22  4  0
  4 26  4  0
  6  7  4  0
  6 13  1  0
  7 19  4  0
  8 18  1  0
  8 23  1  0
  8 28  2  0
  9 17  1  0
  9 24  1  0
 10 11  1  0
 10 24  1  0
 11 23  1  0
 12 14  4  0
 12 16  4  0
 14 19  4  0
 15 18  4  0
 16 20  4  0
 17 25  1  0
 18 26  4  0
 19 29  4  0
 20 29  4  0
 21 23  1  0
 21 25  1  0
 27 29  4  0
M  END
$$$$

 Created by Python create_sdf_string function

 29 32  0  0  0  0  0  0  0  0999 V2000
    5.4450    8.7154   22.6662 C   0  0  0  0  0  0  0  0  0  0  0  0
   10.9154    5.4574   20.5483 C   0  0  0  0  0  0  0  0  0  0  0  0
    7.2709    4.5089   22.7542 C   0  0  0  0  0  0  0  0  0  0  0  0
    5.9698    7.6329   24.6581 C   0  0  0  0  0  0  0  0  0  0  0  0
    4.5542    8.9057   21.7104 O   0  0  0  0  0  0  0  0  0  0  0  0
    6.9895    3.2085   23.0690 C   0  0  0  0  0  0  0  0  0  0  0  0
    7.8391    2.2253   22.7260 N   0  0  0  0  0  0  0  0  0  0  0  0
    8.6968    9.8373   23.6359 C   0  0  0  0  0  0  0  0  0  0  0  0
   12.5135    6.5957   21.8396 C   0  0  0  0  0  0  0  0  0  0  0  0
   10.9406    8.2330   21.1350 C   0  0  0  0  0  0  0  0  0  0  0  0
    9.6648    8.5956   21.7310 C   0  0  0  0  0  0  0  0  0  0  0  0
   10.8829    1.7153   20.9865 C   0  0  0  0  0  0  0  0  0  0  0  0
    5.7768    2.8533   23.7910 C   0  0  0  0  0  0  0  0  0  0  0  0
    9.7977    1.4791   21.6912 N   0  0  0  0  0  0  0  0  0  0  0  0
    6.5976    9.3401   22.6478 N   0  0  0  0  0  0  0  0  0  0  0  0
   11.2031    3.0042   20.6246 C   0  0  0  0  0  0  0  0  0  0  0  0
   12.8688    7.7370   22.7287 C   0  0  0  0  0  0  0  0  0  0  0  0
    7.4487    9.1361   23.6506 C   0  0  0  0  0  0  0  0  0  0  0  0
    8.9772    2.5025   22.0273 C   0  0  0  0  0  0  0  0  0  0  0  0
   10.4859    4.0901   20.9730 C   0  0  0  0  0  0  0  0  0  0  0  0
   11.0962    9.3293   23.5072 C   0  0  0  0  0  0  0  0  0  0  0  0
    5.1273    7.8529   23.6208 N   0  0  0  0  0  0  0  0  0  0  0  0
    9.7552    9.2338   23.0171 N   0  0  0  0  0  0  0  0  0  0  0  0
   11.1797    6.7591   21.3326 N   0  0  0  0  0  0  0  0  0  0  0  0
   11.7728    8.0337   23.7267 C   0  0  0  0  0  0  0  0  0  0  0  0
    7.1194    8.3344   24.6775 C   0  0  0  0  0  0  0  0  0  0  0  0
    8.4311    4.7963   22.0500 C   0  0  0  0  0  0  0  0  0  0  0  0
    8.7393   10.8706   24.1871 O   0  0  0  0  0  0  0  0  0  0  0  0
    9.3093    3.8166   21.6712 C   0  0  0  0  0  0  0  0  0  0  0  0
  1  5  1  0
  1 15  4  0
  1 22  4  0
  2 20  1  0
  2 24  1  0
  3  6  4  0
  3 27  4  0
  4 22  4  0
  4 26  4  0
  6  7  4  0
  6 13  1  0
  7 19  4  0
  8 18  1  0
  8 23  1  0
  8 28  2  0
  9 17  1  0
  9 24  1  0
 10 11  1  0
 10 24  1  0
 11 23  1  0
 12 14  4  0
 12 16  4  0
 14 19  4  0
 15 18  4  0
 16 20  4  0
 17 25  1  0
 18 26  4  0
 19 29  4  0
 20 29  4  0
 21 23  1  0
 21 25  1  0
 27 29  4  0
M  END
$$$$

 Created by Python create_sdf_string function

 29 32  0  0  0  0  0  0  0  0999 V2000
    5.4450    8.7154   22.6662 C   0  0  0  0  0  0  0  0  0  0  0  0
   10.9154    5.4574   20.5483 C   0  0  0  0  0  0  0  0  0  0  0  0
    7.2709    4.5089   22.7542 C   0  0  0  0  0  0  0  0  0  0  0  0
    5.9698    7.6329   24.6581 C   0  0  0  0  0  0  0  0  0  0  0  0
    4.5542    8.9057   21.7104 O   0  0  0  0  0  0  0  0  0  0  0  0
    6.9895    3.2085   23.0690 C   0  0  0  0  0  0  0  0  0  0  0  0
    7.8391    2.2253   22.7260 N   0  0  0  0  0  0  0  0  0  0  0  0
    8.6968    9.8373   23.6359 C   0  0  0  0  0  0  0  0  0  0  0  0
   12.5135    6.5957   21.8396 C   0  0  0  0  0  0  0  0  0  0  0  0
   10.9406    8.2330   21.1350 C   0  0  0  0  0  0  0  0  0  0  0  0
    9.6648    8.5956   21.7310 C   0  0  0  0  0  0  0  0  0  0  0  0
   10.8829    1.7153   20.9865 C   0  0  0  0  0  0  0  0  0  0  0  0
    5.7768    2.8533   23.7910 C   0  0  0  0  0  0  0  0  0  0  0  0
    9.7977    1.4791   21.6912 N   0  0  0  0  0  0  0  0  0  0  0  0
    6.5976    9.3401   22.6478 N   0  0  0  0  0  0  0  0  0  0  0  0
   11.2031    3.0042   20.6246 C   0  0  0  0  0  0  0  0  0  0  0  0
   12.8688    7.7370   22.7287 C   0  0  0  0  0  0  0  0  0  0  0  0
    7.4487    9.1361   23.6506 C   0  0  0  0  0  0  0  0  0  0  0  0
    8.9772    2.5025   22.0273 C   0  0  0  0  0  0  0  0  0  0  0  0
   10.4859    4.0901   20.9730 C   0  0  0  0  0  0  0  0  0  0  0  0
   11.0962    9.3293   23.5072 C   0  0  0  0  0  0  0  0  0  0  0  0
    5.1273    7.8529   23.6208 N   0  0  0  0  0  0  0  0  0  0  0  0
    9.7552    9.2338   23.0171 N   0  0  0  0  0  0  0  0  0  0  0  0
   11.1797    6.7591   21.3326 N   0  0  0  0  0  0  0  0  0  0  0  0
   11.7728    8.0337   23.7267 C   0  0  0  0  0  0  0  0  0  0  0  0
    7.1194    8.3344   24.6775 C   0  0  0  0  0  0  0  0  0  0  0  0
    8.4311    4.7963   22.0500 C   0  0  0  0  0  0  0  0  0  0  0  0
    8.7393   10.8706   24.1871 O   0  0  0  0  0  0  0  0  0  0  0  0
    9.3093    3.8166   21.6712 C   0  0  0  0  0  0  0  0  0  0  0  0
  1  5  1  0
  1 15  4  0
  1 22  4  0
  2 20  1  0
  2 24  1  0
  3  6  4  0
  3 27  4  0
  4 22  4  0
  4 26  4  0
  6  7  4  0
  6 13  1  0
  7 19  4  0
  8 18  1  0
  8 23  1  0
  8 28  2  0
  9 17  1  0
  9 24  1  0
 10 11  1  0
 10 24  1  0
 11 23  1  0
 12 14  4  0
 12 16  4  0
 14 19  4  0
 15 18  4  0
 16 20  4  0
 17 25  1  0
 18 26  4  0
 19 29  4  0
 20 29  4  0
 21 23  1  0
 21 25  1  0
 27 29  4  0
M  END
$$$$

 Created by Python create_sdf_string function

 29 32  0  0  0  0  0  0  0  0999 V2000
    5.4450    8.7154   22.6662 C   0  0  0  0  0  0  0  0  0  0  0  0
   10.9154    5.4574   20.5483 C   0  0  0  0  0  0  0  0  0  0  0  0
    7.2709    4.5089   22.7542 C   0  0  0  0  0  0  0  0  0  0  0  0
    5.9698    7.6329   24.6581 C   0  0  0  0  0  0  0  0  0  0  0  0
    4.5542    8.9057   21.7104 O   0  0  0  0  0  0  0  0  0  0  0  0
    6.9895    3.2085   23.0690 C   0  0  0  0  0  0  0  0  0  0  0  0
    7.8391    2.2253   22.7260 N   0  0  0  0  0  0  0  0  0  0  0  0
    8.6968    9.8373   23.6359 C   0  0  0  0  0  0  0  0  0  0  0  0
   12.5135    6.5957   21.8396 C   0  0  0  0  0  0  0  0  0  0  0  0
   10.9406    8.2330   21.1350 C   0  0  0  0  0  0  0  0  0  0  0  0
    9.6648    8.5956   21.7310 C   0  0  0  0  0  0  0  0  0  0  0  0
   10.8829    1.7153   20.9865 C   0  0  0  0  0  0  0  0  0  0  0  0
    5.7768    2.8533   23.7910 C   0  0  0  0  0  0  0  0  0  0  0  0
    9.7977    1.4791   21.6912 N   0  0  0  0  0  0  0  0  0  0  0  0
    6.5976    9.3401   22.6478 N   0  0  0  0  0  0  0  0  0  0  0  0
   11.2031    3.0042   20.6246 C   0  0  0  0  0  0  0  0  0  0  0  0
   12.8688    7.7370   22.7287 C   0  0  0  0  0  0  0  0  0  0  0  0
    7.4487    9.1361   23.6506 C   0  0  0  0  0  0  0  0  0  0  0  0
    8.9772    2.5025   22.0273 C   0  0  0  0  0  0  0  0  0  0  0  0
   10.4859    4.0901   20.9730 C   0  0  0  0  0  0  0  0  0  0  0  0
   11.0962    9.3293   23.5072 C   0  0  0  0  0  0  0  0  0  0  0  0
    5.1273    7.8529   23.6208 N   0  0  0  0  0  0  0  0  0  0  0  0
    9.7552    9.2338   23.0171 N   0  0  0  0  0  0  0  0  0  0  0  0
   11.1797    6.7591   21.3326 N   0  0  0  0  0  0  0  0  0  0  0  0
   11.7728    8.0337   23.7267 C   0  0  0  0  0  0  0  0  0  0  0  0
    7.1194    8.3344   24.6775 C   0  0  0  0  0  0  0  0  0  0  0  0
    8.4311    4.7963   22.0500 C   0  0  0  0  0  0  0  0  0  0  0  0
    8.7393   10.8706   24.1871 O   0  0  0  0  0  0  0  0  0  0  0  0
    9.3093    3.8166   21.6712 C   0  0  0  0  0  0  0  0  0  0  0  0
  1  5  1  0
  1 15  4  0
  1 22  4  0
  2 20  1  0
  2 24  1  0
  3  6  4  0
  3 27  4  0
  4 22  4  0
  4 26  4  0
  6  7  4  0
  6 13  1  0
  7 19  4  0
  8 18  1  0
  8 23  1  0
  8 28  2  0
  9 17  1  0
  9 24  1  0
 10 11  1  0
 10 24  1  0
 11 23  1  0
 12 14  4  0
 12 16  4  0
 14 19  4  0
 15 18  4  0
 16 20  4  0
 17 25  1  0
 18 26  4  0
 19 29  4  0
 20 29  4  0
 21 23  1  0
 21 25  1  0
 27 29  4  0
M  END
$$$$

 Created by Python create_sdf_string function

 29 32  0  0  0  0  0  0  0  0999 V2000
    5.4450    8.7154   22.6662 C   0  0  0  0  0  0  0  0  0  0  0  0
   10.9154    5.4574   20.5483 C   0  0  0  0  0  0  0  0  0  0  0  0
    7.2709    4.5089   22.7542 C   0  0  0  0  0  0  0  0  0  0  0  0
    5.9698    7.6329   24.6581 C   0  0  0  0  0  0  0  0  0  0  0  0
    4.5542    8.9057   21.7104 O   0  0  0  0  0  0  0  0  0  0  0  0
    6.9895    3.2085   23.0690 C   0  0  0  0  0  0  0  0  0  0  0  0
    7.8391    2.2253   22.7260 N   0  0  0  0  0  0  0  0  0  0  0  0
    8.6968    9.8373   23.6359 C   0  0  0  0  0  0  0  0  0  0  0  0
   12.5135    6.5957   21.8396 C   0  0  0  0  0  0  0  0  0  0  0  0
   10.9406    8.2330   21.1350 C   0  0  0  0  0  0  0  0  0  0  0  0
    9.6648    8.5956   21.7310 C   0  0  0  0  0  0  0  0  0  0  0  0
   10.8829    1.7153   20.9865 C   0  0  0  0  0  0  0  0  0  0  0  0
    5.7768    2.8533   23.7910 C   0  0  0  0  0  0  0  0  0  0  0  0
    9.7977    1.4791   21.6912 N   0  0  0  0  0  0  0  0  0  0  0  0
    6.5976    9.3401   22.6478 N   0  0  0  0  0  0  0  0  0  0  0  0
   11.2031    3.0042   20.6246 C   0  0  0  0  0  0  0  0  0  0  0  0
   12.8688    7.7370   22.7287 C   0  0  0  0  0  0  0  0  0  0  0  0
    7.4487    9.1361   23.6506 C   0  0  0  0  0  0  0  0  0  0  0  0
    8.9772    2.5025   22.0273 C   0  0  0  0  0  0  0  0  0  0  0  0
   10.4859    4.0901   20.9730 C   0  0  0  0  0  0  0  0  0  0  0  0
   11.0962    9.3293   23.5072 C   0  0  0  0  0  0  0  0  0  0  0  0
    5.1273    7.8529   23.6208 N   0  0  0  0  0  0  0  0  0  0  0  0
    9.7552    9.2338   23.0171 N   0  0  0  0  0  0  0  0  0  0  0  0
   11.1797    6.7591   21.3326 N   0  0  0  0  0  0  0  0  0  0  0  0
   11.7728    8.0337   23.7267 C   0  0  0  0  0  0  0  0  0  0  0  0
    7.1194    8.3344   24.6775 C   0  0  0  0  0  0  0  0  0  0  0  0
    8.4311    4.7963   22.0500 C   0  0  0  0  0  0  0  0  0  0  0  0
    8.7393   10.8706   24.1871 O   0  0  0  0  0  0  0  0  0  0  0  0
    9.3093    3.8166   21.6712 C   0  0  0  0  0  0  0  0  0  0  0  0
  1  5  1  0
  1 15  4  0
  1 22  4  0
  2 20  1  0
  2 24  1  0
  3  6  4  0
  3 27  4  0
  4 22  4  0
  4 26  4  0
  6  7  4  0
  6 13  1  0
  7 19  4  0
  8 18  1  0
  8 23  1  0
  8 28  2  0
  9 17  1  0
  9 24  1  0
 10 11  1  0
 10 24  1  0
 11 23  1  0
 12 14  4  0
 12 16  4  0
 14 19  4  0
 15 18  4  0
 16 20  4  0
 17 25  1  0
 18 26  4  0
 19 29  4  0
 20 29  4  0
 21 23  1  0
 21 25  1  0
 27 29  4  0
M  END
$$$$

 Created by Python create_sdf_string function

 29 32  0  0  0  0  0  0  0  0999 V2000
    5.4450    8.7154   22.6662 C   0  0  0  0  0  0  0  0  0  0  0  0
   10.9154    5.4574   20.5483 C   0  0  0  0  0  0  0  0  0  0  0  0
    7.2709    4.5089   22.7542 C   0  0  0  0  0  0  0  0  0  0  0  0
    5.9698    7.6329   24.6581 C   0  0  0  0  0  0  0  0  0  0  0  0
    4.5542    8.9057   21.7104 O   0  0  0  0  0  0  0  0  0  0  0  0
    6.9895    3.2085   23.0690 C   0  0  0  0  0  0  0  0  0  0  0  0
    7.8391    2.2253   22.7260 N   0  0  0  0  0  0  0  0  0  0  0  0
    8.6968    9.8373   23.6359 C   0  0  0  0  0  0  0  0  0  0  0  0
   12.5135    6.5957   21.8396 C   0  0  0  0  0  0  0  0  0  0  0  0
   10.9406    8.2330   21.1350 C   0  0  0  0  0  0  0  0  0  0  0  0
    9.6648    8.5956   21.7310 C   0  0  0  0  0  0  0  0  0  0  0  0
   10.8829    1.7153   20.9865 C   0  0  0  0  0  0  0  0  0  0  0  0
    5.7768    2.8533   23.7910 C   0  0  0  0  0  0  0  0  0  0  0  0
    9.7977    1.4791   21.6912 N   0  0  0  0  0  0  0  0  0  0  0  0
    6.5976    9.3401   22.6478 N   0  0  0  0  0  0  0  0  0  0  0  0
   11.2031    3.0042   20.6246 C   0  0  0  0  0  0  0  0  0  0  0  0
   12.8688    7.7370   22.7287 C   0  0  0  0  0  0  0  0  0  0  0  0
    7.4487    9.1361   23.6506 C   0  0  0  0  0  0  0  0  0  0  0  0
    8.9772    2.5025   22.0273 C   0  0  0  0  0  0  0  0  0  0  0  0
   10.4859    4.0901   20.9730 C   0  0  0  0  0  0  0  0  0  0  0  0
   11.0962    9.3293   23.5072 C   0  0  0  0  0  0  0  0  0  0  0  0
    5.1273    7.8529   23.6208 N   0  0  0  0  0  0  0  0  0  0  0  0
    9.7552    9.2338   23.0171 N   0  0  0  0  0  0  0  0  0  0  0  0
   11.1797    6.7591   21.3326 N   0  0  0  0  0  0  0  0  0  0  0  0
   11.7728    8.0337   23.7267 C   0  0  0  0  0  0  0  0  0  0  0  0
    7.1194    8.3344   24.6775 C   0  0  0  0  0  0  0  0  0  0  0  0
    8.4311    4.7963   22.0500 C   0  0  0  0  0  0  0  0  0  0  0  0
    8.7393   10.8706   24.1871 O   0  0  0  0  0  0  0  0  0  0  0  0
    9.3093    3.8166   21.6712 C   0  0  0  0  0  0  0  0  0  0  0  0
  1  5  1  0
  1 15  4  0
  1 22  4  0
  2 20  1  0
  2 24  1  0
  3  6  4  0
  3 27  4  0
  4 22  4  0
  4 26  4  0
  6  7  4  0
  6 13  1  0
  7 19  4  0
  8 18  1  0
  8 23  1  0
  8 28  2  0
  9 17  1  0
  9 24  1  0
 10 11  1  0
 10 24  1  0
 11 23  1  0
 12 14  4  0
 12 16  4  0
 14 19  4  0
 15 18  4  0
 16 20  4  0
 17 25  1  0
 18 26  4  0
 19 29  4  0
 20 29  4  0
 21 23  1  0
 21 25  1  0
 27 29  4  0
M  END
$$$$

 Created by Python create_sdf_string function

 29 32  0  0  0  0  0  0  0  0999 V2000
    5.4450    8.7154   22.6662 C   0  0  0  0  0  0  0  0  0  0  0  0
   10.9154    5.4574   20.5483 C   0  0  0  0  0  0  0  0  0  0  0  0
    7.2709    4.5089   22.7542 C   0  0  0  0  0  0  0  0  0  0  0  0
    5.9698    7.6329   24.6581 C   0  0  0  0  0  0  0  0  0  0  0  0
    4.5542    8.9057   21.7104 O   0  0  0  0  0  0  0  0  0  0  0  0
    6.9895    3.2085   23.0690 C   0  0  0  0  0  0  0  0  0  0  0  0
    7.8391    2.2253   22.7260 N   0  0  0  0  0  0  0  0  0  0  0  0
    8.6968    9.8373   23.6359 C   0  0  0  0  0  0  0  0  0  0  0  0
   12.5135    6.5957   21.8396 C   0  0  0  0  0  0  0  0  0  0  0  0
   10.9406    8.2330   21.1350 C   0  0  0  0  0  0  0  0  0  0  0  0
    9.6648    8.5956   21.7310 C   0  0  0  0  0  0  0  0  0  0  0  0
   10.8829    1.7153   20.9865 C   0  0  0  0  0  0  0  0  0  0  0  0
    5.7768    2.8533   23.7910 C   0  0  0  0  0  0  0  0  0  0  0  0
    9.7977    1.4791   21.6912 N   0  0  0  0  0  0  0  0  0  0  0  0
    6.5976    9.3401   22.6478 N   0  0  0  0  0  0  0  0  0  0  0  0
   11.2031    3.0042   20.6246 C   0  0  0  0  0  0  0  0  0  0  0  0
   12.8688    7.7370   22.7287 C   0  0  0  0  0  0  0  0  0  0  0  0
    7.4487    9.1361   23.6506 C   0  0  0  0  0  0  0  0  0  0  0  0
    8.9772    2.5025   22.0273 C   0  0  0  0  0  0  0  0  0  0  0  0
   10.4859    4.0901   20.9730 C   0  0  0  0  0  0  0  0  0  0  0  0
   11.0962    9.3293   23.5072 C   0  0  0  0  0  0  0  0  0  0  0  0
    5.1273    7.8529   23.6208 N   0  0  0  0  0  0  0  0  0  0  0  0
    9.7552    9.2338   23.0171 N   0  0  0  0  0  0  0  0  0  0  0  0
   11.1797    6.7591   21.3326 N   0  0  0  0  0  0  0  0  0  0  0  0
   11.7728    8.0337   23.7267 C   0  0  0  0  0  0  0  0  0  0  0  0
    7.1194    8.3344   24.6775 C   0  0  0  0  0  0  0  0  0  0  0  0
    8.4311    4.7963   22.0500 C   0  0  0  0  0  0  0  0  0  0  0  0
    8.7393   10.8706   24.1871 O   0  0  0  0  0  0  0  0  0  0  0  0
    9.3093    3.8166   21.6712 C   0  0  0  0  0  0  0  0  0  0  0  0
  1  5  1  0
  1 15  4  0
  1 22  4  0
  2 20  1  0
  2 24  1  0
  3  6  4  0
  3 27  4  0
  4 22  4  0
  4 26  4  0
  6  7  4  0
  6 13  1  0
  7 19  4  0
  8 18  1  0
  8 23  1  0
  8 28  2  0
  9 17  1  0
  9 24  1  0
 10 11  1  0
 10 24  1  0
 11 23  1  0
 12 14  4  0
 12 16  4  0
 14 19  4  0
 15 18  4  0
 16 20  4  0
 17 25  1  0
 18 26  4  0
 19 29  4  0
 20 29  4  0
 21 23  1  0
 21 25  1  0
 27 29  4  0
M  END
$$$$

 Created by Python create_sdf_string function

 29 32  0  0  0  0  0  0  0  0999 V2000
    5.4450    8.7154   22.6662 C   0  0  0  0  0  0  0  0  0  0  0  0
   10.9154    5.4574   20.5483 C   0  0  0  0  0  0  0  0  0  0  0  0
    7.2709    4.5089   22.7542 C   0  0  0  0  0  0  0  0  0  0  0  0
    5.9698    7.6329   24.6581 C   0  0  0  0  0  0  0  0  0  0  0  0
    4.5542    8.9057   21.7104 O   0  0  0  0  0  0  0  0  0  0  0  0
    6.9895    3.2085   23.0690 C   0  0  0  0  0  0  0  0  0  0  0  0
    7.8391    2.2253   22.7260 N   0  0  0  0  0  0  0  0  0  0  0  0
    8.6968    9.8373   23.6359 C   0  0  0  0  0  0  0  0  0  0  0  0
   12.5135    6.5957   21.8396 C   0  0  0  0  0  0  0  0  0  0  0  0
   10.9406    8.2330   21.1350 C   0  0  0  0  0  0  0  0  0  0  0  0
    9.6648    8.5956   21.7310 C   0  0  0  0  0  0  0  0  0  0  0  0
   10.8829    1.7153   20.9865 C   0  0  0  0  0  0  0  0  0  0  0  0
    5.7768    2.8533   23.7910 C   0  0  0  0  0  0  0  0  0  0  0  0
    9.7977    1.4791   21.6912 N   0  0  0  0  0  0  0  0  0  0  0  0
    6.5976    9.3401   22.6478 N   0  0  0  0  0  0  0  0  0  0  0  0
   11.2031    3.0042   20.6246 C   0  0  0  0  0  0  0  0  0  0  0  0
   12.8688    7.7370   22.7287 C   0  0  0  0  0  0  0  0  0  0  0  0
    7.4487    9.1361   23.6506 C   0  0  0  0  0  0  0  0  0  0  0  0
    8.9772    2.5025   22.0273 C   0  0  0  0  0  0  0  0  0  0  0  0
   10.4859    4.0901   20.9730 C   0  0  0  0  0  0  0  0  0  0  0  0
   11.0962    9.3293   23.5072 C   0  0  0  0  0  0  0  0  0  0  0  0
    5.1273    7.8529   23.6208 N   0  0  0  0  0  0  0  0  0  0  0  0
    9.7552    9.2338   23.0171 N   0  0  0  0  0  0  0  0  0  0  0  0
   11.1797    6.7591   21.3326 N   0  0  0  0  0  0  0  0  0  0  0  0
   11.7728    8.0337   23.7267 C   0  0  0  0  0  0  0  0  0  0  0  0
    7.1194    8.3344   24.6775 C   0  0  0  0  0  0  0  0  0  0  0  0
    8.4311    4.7963   22.0500 C   0  0  0  0  0  0  0  0  0  0  0  0
    8.7393   10.8706   24.1871 O   0  0  0  0  0  0  0  0  0  0  0  0
    9.3093    3.8166   21.6712 C   0  0  0  0  0  0  0  0  0  0  0  0
  1  5  1  0
  1 15  4  0
  1 22  4  0
  2 20  1  0
  2 24  1  0
  3  6  4  0
  3 27  4  0
  4 22  4  0
  4 26  4  0
  6  7  4  0
  6 13  1  0
  7 19  4  0
  8 18  1  0
  8 23  1  0
  8 28  2  0
  9 17  1  0
  9 24  1  0
 10 11  1  0
 10 24  1  0
 11 23  1  0
 12 14  4  0
 12 16  4  0
 14 19  4  0
 15 18  4  0
 16 20  4  0
 17 25  1  0
 18 26  4  0
 19 29  4  0
 20 29  4  0
 21 23  1  0
 21 25  1  0
 27 29  4  0
M  END
$$$$

 Created by Python create_sdf_string function

 29 32  0  0  0  0  0  0  0  0999 V2000
    5.4450    8.7154   22.6662 C   0  0  0  0  0  0  0  0  0  0  0  0
   10.9154    5.4574   20.5483 C   0  0  0  0  0  0  0  0  0  0  0  0
    7.2709    4.5089   22.7542 C   0  0  0  0  0  0  0  0  0  0  0  0
    5.9698    7.6329   24.6581 C   0  0  0  0  0  0  0  0  0  0  0  0
    4.5542    8.9057   21.7104 O   0  0  0  0  0  0  0  0  0  0  0  0
    6.9895    3.2085   23.0690 C   0  0  0  0  0  0  0  0  0  0  0  0
    7.8391    2.2253   22.7260 N   0  0  0  0  0  0  0  0  0  0  0  0
    8.6968    9.8373   23.6359 C   0  0  0  0  0  0  0  0  0  0  0  0
   12.5135    6.5957   21.8396 C   0  0  0  0  0  0  0  0  0  0  0  0
   10.9406    8.2330   21.1350 C   0  0  0  0  0  0  0  0  0  0  0  0
    9.6648    8.5956   21.7310 C   0  0  0  0  0  0  0  0  0  0  0  0
   10.8829    1.7153   20.9865 C   0  0  0  0  0  0  0  0  0  0  0  0
    5.7768    2.8533   23.7910 C   0  0  0  0  0  0  0  0  0  0  0  0
    9.7977    1.4791   21.6912 N   0  0  0  0  0  0  0  0  0  0  0  0
    6.5976    9.3401   22.6478 N   0  0  0  0  0  0  0  0  0  0  0  0
   11.2031    3.0042   20.6246 C   0  0  0  0  0  0  0  0  0  0  0  0
   12.8688    7.7370   22.7287 C   0  0  0  0  0  0  0  0  0  0  0  0
    7.4487    9.1361   23.6506 C   0  0  0  0  0  0  0  0  0  0  0  0
    8.9772    2.5025   22.0273 C   0  0  0  0  0  0  0  0  0  0  0  0
   10.4859    4.0901   20.9730 C   0  0  0  0  0  0  0  0  0  0  0  0
   11.0962    9.3293   23.5072 C   0  0  0  0  0  0  0  0  0  0  0  0
    5.1273    7.8529   23.6208 N   0  0  0  0  0  0  0  0  0  0  0  0
    9.7552    9.2338   23.0171 N   0  0  0  0  0  0  0  0  0  0  0  0
   11.1797    6.7591   21.3326 N   0  0  0  0  0  0  0  0  0  0  0  0
   11.7728    8.0337   23.7267 C   0  0  0  0  0  0  0  0  0  0  0  0
    7.1194    8.3344   24.6775 C   0  0  0  0  0  0  0  0  0  0  0  0
    8.4311    4.7963   22.0500 C   0  0  0  0  0  0  0  0  0  0  0  0
    8.7393   10.8706   24.1871 O   0  0  0  0  0  0  0  0  0  0  0  0
    9.3093    3.8166   21.6712 C   0  0  0  0  0  0  0  0  0  0  0  0
  1  5  1  0
  1 15  4  0
  1 22  4  0
  2 20  1  0
  2 24  1  0
  3  6  4  0
  3 27  4  0
  4 22  4  0
  4 26  4  0
  6  7  4  0
  6 13  1  0
  7 19  4  0
  8 18  1  0
  8 23  1  0
  8 28  2  0
  9 17  1  0
  9 24  1  0
 10 11  1  0
 10 24  1  0
 11 23  1  0
 12 14  4  0
 12 16  4  0
 14 19  4  0
 15 18  4  0
 16 20  4  0
 17 25  1  0
 18 26  4  0
 19 29  4  0
 20 29  4  0
 21 23  1  0
 21 25  1  0
 27 29  4  0
M  END
$$$$

 Created by Python create_sdf_string function

 29 32  0  0  0  0  0  0  0  0999 V2000
    5.4450    8.7154   22.6662 C   0  0  0  0  0  0  0  0  0  0  0  0
   10.9154    5.4574   20.5483 C   0  0  0  0  0  0  0  0  0  0  0  0
    7.2709    4.5089   22.7542 C   0  0  0  0  0  0  0  0  0  0  0  0
    5.9698    7.6329   24.6581 C   0  0  0  0  0  0  0  0  0  0  0  0
    4.5542    8.9057   21.7104 O   0  0  0  0  0  0  0  0  0  0  0  0
    6.9895    3.2085   23.0690 C   0  0  0  0  0  0  0  0  0  0  0  0
    7.8391    2.2253   22.7260 N   0  0  0  0  0  0  0  0  0  0  0  0
    8.6968    9.8373   23.6359 C   0  0  0  0  0  0  0  0  0  0  0  0
   12.5135    6.5957   21.8396 C   0  0  0  0  0  0  0  0  0  0  0  0
   10.9406    8.2330   21.1350 C   0  0  0  0  0  0  0  0  0  0  0  0
    9.6648    8.5956   21.7310 C   0  0  0  0  0  0  0  0  0  0  0  0
   10.8829    1.7153   20.9865 C   0  0  0  0  0  0  0  0  0  0  0  0
    5.7768    2.8533   23.7910 C   0  0  0  0  0  0  0  0  0  0  0  0
    9.7977    1.4791   21.6912 N   0  0  0  0  0  0  0  0  0  0  0  0
    6.5976    9.3401   22.6478 N   0  0  0  0  0  0  0  0  0  0  0  0
   11.2031    3.0042   20.6246 C   0  0  0  0  0  0  0  0  0  0  0  0
   12.8688    7.7370   22.7287 C   0  0  0  0  0  0  0  0  0  0  0  0
    7.4487    9.1361   23.6506 C   0  0  0  0  0  0  0  0  0  0  0  0
    8.9772    2.5025   22.0273 C   0  0  0  0  0  0  0  0  0  0  0  0
   10.4859    4.0901   20.9730 C   0  0  0  0  0  0  0  0  0  0  0  0
   11.0962    9.3293   23.5072 C   0  0  0  0  0  0  0  0  0  0  0  0
    5.1273    7.8529   23.6208 N   0  0  0  0  0  0  0  0  0  0  0  0
    9.7552    9.2338   23.0171 N   0  0  0  0  0  0  0  0  0  0  0  0
   11.1797    6.7591   21.3326 N   0  0  0  0  0  0  0  0  0  0  0  0
   11.7728    8.0337   23.7267 C   0  0  0  0  0  0  0  0  0  0  0  0
    7.1194    8.3344   24.6775 C   0  0  0  0  0  0  0  0  0  0  0  0
    8.4311    4.7963   22.0500 C   0  0  0  0  0  0  0  0  0  0  0  0
    8.7393   10.8706   24.1871 O   0  0  0  0  0  0  0  0  0  0  0  0
    9.3093    3.8166   21.6712 C   0  0  0  0  0  0  0  0  0  0  0  0
  1  5  1  0
  1 15  4  0
  1 22  4  0
  2 20  1  0
  2 24  1  0
  3  6  4  0
  3 27  4  0
  4 22  4  0
  4 26  4  0
  6  7  4  0
  6 13  1  0
  7 19  4  0
  8 18  1  0
  8 23  1  0
  8 28  2  0
  9 17  1  0
  9 24  1  0
 10 11  1  0
 10 24  1  0
 11 23  1  0
 12 14  4  0
 12 16  4  0
 14 19  4  0
 15 18  4  0
 16 20  4  0
 17 25  1  0
 18 26  4  0
 19 29  4  0
 20 29  4  0
 21 23  1  0
 21 25  1  0
 27 29  4  0
M  END
$$$$

 Created by Python create_sdf_string function

 29 32  0  0  0  0  0  0  0  0999 V2000
    5.4450    8.7154   22.6662 C   0  0  0  0  0  0  0  0  0  0  0  0
   10.9154    5.4574   20.5483 C   0  0  0  0  0  0  0  0  0  0  0  0
    7.2709    4.5089   22.7542 C   0  0  0  0  0  0  0  0  0  0  0  0
    5.9698    7.6329   24.6581 C   0  0  0  0  0  0  0  0  0  0  0  0
    4.5542    8.9057   21.7104 O   0  0  0  0  0  0  0  0  0  0  0  0
    6.9895    3.2085   23.0690 C   0  0  0  0  0  0  0  0  0  0  0  0
    7.8391    2.2253   22.7260 N   0  0  0  0  0  0  0  0  0  0  0  0
    8.6968    9.8373   23.6359 C   0  0  0  0  0  0  0  0  0  0  0  0
   12.5135    6.5957   21.8396 C   0  0  0  0  0  0  0  0  0  0  0  0
   10.9406    8.2330   21.1350 C   0  0  0  0  0  0  0  0  0  0  0  0
    9.6648    8.5956   21.7310 C   0  0  0  0  0  0  0  0  0  0  0  0
   10.8829    1.7153   20.9865 C   0  0  0  0  0  0  0  0  0  0  0  0
    5.7768    2.8533   23.7910 C   0  0  0  0  0  0  0  0  0  0  0  0
    9.7977    1.4791   21.6912 N   0  0  0  0  0  0  0  0  0  0  0  0
    6.5976    9.3401   22.6478 N   0  0  0  0  0  0  0  0  0  0  0  0
   11.2031    3.0042   20.6246 C   0  0  0  0  0  0  0  0  0  0  0  0
   12.8688    7.7370   22.7287 C   0  0  0  0  0  0  0  0  0  0  0  0
    7.4487    9.1361   23.6506 C   0  0  0  0  0  0  0  0  0  0  0  0
    8.9772    2.5025   22.0273 C   0  0  0  0  0  0  0  0  0  0  0  0
   10.4859    4.0901   20.9730 C   0  0  0  0  0  0  0  0  0  0  0  0
   11.0962    9.3293   23.5072 C   0  0  0  0  0  0  0  0  0  0  0  0
    5.1273    7.8529   23.6208 N   0  0  0  0  0  0  0  0  0  0  0  0
    9.7552    9.2338   23.0171 N   0  0  0  0  0  0  0  0  0  0  0  0
   11.1797    6.7591   21.3326 N   0  0  0  0  0  0  0  0  0  0  0  0
   11.7728    8.0337   23.7267 C   0  0  0  0  0  0  0  0  0  0  0  0
    7.1194    8.3344   24.6775 C   0  0  0  0  0  0  0  0  0  0  0  0
    8.4311    4.7963   22.0500 C   0  0  0  0  0  0  0  0  0  0  0  0
    8.7393   10.8706   24.1871 O   0  0  0  0  0  0  0  0  0  0  0  0
    9.3093    3.8166   21.6712 C   0  0  0  0  0  0  0  0  0  0  0  0
  1  5  1  0
  1 15  4  0
  1 22  4  0
  2 20  1  0
  2 24  1  0
  3  6  4  0
  3 27  4  0
  4 22  4  0
  4 26  4  0
  6  7  4  0
  6 13  1  0
  7 19  4  0
  8 18  1  0
  8 23  1  0
  8 28  2  0
  9 17  1  0
  9 24  1  0
 10 11  1  0
 10 24  1  0
 11 23  1  0
 12 14  4  0
 12 16  4  0
 14 19  4  0
 15 18  4  0
 16 20  4  0
 17 25  1  0
 18 26  4  0
 19 29  4  0
 20 29  4  0
 21 23  1  0
 21 25  1  0
 27 29  4  0
M  END
$$$$

 Created by Python create_sdf_string function

 29 32  0  0  0  0  0  0  0  0999 V2000
    5.4450    8.7154   22.6662 C   0  0  0  0  0  0  0  0  0  0  0  0
   10.9154    5.4574   20.5483 C   0  0  0  0  0  0  0  0  0  0  0  0
    7.2709    4.5089   22.7542 C   0  0  0  0  0  0  0  0  0  0  0  0
    5.9698    7.6329   24.6581 C   0  0  0  0  0  0  0  0  0  0  0  0
    4.5542    8.9057   21.7104 O   0  0  0  0  0  0  0  0  0  0  0  0
    6.9895    3.2085   23.0690 C   0  0  0  0  0  0  0  0  0  0  0  0
    7.8391    2.2253   22.7260 N   0  0  0  0  0  0  0  0  0  0  0  0
    8.6968    9.8373   23.6359 C   0  0  0  0  0  0  0  0  0  0  0  0
   12.5135    6.5957   21.8396 C   0  0  0  0  0  0  0  0  0  0  0  0
   10.9406    8.2330   21.1350 C   0  0  0  0  0  0  0  0  0  0  0  0
    9.6648    8.5956   21.7310 C   0  0  0  0  0  0  0  0  0  0  0  0
   10.8829    1.7153   20.9865 C   0  0  0  0  0  0  0  0  0  0  0  0
    5.7768    2.8533   23.7910 C   0  0  0  0  0  0  0  0  0  0  0  0
    9.7977    1.4791   21.6912 N   0  0  0  0  0  0  0  0  0  0  0  0
    6.5976    9.3401   22.6478 N   0  0  0  0  0  0  0  0  0  0  0  0
   11.2031    3.0042   20.6246 C   0  0  0  0  0  0  0  0  0  0  0  0
   12.8688    7.7370   22.7287 C   0  0  0  0  0  0  0  0  0  0  0  0
    7.4487    9.1361   23.6506 C   0  0  0  0  0  0  0  0  0  0  0  0
    8.9772    2.5025   22.0273 C   0  0  0  0  0  0  0  0  0  0  0  0
   10.4859    4.0901   20.9730 C   0  0  0  0  0  0  0  0  0  0  0  0
   11.0962    9.3293   23.5072 C   0  0  0  0  0  0  0  0  0  0  0  0
    5.1273    7.8529   23.6208 N   0  0  0  0  0  0  0  0  0  0  0  0
    9.7552    9.2338   23.0171 N   0  0  0  0  0  0  0  0  0  0  0  0
   11.1797    6.7591   21.3326 N   0  0  0  0  0  0  0  0  0  0  0  0
   11.7728    8.0337   23.7267 C   0  0  0  0  0  0  0  0  0  0  0  0
    7.1194    8.3344   24.6775 C   0  0  0  0  0  0  0  0  0  0  0  0
    8.4311    4.7963   22.0500 C   0  0  0  0  0  0  0  0  0  0  0  0
    8.7393   10.8706   24.1871 O   0  0  0  0  0  0  0  0  0  0  0  0
    9.3093    3.8166   21.6712 C   0  0  0  0  0  0  0  0  0  0  0  0
  1  5  1  0
  1 15  4  0
  1 22  4  0
  2 20  1  0
  2 24  1  0
  3  6  4  0
  3 27  4  0
  4 22  4  0
  4 26  4  0
  6  7  4  0
  6 13  1  0
  7 19  4  0
  8 18  1  0
  8 23  1  0
  8 28  2  0
  9 17  1  0
  9 24  1  0
 10 11  1  0
 10 24  1  0
 11 23  1  0
 12 14  4  0
 12 16  4  0
 14 19  4  0
 15 18  4  0
 16 20  4  0
 17 25  1  0
 18 26  4  0
 19 29  4  0
 20 29  4  0
 21 23  1  0
 21 25  1  0
 27 29  4  0
M  END
$$$$

 Created by Python create_sdf_string function

 29 32  0  0  0  0  0  0  0  0999 V2000
    5.4450    8.7154   22.6662 C   0  0  0  0  0  0  0  0  0  0  0  0
   10.9154    5.4574   20.5483 C   0  0  0  0  0  0  0  0  0  0  0  0
    7.2709    4.5089   22.7542 C   0  0  0  0  0  0  0  0  0  0  0  0
    5.9698    7.6329   24.6581 C   0  0  0  0  0  0  0  0  0  0  0  0
    4.5542    8.9057   21.7104 O   0  0  0  0  0  0  0  0  0  0  0  0
    6.9895    3.2085   23.0690 C   0  0  0  0  0  0  0  0  0  0  0  0
    7.8391    2.2253   22.7260 N   0  0  0  0  0  0  0  0  0  0  0  0
    8.6968    9.8373   23.6359 C   0  0  0  0  0  0  0  0  0  0  0  0
   12.5135    6.5957   21.8396 C   0  0  0  0  0  0  0  0  0  0  0  0
   10.9406    8.2330   21.1350 C   0  0  0  0  0  0  0  0  0  0  0  0
    9.6648    8.5956   21.7310 C   0  0  0  0  0  0  0  0  0  0  0  0
   10.8829    1.7153   20.9865 C   0  0  0  0  0  0  0  0  0  0  0  0
    5.7768    2.8533   23.7910 C   0  0  0  0  0  0  0  0  0  0  0  0
    9.7977    1.4791   21.6912 N   0  0  0  0  0  0  0  0  0  0  0  0
    6.5976    9.3401   22.6478 N   0  0  0  0  0  0  0  0  0  0  0  0
   11.2031    3.0042   20.6246 C   0  0  0  0  0  0  0  0  0  0  0  0
   12.8688    7.7370   22.7287 C   0  0  0  0  0  0  0  0  0  0  0  0
    7.4487    9.1361   23.6506 C   0  0  0  0  0  0  0  0  0  0  0  0
    8.9772    2.5025   22.0273 C   0  0  0  0  0  0  0  0  0  0  0  0
   10.4859    4.0901   20.9730 C   0  0  0  0  0  0  0  0  0  0  0  0
   11.0962    9.3293   23.5072 C   0  0  0  0  0  0  0  0  0  0  0  0
    5.1273    7.8529   23.6208 N   0  0  0  0  0  0  0  0  0  0  0  0
    9.7552    9.2338   23.0171 N   0  0  0  0  0  0  0  0  0  0  0  0
   11.1797    6.7591   21.3326 N   0  0  0  0  0  0  0  0  0  0  0  0
   11.7728    8.0337   23.7267 C   0  0  0  0  0  0  0  0  0  0  0  0
    7.1194    8.3344   24.6775 C   0  0  0  0  0  0  0  0  0  0  0  0
    8.4311    4.7963   22.0500 C   0  0  0  0  0  0  0  0  0  0  0  0
    8.7393   10.8706   24.1871 O   0  0  0  0  0  0  0  0  0  0  0  0
    9.3093    3.8166   21.6712 C   0  0  0  0  0  0  0  0  0  0  0  0
  1  5  1  0
  1 15  4  0
  1 22  4  0
  2 20  1  0
  2 24  1  0
  3  6  4  0
  3 27  4  0
  4 22  4  0
  4 26  4  0
  6  7  4  0
  6 13  1  0
  7 19  4  0
  8 18  1  0
  8 23  1  0
  8 28  2  0
  9 17  1  0
  9 24  1  0
 10 11  1  0
 10 24  1  0
 11 23  1  0
 12 14  4  0
 12 16  4  0
 14 19  4  0
 15 18  4  0
 16 20  4  0
 17 25  1  0
 18 26  4  0
 19 29  4  0
 20 29  4  0
 21 23  1  0
 21 25  1  0
 27 29  4  0
M  END
$$$$

 Created by Python create_sdf_string function

 29 32  0  0  0  0  0  0  0  0999 V2000
    5.4450    8.7154   22.6662 C   0  0  0  0  0  0  0  0  0  0  0  0
   10.9154    5.4574   20.5483 C   0  0  0  0  0  0  0  0  0  0  0  0
    7.2709    4.5089   22.7542 C   0  0  0  0  0  0  0  0  0  0  0  0
    5.9698    7.6329   24.6581 C   0  0  0  0  0  0  0  0  0  0  0  0
    4.5542    8.9057   21.7104 O   0  0  0  0  0  0  0  0  0  0  0  0
    6.9895    3.2085   23.0690 C   0  0  0  0  0  0  0  0  0  0  0  0
    7.8391    2.2253   22.7260 N   0  0  0  0  0  0  0  0  0  0  0  0
    8.6968    9.8373   23.6359 C   0  0  0  0  0  0  0  0  0  0  0  0
   12.5135    6.5957   21.8396 C   0  0  0  0  0  0  0  0  0  0  0  0
   10.9406    8.2330   21.1350 C   0  0  0  0  0  0  0  0  0  0  0  0
    9.6648    8.5956   21.7310 C   0  0  0  0  0  0  0  0  0  0  0  0
   10.8829    1.7153   20.9865 C   0  0  0  0  0  0  0  0  0  0  0  0
    5.7768    2.8533   23.7910 C   0  0  0  0  0  0  0  0  0  0  0  0
    9.7977    1.4791   21.6912 N   0  0  0  0  0  0  0  0  0  0  0  0
    6.5976    9.3401   22.6478 N   0  0  0  0  0  0  0  0  0  0  0  0
   11.2031    3.0042   20.6246 C   0  0  0  0  0  0  0  0  0  0  0  0
   12.8688    7.7370   22.7287 C   0  0  0  0  0  0  0  0  0  0  0  0
    7.4487    9.1361   23.6506 C   0  0  0  0  0  0  0  0  0  0  0  0
    8.9772    2.5025   22.0273 C   0  0  0  0  0  0  0  0  0  0  0  0
   10.4859    4.0901   20.9730 C   0  0  0  0  0  0  0  0  0  0  0  0
   11.0962    9.3293   23.5072 C   0  0  0  0  0  0  0  0  0  0  0  0
    5.1273    7.8529   23.6208 N   0  0  0  0  0  0  0  0  0  0  0  0
    9.7552    9.2338   23.0171 N   0  0  0  0  0  0  0  0  0  0  0  0
   11.1797    6.7591   21.3326 N   0  0  0  0  0  0  0  0  0  0  0  0
   11.7728    8.0337   23.7267 C   0  0  0  0  0  0  0  0  0  0  0  0
    7.1194    8.3344   24.6775 C   0  0  0  0  0  0  0  0  0  0  0  0
    8.4311    4.7963   22.0500 C   0  0  0  0  0  0  0  0  0  0  0  0
    8.7393   10.8706   24.1871 O   0  0  0  0  0  0  0  0  0  0  0  0
    9.3093    3.8166   21.6712 C   0  0  0  0  0  0  0  0  0  0  0  0
  1  5  1  0
  1 15  4  0
  1 22  4  0
  2 20  1  0
  2 24  1  0
  3  6  4  0
  3 27  4  0
  4 22  4  0
  4 26  4  0
  6  7  4  0
  6 13  1  0
  7 19  4  0
  8 18  1  0
  8 23  1  0
  8 28  2  0
  9 17  1  0
  9 24  1  0
 10 11  1  0
 10 24  1  0
 11 23  1  0
 12 14  4  0
 12 16  4  0
 14 19  4  0
 15 18  4  0
 16 20  4  0
 17 25  1  0
 18 26  4  0
 19 29  4  0
 20 29  4  0
 21 23  1  0
 21 25  1  0
 27 29  4  0
M  END
$$$$

 Created by Python create_sdf_string function

 29 32  0  0  0  0  0  0  0  0999 V2000
    5.4450    8.7154   22.6662 C   0  0  0  0  0  0  0  0  0  0  0  0
   10.9154    5.4574   20.5483 C   0  0  0  0  0  0  0  0  0  0  0  0
    7.2709    4.5089   22.7542 C   0  0  0  0  0  0  0  0  0  0  0  0
    5.9698    7.6329   24.6581 C   0  0  0  0  0  0  0  0  0  0  0  0
    4.5542    8.9057   21.7104 O   0  0  0  0  0  0  0  0  0  0  0  0
    6.9895    3.2085   23.0690 C   0  0  0  0  0  0  0  0  0  0  0  0
    7.8391    2.2253   22.7260 N   0  0  0  0  0  0  0  0  0  0  0  0
    8.6968    9.8373   23.6359 C   0  0  0  0  0  0  0  0  0  0  0  0
   12.5135    6.5957   21.8396 C   0  0  0  0  0  0  0  0  0  0  0  0
   10.9406    8.2330   21.1350 C   0  0  0  0  0  0  0  0  0  0  0  0
    9.6648    8.5956   21.7310 C   0  0  0  0  0  0  0  0  0  0  0  0
   10.8829    1.7153   20.9865 C   0  0  0  0  0  0  0  0  0  0  0  0
    5.7768    2.8533   23.7910 C   0  0  0  0  0  0  0  0  0  0  0  0
    9.7977    1.4791   21.6912 N   0  0  0  0  0  0  0  0  0  0  0  0
    6.5976    9.3401   22.6478 N   0  0  0  0  0  0  0  0  0  0  0  0
   11.2031    3.0042   20.6246 C   0  0  0  0  0  0  0  0  0  0  0  0
   12.8688    7.7370   22.7287 C   0  0  0  0  0  0  0  0  0  0  0  0
    7.4487    9.1361   23.6506 C   0  0  0  0  0  0  0  0  0  0  0  0
    8.9772    2.5025   22.0273 C   0  0  0  0  0  0  0  0  0  0  0  0
   10.4859    4.0901   20.9730 C   0  0  0  0  0  0  0  0  0  0  0  0
   11.0962    9.3293   23.5072 C   0  0  0  0  0  0  0  0  0  0  0  0
    5.1273    7.8529   23.6208 N   0  0  0  0  0  0  0  0  0  0  0  0
    9.7552    9.2338   23.0171 N   0  0  0  0  0  0  0  0  0  0  0  0
   11.1797    6.7591   21.3326 N   0  0  0  0  0  0  0  0  0  0  0  0
   11.7728    8.0337   23.7267 C   0  0  0  0  0  0  0  0  0  0  0  0
    7.1194    8.3344   24.6775 C   0  0  0  0  0  0  0  0  0  0  0  0
    8.4311    4.7963   22.0500 C   0  0  0  0  0  0  0  0  0  0  0  0
    8.7393   10.8706   24.1871 O   0  0  0  0  0  0  0  0  0  0  0  0
    9.3093    3.8166   21.6712 C   0  0  0  0  0  0  0  0  0  0  0  0
  1  5  1  0
  1 15  4  0
  1 22  4  0
  2 20  1  0
  2 24  1  0
  3  6  4  0
  3 27  4  0
  4 22  4  0
  4 26  4  0
  6  7  4  0
  6 13  1  0
  7 19  4  0
  8 18  1  0
  8 23  1  0
  8 28  2  0
  9 17  1  0
  9 24  1  0
 10 11  1  0
 10 24  1  0
 11 23  1  0
 12 14  4  0
 12 16  4  0
 14 19  4  0
 15 18  4  0
 16 20  4  0
 17 25  1  0
 18 26  4  0
 19 29  4  0
 20 29  4  0
 21 23  1  0
 21 25  1  0
 27 29  4  0
M  END
$$$$

 Created by Python create_sdf_string function

 29 32  0  0  0  0  0  0  0  0999 V2000
    5.4450    8.7154   22.6662 C   0  0  0  0  0  0  0  0  0  0  0  0
   10.9154    5.4574   20.5483 C   0  0  0  0  0  0  0  0  0  0  0  0
    7.2709    4.5089   22.7542 C   0  0  0  0  0  0  0  0  0  0  0  0
    5.9698    7.6329   24.6581 C   0  0  0  0  0  0  0  0  0  0  0  0
    4.5542    8.9057   21.7104 O   0  0  0  0  0  0  0  0  0  0  0  0
    6.9895    3.2085   23.0690 C   0  0  0  0  0  0  0  0  0  0  0  0
    7.8391    2.2253   22.7260 N   0  0  0  0  0  0  0  0  0  0  0  0
    8.6968    9.8373   23.6359 C   0  0  0  0  0  0  0  0  0  0  0  0
   12.5135    6.5957   21.8396 C   0  0  0  0  0  0  0  0  0  0  0  0
   10.9406    8.2330   21.1350 C   0  0  0  0  0  0  0  0  0  0  0  0
    9.6648    8.5956   21.7310 C   0  0  0  0  0  0  0  0  0  0  0  0
   10.8829    1.7153   20.9865 C   0  0  0  0  0  0  0  0  0  0  0  0
    5.7768    2.8533   23.7910 C   0  0  0  0  0  0  0  0  0  0  0  0
    9.7977    1.4791   21.6912 N   0  0  0  0  0  0  0  0  0  0  0  0
    6.5976    9.3401   22.6478 N   0  0  0  0  0  0  0  0  0  0  0  0
   11.2031    3.0042   20.6246 C   0  0  0  0  0  0  0  0  0  0  0  0
   12.8688    7.7370   22.7287 C   0  0  0  0  0  0  0  0  0  0  0  0
    7.4487    9.1361   23.6506 C   0  0  0  0  0  0  0  0  0  0  0  0
    8.9772    2.5025   22.0273 C   0  0  0  0  0  0  0  0  0  0  0  0
   10.4859    4.0901   20.9730 C   0  0  0  0  0  0  0  0  0  0  0  0
   11.0962    9.3293   23.5072 C   0  0  0  0  0  0  0  0  0  0  0  0
    5.1273    7.8529   23.6208 N   0  0  0  0  0  0  0  0  0  0  0  0
    9.7552    9.2338   23.0171 N   0  0  0  0  0  0  0  0  0  0  0  0
   11.1797    6.7591   21.3326 N   0  0  0  0  0  0  0  0  0  0  0  0
   11.7728    8.0337   23.7267 C   0  0  0  0  0  0  0  0  0  0  0  0
    7.1194    8.3344   24.6775 C   0  0  0  0  0  0  0  0  0  0  0  0
    8.4311    4.7963   22.0500 C   0  0  0  0  0  0  0  0  0  0  0  0
    8.7393   10.8706   24.1871 O   0  0  0  0  0  0  0  0  0  0  0  0
    9.3093    3.8166   21.6712 C   0  0  0  0  0  0  0  0  0  0  0  0
  1  5  1  0
  1 15  4  0
  1 22  4  0
  2 20  1  0
  2 24  1  0
  3  6  4  0
  3 27  4  0
  4 22  4  0
  4 26  4  0
  6  7  4  0
  6 13  1  0
  7 19  4  0
  8 18  1  0
  8 23  1  0
  8 28  2  0
  9 17  1  0
  9 24  1  0
 10 11  1  0
 10 24  1  0
 11 23  1  0
 12 14  4  0
 12 16  4  0
 14 19  4  0
 15 18  4  0
 16 20  4  0
 17 25  1  0
 18 26  4  0
 19 29  4  0
 20 29  4  0
 21 23  1  0
 21 25  1  0
 27 29  4  0
M  END
$$$$

 Created by Python create_sdf_string function

 29 32  0  0  0  0  0  0  0  0999 V2000
    5.4450    8.7154   22.6662 C   0  0  0  0  0  0  0  0  0  0  0  0
   10.9154    5.4574   20.5483 C   0  0  0  0  0  0  0  0  0  0  0  0
    7.2709    4.5089   22.7542 C   0  0  0  0  0  0  0  0  0  0  0  0
    5.9698    7.6329   24.6581 C   0  0  0  0  0  0  0  0  0  0  0  0
    4.5542    8.9057   21.7104 O   0  0  0  0  0  0  0  0  0  0  0  0
    6.9895    3.2085   23.0690 C   0  0  0  0  0  0  0  0  0  0  0  0
    7.8391    2.2253   22.7260 N   0  0  0  0  0  0  0  0  0  0  0  0
    8.6968    9.8373   23.6359 C   0  0  0  0  0  0  0  0  0  0  0  0
   12.5135    6.5957   21.8396 C   0  0  0  0  0  0  0  0  0  0  0  0
   10.9406    8.2330   21.1350 C   0  0  0  0  0  0  0  0  0  0  0  0
    9.6648    8.5956   21.7310 C   0  0  0  0  0  0  0  0  0  0  0  0
   10.8829    1.7153   20.9865 C   0  0  0  0  0  0  0  0  0  0  0  0
    5.7768    2.8533   23.7910 C   0  0  0  0  0  0  0  0  0  0  0  0
    9.7977    1.4791   21.6912 N   0  0  0  0  0  0  0  0  0  0  0  0
    6.5976    9.3401   22.6478 N   0  0  0  0  0  0  0  0  0  0  0  0
   11.2031    3.0042   20.6246 C   0  0  0  0  0  0  0  0  0  0  0  0
   12.8688    7.7370   22.7287 C   0  0  0  0  0  0  0  0  0  0  0  0
    7.4487    9.1361   23.6506 C   0  0  0  0  0  0  0  0  0  0  0  0
    8.9772    2.5025   22.0273 C   0  0  0  0  0  0  0  0  0  0  0  0
   10.4859    4.0901   20.9730 C   0  0  0  0  0  0  0  0  0  0  0  0
   11.0962    9.3293   23.5072 C   0  0  0  0  0  0  0  0  0  0  0  0
    5.1273    7.8529   23.6208 N   0  0  0  0  0  0  0  0  0  0  0  0
    9.7552    9.2338   23.0171 N   0  0  0  0  0  0  0  0  0  0  0  0
   11.1797    6.7591   21.3326 N   0  0  0  0  0  0  0  0  0  0  0  0
   11.7728    8.0337   23.7267 C   0  0  0  0  0  0  0  0  0  0  0  0
    7.1194    8.3344   24.6775 C   0  0  0  0  0  0  0  0  0  0  0  0
    8.4311    4.7963   22.0500 C   0  0  0  0  0  0  0  0  0  0  0  0
    8.7393   10.8706   24.1871 O   0  0  0  0  0  0  0  0  0  0  0  0
    9.3093    3.8166   21.6712 C   0  0  0  0  0  0  0  0  0  0  0  0
  1  5  1  0
  1 15  4  0
  1 22  4  0
  2 20  1  0
  2 24  1  0
  3  6  4  0
  3 27  4  0
  4 22  4  0
  4 26  4  0
  6  7  4  0
  6 13  1  0
  7 19  4  0
  8 18  1  0
  8 23  1  0
  8 28  2  0
  9 17  1  0
  9 24  1  0
 10 11  1  0
 10 24  1  0
 11 23  1  0
 12 14  4  0
 12 16  4  0
 14 19  4  0
 15 18  4  0
 16 20  4  0
 17 25  1  0
 18 26  4  0
 19 29  4  0
 20 29  4  0
 21 23  1  0
 21 25  1  0
 27 29  4  0
M  END
$$$$

 Created by Python create_sdf_string function

 29 32  0  0  0  0  0  0  0  0999 V2000
    5.4450    8.7154   22.6662 C   0  0  0  0  0  0  0  0  0  0  0  0
   10.9154    5.4574   20.5483 C   0  0  0  0  0  0  0  0  0  0  0  0
    7.2709    4.5089   22.7542 C   0  0  0  0  0  0  0  0  0  0  0  0
    5.9698    7.6329   24.6581 C   0  0  0  0  0  0  0  0  0  0  0  0
    4.5542    8.9057   21.7104 O   0  0  0  0  0  0  0  0  0  0  0  0
    6.9895    3.2085   23.0690 C   0  0  0  0  0  0  0  0  0  0  0  0
    7.8391    2.2253   22.7260 N   0  0  0  0  0  0  0  0  0  0  0  0
    8.6968    9.8373   23.6359 C   0  0  0  0  0  0  0  0  0  0  0  0
   12.5135    6.5957   21.8396 C   0  0  0  0  0  0  0  0  0  0  0  0
   10.9406    8.2330   21.1350 C   0  0  0  0  0  0  0  0  0  0  0  0
    9.6648    8.5956   21.7310 C   0  0  0  0  0  0  0  0  0  0  0  0
   10.8829    1.7153   20.9865 C   0  0  0  0  0  0  0  0  0  0  0  0
    5.7768    2.8533   23.7910 C   0  0  0  0  0  0  0  0  0  0  0  0
    9.7977    1.4791   21.6912 N   0  0  0  0  0  0  0  0  0  0  0  0
    6.5976    9.3401   22.6478 N   0  0  0  0  0  0  0  0  0  0  0  0
   11.2031    3.0042   20.6246 C   0  0  0  0  0  0  0  0  0  0  0  0
   12.8688    7.7370   22.7287 C   0  0  0  0  0  0  0  0  0  0  0  0
    7.4487    9.1361   23.6506 C   0  0  0  0  0  0  0  0  0  0  0  0
    8.9772    2.5025   22.0273 C   0  0  0  0  0  0  0  0  0  0  0  0
   10.4859    4.0901   20.9730 C   0  0  0  0  0  0  0  0  0  0  0  0
   11.0962    9.3293   23.5072 C   0  0  0  0  0  0  0  0  0  0  0  0
    5.1273    7.8529   23.6208 N   0  0  0  0  0  0  0  0  0  0  0  0
    9.7552    9.2338   23.0171 N   0  0  0  0  0  0  0  0  0  0  0  0
   11.1797    6.7591   21.3326 N   0  0  0  0  0  0  0  0  0  0  0  0
   11.7728    8.0337   23.7267 C   0  0  0  0  0  0  0  0  0  0  0  0
    7.1194    8.3344   24.6775 C   0  0  0  0  0  0  0  0  0  0  0  0
    8.4311    4.7963   22.0500 C   0  0  0  0  0  0  0  0  0  0  0  0
    8.7393   10.8706   24.1871 O   0  0  0  0  0  0  0  0  0  0  0  0
    9.3093    3.8166   21.6712 C   0  0  0  0  0  0  0  0  0  0  0  0
  1  5  1  0
  1 15  4  0
  1 22  4  0
  2 20  1  0
  2 24  1  0
  3  6  4  0
  3 27  4  0
  4 22  4  0
  4 26  4  0
  6  7  4  0
  6 13  1  0
  7 19  4  0
  8 18  1  0
  8 23  1  0
  8 28  2  0
  9 17  1  0
  9 24  1  0
 10 11  1  0
 10 24  1  0
 11 23  1  0
 12 14  4  0
 12 16  4  0
 14 19  4  0
 15 18  4  0
 16 20  4  0
 17 25  1  0
 18 26  4  0
 19 29  4  0
 20 29  4  0
 21 23  1  0
 21 25  1  0
 27 29  4  0
M  END
$$$$

 Created by Python create_sdf_string function

 29 32  0  0  0  0  0  0  0  0999 V2000
    5.4450    8.7154   22.6662 C   0  0  0  0  0  0  0  0  0  0  0  0
   10.9154    5.4574   20.5483 C   0  0  0  0  0  0  0  0  0  0  0  0
    7.2709    4.5089   22.7542 C   0  0  0  0  0  0  0  0  0  0  0  0
    5.9698    7.6329   24.6581 C   0  0  0  0  0  0  0  0  0  0  0  0
    4.5542    8.9057   21.7104 O   0  0  0  0  0  0  0  0  0  0  0  0
    6.9895    3.2085   23.0690 C   0  0  0  0  0  0  0  0  0  0  0  0
    7.8391    2.2253   22.7260 N   0  0  0  0  0  0  0  0  0  0  0  0
    8.6968    9.8373   23.6359 C   0  0  0  0  0  0  0  0  0  0  0  0
   12.5135    6.5957   21.8396 C   0  0  0  0  0  0  0  0  0  0  0  0
   10.9406    8.2330   21.1350 C   0  0  0  0  0  0  0  0  0  0  0  0
    9.6648    8.5956   21.7310 C   0  0  0  0  0  0  0  0  0  0  0  0
   10.8829    1.7153   20.9865 C   0  0  0  0  0  0  0  0  0  0  0  0
    5.7768    2.8533   23.7910 C   0  0  0  0  0  0  0  0  0  0  0  0
    9.7977    1.4791   21.6912 N   0  0  0  0  0  0  0  0  0  0  0  0
    6.5976    9.3401   22.6478 N   0  0  0  0  0  0  0  0  0  0  0  0
   11.2031    3.0042   20.6246 C   0  0  0  0  0  0  0  0  0  0  0  0
   12.8688    7.7370   22.7287 C   0  0  0  0  0  0  0  0  0  0  0  0
    7.4487    9.1361   23.6506 C   0  0  0  0  0  0  0  0  0  0  0  0
    8.9772    2.5025   22.0273 C   0  0  0  0  0  0  0  0  0  0  0  0
   10.4859    4.0901   20.9730 C   0  0  0  0  0  0  0  0  0  0  0  0
   11.0962    9.3293   23.5072 C   0  0  0  0  0  0  0  0  0  0  0  0
    5.1273    7.8529   23.6208 N   0  0  0  0  0  0  0  0  0  0  0  0
    9.7552    9.2338   23.0171 N   0  0  0  0  0  0  0  0  0  0  0  0
   11.1797    6.7591   21.3326 N   0  0  0  0  0  0  0  0  0  0  0  0
   11.7728    8.0337   23.7267 C   0  0  0  0  0  0  0  0  0  0  0  0
    7.1194    8.3344   24.6775 C   0  0  0  0  0  0  0  0  0  0  0  0
    8.4311    4.7963   22.0500 C   0  0  0  0  0  0  0  0  0  0  0  0
    8.7393   10.8706   24.1871 O   0  0  0  0  0  0  0  0  0  0  0  0
    9.3093    3.8166   21.6712 C   0  0  0  0  0  0  0  0  0  0  0  0
  1  5  1  0
  1 15  4  0
  1 22  4  0
  2 20  1  0
  2 24  1  0
  3  6  4  0
  3 27  4  0
  4 22  4  0
  4 26  4  0
  6  7  4  0
  6 13  1  0
  7 19  4  0
  8 18  1  0
  8 23  1  0
  8 28  2  0
  9 17  1  0
  9 24  1  0
 10 11  1  0
 10 24  1  0
 11 23  1  0
 12 14  4  0
 12 16  4  0
 14 19  4  0
 15 18  4  0
 16 20  4  0
 17 25  1  0
 18 26  4  0
 19 29  4  0
 20 29  4  0
 21 23  1  0
 21 25  1  0
 27 29  4  0
M  END
$$$$

 Created by Python create_sdf_string function

 29 32  0  0  0  0  0  0  0  0999 V2000
    5.4450    8.7154   22.6662 C   0  0  0  0  0  0  0  0  0  0  0  0
   10.9154    5.4574   20.5483 C   0  0  0  0  0  0  0  0  0  0  0  0
    7.2709    4.5089   22.7542 C   0  0  0  0  0  0  0  0  0  0  0  0
    5.9698    7.6329   24.6581 C   0  0  0  0  0  0  0  0  0  0  0  0
    4.5542    8.9057   21.7104 O   0  0  0  0  0  0  0  0  0  0  0  0
    6.9895    3.2085   23.0690 C   0  0  0  0  0  0  0  0  0  0  0  0
    7.8391    2.2253   22.7260 N   0  0  0  0  0  0  0  0  0  0  0  0
    8.6968    9.8373   23.6359 C   0  0  0  0  0  0  0  0  0  0  0  0
   12.5135    6.5957   21.8396 C   0  0  0  0  0  0  0  0  0  0  0  0
   10.9406    8.2330   21.1350 C   0  0  0  0  0  0  0  0  0  0  0  0
    9.6648    8.5956   21.7310 C   0  0  0  0  0  0  0  0  0  0  0  0
   10.8829    1.7153   20.9865 C   0  0  0  0  0  0  0  0  0  0  0  0
    5.7768    2.8533   23.7910 C   0  0  0  0  0  0  0  0  0  0  0  0
    9.7977    1.4791   21.6912 N   0  0  0  0  0  0  0  0  0  0  0  0
    6.5976    9.3401   22.6478 N   0  0  0  0  0  0  0  0  0  0  0  0
   11.2031    3.0042   20.6246 C   0  0  0  0  0  0  0  0  0  0  0  0
   12.8688    7.7370   22.7287 C   0  0  0  0  0  0  0  0  0  0  0  0
    7.4487    9.1361   23.6506 C   0  0  0  0  0  0  0  0  0  0  0  0
    8.9772    2.5025   22.0273 C   0  0  0  0  0  0  0  0  0  0  0  0
   10.4859    4.0901   20.9730 C   0  0  0  0  0  0  0  0  0  0  0  0
   11.0962    9.3293   23.5072 C   0  0  0  0  0  0  0  0  0  0  0  0
    5.1273    7.8529   23.6208 N   0  0  0  0  0  0  0  0  0  0  0  0
    9.7552    9.2338   23.0171 N   0  0  0  0  0  0  0  0  0  0  0  0
   11.1797    6.7591   21.3326 N   0  0  0  0  0  0  0  0  0  0  0  0
   11.7728    8.0337   23.7267 C   0  0  0  0  0  0  0  0  0  0  0  0
    7.1194    8.3344   24.6775 C   0  0  0  0  0  0  0  0  0  0  0  0
    8.4311    4.7963   22.0500 C   0  0  0  0  0  0  0  0  0  0  0  0
    8.7393   10.8706   24.1871 O   0  0  0  0  0  0  0  0  0  0  0  0
    9.3093    3.8166   21.6712 C   0  0  0  0  0  0  0  0  0  0  0  0
  1  5  1  0
  1 15  4  0
  1 22  4  0
  2 20  1  0
  2 24  1  0
  3  6  4  0
  3 27  4  0
  4 22  4  0
  4 26  4  0
  6  7  4  0
  6 13  1  0
  7 19  4  0
  8 18  1  0
  8 23  1  0
  8 28  2  0
  9 17  1  0
  9 24  1  0
 10 11  1  0
 10 24  1  0
 11 23  1  0
 12 14  4  0
 12 16  4  0
 14 19  4  0
 15 18  4  0
 16 20  4  0
 17 25  1  0
 18 26  4  0
 19 29  4  0
 20 29  4  0
 21 23  1  0
 21 25  1  0
 27 29  4  0
M  END
$$$$

 Created by Python create_sdf_string function

 29 32  0  0  0  0  0  0  0  0999 V2000
    5.4450    8.7154   22.6662 C   0  0  0  0  0  0  0  0  0  0  0  0
   10.9154    5.4574   20.5483 C   0  0  0  0  0  0  0  0  0  0  0  0
    7.2709    4.5089   22.7542 C   0  0  0  0  0  0  0  0  0  0  0  0
    5.9698    7.6329   24.6581 C   0  0  0  0  0  0  0  0  0  0  0  0
    4.5542    8.9057   21.7104 O   0  0  0  0  0  0  0  0  0  0  0  0
    6.9895    3.2085   23.0690 C   0  0  0  0  0  0  0  0  0  0  0  0
    7.8391    2.2253   22.7260 N   0  0  0  0  0  0  0  0  0  0  0  0
    8.6968    9.8373   23.6359 C   0  0  0  0  0  0  0  0  0  0  0  0
   12.5135    6.5957   21.8396 C   0  0  0  0  0  0  0  0  0  0  0  0
   10.9406    8.2330   21.1350 C   0  0  0  0  0  0  0  0  0  0  0  0
    9.6648    8.5956   21.7310 C   0  0  0  0  0  0  0  0  0  0  0  0
   10.8829    1.7153   20.9865 C   0  0  0  0  0  0  0  0  0  0  0  0
    5.7768    2.8533   23.7910 C   0  0  0  0  0  0  0  0  0  0  0  0
    9.7977    1.4791   21.6912 N   0  0  0  0  0  0  0  0  0  0  0  0
    6.5976    9.3401   22.6478 N   0  0  0  0  0  0  0  0  0  0  0  0
   11.2031    3.0042   20.6246 C   0  0  0  0  0  0  0  0  0  0  0  0
   12.8688    7.7370   22.7287 C   0  0  0  0  0  0  0  0  0  0  0  0
    7.4487    9.1361   23.6506 C   0  0  0  0  0  0  0  0  0  0  0  0
    8.9772    2.5025   22.0273 C   0  0  0  0  0  0  0  0  0  0  0  0
   10.4859    4.0901   20.9730 C   0  0  0  0  0  0  0  0  0  0  0  0
   11.0962    9.3293   23.5072 C   0  0  0  0  0  0  0  0  0  0  0  0
    5.1273    7.8529   23.6208 N   0  0  0  0  0  0  0  0  0  0  0  0
    9.7552    9.2338   23.0171 N   0  0  0  0  0  0  0  0  0  0  0  0
   11.1797    6.7591   21.3326 N   0  0  0  0  0  0  0  0  0  0  0  0
   11.7728    8.0337   23.7267 C   0  0  0  0  0  0  0  0  0  0  0  0
    7.1194    8.3344   24.6775 C   0  0  0  0  0  0  0  0  0  0  0  0
    8.4311    4.7963   22.0500 C   0  0  0  0  0  0  0  0  0  0  0  0
    8.7393   10.8706   24.1871 O   0  0  0  0  0  0  0  0  0  0  0  0
    9.3093    3.8166   21.6712 C   0  0  0  0  0  0  0  0  0  0  0  0
  1  5  1  0
  1 15  4  0
  1 22  4  0
  2 20  1  0
  2 24  1  0
  3  6  4  0
  3 27  4  0
  4 22  4  0
  4 26  4  0
  6  7  4  0
  6 13  1  0
  7 19  4  0
  8 18  1  0
  8 23  1  0
  8 28  2  0
  9 17  1  0
  9 24  1  0
 10 11  1  0
 10 24  1  0
 11 23  1  0
 12 14  4  0
 12 16  4  0
 14 19  4  0
 15 18  4  0
 16 20  4  0
 17 25  1  0
 18 26  4  0
 19 29  4  0
 20 29  4  0
 21 23  1  0
 21 25  1  0
 27 29  4  0
M  END
$$$$

 Created by Python create_sdf_string function

 29 32  0  0  0  0  0  0  0  0999 V2000
    5.4450    8.7154   22.6662 C   0  0  0  0  0  0  0  0  0  0  0  0
   10.9154    5.4574   20.5483 C   0  0  0  0  0  0  0  0  0  0  0  0
    7.2709    4.5089   22.7542 C   0  0  0  0  0  0  0  0  0  0  0  0
    5.9698    7.6329   24.6581 C   0  0  0  0  0  0  0  0  0  0  0  0
    4.5542    8.9057   21.7104 O   0  0  0  0  0  0  0  0  0  0  0  0
    6.9895    3.2085   23.0690 C   0  0  0  0  0  0  0  0  0  0  0  0
    7.8391    2.2253   22.7260 N   0  0  0  0  0  0  0  0  0  0  0  0
    8.6968    9.8373   23.6359 C   0  0  0  0  0  0  0  0  0  0  0  0
   12.5135    6.5957   21.8396 C   0  0  0  0  0  0  0  0  0  0  0  0
   10.9406    8.2330   21.1350 C   0  0  0  0  0  0  0  0  0  0  0  0
    9.6648    8.5956   21.7310 C   0  0  0  0  0  0  0  0  0  0  0  0
   10.8829    1.7153   20.9865 C   0  0  0  0  0  0  0  0  0  0  0  0
    5.7768    2.8533   23.7910 C   0  0  0  0  0  0  0  0  0  0  0  0
    9.7977    1.4791   21.6912 N   0  0  0  0  0  0  0  0  0  0  0  0
    6.5976    9.3401   22.6478 N   0  0  0  0  0  0  0  0  0  0  0  0
   11.2031    3.0042   20.6246 C   0  0  0  0  0  0  0  0  0  0  0  0
   12.8688    7.7370   22.7287 C   0  0  0  0  0  0  0  0  0  0  0  0
    7.4487    9.1361   23.6506 C   0  0  0  0  0  0  0  0  0  0  0  0
    8.9772    2.5025   22.0273 C   0  0  0  0  0  0  0  0  0  0  0  0
   10.4859    4.0901   20.9730 C   0  0  0  0  0  0  0  0  0  0  0  0
   11.0962    9.3293   23.5072 C   0  0  0  0  0  0  0  0  0  0  0  0
    5.1273    7.8529   23.6208 N   0  0  0  0  0  0  0  0  0  0  0  0
    9.7552    9.2338   23.0171 N   0  0  0  0  0  0  0  0  0  0  0  0
   11.1797    6.7591   21.3326 N   0  0  0  0  0  0  0  0  0  0  0  0
   11.7728    8.0337   23.7267 C   0  0  0  0  0  0  0  0  0  0  0  0
    7.1194    8.3344   24.6775 C   0  0  0  0  0  0  0  0  0  0  0  0
    8.4311    4.7963   22.0500 C   0  0  0  0  0  0  0  0  0  0  0  0
    8.7393   10.8706   24.1871 O   0  0  0  0  0  0  0  0  0  0  0  0
    9.3093    3.8166   21.6712 C   0  0  0  0  0  0  0  0  0  0  0  0
  1  5  1  0
  1 15  4  0
  1 22  4  0
  2 20  1  0
  2 24  1  0
  3  6  4  0
  3 27  4  0
  4 22  4  0
  4 26  4  0
  6  7  4  0
  6 13  1  0
  7 19  4  0
  8 18  1  0
  8 23  1  0
  8 28  2  0
  9 17  1  0
  9 24  1  0
 10 11  1  0
 10 24  1  0
 11 23  1  0
 12 14  4  0
 12 16  4  0
 14 19  4  0
 15 18  4  0
 16 20  4  0
 17 25  1  0
 18 26  4  0
 19 29  4  0
 20 29  4  0
 21 23  1  0
 21 25  1  0
 27 29  4  0
M  END
$$$$

 Created by Python create_sdf_string function

 29 32  0  0  0  0  0  0  0  0999 V2000
    5.4450    8.7154   22.6662 C   0  0  0  0  0  0  0  0  0  0  0  0
   10.9154    5.4574   20.5483 C   0  0  0  0  0  0  0  0  0  0  0  0
    7.2709    4.5089   22.7542 C   0  0  0  0  0  0  0  0  0  0  0  0
    5.9698    7.6329   24.6581 C   0  0  0  0  0  0  0  0  0  0  0  0
    4.5542    8.9057   21.7104 O   0  0  0  0  0  0  0  0  0  0  0  0
    6.9895    3.2085   23.0690 C   0  0  0  0  0  0  0  0  0  0  0  0
    7.8391    2.2253   22.7260 N   0  0  0  0  0  0  0  0  0  0  0  0
    8.6968    9.8373   23.6359 C   0  0  0  0  0  0  0  0  0  0  0  0
   12.5135    6.5957   21.8396 C   0  0  0  0  0  0  0  0  0  0  0  0
   10.9406    8.2330   21.1350 C   0  0  0  0  0  0  0  0  0  0  0  0
    9.6648    8.5956   21.7310 C   0  0  0  0  0  0  0  0  0  0  0  0
   10.8829    1.7153   20.9865 C   0  0  0  0  0  0  0  0  0  0  0  0
    5.7768    2.8533   23.7910 C   0  0  0  0  0  0  0  0  0  0  0  0
    9.7977    1.4791   21.6912 N   0  0  0  0  0  0  0  0  0  0  0  0
    6.5976    9.3401   22.6478 N   0  0  0  0  0  0  0  0  0  0  0  0
   11.2031    3.0042   20.6246 C   0  0  0  0  0  0  0  0  0  0  0  0
   12.8688    7.7370   22.7287 C   0  0  0  0  0  0  0  0  0  0  0  0
    7.4487    9.1361   23.6506 C   0  0  0  0  0  0  0  0  0  0  0  0
    8.9772    2.5025   22.0273 C   0  0  0  0  0  0  0  0  0  0  0  0
   10.4859    4.0901   20.9730 C   0  0  0  0  0  0  0  0  0  0  0  0
   11.0962    9.3293   23.5072 C   0  0  0  0  0  0  0  0  0  0  0  0
    5.1273    7.8529   23.6208 N   0  0  0  0  0  0  0  0  0  0  0  0
    9.7552    9.2338   23.0171 N   0  0  0  0  0  0  0  0  0  0  0  0
   11.1797    6.7591   21.3326 N   0  0  0  0  0  0  0  0  0  0  0  0
   11.7728    8.0337   23.7267 C   0  0  0  0  0  0  0  0  0  0  0  0
    7.1194    8.3344   24.6775 C   0  0  0  0  0  0  0  0  0  0  0  0
    8.4311    4.7963   22.0500 C   0  0  0  0  0  0  0  0  0  0  0  0
    8.7393   10.8706   24.1871 O   0  0  0  0  0  0  0  0  0  0  0  0
    9.3093    3.8166   21.6712 C   0  0  0  0  0  0  0  0  0  0  0  0
  1  5  1  0
  1 15  4  0
  1 22  4  0
  2 20  1  0
  2 24  1  0
  3  6  4  0
  3 27  4  0
  4 22  4  0
  4 26  4  0
  6  7  4  0
  6 13  1  0
  7 19  4  0
  8 18  1  0
  8 23  1  0
  8 28  2  0
  9 17  1  0
  9 24  1  0
 10 11  1  0
 10 24  1  0
 11 23  1  0
 12 14  4  0
 12 16  4  0
 14 19  4  0
 15 18  4  0
 16 20  4  0
 17 25  1  0
 18 26  4  0
 19 29  4  0
 20 29  4  0
 21 23  1  0
 21 25  1  0
 27 29  4  0
M  END
$$$$

 Created by Python create_sdf_string function

 29 32  0  0  0  0  0  0  0  0999 V2000
    5.4450    8.7154   22.6662 C   0  0  0  0  0  0  0  0  0  0  0  0
   10.9154    5.4574   20.5483 C   0  0  0  0  0  0  0  0  0  0  0  0
    7.2709    4.5089   22.7542 C   0  0  0  0  0  0  0  0  0  0  0  0
    5.9698    7.6329   24.6581 C   0  0  0  0  0  0  0  0  0  0  0  0
    4.5542    8.9057   21.7104 O   0  0  0  0  0  0  0  0  0  0  0  0
    6.9895    3.2085   23.0690 C   0  0  0  0  0  0  0  0  0  0  0  0
    7.8391    2.2253   22.7260 N   0  0  0  0  0  0  0  0  0  0  0  0
    8.6968    9.8373   23.6359 C   0  0  0  0  0  0  0  0  0  0  0  0
   12.5135    6.5957   21.8396 C   0  0  0  0  0  0  0  0  0  0  0  0
   10.9406    8.2330   21.1350 C   0  0  0  0  0  0  0  0  0  0  0  0
    9.6648    8.5956   21.7310 C   0  0  0  0  0  0  0  0  0  0  0  0
   10.8829    1.7153   20.9865 C   0  0  0  0  0  0  0  0  0  0  0  0
    5.7768    2.8533   23.7910 C   0  0  0  0  0  0  0  0  0  0  0  0
    9.7977    1.4791   21.6912 N   0  0  0  0  0  0  0  0  0  0  0  0
    6.5976    9.3401   22.6478 N   0  0  0  0  0  0  0  0  0  0  0  0
   11.2031    3.0042   20.6246 C   0  0  0  0  0  0  0  0  0  0  0  0
   12.8688    7.7370   22.7287 C   0  0  0  0  0  0  0  0  0  0  0  0
    7.4487    9.1361   23.6506 C   0  0  0  0  0  0  0  0  0  0  0  0
    8.9772    2.5025   22.0273 C   0  0  0  0  0  0  0  0  0  0  0  0
   10.4859    4.0901   20.9730 C   0  0  0  0  0  0  0  0  0  0  0  0
   11.0962    9.3293   23.5072 C   0  0  0  0  0  0  0  0  0  0  0  0
    5.1273    7.8529   23.6208 N   0  0  0  0  0  0  0  0  0  0  0  0
    9.7552    9.2338   23.0171 N   0  0  0  0  0  0  0  0  0  0  0  0
   11.1797    6.7591   21.3326 N   0  0  0  0  0  0  0  0  0  0  0  0
   11.7728    8.0337   23.7267 C   0  0  0  0  0  0  0  0  0  0  0  0
    7.1194    8.3344   24.6775 C   0  0  0  0  0  0  0  0  0  0  0  0
    8.4311    4.7963   22.0500 C   0  0  0  0  0  0  0  0  0  0  0  0
    8.7393   10.8706   24.1871 O   0  0  0  0  0  0  0  0  0  0  0  0
    9.3093    3.8166   21.6712 C   0  0  0  0  0  0  0  0  0  0  0  0
  1  5  1  0
  1 15  4  0
  1 22  4  0
  2 20  1  0
  2 24  1  0
  3  6  4  0
  3 27  4  0
  4 22  4  0
  4 26  4  0
  6  7  4  0
  6 13  1  0
  7 19  4  0
  8 18  1  0
  8 23  1  0
  8 28  2  0
  9 17  1  0
  9 24  1  0
 10 11  1  0
 10 24  1  0
 11 23  1  0
 12 14  4  0
 12 16  4  0
 14 19  4  0
 15 18  4  0
 16 20  4  0
 17 25  1  0
 18 26  4  0
 19 29  4  0
 20 29  4  0
 21 23  1  0
 21 25  1  0
 27 29  4  0
M  END
$$$$

 Created by Python create_sdf_string function

 29 32  0  0  0  0  0  0  0  0999 V2000
    5.4450    8.7154   22.6662 C   0  0  0  0  0  0  0  0  0  0  0  0
   10.9154    5.4574   20.5483 C   0  0  0  0  0  0  0  0  0  0  0  0
    7.2709    4.5089   22.7542 C   0  0  0  0  0  0  0  0  0  0  0  0
    5.9698    7.6329   24.6581 C   0  0  0  0  0  0  0  0  0  0  0  0
    4.5542    8.9057   21.7104 O   0  0  0  0  0  0  0  0  0  0  0  0
    6.9895    3.2085   23.0690 C   0  0  0  0  0  0  0  0  0  0  0  0
    7.8391    2.2253   22.7260 N   0  0  0  0  0  0  0  0  0  0  0  0
    8.6968    9.8373   23.6359 C   0  0  0  0  0  0  0  0  0  0  0  0
   12.5135    6.5957   21.8396 C   0  0  0  0  0  0  0  0  0  0  0  0
   10.9406    8.2330   21.1350 C   0  0  0  0  0  0  0  0  0  0  0  0
    9.6648    8.5956   21.7310 C   0  0  0  0  0  0  0  0  0  0  0  0
   10.8829    1.7153   20.9865 C   0  0  0  0  0  0  0  0  0  0  0  0
    5.7768    2.8533   23.7910 C   0  0  0  0  0  0  0  0  0  0  0  0
    9.7977    1.4791   21.6912 N   0  0  0  0  0  0  0  0  0  0  0  0
    6.5976    9.3401   22.6478 N   0  0  0  0  0  0  0  0  0  0  0  0
   11.2031    3.0042   20.6246 C   0  0  0  0  0  0  0  0  0  0  0  0
   12.8688    7.7370   22.7287 C   0  0  0  0  0  0  0  0  0  0  0  0
    7.4487    9.1361   23.6506 C   0  0  0  0  0  0  0  0  0  0  0  0
    8.9772    2.5025   22.0273 C   0  0  0  0  0  0  0  0  0  0  0  0
   10.4859    4.0901   20.9730 C   0  0  0  0  0  0  0  0  0  0  0  0
   11.0962    9.3293   23.5072 C   0  0  0  0  0  0  0  0  0  0  0  0
    5.1273    7.8529   23.6208 N   0  0  0  0  0  0  0  0  0  0  0  0
    9.7552    9.2338   23.0171 N   0  0  0  0  0  0  0  0  0  0  0  0
   11.1797    6.7591   21.3326 N   0  0  0  0  0  0  0  0  0  0  0  0
   11.7728    8.0337   23.7267 C   0  0  0  0  0  0  0  0  0  0  0  0
    7.1194    8.3344   24.6775 C   0  0  0  0  0  0  0  0  0  0  0  0
    8.4311    4.7963   22.0500 C   0  0  0  0  0  0  0  0  0  0  0  0
    8.7393   10.8706   24.1871 O   0  0  0  0  0  0  0  0  0  0  0  0
    9.3093    3.8166   21.6712 C   0  0  0  0  0  0  0  0  0  0  0  0
  1  5  1  0
  1 15  4  0
  1 22  4  0
  2 20  1  0
  2 24  1  0
  3  6  4  0
  3 27  4  0
  4 22  4  0
  4 26  4  0
  6  7  4  0
  6 13  1  0
  7 19  4  0
  8 18  1  0
  8 23  1  0
  8 28  2  0
  9 17  1  0
  9 24  1  0
 10 11  1  0
 10 24  1  0
 11 23  1  0
 12 14  4  0
 12 16  4  0
 14 19  4  0
 15 18  4  0
 16 20  4  0
 17 25  1  0
 18 26  4  0
 19 29  4  0
 20 29  4  0
 21 23  1  0
 21 25  1  0
 27 29  4  0
M  END
$$$$

 Created by Python create_sdf_string function

 29 32  0  0  0  0  0  0  0  0999 V2000
    5.4450    8.7154   22.6662 C   0  0  0  0  0  0  0  0  0  0  0  0
   10.9154    5.4574   20.5483 C   0  0  0  0  0  0  0  0  0  0  0  0
    7.2709    4.5089   22.7542 C   0  0  0  0  0  0  0  0  0  0  0  0
    5.9698    7.6329   24.6581 C   0  0  0  0  0  0  0  0  0  0  0  0
    4.5542    8.9057   21.7104 O   0  0  0  0  0  0  0  0  0  0  0  0
    6.9895    3.2085   23.0690 C   0  0  0  0  0  0  0  0  0  0  0  0
    7.8391    2.2253   22.7260 N   0  0  0  0  0  0  0  0  0  0  0  0
    8.6968    9.8373   23.6359 C   0  0  0  0  0  0  0  0  0  0  0  0
   12.5135    6.5957   21.8396 C   0  0  0  0  0  0  0  0  0  0  0  0
   10.9406    8.2330   21.1350 C   0  0  0  0  0  0  0  0  0  0  0  0
    9.6648    8.5956   21.7310 C   0  0  0  0  0  0  0  0  0  0  0  0
   10.8829    1.7153   20.9865 C   0  0  0  0  0  0  0  0  0  0  0  0
    5.7768    2.8533   23.7910 C   0  0  0  0  0  0  0  0  0  0  0  0
    9.7977    1.4791   21.6912 N   0  0  0  0  0  0  0  0  0  0  0  0
    6.5976    9.3401   22.6478 N   0  0  0  0  0  0  0  0  0  0  0  0
   11.2031    3.0042   20.6246 C   0  0  0  0  0  0  0  0  0  0  0  0
   12.8688    7.7370   22.7287 C   0  0  0  0  0  0  0  0  0  0  0  0
    7.4487    9.1361   23.6506 C   0  0  0  0  0  0  0  0  0  0  0  0
    8.9772    2.5025   22.0273 C   0  0  0  0  0  0  0  0  0  0  0  0
   10.4859    4.0901   20.9730 C   0  0  0  0  0  0  0  0  0  0  0  0
   11.0962    9.3293   23.5072 C   0  0  0  0  0  0  0  0  0  0  0  0
    5.1273    7.8529   23.6208 N   0  0  0  0  0  0  0  0  0  0  0  0
    9.7552    9.2338   23.0171 N   0  0  0  0  0  0  0  0  0  0  0  0
   11.1797    6.7591   21.3326 N   0  0  0  0  0  0  0  0  0  0  0  0
   11.7728    8.0337   23.7267 C   0  0  0  0  0  0  0  0  0  0  0  0
    7.1194    8.3344   24.6775 C   0  0  0  0  0  0  0  0  0  0  0  0
    8.4311    4.7963   22.0500 C   0  0  0  0  0  0  0  0  0  0  0  0
    8.7393   10.8706   24.1871 O   0  0  0  0  0  0  0  0  0  0  0  0
    9.3093    3.8166   21.6712 C   0  0  0  0  0  0  0  0  0  0  0  0
  1  5  1  0
  1 15  4  0
  1 22  4  0
  2 20  1  0
  2 24  1  0
  3  6  4  0
  3 27  4  0
  4 22  4  0
  4 26  4  0
  6  7  4  0
  6 13  1  0
  7 19  4  0
  8 18  1  0
  8 23  1  0
  8 28  2  0
  9 17  1  0
  9 24  1  0
 10 11  1  0
 10 24  1  0
 11 23  1  0
 12 14  4  0
 12 16  4  0
 14 19  4  0
 15 18  4  0
 16 20  4  0
 17 25  1  0
 18 26  4  0
 19 29  4  0
 20 29  4  0
 21 23  1  0
 21 25  1  0
 27 29  4  0
M  END
$$$$

 Created by Python create_sdf_string function

 29 32  0  0  0  0  0  0  0  0999 V2000
    5.4450    8.7154   22.6662 C   0  0  0  0  0  0  0  0  0  0  0  0
   10.9154    5.4574   20.5483 C   0  0  0  0  0  0  0  0  0  0  0  0
    7.2709    4.5089   22.7542 C   0  0  0  0  0  0  0  0  0  0  0  0
    5.9698    7.6329   24.6581 C   0  0  0  0  0  0  0  0  0  0  0  0
    4.5542    8.9057   21.7104 O   0  0  0  0  0  0  0  0  0  0  0  0
    6.9895    3.2085   23.0690 C   0  0  0  0  0  0  0  0  0  0  0  0
    7.8391    2.2253   22.7260 N   0  0  0  0  0  0  0  0  0  0  0  0
    8.6968    9.8373   23.6359 C   0  0  0  0  0  0  0  0  0  0  0  0
   12.5135    6.5957   21.8396 C   0  0  0  0  0  0  0  0  0  0  0  0
   10.9406    8.2330   21.1350 C   0  0  0  0  0  0  0  0  0  0  0  0
    9.6648    8.5956   21.7310 C   0  0  0  0  0  0  0  0  0  0  0  0
   10.8829    1.7153   20.9865 C   0  0  0  0  0  0  0  0  0  0  0  0
    5.7768    2.8533   23.7910 C   0  0  0  0  0  0  0  0  0  0  0  0
    9.7977    1.4791   21.6912 N   0  0  0  0  0  0  0  0  0  0  0  0
    6.5976    9.3401   22.6478 N   0  0  0  0  0  0  0  0  0  0  0  0
   11.2031    3.0042   20.6246 C   0  0  0  0  0  0  0  0  0  0  0  0
   12.8688    7.7370   22.7287 C   0  0  0  0  0  0  0  0  0  0  0  0
    7.4487    9.1361   23.6506 C   0  0  0  0  0  0  0  0  0  0  0  0
    8.9772    2.5025   22.0273 C   0  0  0  0  0  0  0  0  0  0  0  0
   10.4859    4.0901   20.9730 C   0  0  0  0  0  0  0  0  0  0  0  0
   11.0962    9.3293   23.5072 C   0  0  0  0  0  0  0  0  0  0  0  0
    5.1273    7.8529   23.6208 N   0  0  0  0  0  0  0  0  0  0  0  0
    9.7552    9.2338   23.0171 N   0  0  0  0  0  0  0  0  0  0  0  0
   11.1797    6.7591   21.3326 N   0  0  0  0  0  0  0  0  0  0  0  0
   11.7728    8.0337   23.7267 C   0  0  0  0  0  0  0  0  0  0  0  0
    7.1194    8.3344   24.6775 C   0  0  0  0  0  0  0  0  0  0  0  0
    8.4311    4.7963   22.0500 C   0  0  0  0  0  0  0  0  0  0  0  0
    8.7393   10.8706   24.1871 O   0  0  0  0  0  0  0  0  0  0  0  0
    9.3093    3.8166   21.6712 C   0  0  0  0  0  0  0  0  0  0  0  0
  1  5  1  0
  1 15  4  0
  1 22  4  0
  2 20  1  0
  2 24  1  0
  3  6  4  0
  3 27  4  0
  4 22  4  0
  4 26  4  0
  6  7  4  0
  6 13  1  0
  7 19  4  0
  8 18  1  0
  8 23  1  0
  8 28  2  0
  9 17  1  0
  9 24  1  0
 10 11  1  0
 10 24  1  0
 11 23  1  0
 12 14  4  0
 12 16  4  0
 14 19  4  0
 15 18  4  0
 16 20  4  0
 17 25  1  0
 18 26  4  0
 19 29  4  0
 20 29  4  0
 21 23  1  0
 21 25  1  0
 27 29  4  0
M  END
$$$$

 Created by Python create_sdf_string function

 29 32  0  0  0  0  0  0  0  0999 V2000
    5.4450    8.7154   22.6662 C   0  0  0  0  0  0  0  0  0  0  0  0
   10.9154    5.4574   20.5483 C   0  0  0  0  0  0  0  0  0  0  0  0
    7.2709    4.5089   22.7542 C   0  0  0  0  0  0  0  0  0  0  0  0
    5.9698    7.6329   24.6581 C   0  0  0  0  0  0  0  0  0  0  0  0
    4.5542    8.9057   21.7104 O   0  0  0  0  0  0  0  0  0  0  0  0
    6.9895    3.2085   23.0690 C   0  0  0  0  0  0  0  0  0  0  0  0
    7.8391    2.2253   22.7260 N   0  0  0  0  0  0  0  0  0  0  0  0
    8.6968    9.8373   23.6359 C   0  0  0  0  0  0  0  0  0  0  0  0
   12.5135    6.5957   21.8396 C   0  0  0  0  0  0  0  0  0  0  0  0
   10.9406    8.2330   21.1350 C   0  0  0  0  0  0  0  0  0  0  0  0
    9.6648    8.5956   21.7310 C   0  0  0  0  0  0  0  0  0  0  0  0
   10.8829    1.7153   20.9865 C   0  0  0  0  0  0  0  0  0  0  0  0
    5.7768    2.8533   23.7910 C   0  0  0  0  0  0  0  0  0  0  0  0
    9.7977    1.4791   21.6912 N   0  0  0  0  0  0  0  0  0  0  0  0
    6.5976    9.3401   22.6478 N   0  0  0  0  0  0  0  0  0  0  0  0
   11.2031    3.0042   20.6246 C   0  0  0  0  0  0  0  0  0  0  0  0
   12.8688    7.7370   22.7287 C   0  0  0  0  0  0  0  0  0  0  0  0
    7.4487    9.1361   23.6506 C   0  0  0  0  0  0  0  0  0  0  0  0
    8.9772    2.5025   22.0273 C   0  0  0  0  0  0  0  0  0  0  0  0
   10.4859    4.0901   20.9730 C   0  0  0  0  0  0  0  0  0  0  0  0
   11.0962    9.3293   23.5072 C   0  0  0  0  0  0  0  0  0  0  0  0
    5.1273    7.8529   23.6208 N   0  0  0  0  0  0  0  0  0  0  0  0
    9.7552    9.2338   23.0171 N   0  0  0  0  0  0  0  0  0  0  0  0
   11.1797    6.7591   21.3326 N   0  0  0  0  0  0  0  0  0  0  0  0
   11.7728    8.0337   23.7267 C   0  0  0  0  0  0  0  0  0  0  0  0
    7.1194    8.3344   24.6775 C   0  0  0  0  0  0  0  0  0  0  0  0
    8.4311    4.7963   22.0500 C   0  0  0  0  0  0  0  0  0  0  0  0
    8.7393   10.8706   24.1871 O   0  0  0  0  0  0  0  0  0  0  0  0
    9.3093    3.8166   21.6712 C   0  0  0  0  0  0  0  0  0  0  0  0
  1  5  1  0
  1 15  4  0
  1 22  4  0
  2 20  1  0
  2 24  1  0
  3  6  4  0
  3 27  4  0
  4 22  4  0
  4 26  4  0
  6  7  4  0
  6 13  1  0
  7 19  4  0
  8 18  1  0
  8 23  1  0
  8 28  2  0
  9 17  1  0
  9 24  1  0
 10 11  1  0
 10 24  1  0
 11 23  1  0
 12 14  4  0
 12 16  4  0
 14 19  4  0
 15 18  4  0
 16 20  4  0
 17 25  1  0
 18 26  4  0
 19 29  4  0
 20 29  4  0
 21 23  1  0
 21 25  1  0
 27 29  4  0
M  END
$$$$

 Created by Python create_sdf_string function

 29 32  0  0  0  0  0  0  0  0999 V2000
    5.4450    8.7154   22.6662 C   0  0  0  0  0  0  0  0  0  0  0  0
   10.9154    5.4574   20.5483 C   0  0  0  0  0  0  0  0  0  0  0  0
    7.2709    4.5089   22.7542 C   0  0  0  0  0  0  0  0  0  0  0  0
    5.9698    7.6329   24.6581 C   0  0  0  0  0  0  0  0  0  0  0  0
    4.5542    8.9057   21.7104 O   0  0  0  0  0  0  0  0  0  0  0  0
    6.9895    3.2085   23.0690 C   0  0  0  0  0  0  0  0  0  0  0  0
    7.8391    2.2253   22.7260 N   0  0  0  0  0  0  0  0  0  0  0  0
    8.6968    9.8373   23.6359 C   0  0  0  0  0  0  0  0  0  0  0  0
   12.5135    6.5957   21.8396 C   0  0  0  0  0  0  0  0  0  0  0  0
   10.9406    8.2330   21.1350 C   0  0  0  0  0  0  0  0  0  0  0  0
    9.6648    8.5956   21.7310 C   0  0  0  0  0  0  0  0  0  0  0  0
   10.8829    1.7153   20.9865 C   0  0  0  0  0  0  0  0  0  0  0  0
    5.7768    2.8533   23.7910 C   0  0  0  0  0  0  0  0  0  0  0  0
    9.7977    1.4791   21.6912 N   0  0  0  0  0  0  0  0  0  0  0  0
    6.5976    9.3401   22.6478 N   0  0  0  0  0  0  0  0  0  0  0  0
   11.2031    3.0042   20.6246 C   0  0  0  0  0  0  0  0  0  0  0  0
   12.8688    7.7370   22.7287 C   0  0  0  0  0  0  0  0  0  0  0  0
    7.4487    9.1361   23.6506 C   0  0  0  0  0  0  0  0  0  0  0  0
    8.9772    2.5025   22.0273 C   0  0  0  0  0  0  0  0  0  0  0  0
   10.4859    4.0901   20.9730 C   0  0  0  0  0  0  0  0  0  0  0  0
   11.0962    9.3293   23.5072 C   0  0  0  0  0  0  0  0  0  0  0  0
    5.1273    7.8529   23.6208 N   0  0  0  0  0  0  0  0  0  0  0  0
    9.7552    9.2338   23.0171 N   0  0  0  0  0  0  0  0  0  0  0  0
   11.1797    6.7591   21.3326 N   0  0  0  0  0  0  0  0  0  0  0  0
   11.7728    8.0337   23.7267 C   0  0  0  0  0  0  0  0  0  0  0  0
    7.1194    8.3344   24.6775 C   0  0  0  0  0  0  0  0  0  0  0  0
    8.4311    4.7963   22.0500 C   0  0  0  0  0  0  0  0  0  0  0  0
    8.7393   10.8706   24.1871 O   0  0  0  0  0  0  0  0  0  0  0  0
    9.3093    3.8166   21.6712 C   0  0  0  0  0  0  0  0  0  0  0  0
  1  5  1  0
  1 15  4  0
  1 22  4  0
  2 20  1  0
  2 24  1  0
  3  6  4  0
  3 27  4  0
  4 22  4  0
  4 26  4  0
  6  7  4  0
  6 13  1  0
  7 19  4  0
  8 18  1  0
  8 23  1  0
  8 28  2  0
  9 17  1  0
  9 24  1  0
 10 11  1  0
 10 24  1  0
 11 23  1  0
 12 14  4  0
 12 16  4  0
 14 19  4  0
 15 18  4  0
 16 20  4  0
 17 25  1  0
 18 26  4  0
 19 29  4  0
 20 29  4  0
 21 23  1  0
 21 25  1  0
 27 29  4  0
M  END
$$$$

 Created by Python create_sdf_string function

 29 32  0  0  0  0  0  0  0  0999 V2000
    5.4450    8.7154   22.6662 C   0  0  0  0  0  0  0  0  0  0  0  0
   10.9154    5.4574   20.5483 C   0  0  0  0  0  0  0  0  0  0  0  0
    7.2709    4.5089   22.7542 C   0  0  0  0  0  0  0  0  0  0  0  0
    5.9698    7.6329   24.6581 C   0  0  0  0  0  0  0  0  0  0  0  0
    4.5542    8.9057   21.7104 O   0  0  0  0  0  0  0  0  0  0  0  0
    6.9895    3.2085   23.0690 C   0  0  0  0  0  0  0  0  0  0  0  0
    7.8391    2.2253   22.7260 N   0  0  0  0  0  0  0  0  0  0  0  0
    8.6968    9.8373   23.6359 C   0  0  0  0  0  0  0  0  0  0  0  0
   12.5135    6.5957   21.8396 C   0  0  0  0  0  0  0  0  0  0  0  0
   10.9406    8.2330   21.1350 C   0  0  0  0  0  0  0  0  0  0  0  0
    9.6648    8.5956   21.7310 C   0  0  0  0  0  0  0  0  0  0  0  0
   10.8829    1.7153   20.9865 C   0  0  0  0  0  0  0  0  0  0  0  0
    5.7768    2.8533   23.7910 C   0  0  0  0  0  0  0  0  0  0  0  0
    9.7977    1.4791   21.6912 N   0  0  0  0  0  0  0  0  0  0  0  0
    6.5976    9.3401   22.6478 N   0  0  0  0  0  0  0  0  0  0  0  0
   11.2031    3.0042   20.6246 C   0  0  0  0  0  0  0  0  0  0  0  0
   12.8688    7.7370   22.7287 C   0  0  0  0  0  0  0  0  0  0  0  0
    7.4487    9.1361   23.6506 C   0  0  0  0  0  0  0  0  0  0  0  0
    8.9772    2.5025   22.0273 C   0  0  0  0  0  0  0  0  0  0  0  0
   10.4859    4.0901   20.9730 C   0  0  0  0  0  0  0  0  0  0  0  0
   11.0962    9.3293   23.5072 C   0  0  0  0  0  0  0  0  0  0  0  0
    5.1273    7.8529   23.6208 N   0  0  0  0  0  0  0  0  0  0  0  0
    9.7552    9.2338   23.0171 N   0  0  0  0  0  0  0  0  0  0  0  0
   11.1797    6.7591   21.3326 N   0  0  0  0  0  0  0  0  0  0  0  0
   11.7728    8.0337   23.7267 C   0  0  0  0  0  0  0  0  0  0  0  0
    7.1194    8.3344   24.6775 C   0  0  0  0  0  0  0  0  0  0  0  0
    8.4311    4.7963   22.0500 C   0  0  0  0  0  0  0  0  0  0  0  0
    8.7393   10.8706   24.1871 O   0  0  0  0  0  0  0  0  0  0  0  0
    9.3093    3.8166   21.6712 C   0  0  0  0  0  0  0  0  0  0  0  0
  1  5  1  0
  1 15  4  0
  1 22  4  0
  2 20  1  0
  2 24  1  0
  3  6  4  0
  3 27  4  0
  4 22  4  0
  4 26  4  0
  6  7  4  0
  6 13  1  0
  7 19  4  0
  8 18  1  0
  8 23  1  0
  8 28  2  0
  9 17  1  0
  9 24  1  0
 10 11  1  0
 10 24  1  0
 11 23  1  0
 12 14  4  0
 12 16  4  0
 14 19  4  0
 15 18  4  0
 16 20  4  0
 17 25  1  0
 18 26  4  0
 19 29  4  0
 20 29  4  0
 21 23  1  0
 21 25  1  0
 27 29  4  0
M  END
$$$$

 Created by Python create_sdf_string function

 29 32  0  0  0  0  0  0  0  0999 V2000
    5.4450    8.7154   22.6662 C   0  0  0  0  0  0  0  0  0  0  0  0
   10.9154    5.4574   20.5483 C   0  0  0  0  0  0  0  0  0  0  0  0
    7.2709    4.5089   22.7542 C   0  0  0  0  0  0  0  0  0  0  0  0
    5.9698    7.6329   24.6581 C   0  0  0  0  0  0  0  0  0  0  0  0
    4.5542    8.9057   21.7104 O   0  0  0  0  0  0  0  0  0  0  0  0
    6.9895    3.2085   23.0690 C   0  0  0  0  0  0  0  0  0  0  0  0
    7.8391    2.2253   22.7260 N   0  0  0  0  0  0  0  0  0  0  0  0
    8.6968    9.8373   23.6359 C   0  0  0  0  0  0  0  0  0  0  0  0
   12.5135    6.5957   21.8396 C   0  0  0  0  0  0  0  0  0  0  0  0
   10.9406    8.2330   21.1350 C   0  0  0  0  0  0  0  0  0  0  0  0
    9.6648    8.5956   21.7310 C   0  0  0  0  0  0  0  0  0  0  0  0
   10.8829    1.7153   20.9865 C   0  0  0  0  0  0  0  0  0  0  0  0
    5.7768    2.8533   23.7910 C   0  0  0  0  0  0  0  0  0  0  0  0
    9.7977    1.4791   21.6912 N   0  0  0  0  0  0  0  0  0  0  0  0
    6.5976    9.3401   22.6478 N   0  0  0  0  0  0  0  0  0  0  0  0
   11.2031    3.0042   20.6246 C   0  0  0  0  0  0  0  0  0  0  0  0
   12.8688    7.7370   22.7287 C   0  0  0  0  0  0  0  0  0  0  0  0
    7.4487    9.1361   23.6506 C   0  0  0  0  0  0  0  0  0  0  0  0
    8.9772    2.5025   22.0273 C   0  0  0  0  0  0  0  0  0  0  0  0
   10.4859    4.0901   20.9730 C   0  0  0  0  0  0  0  0  0  0  0  0
   11.0962    9.3293   23.5072 C   0  0  0  0  0  0  0  0  0  0  0  0
    5.1273    7.8529   23.6208 N   0  0  0  0  0  0  0  0  0  0  0  0
    9.7552    9.2338   23.0171 N   0  0  0  0  0  0  0  0  0  0  0  0
   11.1797    6.7591   21.3326 N   0  0  0  0  0  0  0  0  0  0  0  0
   11.7728    8.0337   23.7267 C   0  0  0  0  0  0  0  0  0  0  0  0
    7.1194    8.3344   24.6775 C   0  0  0  0  0  0  0  0  0  0  0  0
    8.4311    4.7963   22.0500 C   0  0  0  0  0  0  0  0  0  0  0  0
    8.7393   10.8706   24.1871 O   0  0  0  0  0  0  0  0  0  0  0  0
    9.3093    3.8166   21.6712 C   0  0  0  0  0  0  0  0  0  0  0  0
  1  5  1  0
  1 15  4  0
  1 22  4  0
  2 20  1  0
  2 24  1  0
  3  6  4  0
  3 27  4  0
  4 22  4  0
  4 26  4  0
  6  7  4  0
  6 13  1  0
  7 19  4  0
  8 18  1  0
  8 23  1  0
  8 28  2  0
  9 17  1  0
  9 24  1  0
 10 11  1  0
 10 24  1  0
 11 23  1  0
 12 14  4  0
 12 16  4  0
 14 19  4  0
 15 18  4  0
 16 20  4  0
 17 25  1  0
 18 26  4  0
 19 29  4  0
 20 29  4  0
 21 23  1  0
 21 25  1  0
 27 29  4  0
M  END
$$$$

 Created by Python create_sdf_string function

 29 32  0  0  0  0  0  0  0  0999 V2000
    5.4450    8.7154   22.6662 C   0  0  0  0  0  0  0  0  0  0  0  0
   10.9154    5.4574   20.5483 C   0  0  0  0  0  0  0  0  0  0  0  0
    7.2709    4.5089   22.7542 C   0  0  0  0  0  0  0  0  0  0  0  0
    5.9698    7.6329   24.6581 C   0  0  0  0  0  0  0  0  0  0  0  0
    4.5542    8.9057   21.7104 O   0  0  0  0  0  0  0  0  0  0  0  0
    6.9895    3.2085   23.0690 C   0  0  0  0  0  0  0  0  0  0  0  0
    7.8391    2.2253   22.7260 N   0  0  0  0  0  0  0  0  0  0  0  0
    8.6968    9.8373   23.6359 C   0  0  0  0  0  0  0  0  0  0  0  0
   12.5135    6.5957   21.8396 C   0  0  0  0  0  0  0  0  0  0  0  0
   10.9406    8.2330   21.1350 C   0  0  0  0  0  0  0  0  0  0  0  0
    9.6648    8.5956   21.7310 C   0  0  0  0  0  0  0  0  0  0  0  0
   10.8829    1.7153   20.9865 C   0  0  0  0  0  0  0  0  0  0  0  0
    5.7768    2.8533   23.7910 C   0  0  0  0  0  0  0  0  0  0  0  0
    9.7977    1.4791   21.6912 N   0  0  0  0  0  0  0  0  0  0  0  0
    6.5976    9.3401   22.6478 N   0  0  0  0  0  0  0  0  0  0  0  0
   11.2031    3.0042   20.6246 C   0  0  0  0  0  0  0  0  0  0  0  0
   12.8688    7.7370   22.7287 C   0  0  0  0  0  0  0  0  0  0  0  0
    7.4487    9.1361   23.6506 C   0  0  0  0  0  0  0  0  0  0  0  0
    8.9772    2.5025   22.0273 C   0  0  0  0  0  0  0  0  0  0  0  0
   10.4859    4.0901   20.9730 C   0  0  0  0  0  0  0  0  0  0  0  0
   11.0962    9.3293   23.5072 C   0  0  0  0  0  0  0  0  0  0  0  0
    5.1273    7.8529   23.6208 N   0  0  0  0  0  0  0  0  0  0  0  0
    9.7552    9.2338   23.0171 N   0  0  0  0  0  0  0  0  0  0  0  0
   11.1797    6.7591   21.3326 N   0  0  0  0  0  0  0  0  0  0  0  0
   11.7728    8.0337   23.7267 C   0  0  0  0  0  0  0  0  0  0  0  0
    7.1194    8.3344   24.6775 C   0  0  0  0  0  0  0  0  0  0  0  0
    8.4311    4.7963   22.0500 C   0  0  0  0  0  0  0  0  0  0  0  0
    8.7393   10.8706   24.1871 O   0  0  0  0  0  0  0  0  0  0  0  0
    9.3093    3.8166   21.6712 C   0  0  0  0  0  0  0  0  0  0  0  0
  1  5  1  0
  1 15  4  0
  1 22  4  0
  2 20  1  0
  2 24  1  0
  3  6  4  0
  3 27  4  0
  4 22  4  0
  4 26  4  0
  6  7  4  0
  6 13  1  0
  7 19  4  0
  8 18  1  0
  8 23  1  0
  8 28  2  0
  9 17  1  0
  9 24  1  0
 10 11  1  0
 10 24  1  0
 11 23  1  0
 12 14  4  0
 12 16  4  0
 14 19  4  0
 15 18  4  0
 16 20  4  0
 17 25  1  0
 18 26  4  0
 19 29  4  0
 20 29  4  0
 21 23  1  0
 21 25  1  0
 27 29  4  0
M  END
$$$$

 Created by Python create_sdf_string function

 29 32  0  0  0  0  0  0  0  0999 V2000
    5.4450    8.7154   22.6662 C   0  0  0  0  0  0  0  0  0  0  0  0
   10.9154    5.4574   20.5483 C   0  0  0  0  0  0  0  0  0  0  0  0
    7.2709    4.5089   22.7542 C   0  0  0  0  0  0  0  0  0  0  0  0
    5.9698    7.6329   24.6581 C   0  0  0  0  0  0  0  0  0  0  0  0
    4.5542    8.9057   21.7104 O   0  0  0  0  0  0  0  0  0  0  0  0
    6.9895    3.2085   23.0690 C   0  0  0  0  0  0  0  0  0  0  0  0
    7.8391    2.2253   22.7260 N   0  0  0  0  0  0  0  0  0  0  0  0
    8.6968    9.8373   23.6359 C   0  0  0  0  0  0  0  0  0  0  0  0
   12.5135    6.5957   21.8396 C   0  0  0  0  0  0  0  0  0  0  0  0
   10.9406    8.2330   21.1350 C   0  0  0  0  0  0  0  0  0  0  0  0
    9.6648    8.5956   21.7310 C   0  0  0  0  0  0  0  0  0  0  0  0
   10.8829    1.7153   20.9865 C   0  0  0  0  0  0  0  0  0  0  0  0
    5.7768    2.8533   23.7910 C   0  0  0  0  0  0  0  0  0  0  0  0
    9.7977    1.4791   21.6912 N   0  0  0  0  0  0  0  0  0  0  0  0
    6.5976    9.3401   22.6478 N   0  0  0  0  0  0  0  0  0  0  0  0
   11.2031    3.0042   20.6246 C   0  0  0  0  0  0  0  0  0  0  0  0
   12.8688    7.7370   22.7287 C   0  0  0  0  0  0  0  0  0  0  0  0
    7.4487    9.1361   23.6506 C   0  0  0  0  0  0  0  0  0  0  0  0
    8.9772    2.5025   22.0273 C   0  0  0  0  0  0  0  0  0  0  0  0
   10.4859    4.0901   20.9730 C   0  0  0  0  0  0  0  0  0  0  0  0
   11.0962    9.3293   23.5072 C   0  0  0  0  0  0  0  0  0  0  0  0
    5.1273    7.8529   23.6208 N   0  0  0  0  0  0  0  0  0  0  0  0
    9.7552    9.2338   23.0171 N   0  0  0  0  0  0  0  0  0  0  0  0
   11.1797    6.7591   21.3326 N   0  0  0  0  0  0  0  0  0  0  0  0
   11.7728    8.0337   23.7267 C   0  0  0  0  0  0  0  0  0  0  0  0
    7.1194    8.3344   24.6775 C   0  0  0  0  0  0  0  0  0  0  0  0
    8.4311    4.7963   22.0500 C   0  0  0  0  0  0  0  0  0  0  0  0
    8.7393   10.8706   24.1871 O   0  0  0  0  0  0  0  0  0  0  0  0
    9.3093    3.8166   21.6712 C   0  0  0  0  0  0  0  0  0  0  0  0
  1  5  1  0
  1 15  4  0
  1 22  4  0
  2 20  1  0
  2 24  1  0
  3  6  4  0
  3 27  4  0
  4 22  4  0
  4 26  4  0
  6  7  4  0
  6 13  1  0
  7 19  4  0
  8 18  1  0
  8 23  1  0
  8 28  2  0
  9 17  1  0
  9 24  1  0
 10 11  1  0
 10 24  1  0
 11 23  1  0
 12 14  4  0
 12 16  4  0
 14 19  4  0
 15 18  4  0
 16 20  4  0
 17 25  1  0
 18 26  4  0
 19 29  4  0
 20 29  4  0
 21 23  1  0
 21 25  1  0
 27 29  4  0
M  END
$$$$

 Created by Python create_sdf_string function

 29 32  0  0  0  0  0  0  0  0999 V2000
    5.4450    8.7154   22.6662 C   0  0  0  0  0  0  0  0  0  0  0  0
   10.9154    5.4574   20.5483 C   0  0  0  0  0  0  0  0  0  0  0  0
    7.2709    4.5089   22.7542 C   0  0  0  0  0  0  0  0  0  0  0  0
    5.9698    7.6329   24.6581 C   0  0  0  0  0  0  0  0  0  0  0  0
    4.5542    8.9057   21.7104 O   0  0  0  0  0  0  0  0  0  0  0  0
    6.9895    3.2085   23.0690 C   0  0  0  0  0  0  0  0  0  0  0  0
    7.8391    2.2253   22.7260 N   0  0  0  0  0  0  0  0  0  0  0  0
    8.6968    9.8373   23.6359 C   0  0  0  0  0  0  0  0  0  0  0  0
   12.5135    6.5957   21.8396 C   0  0  0  0  0  0  0  0  0  0  0  0
   10.9406    8.2330   21.1350 C   0  0  0  0  0  0  0  0  0  0  0  0
    9.6648    8.5956   21.7310 C   0  0  0  0  0  0  0  0  0  0  0  0
   10.8829    1.7153   20.9865 C   0  0  0  0  0  0  0  0  0  0  0  0
    5.7768    2.8533   23.7910 C   0  0  0  0  0  0  0  0  0  0  0  0
    9.7977    1.4791   21.6912 N   0  0  0  0  0  0  0  0  0  0  0  0
    6.5976    9.3401   22.6478 N   0  0  0  0  0  0  0  0  0  0  0  0
   11.2031    3.0042   20.6246 C   0  0  0  0  0  0  0  0  0  0  0  0
   12.8688    7.7370   22.7287 C   0  0  0  0  0  0  0  0  0  0  0  0
    7.4487    9.1361   23.6506 C   0  0  0  0  0  0  0  0  0  0  0  0
    8.9772    2.5025   22.0273 C   0  0  0  0  0  0  0  0  0  0  0  0
   10.4859    4.0901   20.9730 C   0  0  0  0  0  0  0  0  0  0  0  0
   11.0962    9.3293   23.5072 C   0  0  0  0  0  0  0  0  0  0  0  0
    5.1273    7.8529   23.6208 N   0  0  0  0  0  0  0  0  0  0  0  0
    9.7552    9.2338   23.0171 N   0  0  0  0  0  0  0  0  0  0  0  0
   11.1797    6.7591   21.3326 N   0  0  0  0  0  0  0  0  0  0  0  0
   11.7728    8.0337   23.7267 C   0  0  0  0  0  0  0  0  0  0  0  0
    7.1194    8.3344   24.6775 C   0  0  0  0  0  0  0  0  0  0  0  0
    8.4311    4.7963   22.0500 C   0  0  0  0  0  0  0  0  0  0  0  0
    8.7393   10.8706   24.1871 O   0  0  0  0  0  0  0  0  0  0  0  0
    9.3093    3.8166   21.6712 C   0  0  0  0  0  0  0  0  0  0  0  0
  1  5  1  0
  1 15  4  0
  1 22  4  0
  2 20  1  0
  2 24  1  0
  3  6  4  0
  3 27  4  0
  4 22  4  0
  4 26  4  0
  6  7  4  0
  6 13  1  0
  7 19  4  0
  8 18  1  0
  8 23  1  0
  8 28  2  0
  9 17  1  0
  9 24  1  0
 10 11  1  0
 10 24  1  0
 11 23  1  0
 12 14  4  0
 12 16  4  0
 14 19  4  0
 15 18  4  0
 16 20  4  0
 17 25  1  0
 18 26  4  0
 19 29  4  0
 20 29  4  0
 21 23  1  0
 21 25  1  0
 27 29  4  0
M  END
$$$$

 Created by Python create_sdf_string function

 29 32  0  0  0  0  0  0  0  0999 V2000
    5.4450    8.7154   22.6662 C   0  0  0  0  0  0  0  0  0  0  0  0
   10.9154    5.4574   20.5483 C   0  0  0  0  0  0  0  0  0  0  0  0
    7.2709    4.5089   22.7542 C   0  0  0  0  0  0  0  0  0  0  0  0
    5.9698    7.6329   24.6581 C   0  0  0  0  0  0  0  0  0  0  0  0
    4.5542    8.9057   21.7104 O   0  0  0  0  0  0  0  0  0  0  0  0
    6.9895    3.2085   23.0690 C   0  0  0  0  0  0  0  0  0  0  0  0
    7.8391    2.2253   22.7260 N   0  0  0  0  0  0  0  0  0  0  0  0
    8.6968    9.8373   23.6359 C   0  0  0  0  0  0  0  0  0  0  0  0
   12.5135    6.5957   21.8396 C   0  0  0  0  0  0  0  0  0  0  0  0
   10.9406    8.2330   21.1350 C   0  0  0  0  0  0  0  0  0  0  0  0
    9.6648    8.5956   21.7310 C   0  0  0  0  0  0  0  0  0  0  0  0
   10.8829    1.7153   20.9865 C   0  0  0  0  0  0  0  0  0  0  0  0
    5.7768    2.8533   23.7910 C   0  0  0  0  0  0  0  0  0  0  0  0
    9.7977    1.4791   21.6912 N   0  0  0  0  0  0  0  0  0  0  0  0
    6.5976    9.3401   22.6478 N   0  0  0  0  0  0  0  0  0  0  0  0
   11.2031    3.0042   20.6246 C   0  0  0  0  0  0  0  0  0  0  0  0
   12.8688    7.7370   22.7287 C   0  0  0  0  0  0  0  0  0  0  0  0
    7.4487    9.1361   23.6506 C   0  0  0  0  0  0  0  0  0  0  0  0
    8.9772    2.5025   22.0273 C   0  0  0  0  0  0  0  0  0  0  0  0
   10.4859    4.0901   20.9730 C   0  0  0  0  0  0  0  0  0  0  0  0
   11.0962    9.3293   23.5072 C   0  0  0  0  0  0  0  0  0  0  0  0
    5.1273    7.8529   23.6208 N   0  0  0  0  0  0  0  0  0  0  0  0
    9.7552    9.2338   23.0171 N   0  0  0  0  0  0  0  0  0  0  0  0
   11.1797    6.7591   21.3326 N   0  0  0  0  0  0  0  0  0  0  0  0
   11.7728    8.0337   23.7267 C   0  0  0  0  0  0  0  0  0  0  0  0
    7.1194    8.3344   24.6775 C   0  0  0  0  0  0  0  0  0  0  0  0
    8.4311    4.7963   22.0500 C   0  0  0  0  0  0  0  0  0  0  0  0
    8.7393   10.8706   24.1871 O   0  0  0  0  0  0  0  0  0  0  0  0
    9.3093    3.8166   21.6712 C   0  0  0  0  0  0  0  0  0  0  0  0
  1  5  1  0
  1 15  4  0
  1 22  4  0
  2 20  1  0
  2 24  1  0
  3  6  4  0
  3 27  4  0
  4 22  4  0
  4 26  4  0
  6  7  4  0
  6 13  1  0
  7 19  4  0
  8 18  1  0
  8 23  1  0
  8 28  2  0
  9 17  1  0
  9 24  1  0
 10 11  1  0
 10 24  1  0
 11 23  1  0
 12 14  4  0
 12 16  4  0
 14 19  4  0
 15 18  4  0
 16 20  4  0
 17 25  1  0
 18 26  4  0
 19 29  4  0
 20 29  4  0
 21 23  1  0
 21 25  1  0
 27 29  4  0
M  END
$$$$

 Created by Python create_sdf_string function

 29 32  0  0  0  0  0  0  0  0999 V2000
    5.4450    8.7154   22.6662 C   0  0  0  0  0  0  0  0  0  0  0  0
   10.9154    5.4574   20.5483 C   0  0  0  0  0  0  0  0  0  0  0  0
    7.2709    4.5089   22.7542 C   0  0  0  0  0  0  0  0  0  0  0  0
    5.9698    7.6329   24.6581 C   0  0  0  0  0  0  0  0  0  0  0  0
    4.5542    8.9057   21.7104 O   0  0  0  0  0  0  0  0  0  0  0  0
    6.9895    3.2085   23.0690 C   0  0  0  0  0  0  0  0  0  0  0  0
    7.8391    2.2253   22.7260 N   0  0  0  0  0  0  0  0  0  0  0  0
    8.6968    9.8373   23.6359 C   0  0  0  0  0  0  0  0  0  0  0  0
   12.5135    6.5957   21.8396 C   0  0  0  0  0  0  0  0  0  0  0  0
   10.9406    8.2330   21.1350 C   0  0  0  0  0  0  0  0  0  0  0  0
    9.6648    8.5956   21.7310 C   0  0  0  0  0  0  0  0  0  0  0  0
   10.8829    1.7153   20.9865 C   0  0  0  0  0  0  0  0  0  0  0  0
    5.7768    2.8533   23.7910 C   0  0  0  0  0  0  0  0  0  0  0  0
    9.7977    1.4791   21.6912 N   0  0  0  0  0  0  0  0  0  0  0  0
    6.5976    9.3401   22.6478 N   0  0  0  0  0  0  0  0  0  0  0  0
   11.2031    3.0042   20.6246 C   0  0  0  0  0  0  0  0  0  0  0  0
   12.8688    7.7370   22.7287 C   0  0  0  0  0  0  0  0  0  0  0  0
    7.4487    9.1361   23.6506 C   0  0  0  0  0  0  0  0  0  0  0  0
    8.9772    2.5025   22.0273 C   0  0  0  0  0  0  0  0  0  0  0  0
   10.4859    4.0901   20.9730 C   0  0  0  0  0  0  0  0  0  0  0  0
   11.0962    9.3293   23.5072 C   0  0  0  0  0  0  0  0  0  0  0  0
    5.1273    7.8529   23.6208 N   0  0  0  0  0  0  0  0  0  0  0  0
    9.7552    9.2338   23.0171 N   0  0  0  0  0  0  0  0  0  0  0  0
   11.1797    6.7591   21.3326 N   0  0  0  0  0  0  0  0  0  0  0  0
   11.7728    8.0337   23.7267 C   0  0  0  0  0  0  0  0  0  0  0  0
    7.1194    8.3344   24.6775 C   0  0  0  0  0  0  0  0  0  0  0  0
    8.4311    4.7963   22.0500 C   0  0  0  0  0  0  0  0  0  0  0  0
    8.7393   10.8706   24.1871 O   0  0  0  0  0  0  0  0  0  0  0  0
    9.3093    3.8166   21.6712 C   0  0  0  0  0  0  0  0  0  0  0  0
  1  5  1  0
  1 15  4  0
  1 22  4  0
  2 20  1  0
  2 24  1  0
  3  6  4  0
  3 27  4  0
  4 22  4  0
  4 26  4  0
  6  7  4  0
  6 13  1  0
  7 19  4  0
  8 18  1  0
  8 23  1  0
  8 28  2  0
  9 17  1  0
  9 24  1  0
 10 11  1  0
 10 24  1  0
 11 23  1  0
 12 14  4  0
 12 16  4  0
 14 19  4  0
 15 18  4  0
 16 20  4  0
 17 25  1  0
 18 26  4  0
 19 29  4  0
 20 29  4  0
 21 23  1  0
 21 25  1  0
 27 29  4  0
M  END
$$$$

 Created by Python create_sdf_string function

 29 32  0  0  0  0  0  0  0  0999 V2000
    5.4450    8.7154   22.6662 C   0  0  0  0  0  0  0  0  0  0  0  0
   10.9154    5.4574   20.5483 C   0  0  0  0  0  0  0  0  0  0  0  0
    7.2709    4.5089   22.7542 C   0  0  0  0  0  0  0  0  0  0  0  0
    5.9698    7.6329   24.6581 C   0  0  0  0  0  0  0  0  0  0  0  0
    4.5542    8.9057   21.7104 O   0  0  0  0  0  0  0  0  0  0  0  0
    6.9895    3.2085   23.0690 C   0  0  0  0  0  0  0  0  0  0  0  0
    7.8391    2.2253   22.7260 N   0  0  0  0  0  0  0  0  0  0  0  0
    8.6968    9.8373   23.6359 C   0  0  0  0  0  0  0  0  0  0  0  0
   12.5135    6.5957   21.8396 C   0  0  0  0  0  0  0  0  0  0  0  0
   10.9406    8.2330   21.1350 C   0  0  0  0  0  0  0  0  0  0  0  0
    9.6648    8.5956   21.7310 C   0  0  0  0  0  0  0  0  0  0  0  0
   10.8829    1.7153   20.9865 C   0  0  0  0  0  0  0  0  0  0  0  0
    5.7768    2.8533   23.7910 C   0  0  0  0  0  0  0  0  0  0  0  0
    9.7977    1.4791   21.6912 N   0  0  0  0  0  0  0  0  0  0  0  0
    6.5976    9.3401   22.6478 N   0  0  0  0  0  0  0  0  0  0  0  0
   11.2031    3.0042   20.6246 C   0  0  0  0  0  0  0  0  0  0  0  0
   12.8688    7.7370   22.7287 C   0  0  0  0  0  0  0  0  0  0  0  0
    7.4487    9.1361   23.6506 C   0  0  0  0  0  0  0  0  0  0  0  0
    8.9772    2.5025   22.0273 C   0  0  0  0  0  0  0  0  0  0  0  0
   10.4859    4.0901   20.9730 C   0  0  0  0  0  0  0  0  0  0  0  0
   11.0962    9.3293   23.5072 C   0  0  0  0  0  0  0  0  0  0  0  0
    5.1273    7.8529   23.6208 N   0  0  0  0  0  0  0  0  0  0  0  0
    9.7552    9.2338   23.0171 N   0  0  0  0  0  0  0  0  0  0  0  0
   11.1797    6.7591   21.3326 N   0  0  0  0  0  0  0  0  0  0  0  0
   11.7728    8.0337   23.7267 C   0  0  0  0  0  0  0  0  0  0  0  0
    7.1194    8.3344   24.6775 C   0  0  0  0  0  0  0  0  0  0  0  0
    8.4311    4.7963   22.0500 C   0  0  0  0  0  0  0  0  0  0  0  0
    8.7393   10.8706   24.1871 O   0  0  0  0  0  0  0  0  0  0  0  0
    9.3093    3.8166   21.6712 C   0  0  0  0  0  0  0  0  0  0  0  0
  1  5  1  0
  1 15  4  0
  1 22  4  0
  2 20  1  0
  2 24  1  0
  3  6  4  0
  3 27  4  0
  4 22  4  0
  4 26  4  0
  6  7  4  0
  6 13  1  0
  7 19  4  0
  8 18  1  0
  8 23  1  0
  8 28  2  0
  9 17  1  0
  9 24  1  0
 10 11  1  0
 10 24  1  0
 11 23  1  0
 12 14  4  0
 12 16  4  0
 14 19  4  0
 15 18  4  0
 16 20  4  0
 17 25  1  0
 18 26  4  0
 19 29  4  0
 20 29  4  0
 21 23  1  0
 21 25  1  0
 27 29  4  0
M  END
$$$$

 Created by Python create_sdf_string function

 29 32  0  0  0  0  0  0  0  0999 V2000
    5.4450    8.7154   22.6662 C   0  0  0  0  0  0  0  0  0  0  0  0
   10.9154    5.4574   20.5483 C   0  0  0  0  0  0  0  0  0  0  0  0
    7.2709    4.5089   22.7542 C   0  0  0  0  0  0  0  0  0  0  0  0
    5.9698    7.6329   24.6581 C   0  0  0  0  0  0  0  0  0  0  0  0
    4.5542    8.9057   21.7104 O   0  0  0  0  0  0  0  0  0  0  0  0
    6.9895    3.2085   23.0690 C   0  0  0  0  0  0  0  0  0  0  0  0
    7.8391    2.2253   22.7260 N   0  0  0  0  0  0  0  0  0  0  0  0
    8.6968    9.8373   23.6359 C   0  0  0  0  0  0  0  0  0  0  0  0
   12.5135    6.5957   21.8396 C   0  0  0  0  0  0  0  0  0  0  0  0
   10.9406    8.2330   21.1350 C   0  0  0  0  0  0  0  0  0  0  0  0
    9.6648    8.5956   21.7310 C   0  0  0  0  0  0  0  0  0  0  0  0
   10.8829    1.7153   20.9865 C   0  0  0  0  0  0  0  0  0  0  0  0
    5.7768    2.8533   23.7910 C   0  0  0  0  0  0  0  0  0  0  0  0
    9.7977    1.4791   21.6912 N   0  0  0  0  0  0  0  0  0  0  0  0
    6.5976    9.3401   22.6478 N   0  0  0  0  0  0  0  0  0  0  0  0
   11.2031    3.0042   20.6246 C   0  0  0  0  0  0  0  0  0  0  0  0
   12.8688    7.7370   22.7287 C   0  0  0  0  0  0  0  0  0  0  0  0
    7.4487    9.1361   23.6506 C   0  0  0  0  0  0  0  0  0  0  0  0
    8.9772    2.5025   22.0273 C   0  0  0  0  0  0  0  0  0  0  0  0
   10.4859    4.0901   20.9730 C   0  0  0  0  0  0  0  0  0  0  0  0
   11.0962    9.3293   23.5072 C   0  0  0  0  0  0  0  0  0  0  0  0
    5.1273    7.8529   23.6208 N   0  0  0  0  0  0  0  0  0  0  0  0
    9.7552    9.2338   23.0171 N   0  0  0  0  0  0  0  0  0  0  0  0
   11.1797    6.7591   21.3326 N   0  0  0  0  0  0  0  0  0  0  0  0
   11.7728    8.0337   23.7267 C   0  0  0  0  0  0  0  0  0  0  0  0
    7.1194    8.3344   24.6775 C   0  0  0  0  0  0  0  0  0  0  0  0
    8.4311    4.7963   22.0500 C   0  0  0  0  0  0  0  0  0  0  0  0
    8.7393   10.8706   24.1871 O   0  0  0  0  0  0  0  0  0  0  0  0
    9.3093    3.8166   21.6712 C   0  0  0  0  0  0  0  0  0  0  0  0
  1  5  1  0
  1 15  4  0
  1 22  4  0
  2 20  1  0
  2 24  1  0
  3  6  4  0
  3 27  4  0
  4 22  4  0
  4 26  4  0
  6  7  4  0
  6 13  1  0
  7 19  4  0
  8 18  1  0
  8 23  1  0
  8 28  2  0
  9 17  1  0
  9 24  1  0
 10 11  1  0
 10 24  1  0
 11 23  1  0
 12 14  4  0
 12 16  4  0
 14 19  4  0
 15 18  4  0
 16 20  4  0
 17 25  1  0
 18 26  4  0
 19 29  4  0
 20 29  4  0
 21 23  1  0
 21 25  1  0
 27 29  4  0
M  END
$$$$

 Created by Python create_sdf_string function

 29 32  0  0  0  0  0  0  0  0999 V2000
    5.4450    8.7154   22.6662 C   0  0  0  0  0  0  0  0  0  0  0  0
   10.9154    5.4574   20.5483 C   0  0  0  0  0  0  0  0  0  0  0  0
    7.2709    4.5089   22.7542 C   0  0  0  0  0  0  0  0  0  0  0  0
    5.9698    7.6329   24.6581 C   0  0  0  0  0  0  0  0  0  0  0  0
    4.5542    8.9057   21.7104 O   0  0  0  0  0  0  0  0  0  0  0  0
    6.9895    3.2085   23.0690 C   0  0  0  0  0  0  0  0  0  0  0  0
    7.8391    2.2253   22.7260 N   0  0  0  0  0  0  0  0  0  0  0  0
    8.6968    9.8373   23.6359 C   0  0  0  0  0  0  0  0  0  0  0  0
   12.5135    6.5957   21.8396 C   0  0  0  0  0  0  0  0  0  0  0  0
   10.9406    8.2330   21.1350 C   0  0  0  0  0  0  0  0  0  0  0  0
    9.6648    8.5956   21.7310 C   0  0  0  0  0  0  0  0  0  0  0  0
   10.8829    1.7153   20.9865 C   0  0  0  0  0  0  0  0  0  0  0  0
    5.7768    2.8533   23.7910 C   0  0  0  0  0  0  0  0  0  0  0  0
    9.7977    1.4791   21.6912 N   0  0  0  0  0  0  0  0  0  0  0  0
    6.5976    9.3401   22.6478 N   0  0  0  0  0  0  0  0  0  0  0  0
   11.2031    3.0042   20.6246 C   0  0  0  0  0  0  0  0  0  0  0  0
   12.8688    7.7370   22.7287 C   0  0  0  0  0  0  0  0  0  0  0  0
    7.4487    9.1361   23.6506 C   0  0  0  0  0  0  0  0  0  0  0  0
    8.9772    2.5025   22.0273 C   0  0  0  0  0  0  0  0  0  0  0  0
   10.4859    4.0901   20.9730 C   0  0  0  0  0  0  0  0  0  0  0  0
   11.0962    9.3293   23.5072 C   0  0  0  0  0  0  0  0  0  0  0  0
    5.1273    7.8529   23.6208 N   0  0  0  0  0  0  0  0  0  0  0  0
    9.7552    9.2338   23.0171 N   0  0  0  0  0  0  0  0  0  0  0  0
   11.1797    6.7591   21.3326 N   0  0  0  0  0  0  0  0  0  0  0  0
   11.7728    8.0337   23.7267 C   0  0  0  0  0  0  0  0  0  0  0  0
    7.1194    8.3344   24.6775 C   0  0  0  0  0  0  0  0  0  0  0  0
    8.4311    4.7963   22.0500 C   0  0  0  0  0  0  0  0  0  0  0  0
    8.7393   10.8706   24.1871 O   0  0  0  0  0  0  0  0  0  0  0  0
    9.3093    3.8166   21.6712 C   0  0  0  0  0  0  0  0  0  0  0  0
  1  5  1  0
  1 15  4  0
  1 22  4  0
  2 20  1  0
  2 24  1  0
  3  6  4  0
  3 27  4  0
  4 22  4  0
  4 26  4  0
  6  7  4  0
  6 13  1  0
  7 19  4  0
  8 18  1  0
  8 23  1  0
  8 28  2  0
  9 17  1  0
  9 24  1  0
 10 11  1  0
 10 24  1  0
 11 23  1  0
 12 14  4  0
 12 16  4  0
 14 19  4  0
 15 18  4  0
 16 20  4  0
 17 25  1  0
 18 26  4  0
 19 29  4  0
 20 29  4  0
 21 23  1  0
 21 25  1  0
 27 29  4  0
M  END
$$$$

 Created by Python create_sdf_string function

 29 32  0  0  0  0  0  0  0  0999 V2000
    5.4450    8.7154   22.6662 C   0  0  0  0  0  0  0  0  0  0  0  0
   10.9154    5.4574   20.5483 C   0  0  0  0  0  0  0  0  0  0  0  0
    7.2709    4.5089   22.7542 C   0  0  0  0  0  0  0  0  0  0  0  0
    5.9698    7.6329   24.6581 C   0  0  0  0  0  0  0  0  0  0  0  0
    4.5542    8.9057   21.7104 O   0  0  0  0  0  0  0  0  0  0  0  0
    6.9895    3.2085   23.0690 C   0  0  0  0  0  0  0  0  0  0  0  0
    7.8391    2.2253   22.7260 N   0  0  0  0  0  0  0  0  0  0  0  0
    8.6968    9.8373   23.6359 C   0  0  0  0  0  0  0  0  0  0  0  0
   12.5135    6.5957   21.8396 C   0  0  0  0  0  0  0  0  0  0  0  0
   10.9406    8.2330   21.1350 C   0  0  0  0  0  0  0  0  0  0  0  0
    9.6648    8.5956   21.7310 C   0  0  0  0  0  0  0  0  0  0  0  0
   10.8829    1.7153   20.9865 C   0  0  0  0  0  0  0  0  0  0  0  0
    5.7768    2.8533   23.7910 C   0  0  0  0  0  0  0  0  0  0  0  0
    9.7977    1.4791   21.6912 N   0  0  0  0  0  0  0  0  0  0  0  0
    6.5976    9.3401   22.6478 N   0  0  0  0  0  0  0  0  0  0  0  0
   11.2031    3.0042   20.6246 C   0  0  0  0  0  0  0  0  0  0  0  0
   12.8688    7.7370   22.7287 C   0  0  0  0  0  0  0  0  0  0  0  0
    7.4487    9.1361   23.6506 C   0  0  0  0  0  0  0  0  0  0  0  0
    8.9772    2.5025   22.0273 C   0  0  0  0  0  0  0  0  0  0  0  0
   10.4859    4.0901   20.9730 C   0  0  0  0  0  0  0  0  0  0  0  0
   11.0962    9.3293   23.5072 C   0  0  0  0  0  0  0  0  0  0  0  0
    5.1273    7.8529   23.6208 N   0  0  0  0  0  0  0  0  0  0  0  0
    9.7552    9.2338   23.0171 N   0  0  0  0  0  0  0  0  0  0  0  0
   11.1797    6.7591   21.3326 N   0  0  0  0  0  0  0  0  0  0  0  0
   11.7728    8.0337   23.7267 C   0  0  0  0  0  0  0  0  0  0  0  0
    7.1194    8.3344   24.6775 C   0  0  0  0  0  0  0  0  0  0  0  0
    8.4311    4.7963   22.0500 C   0  0  0  0  0  0  0  0  0  0  0  0
    8.7393   10.8706   24.1871 O   0  0  0  0  0  0  0  0  0  0  0  0
    9.3093    3.8166   21.6712 C   0  0  0  0  0  0  0  0  0  0  0  0
  1  5  1  0
  1 15  4  0
  1 22  4  0
  2 20  1  0
  2 24  1  0
  3  6  4  0
  3 27  4  0
  4 22  4  0
  4 26  4  0
  6  7  4  0
  6 13  1  0
  7 19  4  0
  8 18  1  0
  8 23  1  0
  8 28  2  0
  9 17  1  0
  9 24  1  0
 10 11  1  0
 10 24  1  0
 11 23  1  0
 12 14  4  0
 12 16  4  0
 14 19  4  0
 15 18  4  0
 16 20  4  0
 17 25  1  0
 18 26  4  0
 19 29  4  0
 20 29  4  0
 21 23  1  0
 21 25  1  0
 27 29  4  0
M  END
$$$$

 Created by Python create_sdf_string function

 29 32  0  0  0  0  0  0  0  0999 V2000
    5.4450    8.7154   22.6662 C   0  0  0  0  0  0  0  0  0  0  0  0
   10.9154    5.4574   20.5483 C   0  0  0  0  0  0  0  0  0  0  0  0
    7.2709    4.5089   22.7542 C   0  0  0  0  0  0  0  0  0  0  0  0
    5.9698    7.6329   24.6581 C   0  0  0  0  0  0  0  0  0  0  0  0
    4.5542    8.9057   21.7104 O   0  0  0  0  0  0  0  0  0  0  0  0
    6.9895    3.2085   23.0690 C   0  0  0  0  0  0  0  0  0  0  0  0
    7.8391    2.2253   22.7260 N   0  0  0  0  0  0  0  0  0  0  0  0
    8.6968    9.8373   23.6359 C   0  0  0  0  0  0  0  0  0  0  0  0
   12.5135    6.5957   21.8396 C   0  0  0  0  0  0  0  0  0  0  0  0
   10.9406    8.2330   21.1350 C   0  0  0  0  0  0  0  0  0  0  0  0
    9.6648    8.5956   21.7310 C   0  0  0  0  0  0  0  0  0  0  0  0
   10.8829    1.7153   20.9865 C   0  0  0  0  0  0  0  0  0  0  0  0
    5.7768    2.8533   23.7910 C   0  0  0  0  0  0  0  0  0  0  0  0
    9.7977    1.4791   21.6912 N   0  0  0  0  0  0  0  0  0  0  0  0
    6.5976    9.3401   22.6478 N   0  0  0  0  0  0  0  0  0  0  0  0
   11.2031    3.0042   20.6246 C   0  0  0  0  0  0  0  0  0  0  0  0
   12.8688    7.7370   22.7287 C   0  0  0  0  0  0  0  0  0  0  0  0
    7.4487    9.1361   23.6506 C   0  0  0  0  0  0  0  0  0  0  0  0
    8.9772    2.5025   22.0273 C   0  0  0  0  0  0  0  0  0  0  0  0
   10.4859    4.0901   20.9730 C   0  0  0  0  0  0  0  0  0  0  0  0
   11.0962    9.3293   23.5072 C   0  0  0  0  0  0  0  0  0  0  0  0
    5.1273    7.8529   23.6208 N   0  0  0  0  0  0  0  0  0  0  0  0
    9.7552    9.2338   23.0171 N   0  0  0  0  0  0  0  0  0  0  0  0
   11.1797    6.7591   21.3326 N   0  0  0  0  0  0  0  0  0  0  0  0
   11.7728    8.0337   23.7267 C   0  0  0  0  0  0  0  0  0  0  0  0
    7.1194    8.3344   24.6775 C   0  0  0  0  0  0  0  0  0  0  0  0
    8.4311    4.7963   22.0500 C   0  0  0  0  0  0  0  0  0  0  0  0
    8.7393   10.8706   24.1871 O   0  0  0  0  0  0  0  0  0  0  0  0
    9.3093    3.8166   21.6712 C   0  0  0  0  0  0  0  0  0  0  0  0
  1  5  1  0
  1 15  4  0
  1 22  4  0
  2 20  1  0
  2 24  1  0
  3  6  4  0
  3 27  4  0
  4 22  4  0
  4 26  4  0
  6  7  4  0
  6 13  1  0
  7 19  4  0
  8 18  1  0
  8 23  1  0
  8 28  2  0
  9 17  1  0
  9 24  1  0
 10 11  1  0
 10 24  1  0
 11 23  1  0
 12 14  4  0
 12 16  4  0
 14 19  4  0
 15 18  4  0
 16 20  4  0
 17 25  1  0
 18 26  4  0
 19 29  4  0
 20 29  4  0
 21 23  1  0
 21 25  1  0
 27 29  4  0
M  END
$$$$

 Created by Python create_sdf_string function

 29 32  0  0  0  0  0  0  0  0999 V2000
    5.4450    8.7154   22.6662 C   0  0  0  0  0  0  0  0  0  0  0  0
   10.9154    5.4574   20.5483 C   0  0  0  0  0  0  0  0  0  0  0  0
    7.2709    4.5089   22.7542 C   0  0  0  0  0  0  0  0  0  0  0  0
    5.9698    7.6329   24.6581 C   0  0  0  0  0  0  0  0  0  0  0  0
    4.5542    8.9057   21.7104 O   0  0  0  0  0  0  0  0  0  0  0  0
    6.9895    3.2085   23.0690 C   0  0  0  0  0  0  0  0  0  0  0  0
    7.8391    2.2253   22.7260 N   0  0  0  0  0  0  0  0  0  0  0  0
    8.6968    9.8373   23.6359 C   0  0  0  0  0  0  0  0  0  0  0  0
   12.5135    6.5957   21.8396 C   0  0  0  0  0  0  0  0  0  0  0  0
   10.9406    8.2330   21.1350 C   0  0  0  0  0  0  0  0  0  0  0  0
    9.6648    8.5956   21.7310 C   0  0  0  0  0  0  0  0  0  0  0  0
   10.8829    1.7153   20.9865 C   0  0  0  0  0  0  0  0  0  0  0  0
    5.7768    2.8533   23.7910 C   0  0  0  0  0  0  0  0  0  0  0  0
    9.7977    1.4791   21.6912 N   0  0  0  0  0  0  0  0  0  0  0  0
    6.5976    9.3401   22.6478 N   0  0  0  0  0  0  0  0  0  0  0  0
   11.2031    3.0042   20.6246 C   0  0  0  0  0  0  0  0  0  0  0  0
   12.8688    7.7370   22.7287 C   0  0  0  0  0  0  0  0  0  0  0  0
    7.4487    9.1361   23.6506 C   0  0  0  0  0  0  0  0  0  0  0  0
    8.9772    2.5025   22.0273 C   0  0  0  0  0  0  0  0  0  0  0  0
   10.4859    4.0901   20.9730 C   0  0  0  0  0  0  0  0  0  0  0  0
   11.0962    9.3293   23.5072 C   0  0  0  0  0  0  0  0  0  0  0  0
    5.1273    7.8529   23.6208 N   0  0  0  0  0  0  0  0  0  0  0  0
    9.7552    9.2338   23.0171 N   0  0  0  0  0  0  0  0  0  0  0  0
   11.1797    6.7591   21.3326 N   0  0  0  0  0  0  0  0  0  0  0  0
   11.7728    8.0337   23.7267 C   0  0  0  0  0  0  0  0  0  0  0  0
    7.1194    8.3344   24.6775 C   0  0  0  0  0  0  0  0  0  0  0  0
    8.4311    4.7963   22.0500 C   0  0  0  0  0  0  0  0  0  0  0  0
    8.7393   10.8706   24.1871 O   0  0  0  0  0  0  0  0  0  0  0  0
    9.3093    3.8166   21.6712 C   0  0  0  0  0  0  0  0  0  0  0  0
  1  5  1  0
  1 15  4  0
  1 22  4  0
  2 20  1  0
  2 24  1  0
  3  6  4  0
  3 27  4  0
  4 22  4  0
  4 26  4  0
  6  7  4  0
  6 13  1  0
  7 19  4  0
  8 18  1  0
  8 23  1  0
  8 28  2  0
  9 17  1  0
  9 24  1  0
 10 11  1  0
 10 24  1  0
 11 23  1  0
 12 14  4  0
 12 16  4  0
 14 19  4  0
 15 18  4  0
 16 20  4  0
 17 25  1  0
 18 26  4  0
 19 29  4  0
 20 29  4  0
 21 23  1  0
 21 25  1  0
 27 29  4  0
M  END
$$$$

 Created by Python create_sdf_string function

 29 32  0  0  0  0  0  0  0  0999 V2000
    5.4450    8.7154   22.6662 C   0  0  0  0  0  0  0  0  0  0  0  0
   10.9154    5.4574   20.5483 C   0  0  0  0  0  0  0  0  0  0  0  0
    7.2709    4.5089   22.7542 C   0  0  0  0  0  0  0  0  0  0  0  0
    5.9698    7.6329   24.6581 C   0  0  0  0  0  0  0  0  0  0  0  0
    4.5542    8.9057   21.7104 O   0  0  0  0  0  0  0  0  0  0  0  0
    6.9895    3.2085   23.0690 C   0  0  0  0  0  0  0  0  0  0  0  0
    7.8391    2.2253   22.7260 N   0  0  0  0  0  0  0  0  0  0  0  0
    8.6968    9.8373   23.6359 C   0  0  0  0  0  0  0  0  0  0  0  0
   12.5135    6.5957   21.8396 C   0  0  0  0  0  0  0  0  0  0  0  0
   10.9406    8.2330   21.1350 C   0  0  0  0  0  0  0  0  0  0  0  0
    9.6648    8.5956   21.7310 C   0  0  0  0  0  0  0  0  0  0  0  0
   10.8829    1.7153   20.9865 C   0  0  0  0  0  0  0  0  0  0  0  0
    5.7768    2.8533   23.7910 C   0  0  0  0  0  0  0  0  0  0  0  0
    9.7977    1.4791   21.6912 N   0  0  0  0  0  0  0  0  0  0  0  0
    6.5976    9.3401   22.6478 N   0  0  0  0  0  0  0  0  0  0  0  0
   11.2031    3.0042   20.6246 C   0  0  0  0  0  0  0  0  0  0  0  0
   12.8688    7.7370   22.7287 C   0  0  0  0  0  0  0  0  0  0  0  0
    7.4487    9.1361   23.6506 C   0  0  0  0  0  0  0  0  0  0  0  0
    8.9772    2.5025   22.0273 C   0  0  0  0  0  0  0  0  0  0  0  0
   10.4859    4.0901   20.9730 C   0  0  0  0  0  0  0  0  0  0  0  0
   11.0962    9.3293   23.5072 C   0  0  0  0  0  0  0  0  0  0  0  0
    5.1273    7.8529   23.6208 N   0  0  0  0  0  0  0  0  0  0  0  0
    9.7552    9.2338   23.0171 N   0  0  0  0  0  0  0  0  0  0  0  0
   11.1797    6.7591   21.3326 N   0  0  0  0  0  0  0  0  0  0  0  0
   11.7728    8.0337   23.7267 C   0  0  0  0  0  0  0  0  0  0  0  0
    7.1194    8.3344   24.6775 C   0  0  0  0  0  0  0  0  0  0  0  0
    8.4311    4.7963   22.0500 C   0  0  0  0  0  0  0  0  0  0  0  0
    8.7393   10.8706   24.1871 O   0  0  0  0  0  0  0  0  0  0  0  0
    9.3093    3.8166   21.6712 C   0  0  0  0  0  0  0  0  0  0  0  0
  1  5  1  0
  1 15  4  0
  1 22  4  0
  2 20  1  0
  2 24  1  0
  3  6  4  0
  3 27  4  0
  4 22  4  0
  4 26  4  0
  6  7  4  0
  6 13  1  0
  7 19  4  0
  8 18  1  0
  8 23  1  0
  8 28  2  0
  9 17  1  0
  9 24  1  0
 10 11  1  0
 10 24  1  0
 11 23  1  0
 12 14  4  0
 12 16  4  0
 14 19  4  0
 15 18  4  0
 16 20  4  0
 17 25  1  0
 18 26  4  0
 19 29  4  0
 20 29  4  0
 21 23  1  0
 21 25  1  0
 27 29  4  0
M  END
$$$$

 Created by Python create_sdf_string function

 29 32  0  0  0  0  0  0  0  0999 V2000
    5.4450    8.7154   22.6662 C   0  0  0  0  0  0  0  0  0  0  0  0
   10.9154    5.4574   20.5483 C   0  0  0  0  0  0  0  0  0  0  0  0
    7.2709    4.5089   22.7542 C   0  0  0  0  0  0  0  0  0  0  0  0
    5.9698    7.6329   24.6581 C   0  0  0  0  0  0  0  0  0  0  0  0
    4.5542    8.9057   21.7104 O   0  0  0  0  0  0  0  0  0  0  0  0
    6.9895    3.2085   23.0690 C   0  0  0  0  0  0  0  0  0  0  0  0
    7.8391    2.2253   22.7260 N   0  0  0  0  0  0  0  0  0  0  0  0
    8.6968    9.8373   23.6359 C   0  0  0  0  0  0  0  0  0  0  0  0
   12.5135    6.5957   21.8396 C   0  0  0  0  0  0  0  0  0  0  0  0
   10.9406    8.2330   21.1350 C   0  0  0  0  0  0  0  0  0  0  0  0
    9.6648    8.5956   21.7310 C   0  0  0  0  0  0  0  0  0  0  0  0
   10.8829    1.7153   20.9865 C   0  0  0  0  0  0  0  0  0  0  0  0
    5.7768    2.8533   23.7910 C   0  0  0  0  0  0  0  0  0  0  0  0
    9.7977    1.4791   21.6912 N   0  0  0  0  0  0  0  0  0  0  0  0
    6.5976    9.3401   22.6478 N   0  0  0  0  0  0  0  0  0  0  0  0
   11.2031    3.0042   20.6246 C   0  0  0  0  0  0  0  0  0  0  0  0
   12.8688    7.7370   22.7287 C   0  0  0  0  0  0  0  0  0  0  0  0
    7.4487    9.1361   23.6506 C   0  0  0  0  0  0  0  0  0  0  0  0
    8.9772    2.5025   22.0273 C   0  0  0  0  0  0  0  0  0  0  0  0
   10.4859    4.0901   20.9730 C   0  0  0  0  0  0  0  0  0  0  0  0
   11.0962    9.3293   23.5072 C   0  0  0  0  0  0  0  0  0  0  0  0
    5.1273    7.8529   23.6208 N   0  0  0  0  0  0  0  0  0  0  0  0
    9.7552    9.2338   23.0171 N   0  0  0  0  0  0  0  0  0  0  0  0
   11.1797    6.7591   21.3326 N   0  0  0  0  0  0  0  0  0  0  0  0
   11.7728    8.0337   23.7267 C   0  0  0  0  0  0  0  0  0  0  0  0
    7.1194    8.3344   24.6775 C   0  0  0  0  0  0  0  0  0  0  0  0
    8.4311    4.7963   22.0500 C   0  0  0  0  0  0  0  0  0  0  0  0
    8.7393   10.8706   24.1871 O   0  0  0  0  0  0  0  0  0  0  0  0
    9.3093    3.8166   21.6712 C   0  0  0  0  0  0  0  0  0  0  0  0
  1  5  1  0
  1 15  4  0
  1 22  4  0
  2 20  1  0
  2 24  1  0
  3  6  4  0
  3 27  4  0
  4 22  4  0
  4 26  4  0
  6  7  4  0
  6 13  1  0
  7 19  4  0
  8 18  1  0
  8 23  1  0
  8 28  2  0
  9 17  1  0
  9 24  1  0
 10 11  1  0
 10 24  1  0
 11 23  1  0
 12 14  4  0
 12 16  4  0
 14 19  4  0
 15 18  4  0
 16 20  4  0
 17 25  1  0
 18 26  4  0
 19 29  4  0
 20 29  4  0
 21 23  1  0
 21 25  1  0
 27 29  4  0
M  END
$$$$

 Created by Python create_sdf_string function

 29 32  0  0  0  0  0  0  0  0999 V2000
    5.4450    8.7154   22.6662 C   0  0  0  0  0  0  0  0  0  0  0  0
   10.9154    5.4574   20.5483 C   0  0  0  0  0  0  0  0  0  0  0  0
    7.2709    4.5089   22.7542 C   0  0  0  0  0  0  0  0  0  0  0  0
    5.9698    7.6329   24.6581 C   0  0  0  0  0  0  0  0  0  0  0  0
    4.5542    8.9057   21.7104 O   0  0  0  0  0  0  0  0  0  0  0  0
    6.9895    3.2085   23.0690 C   0  0  0  0  0  0  0  0  0  0  0  0
    7.8391    2.2253   22.7260 N   0  0  0  0  0  0  0  0  0  0  0  0
    8.6968    9.8373   23.6359 C   0  0  0  0  0  0  0  0  0  0  0  0
   12.5135    6.5957   21.8396 C   0  0  0  0  0  0  0  0  0  0  0  0
   10.9406    8.2330   21.1350 C   0  0  0  0  0  0  0  0  0  0  0  0
    9.6648    8.5956   21.7310 C   0  0  0  0  0  0  0  0  0  0  0  0
   10.8829    1.7153   20.9865 C   0  0  0  0  0  0  0  0  0  0  0  0
    5.7768    2.8533   23.7910 C   0  0  0  0  0  0  0  0  0  0  0  0
    9.7977    1.4791   21.6912 N   0  0  0  0  0  0  0  0  0  0  0  0
    6.5976    9.3401   22.6478 N   0  0  0  0  0  0  0  0  0  0  0  0
   11.2031    3.0042   20.6246 C   0  0  0  0  0  0  0  0  0  0  0  0
   12.8688    7.7370   22.7287 C   0  0  0  0  0  0  0  0  0  0  0  0
    7.4487    9.1361   23.6506 C   0  0  0  0  0  0  0  0  0  0  0  0
    8.9772    2.5025   22.0273 C   0  0  0  0  0  0  0  0  0  0  0  0
   10.4859    4.0901   20.9730 C   0  0  0  0  0  0  0  0  0  0  0  0
   11.0962    9.3293   23.5072 C   0  0  0  0  0  0  0  0  0  0  0  0
    5.1273    7.8529   23.6208 N   0  0  0  0  0  0  0  0  0  0  0  0
    9.7552    9.2338   23.0171 N   0  0  0  0  0  0  0  0  0  0  0  0
   11.1797    6.7591   21.3326 N   0  0  0  0  0  0  0  0  0  0  0  0
   11.7728    8.0337   23.7267 C   0  0  0  0  0  0  0  0  0  0  0  0
    7.1194    8.3344   24.6775 C   0  0  0  0  0  0  0  0  0  0  0  0
    8.4311    4.7963   22.0500 C   0  0  0  0  0  0  0  0  0  0  0  0
    8.7393   10.8706   24.1871 O   0  0  0  0  0  0  0  0  0  0  0  0
    9.3093    3.8166   21.6712 C   0  0  0  0  0  0  0  0  0  0  0  0
  1  5  1  0
  1 15  4  0
  1 22  4  0
  2 20  1  0
  2 24  1  0
  3  6  4  0
  3 27  4  0
  4 22  4  0
  4 26  4  0
  6  7  4  0
  6 13  1  0
  7 19  4  0
  8 18  1  0
  8 23  1  0
  8 28  2  0
  9 17  1  0
  9 24  1  0
 10 11  1  0
 10 24  1  0
 11 23  1  0
 12 14  4  0
 12 16  4  0
 14 19  4  0
 15 18  4  0
 16 20  4  0
 17 25  1  0
 18 26  4  0
 19 29  4  0
 20 29  4  0
 21 23  1  0
 21 25  1  0
 27 29  4  0
M  END
$$$$

 Created by Python create_sdf_string function

 29 32  0  0  0  0  0  0  0  0999 V2000
    5.4450    8.7154   22.6662 C   0  0  0  0  0  0  0  0  0  0  0  0
   10.9154    5.4574   20.5483 C   0  0  0  0  0  0  0  0  0  0  0  0
    7.2709    4.5089   22.7542 C   0  0  0  0  0  0  0  0  0  0  0  0
    5.9698    7.6329   24.6581 C   0  0  0  0  0  0  0  0  0  0  0  0
    4.5542    8.9057   21.7104 O   0  0  0  0  0  0  0  0  0  0  0  0
    6.9895    3.2085   23.0690 C   0  0  0  0  0  0  0  0  0  0  0  0
    7.8391    2.2253   22.7260 N   0  0  0  0  0  0  0  0  0  0  0  0
    8.6968    9.8373   23.6359 C   0  0  0  0  0  0  0  0  0  0  0  0
   12.5135    6.5957   21.8396 C   0  0  0  0  0  0  0  0  0  0  0  0
   10.9406    8.2330   21.1350 C   0  0  0  0  0  0  0  0  0  0  0  0
    9.6648    8.5956   21.7310 C   0  0  0  0  0  0  0  0  0  0  0  0
   10.8829    1.7153   20.9865 C   0  0  0  0  0  0  0  0  0  0  0  0
    5.7768    2.8533   23.7910 C   0  0  0  0  0  0  0  0  0  0  0  0
    9.7977    1.4791   21.6912 N   0  0  0  0  0  0  0  0  0  0  0  0
    6.5976    9.3401   22.6478 N   0  0  0  0  0  0  0  0  0  0  0  0
   11.2031    3.0042   20.6246 C   0  0  0  0  0  0  0  0  0  0  0  0
   12.8688    7.7370   22.7287 C   0  0  0  0  0  0  0  0  0  0  0  0
    7.4487    9.1361   23.6506 C   0  0  0  0  0  0  0  0  0  0  0  0
    8.9772    2.5025   22.0273 C   0  0  0  0  0  0  0  0  0  0  0  0
   10.4859    4.0901   20.9730 C   0  0  0  0  0  0  0  0  0  0  0  0
   11.0962    9.3293   23.5072 C   0  0  0  0  0  0  0  0  0  0  0  0
    5.1273    7.8529   23.6208 N   0  0  0  0  0  0  0  0  0  0  0  0
    9.7552    9.2338   23.0171 N   0  0  0  0  0  0  0  0  0  0  0  0
   11.1797    6.7591   21.3326 N   0  0  0  0  0  0  0  0  0  0  0  0
   11.7728    8.0337   23.7267 C   0  0  0  0  0  0  0  0  0  0  0  0
    7.1194    8.3344   24.6775 C   0  0  0  0  0  0  0  0  0  0  0  0
    8.4311    4.7963   22.0500 C   0  0  0  0  0  0  0  0  0  0  0  0
    8.7393   10.8706   24.1871 O   0  0  0  0  0  0  0  0  0  0  0  0
    9.3093    3.8166   21.6712 C   0  0  0  0  0  0  0  0  0  0  0  0
  1  5  1  0
  1 15  4  0
  1 22  4  0
  2 20  1  0
  2 24  1  0
  3  6  4  0
  3 27  4  0
  4 22  4  0
  4 26  4  0
  6  7  4  0
  6 13  1  0
  7 19  4  0
  8 18  1  0
  8 23  1  0
  8 28  2  0
  9 17  1  0
  9 24  1  0
 10 11  1  0
 10 24  1  0
 11 23  1  0
 12 14  4  0
 12 16  4  0
 14 19  4  0
 15 18  4  0
 16 20  4  0
 17 25  1  0
 18 26  4  0
 19 29  4  0
 20 29  4  0
 21 23  1  0
 21 25  1  0
 27 29  4  0
M  END
$$$$

 Created by Python create_sdf_string function

 29 32  0  0  0  0  0  0  0  0999 V2000
    5.4450    8.7154   22.6662 C   0  0  0  0  0  0  0  0  0  0  0  0
   10.9154    5.4574   20.5483 C   0  0  0  0  0  0  0  0  0  0  0  0
    7.2709    4.5089   22.7542 C   0  0  0  0  0  0  0  0  0  0  0  0
    5.9698    7.6329   24.6581 C   0  0  0  0  0  0  0  0  0  0  0  0
    4.5542    8.9057   21.7104 O   0  0  0  0  0  0  0  0  0  0  0  0
    6.9895    3.2085   23.0690 C   0  0  0  0  0  0  0  0  0  0  0  0
    7.8391    2.2253   22.7260 N   0  0  0  0  0  0  0  0  0  0  0  0
    8.6968    9.8373   23.6359 C   0  0  0  0  0  0  0  0  0  0  0  0
   12.5135    6.5957   21.8396 C   0  0  0  0  0  0  0  0  0  0  0  0
   10.9406    8.2330   21.1350 C   0  0  0  0  0  0  0  0  0  0  0  0
    9.6648    8.5956   21.7310 C   0  0  0  0  0  0  0  0  0  0  0  0
   10.8829    1.7153   20.9865 C   0  0  0  0  0  0  0  0  0  0  0  0
    5.7768    2.8533   23.7910 C   0  0  0  0  0  0  0  0  0  0  0  0
    9.7977    1.4791   21.6912 N   0  0  0  0  0  0  0  0  0  0  0  0
    6.5976    9.3401   22.6478 N   0  0  0  0  0  0  0  0  0  0  0  0
   11.2031    3.0042   20.6246 C   0  0  0  0  0  0  0  0  0  0  0  0
   12.8688    7.7370   22.7287 C   0  0  0  0  0  0  0  0  0  0  0  0
    7.4487    9.1361   23.6506 C   0  0  0  0  0  0  0  0  0  0  0  0
    8.9772    2.5025   22.0273 C   0  0  0  0  0  0  0  0  0  0  0  0
   10.4859    4.0901   20.9730 C   0  0  0  0  0  0  0  0  0  0  0  0
   11.0962    9.3293   23.5072 C   0  0  0  0  0  0  0  0  0  0  0  0
    5.1273    7.8529   23.6208 N   0  0  0  0  0  0  0  0  0  0  0  0
    9.7552    9.2338   23.0171 N   0  0  0  0  0  0  0  0  0  0  0  0
   11.1797    6.7591   21.3326 N   0  0  0  0  0  0  0  0  0  0  0  0
   11.7728    8.0337   23.7267 C   0  0  0  0  0  0  0  0  0  0  0  0
    7.1194    8.3344   24.6775 C   0  0  0  0  0  0  0  0  0  0  0  0
    8.4311    4.7963   22.0500 C   0  0  0  0  0  0  0  0  0  0  0  0
    8.7393   10.8706   24.1871 O   0  0  0  0  0  0  0  0  0  0  0  0
    9.3093    3.8166   21.6712 C   0  0  0  0  0  0  0  0  0  0  0  0
  1  5  1  0
  1 15  4  0
  1 22  4  0
  2 20  1  0
  2 24  1  0
  3  6  4  0
  3 27  4  0
  4 22  4  0
  4 26  4  0
  6  7  4  0
  6 13  1  0
  7 19  4  0
  8 18  1  0
  8 23  1  0
  8 28  2  0
  9 17  1  0
  9 24  1  0
 10 11  1  0
 10 24  1  0
 11 23  1  0
 12 14  4  0
 12 16  4  0
 14 19  4  0
 15 18  4  0
 16 20  4  0
 17 25  1  0
 18 26  4  0
 19 29  4  0
 20 29  4  0
 21 23  1  0
 21 25  1  0
 27 29  4  0
M  END
$$$$

 Created by Python create_sdf_string function

 29 32  0  0  0  0  0  0  0  0999 V2000
    5.4450    8.7154   22.6662 C   0  0  0  0  0  0  0  0  0  0  0  0
   10.9154    5.4574   20.5483 C   0  0  0  0  0  0  0  0  0  0  0  0
    7.2709    4.5089   22.7542 C   0  0  0  0  0  0  0  0  0  0  0  0
    5.9698    7.6329   24.6581 C   0  0  0  0  0  0  0  0  0  0  0  0
    4.5542    8.9057   21.7104 O   0  0  0  0  0  0  0  0  0  0  0  0
    6.9895    3.2085   23.0690 C   0  0  0  0  0  0  0  0  0  0  0  0
    7.8391    2.2253   22.7260 N   0  0  0  0  0  0  0  0  0  0  0  0
    8.6968    9.8373   23.6359 C   0  0  0  0  0  0  0  0  0  0  0  0
   12.5135    6.5957   21.8396 C   0  0  0  0  0  0  0  0  0  0  0  0
   10.9406    8.2330   21.1350 C   0  0  0  0  0  0  0  0  0  0  0  0
    9.6648    8.5956   21.7310 C   0  0  0  0  0  0  0  0  0  0  0  0
   10.8829    1.7153   20.9865 C   0  0  0  0  0  0  0  0  0  0  0  0
    5.7768    2.8533   23.7910 C   0  0  0  0  0  0  0  0  0  0  0  0
    9.7977    1.4791   21.6912 N   0  0  0  0  0  0  0  0  0  0  0  0
    6.5976    9.3401   22.6478 N   0  0  0  0  0  0  0  0  0  0  0  0
   11.2031    3.0042   20.6246 C   0  0  0  0  0  0  0  0  0  0  0  0
   12.8688    7.7370   22.7287 C   0  0  0  0  0  0  0  0  0  0  0  0
    7.4487    9.1361   23.6506 C   0  0  0  0  0  0  0  0  0  0  0  0
    8.9772    2.5025   22.0273 C   0  0  0  0  0  0  0  0  0  0  0  0
   10.4859    4.0901   20.9730 C   0  0  0  0  0  0  0  0  0  0  0  0
   11.0962    9.3293   23.5072 C   0  0  0  0  0  0  0  0  0  0  0  0
    5.1273    7.8529   23.6208 N   0  0  0  0  0  0  0  0  0  0  0  0
    9.7552    9.2338   23.0171 N   0  0  0  0  0  0  0  0  0  0  0  0
   11.1797    6.7591   21.3326 N   0  0  0  0  0  0  0  0  0  0  0  0
   11.7728    8.0337   23.7267 C   0  0  0  0  0  0  0  0  0  0  0  0
    7.1194    8.3344   24.6775 C   0  0  0  0  0  0  0  0  0  0  0  0
    8.4311    4.7963   22.0500 C   0  0  0  0  0  0  0  0  0  0  0  0
    8.7393   10.8706   24.1871 O   0  0  0  0  0  0  0  0  0  0  0  0
    9.3093    3.8166   21.6712 C   0  0  0  0  0  0  0  0  0  0  0  0
  1  5  1  0
  1 15  4  0
  1 22  4  0
  2 20  1  0
  2 24  1  0
  3  6  4  0
  3 27  4  0
  4 22  4  0
  4 26  4  0
  6  7  4  0
  6 13  1  0
  7 19  4  0
  8 18  1  0
  8 23  1  0
  8 28  2  0
  9 17  1  0
  9 24  1  0
 10 11  1  0
 10 24  1  0
 11 23  1  0
 12 14  4  0
 12 16  4  0
 14 19  4  0
 15 18  4  0
 16 20  4  0
 17 25  1  0
 18 26  4  0
 19 29  4  0
 20 29  4  0
 21 23  1  0
 21 25  1  0
 27 29  4  0
M  END
$$$$

 Created by Python create_sdf_string function

 29 32  0  0  0  0  0  0  0  0999 V2000
    5.4450    8.7154   22.6662 C   0  0  0  0  0  0  0  0  0  0  0  0
   10.9154    5.4574   20.5483 C   0  0  0  0  0  0  0  0  0  0  0  0
    7.2709    4.5089   22.7542 C   0  0  0  0  0  0  0  0  0  0  0  0
    5.9698    7.6329   24.6581 C   0  0  0  0  0  0  0  0  0  0  0  0
    4.5542    8.9057   21.7104 O   0  0  0  0  0  0  0  0  0  0  0  0
    6.9895    3.2085   23.0690 C   0  0  0  0  0  0  0  0  0  0  0  0
    7.8391    2.2253   22.7260 N   0  0  0  0  0  0  0  0  0  0  0  0
    8.6968    9.8373   23.6359 C   0  0  0  0  0  0  0  0  0  0  0  0
   12.5135    6.5957   21.8396 C   0  0  0  0  0  0  0  0  0  0  0  0
   10.9406    8.2330   21.1350 C   0  0  0  0  0  0  0  0  0  0  0  0
    9.6648    8.5956   21.7310 C   0  0  0  0  0  0  0  0  0  0  0  0
   10.8829    1.7153   20.9865 C   0  0  0  0  0  0  0  0  0  0  0  0
    5.7768    2.8533   23.7910 C   0  0  0  0  0  0  0  0  0  0  0  0
    9.7977    1.4791   21.6912 N   0  0  0  0  0  0  0  0  0  0  0  0
    6.5976    9.3401   22.6478 N   0  0  0  0  0  0  0  0  0  0  0  0
   11.2031    3.0042   20.6246 C   0  0  0  0  0  0  0  0  0  0  0  0
   12.8688    7.7370   22.7287 C   0  0  0  0  0  0  0  0  0  0  0  0
    7.4487    9.1361   23.6506 C   0  0  0  0  0  0  0  0  0  0  0  0
    8.9772    2.5025   22.0273 C   0  0  0  0  0  0  0  0  0  0  0  0
   10.4859    4.0901   20.9730 C   0  0  0  0  0  0  0  0  0  0  0  0
   11.0962    9.3293   23.5072 C   0  0  0  0  0  0  0  0  0  0  0  0
    5.1273    7.8529   23.6208 N   0  0  0  0  0  0  0  0  0  0  0  0
    9.7552    9.2338   23.0171 N   0  0  0  0  0  0  0  0  0  0  0  0
   11.1797    6.7591   21.3326 N   0  0  0  0  0  0  0  0  0  0  0  0
   11.7728    8.0337   23.7267 C   0  0  0  0  0  0  0  0  0  0  0  0
    7.1194    8.3344   24.6775 C   0  0  0  0  0  0  0  0  0  0  0  0
    8.4311    4.7963   22.0500 C   0  0  0  0  0  0  0  0  0  0  0  0
    8.7393   10.8706   24.1871 O   0  0  0  0  0  0  0  0  0  0  0  0
    9.3093    3.8166   21.6712 C   0  0  0  0  0  0  0  0  0  0  0  0
  1  5  1  0
  1 15  4  0
  1 22  4  0
  2 20  1  0
  2 24  1  0
  3  6  4  0
  3 27  4  0
  4 22  4  0
  4 26  4  0
  6  7  4  0
  6 13  1  0
  7 19  4  0
  8 18  1  0
  8 23  1  0
  8 28  2  0
  9 17  1  0
  9 24  1  0
 10 11  1  0
 10 24  1  0
 11 23  1  0
 12 14  4  0
 12 16  4  0
 14 19  4  0
 15 18  4  0
 16 20  4  0
 17 25  1  0
 18 26  4  0
 19 29  4  0
 20 29  4  0
 21 23  1  0
 21 25  1  0
 27 29  4  0
M  END
$$$$

 Created by Python create_sdf_string function

 29 32  0  0  0  0  0  0  0  0999 V2000
    5.4450    8.7154   22.6662 C   0  0  0  0  0  0  0  0  0  0  0  0
   10.9154    5.4574   20.5483 C   0  0  0  0  0  0  0  0  0  0  0  0
    7.2709    4.5089   22.7542 C   0  0  0  0  0  0  0  0  0  0  0  0
    5.9698    7.6329   24.6581 C   0  0  0  0  0  0  0  0  0  0  0  0
    4.5542    8.9057   21.7104 O   0  0  0  0  0  0  0  0  0  0  0  0
    6.9895    3.2085   23.0690 C   0  0  0  0  0  0  0  0  0  0  0  0
    7.8391    2.2253   22.7260 N   0  0  0  0  0  0  0  0  0  0  0  0
    8.6968    9.8373   23.6359 C   0  0  0  0  0  0  0  0  0  0  0  0
   12.5135    6.5957   21.8396 C   0  0  0  0  0  0  0  0  0  0  0  0
   10.9406    8.2330   21.1350 C   0  0  0  0  0  0  0  0  0  0  0  0
    9.6648    8.5956   21.7310 C   0  0  0  0  0  0  0  0  0  0  0  0
   10.8829    1.7153   20.9865 C   0  0  0  0  0  0  0  0  0  0  0  0
    5.7768    2.8533   23.7910 C   0  0  0  0  0  0  0  0  0  0  0  0
    9.7977    1.4791   21.6912 N   0  0  0  0  0  0  0  0  0  0  0  0
    6.5976    9.3401   22.6478 N   0  0  0  0  0  0  0  0  0  0  0  0
   11.2031    3.0042   20.6246 C   0  0  0  0  0  0  0  0  0  0  0  0
   12.8688    7.7370   22.7287 C   0  0  0  0  0  0  0  0  0  0  0  0
    7.4487    9.1361   23.6506 C   0  0  0  0  0  0  0  0  0  0  0  0
    8.9772    2.5025   22.0273 C   0  0  0  0  0  0  0  0  0  0  0  0
   10.4859    4.0901   20.9730 C   0  0  0  0  0  0  0  0  0  0  0  0
   11.0962    9.3293   23.5072 C   0  0  0  0  0  0  0  0  0  0  0  0
    5.1273    7.8529   23.6208 N   0  0  0  0  0  0  0  0  0  0  0  0
    9.7552    9.2338   23.0171 N   0  0  0  0  0  0  0  0  0  0  0  0
   11.1797    6.7591   21.3326 N   0  0  0  0  0  0  0  0  0  0  0  0
   11.7728    8.0337   23.7267 C   0  0  0  0  0  0  0  0  0  0  0  0
    7.1194    8.3344   24.6775 C   0  0  0  0  0  0  0  0  0  0  0  0
    8.4311    4.7963   22.0500 C   0  0  0  0  0  0  0  0  0  0  0  0
    8.7393   10.8706   24.1871 O   0  0  0  0  0  0  0  0  0  0  0  0
    9.3093    3.8166   21.6712 C   0  0  0  0  0  0  0  0  0  0  0  0
  1  5  1  0
  1 15  4  0
  1 22  4  0
  2 20  1  0
  2 24  1  0
  3  6  4  0
  3 27  4  0
  4 22  4  0
  4 26  4  0
  6  7  4  0
  6 13  1  0
  7 19  4  0
  8 18  1  0
  8 23  1  0
  8 28  2  0
  9 17  1  0
  9 24  1  0
 10 11  1  0
 10 24  1  0
 11 23  1  0
 12 14  4  0
 12 16  4  0
 14 19  4  0
 15 18  4  0
 16 20  4  0
 17 25  1  0
 18 26  4  0
 19 29  4  0
 20 29  4  0
 21 23  1  0
 21 25  1  0
 27 29  4  0
M  END
$$$$

 Created by Python create_sdf_string function

 29 32  0  0  0  0  0  0  0  0999 V2000
    5.4450    8.7154   22.6662 C   0  0  0  0  0  0  0  0  0  0  0  0
   10.9154    5.4574   20.5483 C   0  0  0  0  0  0  0  0  0  0  0  0
    7.2709    4.5089   22.7542 C   0  0  0  0  0  0  0  0  0  0  0  0
    5.9698    7.6329   24.6581 C   0  0  0  0  0  0  0  0  0  0  0  0
    4.5542    8.9057   21.7104 O   0  0  0  0  0  0  0  0  0  0  0  0
    6.9895    3.2085   23.0690 C   0  0  0  0  0  0  0  0  0  0  0  0
    7.8391    2.2253   22.7260 N   0  0  0  0  0  0  0  0  0  0  0  0
    8.6968    9.8373   23.6359 C   0  0  0  0  0  0  0  0  0  0  0  0
   12.5135    6.5957   21.8396 C   0  0  0  0  0  0  0  0  0  0  0  0
   10.9406    8.2330   21.1350 C   0  0  0  0  0  0  0  0  0  0  0  0
    9.6648    8.5956   21.7310 C   0  0  0  0  0  0  0  0  0  0  0  0
   10.8829    1.7153   20.9865 C   0  0  0  0  0  0  0  0  0  0  0  0
    5.7768    2.8533   23.7910 C   0  0  0  0  0  0  0  0  0  0  0  0
    9.7977    1.4791   21.6912 N   0  0  0  0  0  0  0  0  0  0  0  0
    6.5976    9.3401   22.6478 N   0  0  0  0  0  0  0  0  0  0  0  0
   11.2031    3.0042   20.6246 C   0  0  0  0  0  0  0  0  0  0  0  0
   12.8688    7.7370   22.7287 C   0  0  0  0  0  0  0  0  0  0  0  0
    7.4487    9.1361   23.6506 C   0  0  0  0  0  0  0  0  0  0  0  0
    8.9772    2.5025   22.0273 C   0  0  0  0  0  0  0  0  0  0  0  0
   10.4859    4.0901   20.9730 C   0  0  0  0  0  0  0  0  0  0  0  0
   11.0962    9.3293   23.5072 C   0  0  0  0  0  0  0  0  0  0  0  0
    5.1273    7.8529   23.6208 N   0  0  0  0  0  0  0  0  0  0  0  0
    9.7552    9.2338   23.0171 N   0  0  0  0  0  0  0  0  0  0  0  0
   11.1797    6.7591   21.3326 N   0  0  0  0  0  0  0  0  0  0  0  0
   11.7728    8.0337   23.7267 C   0  0  0  0  0  0  0  0  0  0  0  0
    7.1194    8.3344   24.6775 C   0  0  0  0  0  0  0  0  0  0  0  0
    8.4311    4.7963   22.0500 C   0  0  0  0  0  0  0  0  0  0  0  0
    8.7393   10.8706   24.1871 O   0  0  0  0  0  0  0  0  0  0  0  0
    9.3093    3.8166   21.6712 C   0  0  0  0  0  0  0  0  0  0  0  0
  1  5  1  0
  1 15  4  0
  1 22  4  0
  2 20  1  0
  2 24  1  0
  3  6  4  0
  3 27  4  0
  4 22  4  0
  4 26  4  0
  6  7  4  0
  6 13  1  0
  7 19  4  0
  8 18  1  0
  8 23  1  0
  8 28  2  0
  9 17  1  0
  9 24  1  0
 10 11  1  0
 10 24  1  0
 11 23  1  0
 12 14  4  0
 12 16  4  0
 14 19  4  0
 15 18  4  0
 16 20  4  0
 17 25  1  0
 18 26  4  0
 19 29  4  0
 20 29  4  0
 21 23  1  0
 21 25  1  0
 27 29  4  0
M  END
$$$$

 Created by Python create_sdf_string function

 29 32  0  0  0  0  0  0  0  0999 V2000
    5.4450    8.7154   22.6662 C   0  0  0  0  0  0  0  0  0  0  0  0
   10.9154    5.4574   20.5483 C   0  0  0  0  0  0  0  0  0  0  0  0
    7.2709    4.5089   22.7542 C   0  0  0  0  0  0  0  0  0  0  0  0
    5.9698    7.6329   24.6581 C   0  0  0  0  0  0  0  0  0  0  0  0
    4.5542    8.9057   21.7104 O   0  0  0  0  0  0  0  0  0  0  0  0
    6.9895    3.2085   23.0690 C   0  0  0  0  0  0  0  0  0  0  0  0
    7.8391    2.2253   22.7260 N   0  0  0  0  0  0  0  0  0  0  0  0
    8.6968    9.8373   23.6359 C   0  0  0  0  0  0  0  0  0  0  0  0
   12.5135    6.5957   21.8396 C   0  0  0  0  0  0  0  0  0  0  0  0
   10.9406    8.2330   21.1350 C   0  0  0  0  0  0  0  0  0  0  0  0
    9.6648    8.5956   21.7310 C   0  0  0  0  0  0  0  0  0  0  0  0
   10.8829    1.7153   20.9865 C   0  0  0  0  0  0  0  0  0  0  0  0
    5.7768    2.8533   23.7910 C   0  0  0  0  0  0  0  0  0  0  0  0
    9.7977    1.4791   21.6912 N   0  0  0  0  0  0  0  0  0  0  0  0
    6.5976    9.3401   22.6478 N   0  0  0  0  0  0  0  0  0  0  0  0
   11.2031    3.0042   20.6246 C   0  0  0  0  0  0  0  0  0  0  0  0
   12.8688    7.7370   22.7287 C   0  0  0  0  0  0  0  0  0  0  0  0
    7.4487    9.1361   23.6506 C   0  0  0  0  0  0  0  0  0  0  0  0
    8.9772    2.5025   22.0273 C   0  0  0  0  0  0  0  0  0  0  0  0
   10.4859    4.0901   20.9730 C   0  0  0  0  0  0  0  0  0  0  0  0
   11.0962    9.3293   23.5072 C   0  0  0  0  0  0  0  0  0  0  0  0
    5.1273    7.8529   23.6208 N   0  0  0  0  0  0  0  0  0  0  0  0
    9.7552    9.2338   23.0171 N   0  0  0  0  0  0  0  0  0  0  0  0
   11.1797    6.7591   21.3326 N   0  0  0  0  0  0  0  0  0  0  0  0
   11.7728    8.0337   23.7267 C   0  0  0  0  0  0  0  0  0  0  0  0
    7.1194    8.3344   24.6775 C   0  0  0  0  0  0  0  0  0  0  0  0
    8.4311    4.7963   22.0500 C   0  0  0  0  0  0  0  0  0  0  0  0
    8.7393   10.8706   24.1871 O   0  0  0  0  0  0  0  0  0  0  0  0
    9.3093    3.8166   21.6712 C   0  0  0  0  0  0  0  0  0  0  0  0
  1  5  1  0
  1 15  4  0
  1 22  4  0
  2 20  1  0
  2 24  1  0
  3  6  4  0
  3 27  4  0
  4 22  4  0
  4 26  4  0
  6  7  4  0
  6 13  1  0
  7 19  4  0
  8 18  1  0
  8 23  1  0
  8 28  2  0
  9 17  1  0
  9 24  1  0
 10 11  1  0
 10 24  1  0
 11 23  1  0
 12 14  4  0
 12 16  4  0
 14 19  4  0
 15 18  4  0
 16 20  4  0
 17 25  1  0
 18 26  4  0
 19 29  4  0
 20 29  4  0
 21 23  1  0
 21 25  1  0
 27 29  4  0
M  END
$$$$

 Created by Python create_sdf_string function

 29 32  0  0  0  0  0  0  0  0999 V2000
    5.4450    8.7154   22.6662 C   0  0  0  0  0  0  0  0  0  0  0  0
   10.9154    5.4574   20.5483 C   0  0  0  0  0  0  0  0  0  0  0  0
    7.2709    4.5089   22.7542 C   0  0  0  0  0  0  0  0  0  0  0  0
    5.9698    7.6329   24.6581 C   0  0  0  0  0  0  0  0  0  0  0  0
    4.5542    8.9057   21.7104 O   0  0  0  0  0  0  0  0  0  0  0  0
    6.9895    3.2085   23.0690 C   0  0  0  0  0  0  0  0  0  0  0  0
    7.8391    2.2253   22.7260 N   0  0  0  0  0  0  0  0  0  0  0  0
    8.6968    9.8373   23.6359 C   0  0  0  0  0  0  0  0  0  0  0  0
   12.5135    6.5957   21.8396 C   0  0  0  0  0  0  0  0  0  0  0  0
   10.9406    8.2330   21.1350 C   0  0  0  0  0  0  0  0  0  0  0  0
    9.6648    8.5956   21.7310 C   0  0  0  0  0  0  0  0  0  0  0  0
   10.8829    1.7153   20.9865 C   0  0  0  0  0  0  0  0  0  0  0  0
    5.7768    2.8533   23.7910 C   0  0  0  0  0  0  0  0  0  0  0  0
    9.7977    1.4791   21.6912 N   0  0  0  0  0  0  0  0  0  0  0  0
    6.5976    9.3401   22.6478 N   0  0  0  0  0  0  0  0  0  0  0  0
   11.2031    3.0042   20.6246 C   0  0  0  0  0  0  0  0  0  0  0  0
   12.8688    7.7370   22.7287 C   0  0  0  0  0  0  0  0  0  0  0  0
    7.4487    9.1361   23.6506 C   0  0  0  0  0  0  0  0  0  0  0  0
    8.9772    2.5025   22.0273 C   0  0  0  0  0  0  0  0  0  0  0  0
   10.4859    4.0901   20.9730 C   0  0  0  0  0  0  0  0  0  0  0  0
   11.0962    9.3293   23.5072 C   0  0  0  0  0  0  0  0  0  0  0  0
    5.1273    7.8529   23.6208 N   0  0  0  0  0  0  0  0  0  0  0  0
    9.7552    9.2338   23.0171 N   0  0  0  0  0  0  0  0  0  0  0  0
   11.1797    6.7591   21.3326 N   0  0  0  0  0  0  0  0  0  0  0  0
   11.7728    8.0337   23.7267 C   0  0  0  0  0  0  0  0  0  0  0  0
    7.1194    8.3344   24.6775 C   0  0  0  0  0  0  0  0  0  0  0  0
    8.4311    4.7963   22.0500 C   0  0  0  0  0  0  0  0  0  0  0  0
    8.7393   10.8706   24.1871 O   0  0  0  0  0  0  0  0  0  0  0  0
    9.3093    3.8166   21.6712 C   0  0  0  0  0  0  0  0  0  0  0  0
  1  5  1  0
  1 15  4  0
  1 22  4  0
  2 20  1  0
  2 24  1  0
  3  6  4  0
  3 27  4  0
  4 22  4  0
  4 26  4  0
  6  7  4  0
  6 13  1  0
  7 19  4  0
  8 18  1  0
  8 23  1  0
  8 28  2  0
  9 17  1  0
  9 24  1  0
 10 11  1  0
 10 24  1  0
 11 23  1  0
 12 14  4  0
 12 16  4  0
 14 19  4  0
 15 18  4  0
 16 20  4  0
 17 25  1  0
 18 26  4  0
 19 29  4  0
 20 29  4  0
 21 23  1  0
 21 25  1  0
 27 29  4  0
M  END
$$$$

 Created by Python create_sdf_string function

 29 32  0  0  0  0  0  0  0  0999 V2000
    5.4450    8.7154   22.6662 C   0  0  0  0  0  0  0  0  0  0  0  0
   10.9154    5.4574   20.5483 C   0  0  0  0  0  0  0  0  0  0  0  0
    7.2709    4.5089   22.7542 C   0  0  0  0  0  0  0  0  0  0  0  0
    5.9698    7.6329   24.6581 C   0  0  0  0  0  0  0  0  0  0  0  0
    4.5542    8.9057   21.7104 O   0  0  0  0  0  0  0  0  0  0  0  0
    6.9895    3.2085   23.0690 C   0  0  0  0  0  0  0  0  0  0  0  0
    7.8391    2.2253   22.7260 N   0  0  0  0  0  0  0  0  0  0  0  0
    8.6968    9.8373   23.6359 C   0  0  0  0  0  0  0  0  0  0  0  0
   12.5135    6.5957   21.8396 C   0  0  0  0  0  0  0  0  0  0  0  0
   10.9406    8.2330   21.1350 C   0  0  0  0  0  0  0  0  0  0  0  0
    9.6648    8.5956   21.7310 C   0  0  0  0  0  0  0  0  0  0  0  0
   10.8829    1.7153   20.9865 C   0  0  0  0  0  0  0  0  0  0  0  0
    5.7768    2.8533   23.7910 C   0  0  0  0  0  0  0  0  0  0  0  0
    9.7977    1.4791   21.6912 N   0  0  0  0  0  0  0  0  0  0  0  0
    6.5976    9.3401   22.6478 N   0  0  0  0  0  0  0  0  0  0  0  0
   11.2031    3.0042   20.6246 C   0  0  0  0  0  0  0  0  0  0  0  0
   12.8688    7.7370   22.7287 C   0  0  0  0  0  0  0  0  0  0  0  0
    7.4487    9.1361   23.6506 C   0  0  0  0  0  0  0  0  0  0  0  0
    8.9772    2.5025   22.0273 C   0  0  0  0  0  0  0  0  0  0  0  0
   10.4859    4.0901   20.9730 C   0  0  0  0  0  0  0  0  0  0  0  0
   11.0962    9.3293   23.5072 C   0  0  0  0  0  0  0  0  0  0  0  0
    5.1273    7.8529   23.6208 N   0  0  0  0  0  0  0  0  0  0  0  0
    9.7552    9.2338   23.0171 N   0  0  0  0  0  0  0  0  0  0  0  0
   11.1797    6.7591   21.3326 N   0  0  0  0  0  0  0  0  0  0  0  0
   11.7728    8.0337   23.7267 C   0  0  0  0  0  0  0  0  0  0  0  0
    7.1194    8.3344   24.6775 C   0  0  0  0  0  0  0  0  0  0  0  0
    8.4311    4.7963   22.0500 C   0  0  0  0  0  0  0  0  0  0  0  0
    8.7393   10.8706   24.1871 O   0  0  0  0  0  0  0  0  0  0  0  0
    9.3093    3.8166   21.6712 C   0  0  0  0  0  0  0  0  0  0  0  0
  1  5  1  0
  1 15  4  0
  1 22  4  0
  2 20  1  0
  2 24  1  0
  3  6  4  0
  3 27  4  0
  4 22  4  0
  4 26  4  0
  6  7  4  0
  6 13  1  0
  7 19  4  0
  8 18  1  0
  8 23  1  0
  8 28  2  0
  9 17  1  0
  9 24  1  0
 10 11  1  0
 10 24  1  0
 11 23  1  0
 12 14  4  0
 12 16  4  0
 14 19  4  0
 15 18  4  0
 16 20  4  0
 17 25  1  0
 18 26  4  0
 19 29  4  0
 20 29  4  0
 21 23  1  0
 21 25  1  0
 27 29  4  0
M  END
$$$$

 Created by Python create_sdf_string function

 29 32  0  0  0  0  0  0  0  0999 V2000
    5.4450    8.7154   22.6662 C   0  0  0  0  0  0  0  0  0  0  0  0
   10.9154    5.4574   20.5483 C   0  0  0  0  0  0  0  0  0  0  0  0
    7.2709    4.5089   22.7542 C   0  0  0  0  0  0  0  0  0  0  0  0
    5.9698    7.6329   24.6581 C   0  0  0  0  0  0  0  0  0  0  0  0
    4.5542    8.9057   21.7104 O   0  0  0  0  0  0  0  0  0  0  0  0
    6.9895    3.2085   23.0690 C   0  0  0  0  0  0  0  0  0  0  0  0
    7.8391    2.2253   22.7260 N   0  0  0  0  0  0  0  0  0  0  0  0
    8.6968    9.8373   23.6359 C   0  0  0  0  0  0  0  0  0  0  0  0
   12.5135    6.5957   21.8396 C   0  0  0  0  0  0  0  0  0  0  0  0
   10.9406    8.2330   21.1350 C   0  0  0  0  0  0  0  0  0  0  0  0
    9.6648    8.5956   21.7310 C   0  0  0  0  0  0  0  0  0  0  0  0
   10.8829    1.7153   20.9865 C   0  0  0  0  0  0  0  0  0  0  0  0
    5.7768    2.8533   23.7910 C   0  0  0  0  0  0  0  0  0  0  0  0
    9.7977    1.4791   21.6912 N   0  0  0  0  0  0  0  0  0  0  0  0
    6.5976    9.3401   22.6478 N   0  0  0  0  0  0  0  0  0  0  0  0
   11.2031    3.0042   20.6246 C   0  0  0  0  0  0  0  0  0  0  0  0
   12.8688    7.7370   22.7287 C   0  0  0  0  0  0  0  0  0  0  0  0
    7.4487    9.1361   23.6506 C   0  0  0  0  0  0  0  0  0  0  0  0
    8.9772    2.5025   22.0273 C   0  0  0  0  0  0  0  0  0  0  0  0
   10.4859    4.0901   20.9730 C   0  0  0  0  0  0  0  0  0  0  0  0
   11.0962    9.3293   23.5072 C   0  0  0  0  0  0  0  0  0  0  0  0
    5.1273    7.8529   23.6208 N   0  0  0  0  0  0  0  0  0  0  0  0
    9.7552    9.2338   23.0171 N   0  0  0  0  0  0  0  0  0  0  0  0
   11.1797    6.7591   21.3326 N   0  0  0  0  0  0  0  0  0  0  0  0
   11.7728    8.0337   23.7267 C   0  0  0  0  0  0  0  0  0  0  0  0
    7.1194    8.3344   24.6775 C   0  0  0  0  0  0  0  0  0  0  0  0
    8.4311    4.7963   22.0500 C   0  0  0  0  0  0  0  0  0  0  0  0
    8.7393   10.8706   24.1871 O   0  0  0  0  0  0  0  0  0  0  0  0
    9.3093    3.8166   21.6712 C   0  0  0  0  0  0  0  0  0  0  0  0
  1  5  1  0
  1 15  4  0
  1 22  4  0
  2 20  1  0
  2 24  1  0
  3  6  4  0
  3 27  4  0
  4 22  4  0
  4 26  4  0
  6  7  4  0
  6 13  1  0
  7 19  4  0
  8 18  1  0
  8 23  1  0
  8 28  2  0
  9 17  1  0
  9 24  1  0
 10 11  1  0
 10 24  1  0
 11 23  1  0
 12 14  4  0
 12 16  4  0
 14 19  4  0
 15 18  4  0
 16 20  4  0
 17 25  1  0
 18 26  4  0
 19 29  4  0
 20 29  4  0
 21 23  1  0
 21 25  1  0
 27 29  4  0
M  END
$$$$

 Created by Python create_sdf_string function

 29 32  0  0  0  0  0  0  0  0999 V2000
    5.4450    8.7154   22.6662 C   0  0  0  0  0  0  0  0  0  0  0  0
   10.9154    5.4574   20.5483 C   0  0  0  0  0  0  0  0  0  0  0  0
    7.2709    4.5089   22.7542 C   0  0  0  0  0  0  0  0  0  0  0  0
    5.9698    7.6329   24.6581 C   0  0  0  0  0  0  0  0  0  0  0  0
    4.5542    8.9057   21.7104 O   0  0  0  0  0  0  0  0  0  0  0  0
    6.9895    3.2085   23.0690 C   0  0  0  0  0  0  0  0  0  0  0  0
    7.8391    2.2253   22.7260 N   0  0  0  0  0  0  0  0  0  0  0  0
    8.6968    9.8373   23.6359 C   0  0  0  0  0  0  0  0  0  0  0  0
   12.5135    6.5957   21.8396 C   0  0  0  0  0  0  0  0  0  0  0  0
   10.9406    8.2330   21.1350 C   0  0  0  0  0  0  0  0  0  0  0  0
    9.6648    8.5956   21.7310 C   0  0  0  0  0  0  0  0  0  0  0  0
   10.8829    1.7153   20.9865 C   0  0  0  0  0  0  0  0  0  0  0  0
    5.7768    2.8533   23.7910 C   0  0  0  0  0  0  0  0  0  0  0  0
    9.7977    1.4791   21.6912 N   0  0  0  0  0  0  0  0  0  0  0  0
    6.5976    9.3401   22.6478 N   0  0  0  0  0  0  0  0  0  0  0  0
   11.2031    3.0042   20.6246 C   0  0  0  0  0  0  0  0  0  0  0  0
   12.8688    7.7370   22.7287 C   0  0  0  0  0  0  0  0  0  0  0  0
    7.4487    9.1361   23.6506 C   0  0  0  0  0  0  0  0  0  0  0  0
    8.9772    2.5025   22.0273 C   0  0  0  0  0  0  0  0  0  0  0  0
   10.4859    4.0901   20.9730 C   0  0  0  0  0  0  0  0  0  0  0  0
   11.0962    9.3293   23.5072 C   0  0  0  0  0  0  0  0  0  0  0  0
    5.1273    7.8529   23.6208 N   0  0  0  0  0  0  0  0  0  0  0  0
    9.7552    9.2338   23.0171 N   0  0  0  0  0  0  0  0  0  0  0  0
   11.1797    6.7591   21.3326 N   0  0  0  0  0  0  0  0  0  0  0  0
   11.7728    8.0337   23.7267 C   0  0  0  0  0  0  0  0  0  0  0  0
    7.1194    8.3344   24.6775 C   0  0  0  0  0  0  0  0  0  0  0  0
    8.4311    4.7963   22.0500 C   0  0  0  0  0  0  0  0  0  0  0  0
    8.7393   10.8706   24.1871 O   0  0  0  0  0  0  0  0  0  0  0  0
    9.3093    3.8166   21.6712 C   0  0  0  0  0  0  0  0  0  0  0  0
  1  5  1  0
  1 15  4  0
  1 22  4  0
  2 20  1  0
  2 24  1  0
  3  6  4  0
  3 27  4  0
  4 22  4  0
  4 26  4  0
  6  7  4  0
  6 13  1  0
  7 19  4  0
  8 18  1  0
  8 23  1  0
  8 28  2  0
  9 17  1  0
  9 24  1  0
 10 11  1  0
 10 24  1  0
 11 23  1  0
 12 14  4  0
 12 16  4  0
 14 19  4  0
 15 18  4  0
 16 20  4  0
 17 25  1  0
 18 26  4  0
 19 29  4  0
 20 29  4  0
 21 23  1  0
 21 25  1  0
 27 29  4  0
M  END
$$$$

 Created by Python create_sdf_string function

 29 32  0  0  0  0  0  0  0  0999 V2000
    5.4450    8.7154   22.6662 C   0  0  0  0  0  0  0  0  0  0  0  0
   10.9154    5.4574   20.5483 C   0  0  0  0  0  0  0  0  0  0  0  0
    7.2709    4.5089   22.7542 C   0  0  0  0  0  0  0  0  0  0  0  0
    5.9698    7.6329   24.6581 C   0  0  0  0  0  0  0  0  0  0  0  0
    4.5542    8.9057   21.7104 O   0  0  0  0  0  0  0  0  0  0  0  0
    6.9895    3.2085   23.0690 C   0  0  0  0  0  0  0  0  0  0  0  0
    7.8391    2.2253   22.7260 N   0  0  0  0  0  0  0  0  0  0  0  0
    8.6968    9.8373   23.6359 C   0  0  0  0  0  0  0  0  0  0  0  0
   12.5135    6.5957   21.8396 C   0  0  0  0  0  0  0  0  0  0  0  0
   10.9406    8.2330   21.1350 C   0  0  0  0  0  0  0  0  0  0  0  0
    9.6648    8.5956   21.7310 C   0  0  0  0  0  0  0  0  0  0  0  0
   10.8829    1.7153   20.9865 C   0  0  0  0  0  0  0  0  0  0  0  0
    5.7768    2.8533   23.7910 C   0  0  0  0  0  0  0  0  0  0  0  0
    9.7977    1.4791   21.6912 N   0  0  0  0  0  0  0  0  0  0  0  0
    6.5976    9.3401   22.6478 N   0  0  0  0  0  0  0  0  0  0  0  0
   11.2031    3.0042   20.6246 C   0  0  0  0  0  0  0  0  0  0  0  0
   12.8688    7.7370   22.7287 C   0  0  0  0  0  0  0  0  0  0  0  0
    7.4487    9.1361   23.6506 C   0  0  0  0  0  0  0  0  0  0  0  0
    8.9772    2.5025   22.0273 C   0  0  0  0  0  0  0  0  0  0  0  0
   10.4859    4.0901   20.9730 C   0  0  0  0  0  0  0  0  0  0  0  0
   11.0962    9.3293   23.5072 C   0  0  0  0  0  0  0  0  0  0  0  0
    5.1273    7.8529   23.6208 N   0  0  0  0  0  0  0  0  0  0  0  0
    9.7552    9.2338   23.0171 N   0  0  0  0  0  0  0  0  0  0  0  0
   11.1797    6.7591   21.3326 N   0  0  0  0  0  0  0  0  0  0  0  0
   11.7728    8.0337   23.7267 C   0  0  0  0  0  0  0  0  0  0  0  0
    7.1194    8.3344   24.6775 C   0  0  0  0  0  0  0  0  0  0  0  0
    8.4311    4.7963   22.0500 C   0  0  0  0  0  0  0  0  0  0  0  0
    8.7393   10.8706   24.1871 O   0  0  0  0  0  0  0  0  0  0  0  0
    9.3093    3.8166   21.6712 C   0  0  0  0  0  0  0  0  0  0  0  0
  1  5  1  0
  1 15  4  0
  1 22  4  0
  2 20  1  0
  2 24  1  0
  3  6  4  0
  3 27  4  0
  4 22  4  0
  4 26  4  0
  6  7  4  0
  6 13  1  0
  7 19  4  0
  8 18  1  0
  8 23  1  0
  8 28  2  0
  9 17  1  0
  9 24  1  0
 10 11  1  0
 10 24  1  0
 11 23  1  0
 12 14  4  0
 12 16  4  0
 14 19  4  0
 15 18  4  0
 16 20  4  0
 17 25  1  0
 18 26  4  0
 19 29  4  0
 20 29  4  0
 21 23  1  0
 21 25  1  0
 27 29  4  0
M  END
$$$$

 Created by Python create_sdf_string function

 29 32  0  0  0  0  0  0  0  0999 V2000
    5.4450    8.7154   22.6662 C   0  0  0  0  0  0  0  0  0  0  0  0
   10.9154    5.4574   20.5483 C   0  0  0  0  0  0  0  0  0  0  0  0
    7.2709    4.5089   22.7542 C   0  0  0  0  0  0  0  0  0  0  0  0
    5.9698    7.6329   24.6581 C   0  0  0  0  0  0  0  0  0  0  0  0
    4.5542    8.9057   21.7104 O   0  0  0  0  0  0  0  0  0  0  0  0
    6.9895    3.2085   23.0690 C   0  0  0  0  0  0  0  0  0  0  0  0
    7.8391    2.2253   22.7260 N   0  0  0  0  0  0  0  0  0  0  0  0
    8.6968    9.8373   23.6359 C   0  0  0  0  0  0  0  0  0  0  0  0
   12.5135    6.5957   21.8396 C   0  0  0  0  0  0  0  0  0  0  0  0
   10.9406    8.2330   21.1350 C   0  0  0  0  0  0  0  0  0  0  0  0
    9.6648    8.5956   21.7310 C   0  0  0  0  0  0  0  0  0  0  0  0
   10.8829    1.7153   20.9865 C   0  0  0  0  0  0  0  0  0  0  0  0
    5.7768    2.8533   23.7910 C   0  0  0  0  0  0  0  0  0  0  0  0
    9.7977    1.4791   21.6912 N   0  0  0  0  0  0  0  0  0  0  0  0
    6.5976    9.3401   22.6478 N   0  0  0  0  0  0  0  0  0  0  0  0
   11.2031    3.0042   20.6246 C   0  0  0  0  0  0  0  0  0  0  0  0
   12.8688    7.7370   22.7287 C   0  0  0  0  0  0  0  0  0  0  0  0
    7.4487    9.1361   23.6506 C   0  0  0  0  0  0  0  0  0  0  0  0
    8.9772    2.5025   22.0273 C   0  0  0  0  0  0  0  0  0  0  0  0
   10.4859    4.0901   20.9730 C   0  0  0  0  0  0  0  0  0  0  0  0
   11.0962    9.3293   23.5072 C   0  0  0  0  0  0  0  0  0  0  0  0
    5.1273    7.8529   23.6208 N   0  0  0  0  0  0  0  0  0  0  0  0
    9.7552    9.2338   23.0171 N   0  0  0  0  0  0  0  0  0  0  0  0
   11.1797    6.7591   21.3326 N   0  0  0  0  0  0  0  0  0  0  0  0
   11.7728    8.0337   23.7267 C   0  0  0  0  0  0  0  0  0  0  0  0
    7.1194    8.3344   24.6775 C   0  0  0  0  0  0  0  0  0  0  0  0
    8.4311    4.7963   22.0500 C   0  0  0  0  0  0  0  0  0  0  0  0
    8.7393   10.8706   24.1871 O   0  0  0  0  0  0  0  0  0  0  0  0
    9.3093    3.8166   21.6712 C   0  0  0  0  0  0  0  0  0  0  0  0
  1  5  1  0
  1 15  4  0
  1 22  4  0
  2 20  1  0
  2 24  1  0
  3  6  4  0
  3 27  4  0
  4 22  4  0
  4 26  4  0
  6  7  4  0
  6 13  1  0
  7 19  4  0
  8 18  1  0
  8 23  1  0
  8 28  2  0
  9 17  1  0
  9 24  1  0
 10 11  1  0
 10 24  1  0
 11 23  1  0
 12 14  4  0
 12 16  4  0
 14 19  4  0
 15 18  4  0
 16 20  4  0
 17 25  1  0
 18 26  4  0
 19 29  4  0
 20 29  4  0
 21 23  1  0
 21 25  1  0
 27 29  4  0
M  END
$$$$

 Created by Python create_sdf_string function

 29 32  0  0  0  0  0  0  0  0999 V2000
    5.4450    8.7154   22.6662 C   0  0  0  0  0  0  0  0  0  0  0  0
   10.9154    5.4574   20.5483 C   0  0  0  0  0  0  0  0  0  0  0  0
    7.2709    4.5089   22.7542 C   0  0  0  0  0  0  0  0  0  0  0  0
    5.9698    7.6329   24.6581 C   0  0  0  0  0  0  0  0  0  0  0  0
    4.5542    8.9057   21.7104 O   0  0  0  0  0  0  0  0  0  0  0  0
    6.9895    3.2085   23.0690 C   0  0  0  0  0  0  0  0  0  0  0  0
    7.8391    2.2253   22.7260 N   0  0  0  0  0  0  0  0  0  0  0  0
    8.6968    9.8373   23.6359 C   0  0  0  0  0  0  0  0  0  0  0  0
   12.5135    6.5957   21.8396 C   0  0  0  0  0  0  0  0  0  0  0  0
   10.9406    8.2330   21.1350 C   0  0  0  0  0  0  0  0  0  0  0  0
    9.6648    8.5956   21.7310 C   0  0  0  0  0  0  0  0  0  0  0  0
   10.8829    1.7153   20.9865 C   0  0  0  0  0  0  0  0  0  0  0  0
    5.7768    2.8533   23.7910 C   0  0  0  0  0  0  0  0  0  0  0  0
    9.7977    1.4791   21.6912 N   0  0  0  0  0  0  0  0  0  0  0  0
    6.5976    9.3401   22.6478 N   0  0  0  0  0  0  0  0  0  0  0  0
   11.2031    3.0042   20.6246 C   0  0  0  0  0  0  0  0  0  0  0  0
   12.8688    7.7370   22.7287 C   0  0  0  0  0  0  0  0  0  0  0  0
    7.4487    9.1361   23.6506 C   0  0  0  0  0  0  0  0  0  0  0  0
    8.9772    2.5025   22.0273 C   0  0  0  0  0  0  0  0  0  0  0  0
   10.4859    4.0901   20.9730 C   0  0  0  0  0  0  0  0  0  0  0  0
   11.0962    9.3293   23.5072 C   0  0  0  0  0  0  0  0  0  0  0  0
    5.1273    7.8529   23.6208 N   0  0  0  0  0  0  0  0  0  0  0  0
    9.7552    9.2338   23.0171 N   0  0  0  0  0  0  0  0  0  0  0  0
   11.1797    6.7591   21.3326 N   0  0  0  0  0  0  0  0  0  0  0  0
   11.7728    8.0337   23.7267 C   0  0  0  0  0  0  0  0  0  0  0  0
    7.1194    8.3344   24.6775 C   0  0  0  0  0  0  0  0  0  0  0  0
    8.4311    4.7963   22.0500 C   0  0  0  0  0  0  0  0  0  0  0  0
    8.7393   10.8706   24.1871 O   0  0  0  0  0  0  0  0  0  0  0  0
    9.3093    3.8166   21.6712 C   0  0  0  0  0  0  0  0  0  0  0  0
  1  5  1  0
  1 15  4  0
  1 22  4  0
  2 20  1  0
  2 24  1  0
  3  6  4  0
  3 27  4  0
  4 22  4  0
  4 26  4  0
  6  7  4  0
  6 13  1  0
  7 19  4  0
  8 18  1  0
  8 23  1  0
  8 28  2  0
  9 17  1  0
  9 24  1  0
 10 11  1  0
 10 24  1  0
 11 23  1  0
 12 14  4  0
 12 16  4  0
 14 19  4  0
 15 18  4  0
 16 20  4  0
 17 25  1  0
 18 26  4  0
 19 29  4  0
 20 29  4  0
 21 23  1  0
 21 25  1  0
 27 29  4  0
M  END
$$$$

 Created by Python create_sdf_string function

 29 32  0  0  0  0  0  0  0  0999 V2000
    5.4450    8.7154   22.6662 C   0  0  0  0  0  0  0  0  0  0  0  0
   10.9154    5.4574   20.5483 C   0  0  0  0  0  0  0  0  0  0  0  0
    7.2709    4.5089   22.7542 C   0  0  0  0  0  0  0  0  0  0  0  0
    5.9698    7.6329   24.6581 C   0  0  0  0  0  0  0  0  0  0  0  0
    4.5542    8.9057   21.7104 O   0  0  0  0  0  0  0  0  0  0  0  0
    6.9895    3.2085   23.0690 C   0  0  0  0  0  0  0  0  0  0  0  0
    7.8391    2.2253   22.7260 N   0  0  0  0  0  0  0  0  0  0  0  0
    8.6968    9.8373   23.6359 C   0  0  0  0  0  0  0  0  0  0  0  0
   12.5135    6.5957   21.8396 C   0  0  0  0  0  0  0  0  0  0  0  0
   10.9406    8.2330   21.1350 C   0  0  0  0  0  0  0  0  0  0  0  0
    9.6648    8.5956   21.7310 C   0  0  0  0  0  0  0  0  0  0  0  0
   10.8829    1.7153   20.9865 C   0  0  0  0  0  0  0  0  0  0  0  0
    5.7768    2.8533   23.7910 C   0  0  0  0  0  0  0  0  0  0  0  0
    9.7977    1.4791   21.6912 N   0  0  0  0  0  0  0  0  0  0  0  0
    6.5976    9.3401   22.6478 N   0  0  0  0  0  0  0  0  0  0  0  0
   11.2031    3.0042   20.6246 C   0  0  0  0  0  0  0  0  0  0  0  0
   12.8688    7.7370   22.7287 C   0  0  0  0  0  0  0  0  0  0  0  0
    7.4487    9.1361   23.6506 C   0  0  0  0  0  0  0  0  0  0  0  0
    8.9772    2.5025   22.0273 C   0  0  0  0  0  0  0  0  0  0  0  0
   10.4859    4.0901   20.9730 C   0  0  0  0  0  0  0  0  0  0  0  0
   11.0962    9.3293   23.5072 C   0  0  0  0  0  0  0  0  0  0  0  0
    5.1273    7.8529   23.6208 N   0  0  0  0  0  0  0  0  0  0  0  0
    9.7552    9.2338   23.0171 N   0  0  0  0  0  0  0  0  0  0  0  0
   11.1797    6.7591   21.3326 N   0  0  0  0  0  0  0  0  0  0  0  0
   11.7728    8.0337   23.7267 C   0  0  0  0  0  0  0  0  0  0  0  0
    7.1194    8.3344   24.6775 C   0  0  0  0  0  0  0  0  0  0  0  0
    8.4311    4.7963   22.0500 C   0  0  0  0  0  0  0  0  0  0  0  0
    8.7393   10.8706   24.1871 O   0  0  0  0  0  0  0  0  0  0  0  0
    9.3093    3.8166   21.6712 C   0  0  0  0  0  0  0  0  0  0  0  0
  1  5  1  0
  1 15  4  0
  1 22  4  0
  2 20  1  0
  2 24  1  0
  3  6  4  0
  3 27  4  0
  4 22  4  0
  4 26  4  0
  6  7  4  0
  6 13  1  0
  7 19  4  0
  8 18  1  0
  8 23  1  0
  8 28  2  0
  9 17  1  0
  9 24  1  0
 10 11  1  0
 10 24  1  0
 11 23  1  0
 12 14  4  0
 12 16  4  0
 14 19  4  0
 15 18  4  0
 16 20  4  0
 17 25  1  0
 18 26  4  0
 19 29  4  0
 20 29  4  0
 21 23  1  0
 21 25  1  0
 27 29  4  0
M  END
$$$$

 Created by Python create_sdf_string function

 29 32  0  0  0  0  0  0  0  0999 V2000
    5.4450    8.7154   22.6662 C   0  0  0  0  0  0  0  0  0  0  0  0
   10.9154    5.4574   20.5483 C   0  0  0  0  0  0  0  0  0  0  0  0
    7.2709    4.5089   22.7542 C   0  0  0  0  0  0  0  0  0  0  0  0
    5.9698    7.6329   24.6581 C   0  0  0  0  0  0  0  0  0  0  0  0
    4.5542    8.9057   21.7104 O   0  0  0  0  0  0  0  0  0  0  0  0
    6.9895    3.2085   23.0690 C   0  0  0  0  0  0  0  0  0  0  0  0
    7.8391    2.2253   22.7260 N   0  0  0  0  0  0  0  0  0  0  0  0
    8.6968    9.8373   23.6359 C   0  0  0  0  0  0  0  0  0  0  0  0
   12.5135    6.5957   21.8396 C   0  0  0  0  0  0  0  0  0  0  0  0
   10.9406    8.2330   21.1350 C   0  0  0  0  0  0  0  0  0  0  0  0
    9.6648    8.5956   21.7310 C   0  0  0  0  0  0  0  0  0  0  0  0
   10.8829    1.7153   20.9865 C   0  0  0  0  0  0  0  0  0  0  0  0
    5.7768    2.8533   23.7910 C   0  0  0  0  0  0  0  0  0  0  0  0
    9.7977    1.4791   21.6912 N   0  0  0  0  0  0  0  0  0  0  0  0
    6.5976    9.3401   22.6478 N   0  0  0  0  0  0  0  0  0  0  0  0
   11.2031    3.0042   20.6246 C   0  0  0  0  0  0  0  0  0  0  0  0
   12.8688    7.7370   22.7287 C   0  0  0  0  0  0  0  0  0  0  0  0
    7.4487    9.1361   23.6506 C   0  0  0  0  0  0  0  0  0  0  0  0
    8.9772    2.5025   22.0273 C   0  0  0  0  0  0  0  0  0  0  0  0
   10.4859    4.0901   20.9730 C   0  0  0  0  0  0  0  0  0  0  0  0
   11.0962    9.3293   23.5072 C   0  0  0  0  0  0  0  0  0  0  0  0
    5.1273    7.8529   23.6208 N   0  0  0  0  0  0  0  0  0  0  0  0
    9.7552    9.2338   23.0171 N   0  0  0  0  0  0  0  0  0  0  0  0
   11.1797    6.7591   21.3326 N   0  0  0  0  0  0  0  0  0  0  0  0
   11.7728    8.0337   23.7267 C   0  0  0  0  0  0  0  0  0  0  0  0
    7.1194    8.3344   24.6775 C   0  0  0  0  0  0  0  0  0  0  0  0
    8.4311    4.7963   22.0500 C   0  0  0  0  0  0  0  0  0  0  0  0
    8.7393   10.8706   24.1871 O   0  0  0  0  0  0  0  0  0  0  0  0
    9.3093    3.8166   21.6712 C   0  0  0  0  0  0  0  0  0  0  0  0
  1  5  1  0
  1 15  4  0
  1 22  4  0
  2 20  1  0
  2 24  1  0
  3  6  4  0
  3 27  4  0
  4 22  4  0
  4 26  4  0
  6  7  4  0
  6 13  1  0
  7 19  4  0
  8 18  1  0
  8 23  1  0
  8 28  2  0
  9 17  1  0
  9 24  1  0
 10 11  1  0
 10 24  1  0
 11 23  1  0
 12 14  4  0
 12 16  4  0
 14 19  4  0
 15 18  4  0
 16 20  4  0
 17 25  1  0
 18 26  4  0
 19 29  4  0
 20 29  4  0
 21 23  1  0
 21 25  1  0
 27 29  4  0
M  END
$$$$

 Created by Python create_sdf_string function

 29 32  0  0  0  0  0  0  0  0999 V2000
    5.4450    8.7154   22.6662 C   0  0  0  0  0  0  0  0  0  0  0  0
   10.9154    5.4574   20.5483 C   0  0  0  0  0  0  0  0  0  0  0  0
    7.2709    4.5089   22.7542 C   0  0  0  0  0  0  0  0  0  0  0  0
    5.9698    7.6329   24.6581 C   0  0  0  0  0  0  0  0  0  0  0  0
    4.5542    8.9057   21.7104 O   0  0  0  0  0  0  0  0  0  0  0  0
    6.9895    3.2085   23.0690 C   0  0  0  0  0  0  0  0  0  0  0  0
    7.8391    2.2253   22.7260 N   0  0  0  0  0  0  0  0  0  0  0  0
    8.6968    9.8373   23.6359 C   0  0  0  0  0  0  0  0  0  0  0  0
   12.5135    6.5957   21.8396 C   0  0  0  0  0  0  0  0  0  0  0  0
   10.9406    8.2330   21.1350 C   0  0  0  0  0  0  0  0  0  0  0  0
    9.6648    8.5956   21.7310 C   0  0  0  0  0  0  0  0  0  0  0  0
   10.8829    1.7153   20.9865 C   0  0  0  0  0  0  0  0  0  0  0  0
    5.7768    2.8533   23.7910 C   0  0  0  0  0  0  0  0  0  0  0  0
    9.7977    1.4791   21.6912 N   0  0  0  0  0  0  0  0  0  0  0  0
    6.5976    9.3401   22.6478 N   0  0  0  0  0  0  0  0  0  0  0  0
   11.2031    3.0042   20.6246 C   0  0  0  0  0  0  0  0  0  0  0  0
   12.8688    7.7370   22.7287 C   0  0  0  0  0  0  0  0  0  0  0  0
    7.4487    9.1361   23.6506 C   0  0  0  0  0  0  0  0  0  0  0  0
    8.9772    2.5025   22.0273 C   0  0  0  0  0  0  0  0  0  0  0  0
   10.4859    4.0901   20.9730 C   0  0  0  0  0  0  0  0  0  0  0  0
   11.0962    9.3293   23.5072 C   0  0  0  0  0  0  0  0  0  0  0  0
    5.1273    7.8529   23.6208 N   0  0  0  0  0  0  0  0  0  0  0  0
    9.7552    9.2338   23.0171 N   0  0  0  0  0  0  0  0  0  0  0  0
   11.1797    6.7591   21.3326 N   0  0  0  0  0  0  0  0  0  0  0  0
   11.7728    8.0337   23.7267 C   0  0  0  0  0  0  0  0  0  0  0  0
    7.1194    8.3344   24.6775 C   0  0  0  0  0  0  0  0  0  0  0  0
    8.4311    4.7963   22.0500 C   0  0  0  0  0  0  0  0  0  0  0  0
    8.7393   10.8706   24.1871 O   0  0  0  0  0  0  0  0  0  0  0  0
    9.3093    3.8166   21.6712 C   0  0  0  0  0  0  0  0  0  0  0  0
  1  5  1  0
  1 15  4  0
  1 22  4  0
  2 20  1  0
  2 24  1  0
  3  6  4  0
  3 27  4  0
  4 22  4  0
  4 26  4  0
  6  7  4  0
  6 13  1  0
  7 19  4  0
  8 18  1  0
  8 23  1  0
  8 28  2  0
  9 17  1  0
  9 24  1  0
 10 11  1  0
 10 24  1  0
 11 23  1  0
 12 14  4  0
 12 16  4  0
 14 19  4  0
 15 18  4  0
 16 20  4  0
 17 25  1  0
 18 26  4  0
 19 29  4  0
 20 29  4  0
 21 23  1  0
 21 25  1  0
 27 29  4  0
M  END
$$$$

 Created by Python create_sdf_string function

 29 32  0  0  0  0  0  0  0  0999 V2000
    5.4450    8.7154   22.6662 C   0  0  0  0  0  0  0  0  0  0  0  0
   10.9154    5.4574   20.5483 C   0  0  0  0  0  0  0  0  0  0  0  0
    7.2709    4.5089   22.7542 C   0  0  0  0  0  0  0  0  0  0  0  0
    5.9698    7.6329   24.6581 C   0  0  0  0  0  0  0  0  0  0  0  0
    4.5542    8.9057   21.7104 O   0  0  0  0  0  0  0  0  0  0  0  0
    6.9895    3.2085   23.0690 C   0  0  0  0  0  0  0  0  0  0  0  0
    7.8391    2.2253   22.7260 N   0  0  0  0  0  0  0  0  0  0  0  0
    8.6968    9.8373   23.6359 C   0  0  0  0  0  0  0  0  0  0  0  0
   12.5135    6.5957   21.8396 C   0  0  0  0  0  0  0  0  0  0  0  0
   10.9406    8.2330   21.1350 C   0  0  0  0  0  0  0  0  0  0  0  0
    9.6648    8.5956   21.7310 C   0  0  0  0  0  0  0  0  0  0  0  0
   10.8829    1.7153   20.9865 C   0  0  0  0  0  0  0  0  0  0  0  0
    5.7768    2.8533   23.7910 C   0  0  0  0  0  0  0  0  0  0  0  0
    9.7977    1.4791   21.6912 N   0  0  0  0  0  0  0  0  0  0  0  0
    6.5976    9.3401   22.6478 N   0  0  0  0  0  0  0  0  0  0  0  0
   11.2031    3.0042   20.6246 C   0  0  0  0  0  0  0  0  0  0  0  0
   12.8688    7.7370   22.7287 C   0  0  0  0  0  0  0  0  0  0  0  0
    7.4487    9.1361   23.6506 C   0  0  0  0  0  0  0  0  0  0  0  0
    8.9772    2.5025   22.0273 C   0  0  0  0  0  0  0  0  0  0  0  0
   10.4859    4.0901   20.9730 C   0  0  0  0  0  0  0  0  0  0  0  0
   11.0962    9.3293   23.5072 C   0  0  0  0  0  0  0  0  0  0  0  0
    5.1273    7.8529   23.6208 N   0  0  0  0  0  0  0  0  0  0  0  0
    9.7552    9.2338   23.0171 N   0  0  0  0  0  0  0  0  0  0  0  0
   11.1797    6.7591   21.3326 N   0  0  0  0  0  0  0  0  0  0  0  0
   11.7728    8.0337   23.7267 C   0  0  0  0  0  0  0  0  0  0  0  0
    7.1194    8.3344   24.6775 C   0  0  0  0  0  0  0  0  0  0  0  0
    8.4311    4.7963   22.0500 C   0  0  0  0  0  0  0  0  0  0  0  0
    8.7393   10.8706   24.1871 O   0  0  0  0  0  0  0  0  0  0  0  0
    9.3093    3.8166   21.6712 C   0  0  0  0  0  0  0  0  0  0  0  0
  1  5  1  0
  1 15  4  0
  1 22  4  0
  2 20  1  0
  2 24  1  0
  3  6  4  0
  3 27  4  0
  4 22  4  0
  4 26  4  0
  6  7  4  0
  6 13  1  0
  7 19  4  0
  8 18  1  0
  8 23  1  0
  8 28  2  0
  9 17  1  0
  9 24  1  0
 10 11  1  0
 10 24  1  0
 11 23  1  0
 12 14  4  0
 12 16  4  0
 14 19  4  0
 15 18  4  0
 16 20  4  0
 17 25  1  0
 18 26  4  0
 19 29  4  0
 20 29  4  0
 21 23  1  0
 21 25  1  0
 27 29  4  0
M  END
$$$$

 Created by Python create_sdf_string function

 29 32  0  0  0  0  0  0  0  0999 V2000
    5.4450    8.7154   22.6662 C   0  0  0  0  0  0  0  0  0  0  0  0
   10.9154    5.4574   20.5483 C   0  0  0  0  0  0  0  0  0  0  0  0
    7.2709    4.5089   22.7542 C   0  0  0  0  0  0  0  0  0  0  0  0
    5.9698    7.6329   24.6581 C   0  0  0  0  0  0  0  0  0  0  0  0
    4.5542    8.9057   21.7104 O   0  0  0  0  0  0  0  0  0  0  0  0
    6.9895    3.2085   23.0690 C   0  0  0  0  0  0  0  0  0  0  0  0
    7.8391    2.2253   22.7260 N   0  0  0  0  0  0  0  0  0  0  0  0
    8.6968    9.8373   23.6359 C   0  0  0  0  0  0  0  0  0  0  0  0
   12.5135    6.5957   21.8396 C   0  0  0  0  0  0  0  0  0  0  0  0
   10.9406    8.2330   21.1350 C   0  0  0  0  0  0  0  0  0  0  0  0
    9.6648    8.5956   21.7310 C   0  0  0  0  0  0  0  0  0  0  0  0
   10.8829    1.7153   20.9865 C   0  0  0  0  0  0  0  0  0  0  0  0
    5.7768    2.8533   23.7910 C   0  0  0  0  0  0  0  0  0  0  0  0
    9.7977    1.4791   21.6912 N   0  0  0  0  0  0  0  0  0  0  0  0
    6.5976    9.3401   22.6478 N   0  0  0  0  0  0  0  0  0  0  0  0
   11.2031    3.0042   20.6246 C   0  0  0  0  0  0  0  0  0  0  0  0
   12.8688    7.7370   22.7287 C   0  0  0  0  0  0  0  0  0  0  0  0
    7.4487    9.1361   23.6506 C   0  0  0  0  0  0  0  0  0  0  0  0
    8.9772    2.5025   22.0273 C   0  0  0  0  0  0  0  0  0  0  0  0
   10.4859    4.0901   20.9730 C   0  0  0  0  0  0  0  0  0  0  0  0
   11.0962    9.3293   23.5072 C   0  0  0  0  0  0  0  0  0  0  0  0
    5.1273    7.8529   23.6208 N   0  0  0  0  0  0  0  0  0  0  0  0
    9.7552    9.2338   23.0171 N   0  0  0  0  0  0  0  0  0  0  0  0
   11.1797    6.7591   21.3326 N   0  0  0  0  0  0  0  0  0  0  0  0
   11.7728    8.0337   23.7267 C   0  0  0  0  0  0  0  0  0  0  0  0
    7.1194    8.3344   24.6775 C   0  0  0  0  0  0  0  0  0  0  0  0
    8.4311    4.7963   22.0500 C   0  0  0  0  0  0  0  0  0  0  0  0
    8.7393   10.8706   24.1871 O   0  0  0  0  0  0  0  0  0  0  0  0
    9.3093    3.8166   21.6712 C   0  0  0  0  0  0  0  0  0  0  0  0
  1  5  1  0
  1 15  4  0
  1 22  4  0
  2 20  1  0
  2 24  1  0
  3  6  4  0
  3 27  4  0
  4 22  4  0
  4 26  4  0
  6  7  4  0
  6 13  1  0
  7 19  4  0
  8 18  1  0
  8 23  1  0
  8 28  2  0
  9 17  1  0
  9 24  1  0
 10 11  1  0
 10 24  1  0
 11 23  1  0
 12 14  4  0
 12 16  4  0
 14 19  4  0
 15 18  4  0
 16 20  4  0
 17 25  1  0
 18 26  4  0
 19 29  4  0
 20 29  4  0
 21 23  1  0
 21 25  1  0
 27 29  4  0
M  END
$$$$

 Created by Python create_sdf_string function

 29 32  0  0  0  0  0  0  0  0999 V2000
    5.4450    8.7154   22.6662 C   0  0  0  0  0  0  0  0  0  0  0  0
   10.9154    5.4574   20.5483 C   0  0  0  0  0  0  0  0  0  0  0  0
    7.2709    4.5089   22.7542 C   0  0  0  0  0  0  0  0  0  0  0  0
    5.9698    7.6329   24.6581 C   0  0  0  0  0  0  0  0  0  0  0  0
    4.5542    8.9057   21.7104 O   0  0  0  0  0  0  0  0  0  0  0  0
    6.9895    3.2085   23.0690 C   0  0  0  0  0  0  0  0  0  0  0  0
    7.8391    2.2253   22.7260 N   0  0  0  0  0  0  0  0  0  0  0  0
    8.6968    9.8373   23.6359 C   0  0  0  0  0  0  0  0  0  0  0  0
   12.5135    6.5957   21.8396 C   0  0  0  0  0  0  0  0  0  0  0  0
   10.9406    8.2330   21.1350 C   0  0  0  0  0  0  0  0  0  0  0  0
    9.6648    8.5956   21.7310 C   0  0  0  0  0  0  0  0  0  0  0  0
   10.8829    1.7153   20.9865 C   0  0  0  0  0  0  0  0  0  0  0  0
    5.7768    2.8533   23.7910 C   0  0  0  0  0  0  0  0  0  0  0  0
    9.7977    1.4791   21.6912 N   0  0  0  0  0  0  0  0  0  0  0  0
    6.5976    9.3401   22.6478 N   0  0  0  0  0  0  0  0  0  0  0  0
   11.2031    3.0042   20.6246 C   0  0  0  0  0  0  0  0  0  0  0  0
   12.8688    7.7370   22.7287 C   0  0  0  0  0  0  0  0  0  0  0  0
    7.4487    9.1361   23.6506 C   0  0  0  0  0  0  0  0  0  0  0  0
    8.9772    2.5025   22.0273 C   0  0  0  0  0  0  0  0  0  0  0  0
   10.4859    4.0901   20.9730 C   0  0  0  0  0  0  0  0  0  0  0  0
   11.0962    9.3293   23.5072 C   0  0  0  0  0  0  0  0  0  0  0  0
    5.1273    7.8529   23.6208 N   0  0  0  0  0  0  0  0  0  0  0  0
    9.7552    9.2338   23.0171 N   0  0  0  0  0  0  0  0  0  0  0  0
   11.1797    6.7591   21.3326 N   0  0  0  0  0  0  0  0  0  0  0  0
   11.7728    8.0337   23.7267 C   0  0  0  0  0  0  0  0  0  0  0  0
    7.1194    8.3344   24.6775 C   0  0  0  0  0  0  0  0  0  0  0  0
    8.4311    4.7963   22.0500 C   0  0  0  0  0  0  0  0  0  0  0  0
    8.7393   10.8706   24.1871 O   0  0  0  0  0  0  0  0  0  0  0  0
    9.3093    3.8166   21.6712 C   0  0  0  0  0  0  0  0  0  0  0  0
  1  5  1  0
  1 15  4  0
  1 22  4  0
  2 20  1  0
  2 24  1  0
  3  6  4  0
  3 27  4  0
  4 22  4  0
  4 26  4  0
  6  7  4  0
  6 13  1  0
  7 19  4  0
  8 18  1  0
  8 23  1  0
  8 28  2  0
  9 17  1  0
  9 24  1  0
 10 11  1  0
 10 24  1  0
 11 23  1  0
 12 14  4  0
 12 16  4  0
 14 19  4  0
 15 18  4  0
 16 20  4  0
 17 25  1  0
 18 26  4  0
 19 29  4  0
 20 29  4  0
 21 23  1  0
 21 25  1  0
 27 29  4  0
M  END
$$$$

 Created by Python create_sdf_string function

 29 32  0  0  0  0  0  0  0  0999 V2000
    5.4450    8.7154   22.6662 C   0  0  0  0  0  0  0  0  0  0  0  0
   10.9154    5.4574   20.5483 C   0  0  0  0  0  0  0  0  0  0  0  0
    7.2709    4.5089   22.7542 C   0  0  0  0  0  0  0  0  0  0  0  0
    5.9698    7.6329   24.6581 C   0  0  0  0  0  0  0  0  0  0  0  0
    4.5542    8.9057   21.7104 O   0  0  0  0  0  0  0  0  0  0  0  0
    6.9895    3.2085   23.0690 C   0  0  0  0  0  0  0  0  0  0  0  0
    7.8391    2.2253   22.7260 N   0  0  0  0  0  0  0  0  0  0  0  0
    8.6968    9.8373   23.6359 C   0  0  0  0  0  0  0  0  0  0  0  0
   12.5135    6.5957   21.8396 C   0  0  0  0  0  0  0  0  0  0  0  0
   10.9406    8.2330   21.1350 C   0  0  0  0  0  0  0  0  0  0  0  0
    9.6648    8.5956   21.7310 C   0  0  0  0  0  0  0  0  0  0  0  0
   10.8829    1.7153   20.9865 C   0  0  0  0  0  0  0  0  0  0  0  0
    5.7768    2.8533   23.7910 C   0  0  0  0  0  0  0  0  0  0  0  0
    9.7977    1.4791   21.6912 N   0  0  0  0  0  0  0  0  0  0  0  0
    6.5976    9.3401   22.6478 N   0  0  0  0  0  0  0  0  0  0  0  0
   11.2031    3.0042   20.6246 C   0  0  0  0  0  0  0  0  0  0  0  0
   12.8688    7.7370   22.7287 C   0  0  0  0  0  0  0  0  0  0  0  0
    7.4487    9.1361   23.6506 C   0  0  0  0  0  0  0  0  0  0  0  0
    8.9772    2.5025   22.0273 C   0  0  0  0  0  0  0  0  0  0  0  0
   10.4859    4.0901   20.9730 C   0  0  0  0  0  0  0  0  0  0  0  0
   11.0962    9.3293   23.5072 C   0  0  0  0  0  0  0  0  0  0  0  0
    5.1273    7.8529   23.6208 N   0  0  0  0  0  0  0  0  0  0  0  0
    9.7552    9.2338   23.0171 N   0  0  0  0  0  0  0  0  0  0  0  0
   11.1797    6.7591   21.3326 N   0  0  0  0  0  0  0  0  0  0  0  0
   11.7728    8.0337   23.7267 C   0  0  0  0  0  0  0  0  0  0  0  0
    7.1194    8.3344   24.6775 C   0  0  0  0  0  0  0  0  0  0  0  0
    8.4311    4.7963   22.0500 C   0  0  0  0  0  0  0  0  0  0  0  0
    8.7393   10.8706   24.1871 O   0  0  0  0  0  0  0  0  0  0  0  0
    9.3093    3.8166   21.6712 C   0  0  0  0  0  0  0  0  0  0  0  0
  1  5  1  0
  1 15  4  0
  1 22  4  0
  2 20  1  0
  2 24  1  0
  3  6  4  0
  3 27  4  0
  4 22  4  0
  4 26  4  0
  6  7  4  0
  6 13  1  0
  7 19  4  0
  8 18  1  0
  8 23  1  0
  8 28  2  0
  9 17  1  0
  9 24  1  0
 10 11  1  0
 10 24  1  0
 11 23  1  0
 12 14  4  0
 12 16  4  0
 14 19  4  0
 15 18  4  0
 16 20  4  0
 17 25  1  0
 18 26  4  0
 19 29  4  0
 20 29  4  0
 21 23  1  0
 21 25  1  0
 27 29  4  0
M  END
$$$$

 Created by Python create_sdf_string function

 29 32  0  0  0  0  0  0  0  0999 V2000
    5.4450    8.7154   22.6662 C   0  0  0  0  0  0  0  0  0  0  0  0
   10.9154    5.4574   20.5483 C   0  0  0  0  0  0  0  0  0  0  0  0
    7.2709    4.5089   22.7542 C   0  0  0  0  0  0  0  0  0  0  0  0
    5.9698    7.6329   24.6581 C   0  0  0  0  0  0  0  0  0  0  0  0
    4.5542    8.9057   21.7104 O   0  0  0  0  0  0  0  0  0  0  0  0
    6.9895    3.2085   23.0690 C   0  0  0  0  0  0  0  0  0  0  0  0
    7.8391    2.2253   22.7260 N   0  0  0  0  0  0  0  0  0  0  0  0
    8.6968    9.8373   23.6359 C   0  0  0  0  0  0  0  0  0  0  0  0
   12.5135    6.5957   21.8396 C   0  0  0  0  0  0  0  0  0  0  0  0
   10.9406    8.2330   21.1350 C   0  0  0  0  0  0  0  0  0  0  0  0
    9.6648    8.5956   21.7310 C   0  0  0  0  0  0  0  0  0  0  0  0
   10.8829    1.7153   20.9865 C   0  0  0  0  0  0  0  0  0  0  0  0
    5.7768    2.8533   23.7910 C   0  0  0  0  0  0  0  0  0  0  0  0
    9.7977    1.4791   21.6912 N   0  0  0  0  0  0  0  0  0  0  0  0
    6.5976    9.3401   22.6478 N   0  0  0  0  0  0  0  0  0  0  0  0
   11.2031    3.0042   20.6246 C   0  0  0  0  0  0  0  0  0  0  0  0
   12.8688    7.7370   22.7287 C   0  0  0  0  0  0  0  0  0  0  0  0
    7.4487    9.1361   23.6506 C   0  0  0  0  0  0  0  0  0  0  0  0
    8.9772    2.5025   22.0273 C   0  0  0  0  0  0  0  0  0  0  0  0
   10.4859    4.0901   20.9730 C   0  0  0  0  0  0  0  0  0  0  0  0
   11.0962    9.3293   23.5072 C   0  0  0  0  0  0  0  0  0  0  0  0
    5.1273    7.8529   23.6208 N   0  0  0  0  0  0  0  0  0  0  0  0
    9.7552    9.2338   23.0171 N   0  0  0  0  0  0  0  0  0  0  0  0
   11.1797    6.7591   21.3326 N   0  0  0  0  0  0  0  0  0  0  0  0
   11.7728    8.0337   23.7267 C   0  0  0  0  0  0  0  0  0  0  0  0
    7.1194    8.3344   24.6775 C   0  0  0  0  0  0  0  0  0  0  0  0
    8.4311    4.7963   22.0500 C   0  0  0  0  0  0  0  0  0  0  0  0
    8.7393   10.8706   24.1871 O   0  0  0  0  0  0  0  0  0  0  0  0
    9.3093    3.8166   21.6712 C   0  0  0  0  0  0  0  0  0  0  0  0
  1  5  1  0
  1 15  4  0
  1 22  4  0
  2 20  1  0
  2 24  1  0
  3  6  4  0
  3 27  4  0
  4 22  4  0
  4 26  4  0
  6  7  4  0
  6 13  1  0
  7 19  4  0
  8 18  1  0
  8 23  1  0
  8 28  2  0
  9 17  1  0
  9 24  1  0
 10 11  1  0
 10 24  1  0
 11 23  1  0
 12 14  4  0
 12 16  4  0
 14 19  4  0
 15 18  4  0
 16 20  4  0
 17 25  1  0
 18 26  4  0
 19 29  4  0
 20 29  4  0
 21 23  1  0
 21 25  1  0
 27 29  4  0
M  END
$$$$

 Created by Python create_sdf_string function

 29 32  0  0  0  0  0  0  0  0999 V2000
    5.4450    8.7154   22.6662 C   0  0  0  0  0  0  0  0  0  0  0  0
   10.9154    5.4574   20.5483 C   0  0  0  0  0  0  0  0  0  0  0  0
    7.2709    4.5089   22.7542 C   0  0  0  0  0  0  0  0  0  0  0  0
    5.9698    7.6329   24.6581 C   0  0  0  0  0  0  0  0  0  0  0  0
    4.5542    8.9057   21.7104 O   0  0  0  0  0  0  0  0  0  0  0  0
    6.9895    3.2085   23.0690 C   0  0  0  0  0  0  0  0  0  0  0  0
    7.8391    2.2253   22.7260 N   0  0  0  0  0  0  0  0  0  0  0  0
    8.6968    9.8373   23.6359 C   0  0  0  0  0  0  0  0  0  0  0  0
   12.5135    6.5957   21.8396 C   0  0  0  0  0  0  0  0  0  0  0  0
   10.9406    8.2330   21.1350 C   0  0  0  0  0  0  0  0  0  0  0  0
    9.6648    8.5956   21.7310 C   0  0  0  0  0  0  0  0  0  0  0  0
   10.8829    1.7153   20.9865 C   0  0  0  0  0  0  0  0  0  0  0  0
    5.7768    2.8533   23.7910 C   0  0  0  0  0  0  0  0  0  0  0  0
    9.7977    1.4791   21.6912 N   0  0  0  0  0  0  0  0  0  0  0  0
    6.5976    9.3401   22.6478 N   0  0  0  0  0  0  0  0  0  0  0  0
   11.2031    3.0042   20.6246 C   0  0  0  0  0  0  0  0  0  0  0  0
   12.8688    7.7370   22.7287 C   0  0  0  0  0  0  0  0  0  0  0  0
    7.4487    9.1361   23.6506 C   0  0  0  0  0  0  0  0  0  0  0  0
    8.9772    2.5025   22.0273 C   0  0  0  0  0  0  0  0  0  0  0  0
   10.4859    4.0901   20.9730 C   0  0  0  0  0  0  0  0  0  0  0  0
   11.0962    9.3293   23.5072 C   0  0  0  0  0  0  0  0  0  0  0  0
    5.1273    7.8529   23.6208 N   0  0  0  0  0  0  0  0  0  0  0  0
    9.7552    9.2338   23.0171 N   0  0  0  0  0  0  0  0  0  0  0  0
   11.1797    6.7591   21.3326 N   0  0  0  0  0  0  0  0  0  0  0  0
   11.7728    8.0337   23.7267 C   0  0  0  0  0  0  0  0  0  0  0  0
    7.1194    8.3344   24.6775 C   0  0  0  0  0  0  0  0  0  0  0  0
    8.4311    4.7963   22.0500 C   0  0  0  0  0  0  0  0  0  0  0  0
    8.7393   10.8706   24.1871 O   0  0  0  0  0  0  0  0  0  0  0  0
    9.3093    3.8166   21.6712 C   0  0  0  0  0  0  0  0  0  0  0  0
  1  5  1  0
  1 15  4  0
  1 22  4  0
  2 20  1  0
  2 24  1  0
  3  6  4  0
  3 27  4  0
  4 22  4  0
  4 26  4  0
  6  7  4  0
  6 13  1  0
  7 19  4  0
  8 18  1  0
  8 23  1  0
  8 28  2  0
  9 17  1  0
  9 24  1  0
 10 11  1  0
 10 24  1  0
 11 23  1  0
 12 14  4  0
 12 16  4  0
 14 19  4  0
 15 18  4  0
 16 20  4  0
 17 25  1  0
 18 26  4  0
 19 29  4  0
 20 29  4  0
 21 23  1  0
 21 25  1  0
 27 29  4  0
M  END
$$$$

 Created by Python create_sdf_string function

 29 32  0  0  0  0  0  0  0  0999 V2000
    5.4450    8.7154   22.6662 C   0  0  0  0  0  0  0  0  0  0  0  0
   10.9154    5.4574   20.5483 C   0  0  0  0  0  0  0  0  0  0  0  0
    7.2709    4.5089   22.7542 C   0  0  0  0  0  0  0  0  0  0  0  0
    5.9698    7.6329   24.6581 C   0  0  0  0  0  0  0  0  0  0  0  0
    4.5542    8.9057   21.7104 O   0  0  0  0  0  0  0  0  0  0  0  0
    6.9895    3.2085   23.0690 C   0  0  0  0  0  0  0  0  0  0  0  0
    7.8391    2.2253   22.7260 N   0  0  0  0  0  0  0  0  0  0  0  0
    8.6968    9.8373   23.6359 C   0  0  0  0  0  0  0  0  0  0  0  0
   12.5135    6.5957   21.8396 C   0  0  0  0  0  0  0  0  0  0  0  0
   10.9406    8.2330   21.1350 C   0  0  0  0  0  0  0  0  0  0  0  0
    9.6648    8.5956   21.7310 C   0  0  0  0  0  0  0  0  0  0  0  0
   10.8829    1.7153   20.9865 C   0  0  0  0  0  0  0  0  0  0  0  0
    5.7768    2.8533   23.7910 C   0  0  0  0  0  0  0  0  0  0  0  0
    9.7977    1.4791   21.6912 N   0  0  0  0  0  0  0  0  0  0  0  0
    6.5976    9.3401   22.6478 N   0  0  0  0  0  0  0  0  0  0  0  0
   11.2031    3.0042   20.6246 C   0  0  0  0  0  0  0  0  0  0  0  0
   12.8688    7.7370   22.7287 C   0  0  0  0  0  0  0  0  0  0  0  0
    7.4487    9.1361   23.6506 C   0  0  0  0  0  0  0  0  0  0  0  0
    8.9772    2.5025   22.0273 C   0  0  0  0  0  0  0  0  0  0  0  0
   10.4859    4.0901   20.9730 C   0  0  0  0  0  0  0  0  0  0  0  0
   11.0962    9.3293   23.5072 C   0  0  0  0  0  0  0  0  0  0  0  0
    5.1273    7.8529   23.6208 N   0  0  0  0  0  0  0  0  0  0  0  0
    9.7552    9.2338   23.0171 N   0  0  0  0  0  0  0  0  0  0  0  0
   11.1797    6.7591   21.3326 N   0  0  0  0  0  0  0  0  0  0  0  0
   11.7728    8.0337   23.7267 C   0  0  0  0  0  0  0  0  0  0  0  0
    7.1194    8.3344   24.6775 C   0  0  0  0  0  0  0  0  0  0  0  0
    8.4311    4.7963   22.0500 C   0  0  0  0  0  0  0  0  0  0  0  0
    8.7393   10.8706   24.1871 O   0  0  0  0  0  0  0  0  0  0  0  0
    9.3093    3.8166   21.6712 C   0  0  0  0  0  0  0  0  0  0  0  0
  1  5  1  0
  1 15  4  0
  1 22  4  0
  2 20  1  0
  2 24  1  0
  3  6  4  0
  3 27  4  0
  4 22  4  0
  4 26  4  0
  6  7  4  0
  6 13  1  0
  7 19  4  0
  8 18  1  0
  8 23  1  0
  8 28  2  0
  9 17  1  0
  9 24  1  0
 10 11  1  0
 10 24  1  0
 11 23  1  0
 12 14  4  0
 12 16  4  0
 14 19  4  0
 15 18  4  0
 16 20  4  0
 17 25  1  0
 18 26  4  0
 19 29  4  0
 20 29  4  0
 21 23  1  0
 21 25  1  0
 27 29  4  0
M  END
$$$$

 Created by Python create_sdf_string function

 29 32  0  0  0  0  0  0  0  0999 V2000
    5.4450    8.7154   22.6662 C   0  0  0  0  0  0  0  0  0  0  0  0
   10.9154    5.4574   20.5483 C   0  0  0  0  0  0  0  0  0  0  0  0
    7.2709    4.5089   22.7542 C   0  0  0  0  0  0  0  0  0  0  0  0
    5.9698    7.6329   24.6581 C   0  0  0  0  0  0  0  0  0  0  0  0
    4.5542    8.9057   21.7104 O   0  0  0  0  0  0  0  0  0  0  0  0
    6.9895    3.2085   23.0690 C   0  0  0  0  0  0  0  0  0  0  0  0
    7.8391    2.2253   22.7260 N   0  0  0  0  0  0  0  0  0  0  0  0
    8.6968    9.8373   23.6359 C   0  0  0  0  0  0  0  0  0  0  0  0
   12.5135    6.5957   21.8396 C   0  0  0  0  0  0  0  0  0  0  0  0
   10.9406    8.2330   21.1350 C   0  0  0  0  0  0  0  0  0  0  0  0
    9.6648    8.5956   21.7310 C   0  0  0  0  0  0  0  0  0  0  0  0
   10.8829    1.7153   20.9865 C   0  0  0  0  0  0  0  0  0  0  0  0
    5.7768    2.8533   23.7910 C   0  0  0  0  0  0  0  0  0  0  0  0
    9.7977    1.4791   21.6912 N   0  0  0  0  0  0  0  0  0  0  0  0
    6.5976    9.3401   22.6478 N   0  0  0  0  0  0  0  0  0  0  0  0
   11.2031    3.0042   20.6246 C   0  0  0  0  0  0  0  0  0  0  0  0
   12.8688    7.7370   22.7287 C   0  0  0  0  0  0  0  0  0  0  0  0
    7.4487    9.1361   23.6506 C   0  0  0  0  0  0  0  0  0  0  0  0
    8.9772    2.5025   22.0273 C   0  0  0  0  0  0  0  0  0  0  0  0
   10.4859    4.0901   20.9730 C   0  0  0  0  0  0  0  0  0  0  0  0
   11.0962    9.3293   23.5072 C   0  0  0  0  0  0  0  0  0  0  0  0
    5.1273    7.8529   23.6208 N   0  0  0  0  0  0  0  0  0  0  0  0
    9.7552    9.2338   23.0171 N   0  0  0  0  0  0  0  0  0  0  0  0
   11.1797    6.7591   21.3326 N   0  0  0  0  0  0  0  0  0  0  0  0
   11.7728    8.0337   23.7267 C   0  0  0  0  0  0  0  0  0  0  0  0
    7.1194    8.3344   24.6775 C   0  0  0  0  0  0  0  0  0  0  0  0
    8.4311    4.7963   22.0500 C   0  0  0  0  0  0  0  0  0  0  0  0
    8.7393   10.8706   24.1871 O   0  0  0  0  0  0  0  0  0  0  0  0
    9.3093    3.8166   21.6712 C   0  0  0  0  0  0  0  0  0  0  0  0
  1  5  1  0
  1 15  4  0
  1 22  4  0
  2 20  1  0
  2 24  1  0
  3  6  4  0
  3 27  4  0
  4 22  4  0
  4 26  4  0
  6  7  4  0
  6 13  1  0
  7 19  4  0
  8 18  1  0
  8 23  1  0
  8 28  2  0
  9 17  1  0
  9 24  1  0
 10 11  1  0
 10 24  1  0
 11 23  1  0
 12 14  4  0
 12 16  4  0
 14 19  4  0
 15 18  4  0
 16 20  4  0
 17 25  1  0
 18 26  4  0
 19 29  4  0
 20 29  4  0
 21 23  1  0
 21 25  1  0
 27 29  4  0
M  END
$$$$

 Created by Python create_sdf_string function

 29 32  0  0  0  0  0  0  0  0999 V2000
    5.4450    8.7154   22.6662 C   0  0  0  0  0  0  0  0  0  0  0  0
   10.9154    5.4574   20.5483 C   0  0  0  0  0  0  0  0  0  0  0  0
    7.2709    4.5089   22.7542 C   0  0  0  0  0  0  0  0  0  0  0  0
    5.9698    7.6329   24.6581 C   0  0  0  0  0  0  0  0  0  0  0  0
    4.5542    8.9057   21.7104 O   0  0  0  0  0  0  0  0  0  0  0  0
    6.9895    3.2085   23.0690 C   0  0  0  0  0  0  0  0  0  0  0  0
    7.8391    2.2253   22.7260 N   0  0  0  0  0  0  0  0  0  0  0  0
    8.6968    9.8373   23.6359 C   0  0  0  0  0  0  0  0  0  0  0  0
   12.5135    6.5957   21.8396 C   0  0  0  0  0  0  0  0  0  0  0  0
   10.9406    8.2330   21.1350 C   0  0  0  0  0  0  0  0  0  0  0  0
    9.6648    8.5956   21.7310 C   0  0  0  0  0  0  0  0  0  0  0  0
   10.8829    1.7153   20.9865 C   0  0  0  0  0  0  0  0  0  0  0  0
    5.7768    2.8533   23.7910 C   0  0  0  0  0  0  0  0  0  0  0  0
    9.7977    1.4791   21.6912 N   0  0  0  0  0  0  0  0  0  0  0  0
    6.5976    9.3401   22.6478 N   0  0  0  0  0  0  0  0  0  0  0  0
   11.2031    3.0042   20.6246 C   0  0  0  0  0  0  0  0  0  0  0  0
   12.8688    7.7370   22.7287 C   0  0  0  0  0  0  0  0  0  0  0  0
    7.4487    9.1361   23.6506 C   0  0  0  0  0  0  0  0  0  0  0  0
    8.9772    2.5025   22.0273 C   0  0  0  0  0  0  0  0  0  0  0  0
   10.4859    4.0901   20.9730 C   0  0  0  0  0  0  0  0  0  0  0  0
   11.0962    9.3293   23.5072 C   0  0  0  0  0  0  0  0  0  0  0  0
    5.1273    7.8529   23.6208 N   0  0  0  0  0  0  0  0  0  0  0  0
    9.7552    9.2338   23.0171 N   0  0  0  0  0  0  0  0  0  0  0  0
   11.1797    6.7591   21.3326 N   0  0  0  0  0  0  0  0  0  0  0  0
   11.7728    8.0337   23.7267 C   0  0  0  0  0  0  0  0  0  0  0  0
    7.1194    8.3344   24.6775 C   0  0  0  0  0  0  0  0  0  0  0  0
    8.4311    4.7963   22.0500 C   0  0  0  0  0  0  0  0  0  0  0  0
    8.7393   10.8706   24.1871 O   0  0  0  0  0  0  0  0  0  0  0  0
    9.3093    3.8166   21.6712 C   0  0  0  0  0  0  0  0  0  0  0  0
  1  5  1  0
  1 15  4  0
  1 22  4  0
  2 20  1  0
  2 24  1  0
  3  6  4  0
  3 27  4  0
  4 22  4  0
  4 26  4  0
  6  7  4  0
  6 13  1  0
  7 19  4  0
  8 18  1  0
  8 23  1  0
  8 28  2  0
  9 17  1  0
  9 24  1  0
 10 11  1  0
 10 24  1  0
 11 23  1  0
 12 14  4  0
 12 16  4  0
 14 19  4  0
 15 18  4  0
 16 20  4  0
 17 25  1  0
 18 26  4  0
 19 29  4  0
 20 29  4  0
 21 23  1  0
 21 25  1  0
 27 29  4  0
M  END
$$$$

 Created by Python create_sdf_string function

 29 32  0  0  0  0  0  0  0  0999 V2000
    5.4450    8.7154   22.6662 C   0  0  0  0  0  0  0  0  0  0  0  0
   10.9154    5.4574   20.5483 C   0  0  0  0  0  0  0  0  0  0  0  0
    7.2709    4.5089   22.7542 C   0  0  0  0  0  0  0  0  0  0  0  0
    5.9698    7.6329   24.6581 C   0  0  0  0  0  0  0  0  0  0  0  0
    4.5542    8.9057   21.7104 O   0  0  0  0  0  0  0  0  0  0  0  0
    6.9895    3.2085   23.0690 C   0  0  0  0  0  0  0  0  0  0  0  0
    7.8391    2.2253   22.7260 N   0  0  0  0  0  0  0  0  0  0  0  0
    8.6968    9.8373   23.6359 C   0  0  0  0  0  0  0  0  0  0  0  0
   12.5135    6.5957   21.8396 C   0  0  0  0  0  0  0  0  0  0  0  0
   10.9406    8.2330   21.1350 C   0  0  0  0  0  0  0  0  0  0  0  0
    9.6648    8.5956   21.7310 C   0  0  0  0  0  0  0  0  0  0  0  0
   10.8829    1.7153   20.9865 C   0  0  0  0  0  0  0  0  0  0  0  0
    5.7768    2.8533   23.7910 C   0  0  0  0  0  0  0  0  0  0  0  0
    9.7977    1.4791   21.6912 N   0  0  0  0  0  0  0  0  0  0  0  0
    6.5976    9.3401   22.6478 N   0  0  0  0  0  0  0  0  0  0  0  0
   11.2031    3.0042   20.6246 C   0  0  0  0  0  0  0  0  0  0  0  0
   12.8688    7.7370   22.7287 C   0  0  0  0  0  0  0  0  0  0  0  0
    7.4487    9.1361   23.6506 C   0  0  0  0  0  0  0  0  0  0  0  0
    8.9772    2.5025   22.0273 C   0  0  0  0  0  0  0  0  0  0  0  0
   10.4859    4.0901   20.9730 C   0  0  0  0  0  0  0  0  0  0  0  0
   11.0962    9.3293   23.5072 C   0  0  0  0  0  0  0  0  0  0  0  0
    5.1273    7.8529   23.6208 N   0  0  0  0  0  0  0  0  0  0  0  0
    9.7552    9.2338   23.0171 N   0  0  0  0  0  0  0  0  0  0  0  0
   11.1797    6.7591   21.3326 N   0  0  0  0  0  0  0  0  0  0  0  0
   11.7728    8.0337   23.7267 C   0  0  0  0  0  0  0  0  0  0  0  0
    7.1194    8.3344   24.6775 C   0  0  0  0  0  0  0  0  0  0  0  0
    8.4311    4.7963   22.0500 C   0  0  0  0  0  0  0  0  0  0  0  0
    8.7393   10.8706   24.1871 O   0  0  0  0  0  0  0  0  0  0  0  0
    9.3093    3.8166   21.6712 C   0  0  0  0  0  0  0  0  0  0  0  0
  1  5  1  0
  1 15  4  0
  1 22  4  0
  2 20  1  0
  2 24  1  0
  3  6  4  0
  3 27  4  0
  4 22  4  0
  4 26  4  0
  6  7  4  0
  6 13  1  0
  7 19  4  0
  8 18  1  0
  8 23  1  0
  8 28  2  0
  9 17  1  0
  9 24  1  0
 10 11  1  0
 10 24  1  0
 11 23  1  0
 12 14  4  0
 12 16  4  0
 14 19  4  0
 15 18  4  0
 16 20  4  0
 17 25  1  0
 18 26  4  0
 19 29  4  0
 20 29  4  0
 21 23  1  0
 21 25  1  0
 27 29  4  0
M  END
$$$$

 Created by Python create_sdf_string function

 29 32  0  0  0  0  0  0  0  0999 V2000
    5.4450    8.7154   22.6662 C   0  0  0  0  0  0  0  0  0  0  0  0
   10.9154    5.4574   20.5483 C   0  0  0  0  0  0  0  0  0  0  0  0
    7.2709    4.5089   22.7542 C   0  0  0  0  0  0  0  0  0  0  0  0
    5.9698    7.6329   24.6581 C   0  0  0  0  0  0  0  0  0  0  0  0
    4.5542    8.9057   21.7104 O   0  0  0  0  0  0  0  0  0  0  0  0
    6.9895    3.2085   23.0690 C   0  0  0  0  0  0  0  0  0  0  0  0
    7.8391    2.2253   22.7260 N   0  0  0  0  0  0  0  0  0  0  0  0
    8.6968    9.8373   23.6359 C   0  0  0  0  0  0  0  0  0  0  0  0
   12.5135    6.5957   21.8396 C   0  0  0  0  0  0  0  0  0  0  0  0
   10.9406    8.2330   21.1350 C   0  0  0  0  0  0  0  0  0  0  0  0
    9.6648    8.5956   21.7310 C   0  0  0  0  0  0  0  0  0  0  0  0
   10.8829    1.7153   20.9865 C   0  0  0  0  0  0  0  0  0  0  0  0
    5.7768    2.8533   23.7910 C   0  0  0  0  0  0  0  0  0  0  0  0
    9.7977    1.4791   21.6912 N   0  0  0  0  0  0  0  0  0  0  0  0
    6.5976    9.3401   22.6478 N   0  0  0  0  0  0  0  0  0  0  0  0
   11.2031    3.0042   20.6246 C   0  0  0  0  0  0  0  0  0  0  0  0
   12.8688    7.7370   22.7287 C   0  0  0  0  0  0  0  0  0  0  0  0
    7.4487    9.1361   23.6506 C   0  0  0  0  0  0  0  0  0  0  0  0
    8.9772    2.5025   22.0273 C   0  0  0  0  0  0  0  0  0  0  0  0
   10.4859    4.0901   20.9730 C   0  0  0  0  0  0  0  0  0  0  0  0
   11.0962    9.3293   23.5072 C   0  0  0  0  0  0  0  0  0  0  0  0
    5.1273    7.8529   23.6208 N   0  0  0  0  0  0  0  0  0  0  0  0
    9.7552    9.2338   23.0171 N   0  0  0  0  0  0  0  0  0  0  0  0
   11.1797    6.7591   21.3326 N   0  0  0  0  0  0  0  0  0  0  0  0
   11.7728    8.0337   23.7267 C   0  0  0  0  0  0  0  0  0  0  0  0
    7.1194    8.3344   24.6775 C   0  0  0  0  0  0  0  0  0  0  0  0
    8.4311    4.7963   22.0500 C   0  0  0  0  0  0  0  0  0  0  0  0
    8.7393   10.8706   24.1871 O   0  0  0  0  0  0  0  0  0  0  0  0
    9.3093    3.8166   21.6712 C   0  0  0  0  0  0  0  0  0  0  0  0
  1  5  1  0
  1 15  4  0
  1 22  4  0
  2 20  1  0
  2 24  1  0
  3  6  4  0
  3 27  4  0
  4 22  4  0
  4 26  4  0
  6  7  4  0
  6 13  1  0
  7 19  4  0
  8 18  1  0
  8 23  1  0
  8 28  2  0
  9 17  1  0
  9 24  1  0
 10 11  1  0
 10 24  1  0
 11 23  1  0
 12 14  4  0
 12 16  4  0
 14 19  4  0
 15 18  4  0
 16 20  4  0
 17 25  1  0
 18 26  4  0
 19 29  4  0
 20 29  4  0
 21 23  1  0
 21 25  1  0
 27 29  4  0
M  END
$$$$

 Created by Python create_sdf_string function

 29 32  0  0  0  0  0  0  0  0999 V2000
    5.4450    8.7154   22.6662 C   0  0  0  0  0  0  0  0  0  0  0  0
   10.9154    5.4574   20.5483 C   0  0  0  0  0  0  0  0  0  0  0  0
    7.2709    4.5089   22.7542 C   0  0  0  0  0  0  0  0  0  0  0  0
    5.9698    7.6329   24.6581 C   0  0  0  0  0  0  0  0  0  0  0  0
    4.5542    8.9057   21.7104 O   0  0  0  0  0  0  0  0  0  0  0  0
    6.9895    3.2085   23.0690 C   0  0  0  0  0  0  0  0  0  0  0  0
    7.8391    2.2253   22.7260 N   0  0  0  0  0  0  0  0  0  0  0  0
    8.6968    9.8373   23.6359 C   0  0  0  0  0  0  0  0  0  0  0  0
   12.5135    6.5957   21.8396 C   0  0  0  0  0  0  0  0  0  0  0  0
   10.9406    8.2330   21.1350 C   0  0  0  0  0  0  0  0  0  0  0  0
    9.6648    8.5956   21.7310 C   0  0  0  0  0  0  0  0  0  0  0  0
   10.8829    1.7153   20.9865 C   0  0  0  0  0  0  0  0  0  0  0  0
    5.7768    2.8533   23.7910 C   0  0  0  0  0  0  0  0  0  0  0  0
    9.7977    1.4791   21.6912 N   0  0  0  0  0  0  0  0  0  0  0  0
    6.5976    9.3401   22.6478 N   0  0  0  0  0  0  0  0  0  0  0  0
   11.2031    3.0042   20.6246 C   0  0  0  0  0  0  0  0  0  0  0  0
   12.8688    7.7370   22.7287 C   0  0  0  0  0  0  0  0  0  0  0  0
    7.4487    9.1361   23.6506 C   0  0  0  0  0  0  0  0  0  0  0  0
    8.9772    2.5025   22.0273 C   0  0  0  0  0  0  0  0  0  0  0  0
   10.4859    4.0901   20.9730 C   0  0  0  0  0  0  0  0  0  0  0  0
   11.0962    9.3293   23.5072 C   0  0  0  0  0  0  0  0  0  0  0  0
    5.1273    7.8529   23.6208 N   0  0  0  0  0  0  0  0  0  0  0  0
    9.7552    9.2338   23.0171 N   0  0  0  0  0  0  0  0  0  0  0  0
   11.1797    6.7591   21.3326 N   0  0  0  0  0  0  0  0  0  0  0  0
   11.7728    8.0337   23.7267 C   0  0  0  0  0  0  0  0  0  0  0  0
    7.1194    8.3344   24.6775 C   0  0  0  0  0  0  0  0  0  0  0  0
    8.4311    4.7963   22.0500 C   0  0  0  0  0  0  0  0  0  0  0  0
    8.7393   10.8706   24.1871 O   0  0  0  0  0  0  0  0  0  0  0  0
    9.3093    3.8166   21.6712 C   0  0  0  0  0  0  0  0  0  0  0  0
  1  5  1  0
  1 15  4  0
  1 22  4  0
  2 20  1  0
  2 24  1  0
  3  6  4  0
  3 27  4  0
  4 22  4  0
  4 26  4  0
  6  7  4  0
  6 13  1  0
  7 19  4  0
  8 18  1  0
  8 23  1  0
  8 28  2  0
  9 17  1  0
  9 24  1  0
 10 11  1  0
 10 24  1  0
 11 23  1  0
 12 14  4  0
 12 16  4  0
 14 19  4  0
 15 18  4  0
 16 20  4  0
 17 25  1  0
 18 26  4  0
 19 29  4  0
 20 29  4  0
 21 23  1  0
 21 25  1  0
 27 29  4  0
M  END
$$$$

 Created by Python create_sdf_string function

 29 32  0  0  0  0  0  0  0  0999 V2000
    5.4450    8.7154   22.6662 C   0  0  0  0  0  0  0  0  0  0  0  0
   10.9154    5.4574   20.5483 C   0  0  0  0  0  0  0  0  0  0  0  0
    7.2709    4.5089   22.7542 C   0  0  0  0  0  0  0  0  0  0  0  0
    5.9698    7.6329   24.6581 C   0  0  0  0  0  0  0  0  0  0  0  0
    4.5542    8.9057   21.7104 O   0  0  0  0  0  0  0  0  0  0  0  0
    6.9895    3.2085   23.0690 C   0  0  0  0  0  0  0  0  0  0  0  0
    7.8391    2.2253   22.7260 N   0  0  0  0  0  0  0  0  0  0  0  0
    8.6968    9.8373   23.6359 C   0  0  0  0  0  0  0  0  0  0  0  0
   12.5135    6.5957   21.8396 C   0  0  0  0  0  0  0  0  0  0  0  0
   10.9406    8.2330   21.1350 C   0  0  0  0  0  0  0  0  0  0  0  0
    9.6648    8.5956   21.7310 C   0  0  0  0  0  0  0  0  0  0  0  0
   10.8829    1.7153   20.9865 C   0  0  0  0  0  0  0  0  0  0  0  0
    5.7768    2.8533   23.7910 C   0  0  0  0  0  0  0  0  0  0  0  0
    9.7977    1.4791   21.6912 N   0  0  0  0  0  0  0  0  0  0  0  0
    6.5976    9.3401   22.6478 N   0  0  0  0  0  0  0  0  0  0  0  0
   11.2031    3.0042   20.6246 C   0  0  0  0  0  0  0  0  0  0  0  0
   12.8688    7.7370   22.7287 C   0  0  0  0  0  0  0  0  0  0  0  0
    7.4487    9.1361   23.6506 C   0  0  0  0  0  0  0  0  0  0  0  0
    8.9772    2.5025   22.0273 C   0  0  0  0  0  0  0  0  0  0  0  0
   10.4859    4.0901   20.9730 C   0  0  0  0  0  0  0  0  0  0  0  0
   11.0962    9.3293   23.5072 C   0  0  0  0  0  0  0  0  0  0  0  0
    5.1273    7.8529   23.6208 N   0  0  0  0  0  0  0  0  0  0  0  0
    9.7552    9.2338   23.0171 N   0  0  0  0  0  0  0  0  0  0  0  0
   11.1797    6.7591   21.3326 N   0  0  0  0  0  0  0  0  0  0  0  0
   11.7728    8.0337   23.7267 C   0  0  0  0  0  0  0  0  0  0  0  0
    7.1194    8.3344   24.6775 C   0  0  0  0  0  0  0  0  0  0  0  0
    8.4311    4.7963   22.0500 C   0  0  0  0  0  0  0  0  0  0  0  0
    8.7393   10.8706   24.1871 O   0  0  0  0  0  0  0  0  0  0  0  0
    9.3093    3.8166   21.6712 C   0  0  0  0  0  0  0  0  0  0  0  0
  1  5  1  0
  1 15  4  0
  1 22  4  0
  2 20  1  0
  2 24  1  0
  3  6  4  0
  3 27  4  0
  4 22  4  0
  4 26  4  0
  6  7  4  0
  6 13  1  0
  7 19  4  0
  8 18  1  0
  8 23  1  0
  8 28  2  0
  9 17  1  0
  9 24  1  0
 10 11  1  0
 10 24  1  0
 11 23  1  0
 12 14  4  0
 12 16  4  0
 14 19  4  0
 15 18  4  0
 16 20  4  0
 17 25  1  0
 18 26  4  0
 19 29  4  0
 20 29  4  0
 21 23  1  0
 21 25  1  0
 27 29  4  0
M  END
$$$$

 Created by Python create_sdf_string function

 29 32  0  0  0  0  0  0  0  0999 V2000
    5.4450    8.7154   22.6662 C   0  0  0  0  0  0  0  0  0  0  0  0
   10.9154    5.4574   20.5483 C   0  0  0  0  0  0  0  0  0  0  0  0
    7.2709    4.5089   22.7542 C   0  0  0  0  0  0  0  0  0  0  0  0
    5.9698    7.6329   24.6581 C   0  0  0  0  0  0  0  0  0  0  0  0
    4.5542    8.9057   21.7104 O   0  0  0  0  0  0  0  0  0  0  0  0
    6.9895    3.2085   23.0690 C   0  0  0  0  0  0  0  0  0  0  0  0
    7.8391    2.2253   22.7260 N   0  0  0  0  0  0  0  0  0  0  0  0
    8.6968    9.8373   23.6359 C   0  0  0  0  0  0  0  0  0  0  0  0
   12.5135    6.5957   21.8396 C   0  0  0  0  0  0  0  0  0  0  0  0
   10.9406    8.2330   21.1350 C   0  0  0  0  0  0  0  0  0  0  0  0
    9.6648    8.5956   21.7310 C   0  0  0  0  0  0  0  0  0  0  0  0
   10.8829    1.7153   20.9865 C   0  0  0  0  0  0  0  0  0  0  0  0
    5.7768    2.8533   23.7910 C   0  0  0  0  0  0  0  0  0  0  0  0
    9.7977    1.4791   21.6912 N   0  0  0  0  0  0  0  0  0  0  0  0
    6.5976    9.3401   22.6478 N   0  0  0  0  0  0  0  0  0  0  0  0
   11.2031    3.0042   20.6246 C   0  0  0  0  0  0  0  0  0  0  0  0
   12.8688    7.7370   22.7287 C   0  0  0  0  0  0  0  0  0  0  0  0
    7.4487    9.1361   23.6506 C   0  0  0  0  0  0  0  0  0  0  0  0
    8.9772    2.5025   22.0273 C   0  0  0  0  0  0  0  0  0  0  0  0
   10.4859    4.0901   20.9730 C   0  0  0  0  0  0  0  0  0  0  0  0
   11.0962    9.3293   23.5072 C   0  0  0  0  0  0  0  0  0  0  0  0
    5.1273    7.8529   23.6208 N   0  0  0  0  0  0  0  0  0  0  0  0
    9.7552    9.2338   23.0171 N   0  0  0  0  0  0  0  0  0  0  0  0
   11.1797    6.7591   21.3326 N   0  0  0  0  0  0  0  0  0  0  0  0
   11.7728    8.0337   23.7267 C   0  0  0  0  0  0  0  0  0  0  0  0
    7.1194    8.3344   24.6775 C   0  0  0  0  0  0  0  0  0  0  0  0
    8.4311    4.7963   22.0500 C   0  0  0  0  0  0  0  0  0  0  0  0
    8.7393   10.8706   24.1871 O   0  0  0  0  0  0  0  0  0  0  0  0
    9.3093    3.8166   21.6712 C   0  0  0  0  0  0  0  0  0  0  0  0
  1  5  1  0
  1 15  4  0
  1 22  4  0
  2 20  1  0
  2 24  1  0
  3  6  4  0
  3 27  4  0
  4 22  4  0
  4 26  4  0
  6  7  4  0
  6 13  1  0
  7 19  4  0
  8 18  1  0
  8 23  1  0
  8 28  2  0
  9 17  1  0
  9 24  1  0
 10 11  1  0
 10 24  1  0
 11 23  1  0
 12 14  4  0
 12 16  4  0
 14 19  4  0
 15 18  4  0
 16 20  4  0
 17 25  1  0
 18 26  4  0
 19 29  4  0
 20 29  4  0
 21 23  1  0
 21 25  1  0
 27 29  4  0
M  END
$$$$

 Created by Python create_sdf_string function

 29 32  0  0  0  0  0  0  0  0999 V2000
    5.4450    8.7154   22.6662 C   0  0  0  0  0  0  0  0  0  0  0  0
   10.9154    5.4574   20.5483 C   0  0  0  0  0  0  0  0  0  0  0  0
    7.2709    4.5089   22.7542 C   0  0  0  0  0  0  0  0  0  0  0  0
    5.9698    7.6329   24.6581 C   0  0  0  0  0  0  0  0  0  0  0  0
    4.5542    8.9057   21.7104 O   0  0  0  0  0  0  0  0  0  0  0  0
    6.9895    3.2085   23.0690 C   0  0  0  0  0  0  0  0  0  0  0  0
    7.8391    2.2253   22.7260 N   0  0  0  0  0  0  0  0  0  0  0  0
    8.6968    9.8373   23.6359 C   0  0  0  0  0  0  0  0  0  0  0  0
   12.5135    6.5957   21.8396 C   0  0  0  0  0  0  0  0  0  0  0  0
   10.9406    8.2330   21.1350 C   0  0  0  0  0  0  0  0  0  0  0  0
    9.6648    8.5956   21.7310 C   0  0  0  0  0  0  0  0  0  0  0  0
   10.8829    1.7153   20.9865 C   0  0  0  0  0  0  0  0  0  0  0  0
    5.7768    2.8533   23.7910 C   0  0  0  0  0  0  0  0  0  0  0  0
    9.7977    1.4791   21.6912 N   0  0  0  0  0  0  0  0  0  0  0  0
    6.5976    9.3401   22.6478 N   0  0  0  0  0  0  0  0  0  0  0  0
   11.2031    3.0042   20.6246 C   0  0  0  0  0  0  0  0  0  0  0  0
   12.8688    7.7370   22.7287 C   0  0  0  0  0  0  0  0  0  0  0  0
    7.4487    9.1361   23.6506 C   0  0  0  0  0  0  0  0  0  0  0  0
    8.9772    2.5025   22.0273 C   0  0  0  0  0  0  0  0  0  0  0  0
   10.4859    4.0901   20.9730 C   0  0  0  0  0  0  0  0  0  0  0  0
   11.0962    9.3293   23.5072 C   0  0  0  0  0  0  0  0  0  0  0  0
    5.1273    7.8529   23.6208 N   0  0  0  0  0  0  0  0  0  0  0  0
    9.7552    9.2338   23.0171 N   0  0  0  0  0  0  0  0  0  0  0  0
   11.1797    6.7591   21.3326 N   0  0  0  0  0  0  0  0  0  0  0  0
   11.7728    8.0337   23.7267 C   0  0  0  0  0  0  0  0  0  0  0  0
    7.1194    8.3344   24.6775 C   0  0  0  0  0  0  0  0  0  0  0  0
    8.4311    4.7963   22.0500 C   0  0  0  0  0  0  0  0  0  0  0  0
    8.7393   10.8706   24.1871 O   0  0  0  0  0  0  0  0  0  0  0  0
    9.3093    3.8166   21.6712 C   0  0  0  0  0  0  0  0  0  0  0  0
  1  5  1  0
  1 15  4  0
  1 22  4  0
  2 20  1  0
  2 24  1  0
  3  6  4  0
  3 27  4  0
  4 22  4  0
  4 26  4  0
  6  7  4  0
  6 13  1  0
  7 19  4  0
  8 18  1  0
  8 23  1  0
  8 28  2  0
  9 17  1  0
  9 24  1  0
 10 11  1  0
 10 24  1  0
 11 23  1  0
 12 14  4  0
 12 16  4  0
 14 19  4  0
 15 18  4  0
 16 20  4  0
 17 25  1  0
 18 26  4  0
 19 29  4  0
 20 29  4  0
 21 23  1  0
 21 25  1  0
 27 29  4  0
M  END
$$$$

 Created by Python create_sdf_string function

 29 32  0  0  0  0  0  0  0  0999 V2000
    5.4450    8.7154   22.6662 C   0  0  0  0  0  0  0  0  0  0  0  0
   10.9154    5.4574   20.5483 C   0  0  0  0  0  0  0  0  0  0  0  0
    7.2709    4.5089   22.7542 C   0  0  0  0  0  0  0  0  0  0  0  0
    5.9698    7.6329   24.6581 C   0  0  0  0  0  0  0  0  0  0  0  0
    4.5542    8.9057   21.7104 O   0  0  0  0  0  0  0  0  0  0  0  0
    6.9895    3.2085   23.0690 C   0  0  0  0  0  0  0  0  0  0  0  0
    7.8391    2.2253   22.7260 N   0  0  0  0  0  0  0  0  0  0  0  0
    8.6968    9.8373   23.6359 C   0  0  0  0  0  0  0  0  0  0  0  0
   12.5135    6.5957   21.8396 C   0  0  0  0  0  0  0  0  0  0  0  0
   10.9406    8.2330   21.1350 C   0  0  0  0  0  0  0  0  0  0  0  0
    9.6648    8.5956   21.7310 C   0  0  0  0  0  0  0  0  0  0  0  0
   10.8829    1.7153   20.9865 C   0  0  0  0  0  0  0  0  0  0  0  0
    5.7768    2.8533   23.7910 C   0  0  0  0  0  0  0  0  0  0  0  0
    9.7977    1.4791   21.6912 N   0  0  0  0  0  0  0  0  0  0  0  0
    6.5976    9.3401   22.6478 N   0  0  0  0  0  0  0  0  0  0  0  0
   11.2031    3.0042   20.6246 C   0  0  0  0  0  0  0  0  0  0  0  0
   12.8688    7.7370   22.7287 C   0  0  0  0  0  0  0  0  0  0  0  0
    7.4487    9.1361   23.6506 C   0  0  0  0  0  0  0  0  0  0  0  0
    8.9772    2.5025   22.0273 C   0  0  0  0  0  0  0  0  0  0  0  0
   10.4859    4.0901   20.9730 C   0  0  0  0  0  0  0  0  0  0  0  0
   11.0962    9.3293   23.5072 C   0  0  0  0  0  0  0  0  0  0  0  0
    5.1273    7.8529   23.6208 N   0  0  0  0  0  0  0  0  0  0  0  0
    9.7552    9.2338   23.0171 N   0  0  0  0  0  0  0  0  0  0  0  0
   11.1797    6.7591   21.3326 N   0  0  0  0  0  0  0  0  0  0  0  0
   11.7728    8.0337   23.7267 C   0  0  0  0  0  0  0  0  0  0  0  0
    7.1194    8.3344   24.6775 C   0  0  0  0  0  0  0  0  0  0  0  0
    8.4311    4.7963   22.0500 C   0  0  0  0  0  0  0  0  0  0  0  0
    8.7393   10.8706   24.1871 O   0  0  0  0  0  0  0  0  0  0  0  0
    9.3093    3.8166   21.6712 C   0  0  0  0  0  0  0  0  0  0  0  0
  1  5  1  0
  1 15  4  0
  1 22  4  0
  2 20  1  0
  2 24  1  0
  3  6  4  0
  3 27  4  0
  4 22  4  0
  4 26  4  0
  6  7  4  0
  6 13  1  0
  7 19  4  0
  8 18  1  0
  8 23  1  0
  8 28  2  0
  9 17  1  0
  9 24  1  0
 10 11  1  0
 10 24  1  0
 11 23  1  0
 12 14  4  0
 12 16  4  0
 14 19  4  0
 15 18  4  0
 16 20  4  0
 17 25  1  0
 18 26  4  0
 19 29  4  0
 20 29  4  0
 21 23  1  0
 21 25  1  0
 27 29  4  0
M  END
$$$$

 Created by Python create_sdf_string function

 29 32  0  0  0  0  0  0  0  0999 V2000
    5.4450    8.7154   22.6662 C   0  0  0  0  0  0  0  0  0  0  0  0
   10.9154    5.4574   20.5483 C   0  0  0  0  0  0  0  0  0  0  0  0
    7.2709    4.5089   22.7542 C   0  0  0  0  0  0  0  0  0  0  0  0
    5.9698    7.6329   24.6581 C   0  0  0  0  0  0  0  0  0  0  0  0
    4.5542    8.9057   21.7104 O   0  0  0  0  0  0  0  0  0  0  0  0
    6.9895    3.2085   23.0690 C   0  0  0  0  0  0  0  0  0  0  0  0
    7.8391    2.2253   22.7260 N   0  0  0  0  0  0  0  0  0  0  0  0
    8.6968    9.8373   23.6359 C   0  0  0  0  0  0  0  0  0  0  0  0
   12.5135    6.5957   21.8396 C   0  0  0  0  0  0  0  0  0  0  0  0
   10.9406    8.2330   21.1350 C   0  0  0  0  0  0  0  0  0  0  0  0
    9.6648    8.5956   21.7310 C   0  0  0  0  0  0  0  0  0  0  0  0
   10.8829    1.7153   20.9865 C   0  0  0  0  0  0  0  0  0  0  0  0
    5.7768    2.8533   23.7910 C   0  0  0  0  0  0  0  0  0  0  0  0
    9.7977    1.4791   21.6912 N   0  0  0  0  0  0  0  0  0  0  0  0
    6.5976    9.3401   22.6478 N   0  0  0  0  0  0  0  0  0  0  0  0
   11.2031    3.0042   20.6246 C   0  0  0  0  0  0  0  0  0  0  0  0
   12.8688    7.7370   22.7287 C   0  0  0  0  0  0  0  0  0  0  0  0
    7.4487    9.1361   23.6506 C   0  0  0  0  0  0  0  0  0  0  0  0
    8.9772    2.5025   22.0273 C   0  0  0  0  0  0  0  0  0  0  0  0
   10.4859    4.0901   20.9730 C   0  0  0  0  0  0  0  0  0  0  0  0
   11.0962    9.3293   23.5072 C   0  0  0  0  0  0  0  0  0  0  0  0
    5.1273    7.8529   23.6208 N   0  0  0  0  0  0  0  0  0  0  0  0
    9.7552    9.2338   23.0171 N   0  0  0  0  0  0  0  0  0  0  0  0
   11.1797    6.7591   21.3326 N   0  0  0  0  0  0  0  0  0  0  0  0
   11.7728    8.0337   23.7267 C   0  0  0  0  0  0  0  0  0  0  0  0
    7.1194    8.3344   24.6775 C   0  0  0  0  0  0  0  0  0  0  0  0
    8.4311    4.7963   22.0500 C   0  0  0  0  0  0  0  0  0  0  0  0
    8.7393   10.8706   24.1871 O   0  0  0  0  0  0  0  0  0  0  0  0
    9.3093    3.8166   21.6712 C   0  0  0  0  0  0  0  0  0  0  0  0
  1  5  1  0
  1 15  4  0
  1 22  4  0
  2 20  1  0
  2 24  1  0
  3  6  4  0
  3 27  4  0
  4 22  4  0
  4 26  4  0
  6  7  4  0
  6 13  1  0
  7 19  4  0
  8 18  1  0
  8 23  1  0
  8 28  2  0
  9 17  1  0
  9 24  1  0
 10 11  1  0
 10 24  1  0
 11 23  1  0
 12 14  4  0
 12 16  4  0
 14 19  4  0
 15 18  4  0
 16 20  4  0
 17 25  1  0
 18 26  4  0
 19 29  4  0
 20 29  4  0
 21 23  1  0
 21 25  1  0
 27 29  4  0
M  END
$$$$

 Created by Python create_sdf_string function

 29 32  0  0  0  0  0  0  0  0999 V2000
    5.4450    8.7154   22.6662 C   0  0  0  0  0  0  0  0  0  0  0  0
   10.9154    5.4574   20.5483 C   0  0  0  0  0  0  0  0  0  0  0  0
    7.2709    4.5089   22.7542 C   0  0  0  0  0  0  0  0  0  0  0  0
    5.9698    7.6329   24.6581 C   0  0  0  0  0  0  0  0  0  0  0  0
    4.5542    8.9057   21.7104 O   0  0  0  0  0  0  0  0  0  0  0  0
    6.9895    3.2085   23.0690 C   0  0  0  0  0  0  0  0  0  0  0  0
    7.8391    2.2253   22.7260 N   0  0  0  0  0  0  0  0  0  0  0  0
    8.6968    9.8373   23.6359 C   0  0  0  0  0  0  0  0  0  0  0  0
   12.5135    6.5957   21.8396 C   0  0  0  0  0  0  0  0  0  0  0  0
   10.9406    8.2330   21.1350 C   0  0  0  0  0  0  0  0  0  0  0  0
    9.6648    8.5956   21.7310 C   0  0  0  0  0  0  0  0  0  0  0  0
   10.8829    1.7153   20.9865 C   0  0  0  0  0  0  0  0  0  0  0  0
    5.7768    2.8533   23.7910 C   0  0  0  0  0  0  0  0  0  0  0  0
    9.7977    1.4791   21.6912 N   0  0  0  0  0  0  0  0  0  0  0  0
    6.5976    9.3401   22.6478 N   0  0  0  0  0  0  0  0  0  0  0  0
   11.2031    3.0042   20.6246 C   0  0  0  0  0  0  0  0  0  0  0  0
   12.8688    7.7370   22.7287 C   0  0  0  0  0  0  0  0  0  0  0  0
    7.4487    9.1361   23.6506 C   0  0  0  0  0  0  0  0  0  0  0  0
    8.9772    2.5025   22.0273 C   0  0  0  0  0  0  0  0  0  0  0  0
   10.4859    4.0901   20.9730 C   0  0  0  0  0  0  0  0  0  0  0  0
   11.0962    9.3293   23.5072 C   0  0  0  0  0  0  0  0  0  0  0  0
    5.1273    7.8529   23.6208 N   0  0  0  0  0  0  0  0  0  0  0  0
    9.7552    9.2338   23.0171 N   0  0  0  0  0  0  0  0  0  0  0  0
   11.1797    6.7591   21.3326 N   0  0  0  0  0  0  0  0  0  0  0  0
   11.7728    8.0337   23.7267 C   0  0  0  0  0  0  0  0  0  0  0  0
    7.1194    8.3344   24.6775 C   0  0  0  0  0  0  0  0  0  0  0  0
    8.4311    4.7963   22.0500 C   0  0  0  0  0  0  0  0  0  0  0  0
    8.7393   10.8706   24.1871 O   0  0  0  0  0  0  0  0  0  0  0  0
    9.3093    3.8166   21.6712 C   0  0  0  0  0  0  0  0  0  0  0  0
  1  5  1  0
  1 15  4  0
  1 22  4  0
  2 20  1  0
  2 24  1  0
  3  6  4  0
  3 27  4  0
  4 22  4  0
  4 26  4  0
  6  7  4  0
  6 13  1  0
  7 19  4  0
  8 18  1  0
  8 23  1  0
  8 28  2  0
  9 17  1  0
  9 24  1  0
 10 11  1  0
 10 24  1  0
 11 23  1  0
 12 14  4  0
 12 16  4  0
 14 19  4  0
 15 18  4  0
 16 20  4  0
 17 25  1  0
 18 26  4  0
 19 29  4  0
 20 29  4  0
 21 23  1  0
 21 25  1  0
 27 29  4  0
M  END
$$$$

 Created by Python create_sdf_string function

 29 32  0  0  0  0  0  0  0  0999 V2000
    5.4450    8.7154   22.6662 C   0  0  0  0  0  0  0  0  0  0  0  0
   10.9154    5.4574   20.5483 C   0  0  0  0  0  0  0  0  0  0  0  0
    7.2709    4.5089   22.7542 C   0  0  0  0  0  0  0  0  0  0  0  0
    5.9698    7.6329   24.6581 C   0  0  0  0  0  0  0  0  0  0  0  0
    4.5542    8.9057   21.7104 O   0  0  0  0  0  0  0  0  0  0  0  0
    6.9895    3.2085   23.0690 C   0  0  0  0  0  0  0  0  0  0  0  0
    7.8391    2.2253   22.7260 N   0  0  0  0  0  0  0  0  0  0  0  0
    8.6968    9.8373   23.6359 C   0  0  0  0  0  0  0  0  0  0  0  0
   12.5135    6.5957   21.8396 C   0  0  0  0  0  0  0  0  0  0  0  0
   10.9406    8.2330   21.1350 C   0  0  0  0  0  0  0  0  0  0  0  0
    9.6648    8.5956   21.7310 C   0  0  0  0  0  0  0  0  0  0  0  0
   10.8829    1.7153   20.9865 C   0  0  0  0  0  0  0  0  0  0  0  0
    5.7768    2.8533   23.7910 C   0  0  0  0  0  0  0  0  0  0  0  0
    9.7977    1.4791   21.6912 N   0  0  0  0  0  0  0  0  0  0  0  0
    6.5976    9.3401   22.6478 N   0  0  0  0  0  0  0  0  0  0  0  0
   11.2031    3.0042   20.6246 C   0  0  0  0  0  0  0  0  0  0  0  0
   12.8688    7.7370   22.7287 C   0  0  0  0  0  0  0  0  0  0  0  0
    7.4487    9.1361   23.6506 C   0  0  0  0  0  0  0  0  0  0  0  0
    8.9772    2.5025   22.0273 C   0  0  0  0  0  0  0  0  0  0  0  0
   10.4859    4.0901   20.9730 C   0  0  0  0  0  0  0  0  0  0  0  0
   11.0962    9.3293   23.5072 C   0  0  0  0  0  0  0  0  0  0  0  0
    5.1273    7.8529   23.6208 N   0  0  0  0  0  0  0  0  0  0  0  0
    9.7552    9.2338   23.0171 N   0  0  0  0  0  0  0  0  0  0  0  0
   11.1797    6.7591   21.3326 N   0  0  0  0  0  0  0  0  0  0  0  0
   11.7728    8.0337   23.7267 C   0  0  0  0  0  0  0  0  0  0  0  0
    7.1194    8.3344   24.6775 C   0  0  0  0  0  0  0  0  0  0  0  0
    8.4311    4.7963   22.0500 C   0  0  0  0  0  0  0  0  0  0  0  0
    8.7393   10.8706   24.1871 O   0  0  0  0  0  0  0  0  0  0  0  0
    9.3093    3.8166   21.6712 C   0  0  0  0  0  0  0  0  0  0  0  0
  1  5  1  0
  1 15  4  0
  1 22  4  0
  2 20  1  0
  2 24  1  0
  3  6  4  0
  3 27  4  0
  4 22  4  0
  4 26  4  0
  6  7  4  0
  6 13  1  0
  7 19  4  0
  8 18  1  0
  8 23  1  0
  8 28  2  0
  9 17  1  0
  9 24  1  0
 10 11  1  0
 10 24  1  0
 11 23  1  0
 12 14  4  0
 12 16  4  0
 14 19  4  0
 15 18  4  0
 16 20  4  0
 17 25  1  0
 18 26  4  0
 19 29  4  0
 20 29  4  0
 21 23  1  0
 21 25  1  0
 27 29  4  0
M  END
$$$$

 Created by Python create_sdf_string function

 29 32  0  0  0  0  0  0  0  0999 V2000
    5.4450    8.7154   22.6662 C   0  0  0  0  0  0  0  0  0  0  0  0
   10.9154    5.4574   20.5483 C   0  0  0  0  0  0  0  0  0  0  0  0
    7.2709    4.5089   22.7542 C   0  0  0  0  0  0  0  0  0  0  0  0
    5.9698    7.6329   24.6581 C   0  0  0  0  0  0  0  0  0  0  0  0
    4.5542    8.9057   21.7104 O   0  0  0  0  0  0  0  0  0  0  0  0
    6.9895    3.2085   23.0690 C   0  0  0  0  0  0  0  0  0  0  0  0
    7.8391    2.2253   22.7260 N   0  0  0  0  0  0  0  0  0  0  0  0
    8.6968    9.8373   23.6359 C   0  0  0  0  0  0  0  0  0  0  0  0
   12.5135    6.5957   21.8396 C   0  0  0  0  0  0  0  0  0  0  0  0
   10.9406    8.2330   21.1350 C   0  0  0  0  0  0  0  0  0  0  0  0
    9.6648    8.5956   21.7310 C   0  0  0  0  0  0  0  0  0  0  0  0
   10.8829    1.7153   20.9865 C   0  0  0  0  0  0  0  0  0  0  0  0
    5.7768    2.8533   23.7910 C   0  0  0  0  0  0  0  0  0  0  0  0
    9.7977    1.4791   21.6912 N   0  0  0  0  0  0  0  0  0  0  0  0
    6.5976    9.3401   22.6478 N   0  0  0  0  0  0  0  0  0  0  0  0
   11.2031    3.0042   20.6246 C   0  0  0  0  0  0  0  0  0  0  0  0
   12.8688    7.7370   22.7287 C   0  0  0  0  0  0  0  0  0  0  0  0
    7.4487    9.1361   23.6506 C   0  0  0  0  0  0  0  0  0  0  0  0
    8.9772    2.5025   22.0273 C   0  0  0  0  0  0  0  0  0  0  0  0
   10.4859    4.0901   20.9730 C   0  0  0  0  0  0  0  0  0  0  0  0
   11.0962    9.3293   23.5072 C   0  0  0  0  0  0  0  0  0  0  0  0
    5.1273    7.8529   23.6208 N   0  0  0  0  0  0  0  0  0  0  0  0
    9.7552    9.2338   23.0171 N   0  0  0  0  0  0  0  0  0  0  0  0
   11.1797    6.7591   21.3326 N   0  0  0  0  0  0  0  0  0  0  0  0
   11.7728    8.0337   23.7267 C   0  0  0  0  0  0  0  0  0  0  0  0
    7.1194    8.3344   24.6775 C   0  0  0  0  0  0  0  0  0  0  0  0
    8.4311    4.7963   22.0500 C   0  0  0  0  0  0  0  0  0  0  0  0
    8.7393   10.8706   24.1871 O   0  0  0  0  0  0  0  0  0  0  0  0
    9.3093    3.8166   21.6712 C   0  0  0  0  0  0  0  0  0  0  0  0
  1  5  1  0
  1 15  4  0
  1 22  4  0
  2 20  1  0
  2 24  1  0
  3  6  4  0
  3 27  4  0
  4 22  4  0
  4 26  4  0
  6  7  4  0
  6 13  1  0
  7 19  4  0
  8 18  1  0
  8 23  1  0
  8 28  2  0
  9 17  1  0
  9 24  1  0
 10 11  1  0
 10 24  1  0
 11 23  1  0
 12 14  4  0
 12 16  4  0
 14 19  4  0
 15 18  4  0
 16 20  4  0
 17 25  1  0
 18 26  4  0
 19 29  4  0
 20 29  4  0
 21 23  1  0
 21 25  1  0
 27 29  4  0
M  END
$$$$

 Created by Python create_sdf_string function

 29 32  0  0  0  0  0  0  0  0999 V2000
    5.4450    8.7154   22.6662 C   0  0  0  0  0  0  0  0  0  0  0  0
   10.9154    5.4574   20.5483 C   0  0  0  0  0  0  0  0  0  0  0  0
    7.2709    4.5089   22.7542 C   0  0  0  0  0  0  0  0  0  0  0  0
    5.9698    7.6329   24.6581 C   0  0  0  0  0  0  0  0  0  0  0  0
    4.5542    8.9057   21.7104 O   0  0  0  0  0  0  0  0  0  0  0  0
    6.9895    3.2085   23.0690 C   0  0  0  0  0  0  0  0  0  0  0  0
    7.8391    2.2253   22.7260 N   0  0  0  0  0  0  0  0  0  0  0  0
    8.6968    9.8373   23.6359 C   0  0  0  0  0  0  0  0  0  0  0  0
   12.5135    6.5957   21.8396 C   0  0  0  0  0  0  0  0  0  0  0  0
   10.9406    8.2330   21.1350 C   0  0  0  0  0  0  0  0  0  0  0  0
    9.6648    8.5956   21.7310 C   0  0  0  0  0  0  0  0  0  0  0  0
   10.8829    1.7153   20.9865 C   0  0  0  0  0  0  0  0  0  0  0  0
    5.7768    2.8533   23.7910 C   0  0  0  0  0  0  0  0  0  0  0  0
    9.7977    1.4791   21.6912 N   0  0  0  0  0  0  0  0  0  0  0  0
    6.5976    9.3401   22.6478 N   0  0  0  0  0  0  0  0  0  0  0  0
   11.2031    3.0042   20.6246 C   0  0  0  0  0  0  0  0  0  0  0  0
   12.8688    7.7370   22.7287 C   0  0  0  0  0  0  0  0  0  0  0  0
    7.4487    9.1361   23.6506 C   0  0  0  0  0  0  0  0  0  0  0  0
    8.9772    2.5025   22.0273 C   0  0  0  0  0  0  0  0  0  0  0  0
   10.4859    4.0901   20.9730 C   0  0  0  0  0  0  0  0  0  0  0  0
   11.0962    9.3293   23.5072 C   0  0  0  0  0  0  0  0  0  0  0  0
    5.1273    7.8529   23.6208 N   0  0  0  0  0  0  0  0  0  0  0  0
    9.7552    9.2338   23.0171 N   0  0  0  0  0  0  0  0  0  0  0  0
   11.1797    6.7591   21.3326 N   0  0  0  0  0  0  0  0  0  0  0  0
   11.7728    8.0337   23.7267 C   0  0  0  0  0  0  0  0  0  0  0  0
    7.1194    8.3344   24.6775 C   0  0  0  0  0  0  0  0  0  0  0  0
    8.4311    4.7963   22.0500 C   0  0  0  0  0  0  0  0  0  0  0  0
    8.7393   10.8706   24.1871 O   0  0  0  0  0  0  0  0  0  0  0  0
    9.3093    3.8166   21.6712 C   0  0  0  0  0  0  0  0  0  0  0  0
  1  5  1  0
  1 15  4  0
  1 22  4  0
  2 20  1  0
  2 24  1  0
  3  6  4  0
  3 27  4  0
  4 22  4  0
  4 26  4  0
  6  7  4  0
  6 13  1  0
  7 19  4  0
  8 18  1  0
  8 23  1  0
  8 28  2  0
  9 17  1  0
  9 24  1  0
 10 11  1  0
 10 24  1  0
 11 23  1  0
 12 14  4  0
 12 16  4  0
 14 19  4  0
 15 18  4  0
 16 20  4  0
 17 25  1  0
 18 26  4  0
 19 29  4  0
 20 29  4  0
 21 23  1  0
 21 25  1  0
 27 29  4  0
M  END
$$$$

 Created by Python create_sdf_string function

 29 32  0  0  0  0  0  0  0  0999 V2000
    5.4450    8.7154   22.6662 C   0  0  0  0  0  0  0  0  0  0  0  0
   10.9154    5.4574   20.5483 C   0  0  0  0  0  0  0  0  0  0  0  0
    7.2709    4.5089   22.7542 C   0  0  0  0  0  0  0  0  0  0  0  0
    5.9698    7.6329   24.6581 C   0  0  0  0  0  0  0  0  0  0  0  0
    4.5542    8.9057   21.7104 O   0  0  0  0  0  0  0  0  0  0  0  0
    6.9895    3.2085   23.0690 C   0  0  0  0  0  0  0  0  0  0  0  0
    7.8391    2.2253   22.7260 N   0  0  0  0  0  0  0  0  0  0  0  0
    8.6968    9.8373   23.6359 C   0  0  0  0  0  0  0  0  0  0  0  0
   12.5135    6.5957   21.8396 C   0  0  0  0  0  0  0  0  0  0  0  0
   10.9406    8.2330   21.1350 C   0  0  0  0  0  0  0  0  0  0  0  0
    9.6648    8.5956   21.7310 C   0  0  0  0  0  0  0  0  0  0  0  0
   10.8829    1.7153   20.9865 C   0  0  0  0  0  0  0  0  0  0  0  0
    5.7768    2.8533   23.7910 C   0  0  0  0  0  0  0  0  0  0  0  0
    9.7977    1.4791   21.6912 N   0  0  0  0  0  0  0  0  0  0  0  0
    6.5976    9.3401   22.6478 N   0  0  0  0  0  0  0  0  0  0  0  0
   11.2031    3.0042   20.6246 C   0  0  0  0  0  0  0  0  0  0  0  0
   12.8688    7.7370   22.7287 C   0  0  0  0  0  0  0  0  0  0  0  0
    7.4487    9.1361   23.6506 C   0  0  0  0  0  0  0  0  0  0  0  0
    8.9772    2.5025   22.0273 C   0  0  0  0  0  0  0  0  0  0  0  0
   10.4859    4.0901   20.9730 C   0  0  0  0  0  0  0  0  0  0  0  0
   11.0962    9.3293   23.5072 C   0  0  0  0  0  0  0  0  0  0  0  0
    5.1273    7.8529   23.6208 N   0  0  0  0  0  0  0  0  0  0  0  0
    9.7552    9.2338   23.0171 N   0  0  0  0  0  0  0  0  0  0  0  0
   11.1797    6.7591   21.3326 N   0  0  0  0  0  0  0  0  0  0  0  0
   11.7728    8.0337   23.7267 C   0  0  0  0  0  0  0  0  0  0  0  0
    7.1194    8.3344   24.6775 C   0  0  0  0  0  0  0  0  0  0  0  0
    8.4311    4.7963   22.0500 C   0  0  0  0  0  0  0  0  0  0  0  0
    8.7393   10.8706   24.1871 O   0  0  0  0  0  0  0  0  0  0  0  0
    9.3093    3.8166   21.6712 C   0  0  0  0  0  0  0  0  0  0  0  0
  1  5  1  0
  1 15  4  0
  1 22  4  0
  2 20  1  0
  2 24  1  0
  3  6  4  0
  3 27  4  0
  4 22  4  0
  4 26  4  0
  6  7  4  0
  6 13  1  0
  7 19  4  0
  8 18  1  0
  8 23  1  0
  8 28  2  0
  9 17  1  0
  9 24  1  0
 10 11  1  0
 10 24  1  0
 11 23  1  0
 12 14  4  0
 12 16  4  0
 14 19  4  0
 15 18  4  0
 16 20  4  0
 17 25  1  0
 18 26  4  0
 19 29  4  0
 20 29  4  0
 21 23  1  0
 21 25  1  0
 27 29  4  0
M  END
$$$$

 Created by Python create_sdf_string function

 29 32  0  0  0  0  0  0  0  0999 V2000
    5.4450    8.7154   22.6662 C   0  0  0  0  0  0  0  0  0  0  0  0
   10.9154    5.4574   20.5483 C   0  0  0  0  0  0  0  0  0  0  0  0
    7.2709    4.5089   22.7542 C   0  0  0  0  0  0  0  0  0  0  0  0
    5.9698    7.6329   24.6581 C   0  0  0  0  0  0  0  0  0  0  0  0
    4.5542    8.9057   21.7104 O   0  0  0  0  0  0  0  0  0  0  0  0
    6.9895    3.2085   23.0690 C   0  0  0  0  0  0  0  0  0  0  0  0
    7.8391    2.2253   22.7260 N   0  0  0  0  0  0  0  0  0  0  0  0
    8.6968    9.8373   23.6359 C   0  0  0  0  0  0  0  0  0  0  0  0
   12.5135    6.5957   21.8396 C   0  0  0  0  0  0  0  0  0  0  0  0
   10.9406    8.2330   21.1350 C   0  0  0  0  0  0  0  0  0  0  0  0
    9.6648    8.5956   21.7310 C   0  0  0  0  0  0  0  0  0  0  0  0
   10.8829    1.7153   20.9865 C   0  0  0  0  0  0  0  0  0  0  0  0
    5.7768    2.8533   23.7910 C   0  0  0  0  0  0  0  0  0  0  0  0
    9.7977    1.4791   21.6912 N   0  0  0  0  0  0  0  0  0  0  0  0
    6.5976    9.3401   22.6478 N   0  0  0  0  0  0  0  0  0  0  0  0
   11.2031    3.0042   20.6246 C   0  0  0  0  0  0  0  0  0  0  0  0
   12.8688    7.7370   22.7287 C   0  0  0  0  0  0  0  0  0  0  0  0
    7.4487    9.1361   23.6506 C   0  0  0  0  0  0  0  0  0  0  0  0
    8.9772    2.5025   22.0273 C   0  0  0  0  0  0  0  0  0  0  0  0
   10.4859    4.0901   20.9730 C   0  0  0  0  0  0  0  0  0  0  0  0
   11.0962    9.3293   23.5072 C   0  0  0  0  0  0  0  0  0  0  0  0
    5.1273    7.8529   23.6208 N   0  0  0  0  0  0  0  0  0  0  0  0
    9.7552    9.2338   23.0171 N   0  0  0  0  0  0  0  0  0  0  0  0
   11.1797    6.7591   21.3326 N   0  0  0  0  0  0  0  0  0  0  0  0
   11.7728    8.0337   23.7267 C   0  0  0  0  0  0  0  0  0  0  0  0
    7.1194    8.3344   24.6775 C   0  0  0  0  0  0  0  0  0  0  0  0
    8.4311    4.7963   22.0500 C   0  0  0  0  0  0  0  0  0  0  0  0
    8.7393   10.8706   24.1871 O   0  0  0  0  0  0  0  0  0  0  0  0
    9.3093    3.8166   21.6712 C   0  0  0  0  0  0  0  0  0  0  0  0
  1  5  1  0
  1 15  4  0
  1 22  4  0
  2 20  1  0
  2 24  1  0
  3  6  4  0
  3 27  4  0
  4 22  4  0
  4 26  4  0
  6  7  4  0
  6 13  1  0
  7 19  4  0
  8 18  1  0
  8 23  1  0
  8 28  2  0
  9 17  1  0
  9 24  1  0
 10 11  1  0
 10 24  1  0
 11 23  1  0
 12 14  4  0
 12 16  4  0
 14 19  4  0
 15 18  4  0
 16 20  4  0
 17 25  1  0
 18 26  4  0
 19 29  4  0
 20 29  4  0
 21 23  1  0
 21 25  1  0
 27 29  4  0
M  END
$$$$

 Created by Python create_sdf_string function

 29 32  0  0  0  0  0  0  0  0999 V2000
    5.4450    8.7154   22.6662 C   0  0  0  0  0  0  0  0  0  0  0  0
   10.9154    5.4574   20.5483 C   0  0  0  0  0  0  0  0  0  0  0  0
    7.2709    4.5089   22.7542 C   0  0  0  0  0  0  0  0  0  0  0  0
    5.9698    7.6329   24.6581 C   0  0  0  0  0  0  0  0  0  0  0  0
    4.5542    8.9057   21.7104 O   0  0  0  0  0  0  0  0  0  0  0  0
    6.9895    3.2085   23.0690 C   0  0  0  0  0  0  0  0  0  0  0  0
    7.8391    2.2253   22.7260 N   0  0  0  0  0  0  0  0  0  0  0  0
    8.6968    9.8373   23.6359 C   0  0  0  0  0  0  0  0  0  0  0  0
   12.5135    6.5957   21.8396 C   0  0  0  0  0  0  0  0  0  0  0  0
   10.9406    8.2330   21.1350 C   0  0  0  0  0  0  0  0  0  0  0  0
    9.6648    8.5956   21.7310 C   0  0  0  0  0  0  0  0  0  0  0  0
   10.8829    1.7153   20.9865 C   0  0  0  0  0  0  0  0  0  0  0  0
    5.7768    2.8533   23.7910 C   0  0  0  0  0  0  0  0  0  0  0  0
    9.7977    1.4791   21.6912 N   0  0  0  0  0  0  0  0  0  0  0  0
    6.5976    9.3401   22.6478 N   0  0  0  0  0  0  0  0  0  0  0  0
   11.2031    3.0042   20.6246 C   0  0  0  0  0  0  0  0  0  0  0  0
   12.8688    7.7370   22.7287 C   0  0  0  0  0  0  0  0  0  0  0  0
    7.4487    9.1361   23.6506 C   0  0  0  0  0  0  0  0  0  0  0  0
    8.9772    2.5025   22.0273 C   0  0  0  0  0  0  0  0  0  0  0  0
   10.4859    4.0901   20.9730 C   0  0  0  0  0  0  0  0  0  0  0  0
   11.0962    9.3293   23.5072 C   0  0  0  0  0  0  0  0  0  0  0  0
    5.1273    7.8529   23.6208 N   0  0  0  0  0  0  0  0  0  0  0  0
    9.7552    9.2338   23.0171 N   0  0  0  0  0  0  0  0  0  0  0  0
   11.1797    6.7591   21.3326 N   0  0  0  0  0  0  0  0  0  0  0  0
   11.7728    8.0337   23.7267 C   0  0  0  0  0  0  0  0  0  0  0  0
    7.1194    8.3344   24.6775 C   0  0  0  0  0  0  0  0  0  0  0  0
    8.4311    4.7963   22.0500 C   0  0  0  0  0  0  0  0  0  0  0  0
    8.7393   10.8706   24.1871 O   0  0  0  0  0  0  0  0  0  0  0  0
    9.3093    3.8166   21.6712 C   0  0  0  0  0  0  0  0  0  0  0  0
  1  5  1  0
  1 15  4  0
  1 22  4  0
  2 20  1  0
  2 24  1  0
  3  6  4  0
  3 27  4  0
  4 22  4  0
  4 26  4  0
  6  7  4  0
  6 13  1  0
  7 19  4  0
  8 18  1  0
  8 23  1  0
  8 28  2  0
  9 17  1  0
  9 24  1  0
 10 11  1  0
 10 24  1  0
 11 23  1  0
 12 14  4  0
 12 16  4  0
 14 19  4  0
 15 18  4  0
 16 20  4  0
 17 25  1  0
 18 26  4  0
 19 29  4  0
 20 29  4  0
 21 23  1  0
 21 25  1  0
 27 29  4  0
M  END
$$$$

 Created by Python create_sdf_string function

 29 32  0  0  0  0  0  0  0  0999 V2000
    5.4450    8.7154   22.6662 C   0  0  0  0  0  0  0  0  0  0  0  0
   10.9154    5.4574   20.5483 C   0  0  0  0  0  0  0  0  0  0  0  0
    7.2709    4.5089   22.7542 C   0  0  0  0  0  0  0  0  0  0  0  0
    5.9698    7.6329   24.6581 C   0  0  0  0  0  0  0  0  0  0  0  0
    4.5542    8.9057   21.7104 O   0  0  0  0  0  0  0  0  0  0  0  0
    6.9895    3.2085   23.0690 C   0  0  0  0  0  0  0  0  0  0  0  0
    7.8391    2.2253   22.7260 N   0  0  0  0  0  0  0  0  0  0  0  0
    8.6968    9.8373   23.6359 C   0  0  0  0  0  0  0  0  0  0  0  0
   12.5135    6.5957   21.8396 C   0  0  0  0  0  0  0  0  0  0  0  0
   10.9406    8.2330   21.1350 C   0  0  0  0  0  0  0  0  0  0  0  0
    9.6648    8.5956   21.7310 C   0  0  0  0  0  0  0  0  0  0  0  0
   10.8829    1.7153   20.9865 C   0  0  0  0  0  0  0  0  0  0  0  0
    5.7768    2.8533   23.7910 C   0  0  0  0  0  0  0  0  0  0  0  0
    9.7977    1.4791   21.6912 N   0  0  0  0  0  0  0  0  0  0  0  0
    6.5976    9.3401   22.6478 N   0  0  0  0  0  0  0  0  0  0  0  0
   11.2031    3.0042   20.6246 C   0  0  0  0  0  0  0  0  0  0  0  0
   12.8688    7.7370   22.7287 C   0  0  0  0  0  0  0  0  0  0  0  0
    7.4487    9.1361   23.6506 C   0  0  0  0  0  0  0  0  0  0  0  0
    8.9772    2.5025   22.0273 C   0  0  0  0  0  0  0  0  0  0  0  0
   10.4859    4.0901   20.9730 C   0  0  0  0  0  0  0  0  0  0  0  0
   11.0962    9.3293   23.5072 C   0  0  0  0  0  0  0  0  0  0  0  0
    5.1273    7.8529   23.6208 N   0  0  0  0  0  0  0  0  0  0  0  0
    9.7552    9.2338   23.0171 N   0  0  0  0  0  0  0  0  0  0  0  0
   11.1797    6.7591   21.3326 N   0  0  0  0  0  0  0  0  0  0  0  0
   11.7728    8.0337   23.7267 C   0  0  0  0  0  0  0  0  0  0  0  0
    7.1194    8.3344   24.6775 C   0  0  0  0  0  0  0  0  0  0  0  0
    8.4311    4.7963   22.0500 C   0  0  0  0  0  0  0  0  0  0  0  0
    8.7393   10.8706   24.1871 O   0  0  0  0  0  0  0  0  0  0  0  0
    9.3093    3.8166   21.6712 C   0  0  0  0  0  0  0  0  0  0  0  0
  1  5  1  0
  1 15  4  0
  1 22  4  0
  2 20  1  0
  2 24  1  0
  3  6  4  0
  3 27  4  0
  4 22  4  0
  4 26  4  0
  6  7  4  0
  6 13  1  0
  7 19  4  0
  8 18  1  0
  8 23  1  0
  8 28  2  0
  9 17  1  0
  9 24  1  0
 10 11  1  0
 10 24  1  0
 11 23  1  0
 12 14  4  0
 12 16  4  0
 14 19  4  0
 15 18  4  0
 16 20  4  0
 17 25  1  0
 18 26  4  0
 19 29  4  0
 20 29  4  0
 21 23  1  0
 21 25  1  0
 27 29  4  0
M  END
$$$$

 Created by Python create_sdf_string function

 29 32  0  0  0  0  0  0  0  0999 V2000
    5.4450    8.7154   22.6662 C   0  0  0  0  0  0  0  0  0  0  0  0
   10.9154    5.4574   20.5483 C   0  0  0  0  0  0  0  0  0  0  0  0
    7.2709    4.5089   22.7542 C   0  0  0  0  0  0  0  0  0  0  0  0
    5.9698    7.6329   24.6581 C   0  0  0  0  0  0  0  0  0  0  0  0
    4.5542    8.9057   21.7104 O   0  0  0  0  0  0  0  0  0  0  0  0
    6.9895    3.2085   23.0690 C   0  0  0  0  0  0  0  0  0  0  0  0
    7.8391    2.2253   22.7260 N   0  0  0  0  0  0  0  0  0  0  0  0
    8.6968    9.8373   23.6359 C   0  0  0  0  0  0  0  0  0  0  0  0
   12.5135    6.5957   21.8396 C   0  0  0  0  0  0  0  0  0  0  0  0
   10.9406    8.2330   21.1350 C   0  0  0  0  0  0  0  0  0  0  0  0
    9.6648    8.5956   21.7310 C   0  0  0  0  0  0  0  0  0  0  0  0
   10.8829    1.7153   20.9865 C   0  0  0  0  0  0  0  0  0  0  0  0
    5.7768    2.8533   23.7910 C   0  0  0  0  0  0  0  0  0  0  0  0
    9.7977    1.4791   21.6912 N   0  0  0  0  0  0  0  0  0  0  0  0
    6.5976    9.3401   22.6478 N   0  0  0  0  0  0  0  0  0  0  0  0
   11.2031    3.0042   20.6246 C   0  0  0  0  0  0  0  0  0  0  0  0
   12.8688    7.7370   22.7287 C   0  0  0  0  0  0  0  0  0  0  0  0
    7.4487    9.1361   23.6506 C   0  0  0  0  0  0  0  0  0  0  0  0
    8.9772    2.5025   22.0273 C   0  0  0  0  0  0  0  0  0  0  0  0
   10.4859    4.0901   20.9730 C   0  0  0  0  0  0  0  0  0  0  0  0
   11.0962    9.3293   23.5072 C   0  0  0  0  0  0  0  0  0  0  0  0
    5.1273    7.8529   23.6208 N   0  0  0  0  0  0  0  0  0  0  0  0
    9.7552    9.2338   23.0171 N   0  0  0  0  0  0  0  0  0  0  0  0
   11.1797    6.7591   21.3326 N   0  0  0  0  0  0  0  0  0  0  0  0
   11.7728    8.0337   23.7267 C   0  0  0  0  0  0  0  0  0  0  0  0
    7.1194    8.3344   24.6775 C   0  0  0  0  0  0  0  0  0  0  0  0
    8.4311    4.7963   22.0500 C   0  0  0  0  0  0  0  0  0  0  0  0
    8.7393   10.8706   24.1871 O   0  0  0  0  0  0  0  0  0  0  0  0
    9.3093    3.8166   21.6712 C   0  0  0  0  0  0  0  0  0  0  0  0
  1  5  1  0
  1 15  4  0
  1 22  4  0
  2 20  1  0
  2 24  1  0
  3  6  4  0
  3 27  4  0
  4 22  4  0
  4 26  4  0
  6  7  4  0
  6 13  1  0
  7 19  4  0
  8 18  1  0
  8 23  1  0
  8 28  2  0
  9 17  1  0
  9 24  1  0
 10 11  1  0
 10 24  1  0
 11 23  1  0
 12 14  4  0
 12 16  4  0
 14 19  4  0
 15 18  4  0
 16 20  4  0
 17 25  1  0
 18 26  4  0
 19 29  4  0
 20 29  4  0
 21 23  1  0
 21 25  1  0
 27 29  4  0
M  END
$$$$

 Created by Python create_sdf_string function

 29 32  0  0  0  0  0  0  0  0999 V2000
    5.4450    8.7154   22.6662 C   0  0  0  0  0  0  0  0  0  0  0  0
   10.9154    5.4574   20.5483 C   0  0  0  0  0  0  0  0  0  0  0  0
    7.2709    4.5089   22.7542 C   0  0  0  0  0  0  0  0  0  0  0  0
    5.9698    7.6329   24.6581 C   0  0  0  0  0  0  0  0  0  0  0  0
    4.5542    8.9057   21.7104 O   0  0  0  0  0  0  0  0  0  0  0  0
    6.9895    3.2085   23.0690 C   0  0  0  0  0  0  0  0  0  0  0  0
    7.8391    2.2253   22.7260 N   0  0  0  0  0  0  0  0  0  0  0  0
    8.6968    9.8373   23.6359 C   0  0  0  0  0  0  0  0  0  0  0  0
   12.5135    6.5957   21.8396 C   0  0  0  0  0  0  0  0  0  0  0  0
   10.9406    8.2330   21.1350 C   0  0  0  0  0  0  0  0  0  0  0  0
    9.6648    8.5956   21.7310 C   0  0  0  0  0  0  0  0  0  0  0  0
   10.8829    1.7153   20.9865 C   0  0  0  0  0  0  0  0  0  0  0  0
    5.7768    2.8533   23.7910 C   0  0  0  0  0  0  0  0  0  0  0  0
    9.7977    1.4791   21.6912 N   0  0  0  0  0  0  0  0  0  0  0  0
    6.5976    9.3401   22.6478 N   0  0  0  0  0  0  0  0  0  0  0  0
   11.2031    3.0042   20.6246 C   0  0  0  0  0  0  0  0  0  0  0  0
   12.8688    7.7370   22.7287 C   0  0  0  0  0  0  0  0  0  0  0  0
    7.4487    9.1361   23.6506 C   0  0  0  0  0  0  0  0  0  0  0  0
    8.9772    2.5025   22.0273 C   0  0  0  0  0  0  0  0  0  0  0  0
   10.4859    4.0901   20.9730 C   0  0  0  0  0  0  0  0  0  0  0  0
   11.0962    9.3293   23.5072 C   0  0  0  0  0  0  0  0  0  0  0  0
    5.1273    7.8529   23.6208 N   0  0  0  0  0  0  0  0  0  0  0  0
    9.7552    9.2338   23.0171 N   0  0  0  0  0  0  0  0  0  0  0  0
   11.1797    6.7591   21.3326 N   0  0  0  0  0  0  0  0  0  0  0  0
   11.7728    8.0337   23.7267 C   0  0  0  0  0  0  0  0  0  0  0  0
    7.1194    8.3344   24.6775 C   0  0  0  0  0  0  0  0  0  0  0  0
    8.4311    4.7963   22.0500 C   0  0  0  0  0  0  0  0  0  0  0  0
    8.7393   10.8706   24.1871 O   0  0  0  0  0  0  0  0  0  0  0  0
    9.3093    3.8166   21.6712 C   0  0  0  0  0  0  0  0  0  0  0  0
  1  5  1  0
  1 15  4  0
  1 22  4  0
  2 20  1  0
  2 24  1  0
  3  6  4  0
  3 27  4  0
  4 22  4  0
  4 26  4  0
  6  7  4  0
  6 13  1  0
  7 19  4  0
  8 18  1  0
  8 23  1  0
  8 28  2  0
  9 17  1  0
  9 24  1  0
 10 11  1  0
 10 24  1  0
 11 23  1  0
 12 14  4  0
 12 16  4  0
 14 19  4  0
 15 18  4  0
 16 20  4  0
 17 25  1  0
 18 26  4  0
 19 29  4  0
 20 29  4  0
 21 23  1  0
 21 25  1  0
 27 29  4  0
M  END
$$$$

 Created by Python create_sdf_string function

 29 32  0  0  0  0  0  0  0  0999 V2000
    5.4450    8.7154   22.6662 C   0  0  0  0  0  0  0  0  0  0  0  0
   10.9154    5.4574   20.5483 C   0  0  0  0  0  0  0  0  0  0  0  0
    7.2709    4.5089   22.7542 C   0  0  0  0  0  0  0  0  0  0  0  0
    5.9698    7.6329   24.6581 C   0  0  0  0  0  0  0  0  0  0  0  0
    4.5542    8.9057   21.7104 O   0  0  0  0  0  0  0  0  0  0  0  0
    6.9895    3.2085   23.0690 C   0  0  0  0  0  0  0  0  0  0  0  0
    7.8391    2.2253   22.7260 N   0  0  0  0  0  0  0  0  0  0  0  0
    8.6968    9.8373   23.6359 C   0  0  0  0  0  0  0  0  0  0  0  0
   12.5135    6.5957   21.8396 C   0  0  0  0  0  0  0  0  0  0  0  0
   10.9406    8.2330   21.1350 C   0  0  0  0  0  0  0  0  0  0  0  0
    9.6648    8.5956   21.7310 C   0  0  0  0  0  0  0  0  0  0  0  0
   10.8829    1.7153   20.9865 C   0  0  0  0  0  0  0  0  0  0  0  0
    5.7768    2.8533   23.7910 C   0  0  0  0  0  0  0  0  0  0  0  0
    9.7977    1.4791   21.6912 N   0  0  0  0  0  0  0  0  0  0  0  0
    6.5976    9.3401   22.6478 N   0  0  0  0  0  0  0  0  0  0  0  0
   11.2031    3.0042   20.6246 C   0  0  0  0  0  0  0  0  0  0  0  0
   12.8688    7.7370   22.7287 C   0  0  0  0  0  0  0  0  0  0  0  0
    7.4487    9.1361   23.6506 C   0  0  0  0  0  0  0  0  0  0  0  0
    8.9772    2.5025   22.0273 C   0  0  0  0  0  0  0  0  0  0  0  0
   10.4859    4.0901   20.9730 C   0  0  0  0  0  0  0  0  0  0  0  0
   11.0962    9.3293   23.5072 C   0  0  0  0  0  0  0  0  0  0  0  0
    5.1273    7.8529   23.6208 N   0  0  0  0  0  0  0  0  0  0  0  0
    9.7552    9.2338   23.0171 N   0  0  0  0  0  0  0  0  0  0  0  0
   11.1797    6.7591   21.3326 N   0  0  0  0  0  0  0  0  0  0  0  0
   11.7728    8.0337   23.7267 C   0  0  0  0  0  0  0  0  0  0  0  0
    7.1194    8.3344   24.6775 C   0  0  0  0  0  0  0  0  0  0  0  0
    8.4311    4.7963   22.0500 C   0  0  0  0  0  0  0  0  0  0  0  0
    8.7393   10.8706   24.1871 O   0  0  0  0  0  0  0  0  0  0  0  0
    9.3093    3.8166   21.6712 C   0  0  0  0  0  0  0  0  0  0  0  0
  1  5  1  0
  1 15  4  0
  1 22  4  0
  2 20  1  0
  2 24  1  0
  3  6  4  0
  3 27  4  0
  4 22  4  0
  4 26  4  0
  6  7  4  0
  6 13  1  0
  7 19  4  0
  8 18  1  0
  8 23  1  0
  8 28  2  0
  9 17  1  0
  9 24  1  0
 10 11  1  0
 10 24  1  0
 11 23  1  0
 12 14  4  0
 12 16  4  0
 14 19  4  0
 15 18  4  0
 16 20  4  0
 17 25  1  0
 18 26  4  0
 19 29  4  0
 20 29  4  0
 21 23  1  0
 21 25  1  0
 27 29  4  0
M  END
$$$$

 Created by Python create_sdf_string function

 29 32  0  0  0  0  0  0  0  0999 V2000
    5.4450    8.7154   22.6662 C   0  0  0  0  0  0  0  0  0  0  0  0
   10.9154    5.4574   20.5483 C   0  0  0  0  0  0  0  0  0  0  0  0
    7.2709    4.5089   22.7542 C   0  0  0  0  0  0  0  0  0  0  0  0
    5.9698    7.6329   24.6581 C   0  0  0  0  0  0  0  0  0  0  0  0
    4.5542    8.9057   21.7104 O   0  0  0  0  0  0  0  0  0  0  0  0
    6.9895    3.2085   23.0690 C   0  0  0  0  0  0  0  0  0  0  0  0
    7.8391    2.2253   22.7260 N   0  0  0  0  0  0  0  0  0  0  0  0
    8.6968    9.8373   23.6359 C   0  0  0  0  0  0  0  0  0  0  0  0
   12.5135    6.5957   21.8396 C   0  0  0  0  0  0  0  0  0  0  0  0
   10.9406    8.2330   21.1350 C   0  0  0  0  0  0  0  0  0  0  0  0
    9.6648    8.5956   21.7310 C   0  0  0  0  0  0  0  0  0  0  0  0
   10.8829    1.7153   20.9865 C   0  0  0  0  0  0  0  0  0  0  0  0
    5.7768    2.8533   23.7910 C   0  0  0  0  0  0  0  0  0  0  0  0
    9.7977    1.4791   21.6912 N   0  0  0  0  0  0  0  0  0  0  0  0
    6.5976    9.3401   22.6478 N   0  0  0  0  0  0  0  0  0  0  0  0
   11.2031    3.0042   20.6246 C   0  0  0  0  0  0  0  0  0  0  0  0
   12.8688    7.7370   22.7287 C   0  0  0  0  0  0  0  0  0  0  0  0
    7.4487    9.1361   23.6506 C   0  0  0  0  0  0  0  0  0  0  0  0
    8.9772    2.5025   22.0273 C   0  0  0  0  0  0  0  0  0  0  0  0
   10.4859    4.0901   20.9730 C   0  0  0  0  0  0  0  0  0  0  0  0
   11.0962    9.3293   23.5072 C   0  0  0  0  0  0  0  0  0  0  0  0
    5.1273    7.8529   23.6208 N   0  0  0  0  0  0  0  0  0  0  0  0
    9.7552    9.2338   23.0171 N   0  0  0  0  0  0  0  0  0  0  0  0
   11.1797    6.7591   21.3326 N   0  0  0  0  0  0  0  0  0  0  0  0
   11.7728    8.0337   23.7267 C   0  0  0  0  0  0  0  0  0  0  0  0
    7.1194    8.3344   24.6775 C   0  0  0  0  0  0  0  0  0  0  0  0
    8.4311    4.7963   22.0500 C   0  0  0  0  0  0  0  0  0  0  0  0
    8.7393   10.8706   24.1871 O   0  0  0  0  0  0  0  0  0  0  0  0
    9.3093    3.8166   21.6712 C   0  0  0  0  0  0  0  0  0  0  0  0
  1  5  1  0
  1 15  4  0
  1 22  4  0
  2 20  1  0
  2 24  1  0
  3  6  4  0
  3 27  4  0
  4 22  4  0
  4 26  4  0
  6  7  4  0
  6 13  1  0
  7 19  4  0
  8 18  1  0
  8 23  1  0
  8 28  2  0
  9 17  1  0
  9 24  1  0
 10 11  1  0
 10 24  1  0
 11 23  1  0
 12 14  4  0
 12 16  4  0
 14 19  4  0
 15 18  4  0
 16 20  4  0
 17 25  1  0
 18 26  4  0
 19 29  4  0
 20 29  4  0
 21 23  1  0
 21 25  1  0
 27 29  4  0
M  END
$$$$

 Created by Python create_sdf_string function

 29 32  0  0  0  0  0  0  0  0999 V2000
    5.4450    8.7154   22.6662 C   0  0  0  0  0  0  0  0  0  0  0  0
   10.9154    5.4574   20.5483 C   0  0  0  0  0  0  0  0  0  0  0  0
    7.2709    4.5089   22.7542 C   0  0  0  0  0  0  0  0  0  0  0  0
    5.9698    7.6329   24.6581 C   0  0  0  0  0  0  0  0  0  0  0  0
    4.5542    8.9057   21.7104 O   0  0  0  0  0  0  0  0  0  0  0  0
    6.9895    3.2085   23.0690 C   0  0  0  0  0  0  0  0  0  0  0  0
    7.8391    2.2253   22.7260 N   0  0  0  0  0  0  0  0  0  0  0  0
    8.6968    9.8373   23.6359 C   0  0  0  0  0  0  0  0  0  0  0  0
   12.5135    6.5957   21.8396 C   0  0  0  0  0  0  0  0  0  0  0  0
   10.9406    8.2330   21.1350 C   0  0  0  0  0  0  0  0  0  0  0  0
    9.6648    8.5956   21.7310 C   0  0  0  0  0  0  0  0  0  0  0  0
   10.8829    1.7153   20.9865 C   0  0  0  0  0  0  0  0  0  0  0  0
    5.7768    2.8533   23.7910 C   0  0  0  0  0  0  0  0  0  0  0  0
    9.7977    1.4791   21.6912 N   0  0  0  0  0  0  0  0  0  0  0  0
    6.5976    9.3401   22.6478 N   0  0  0  0  0  0  0  0  0  0  0  0
   11.2031    3.0042   20.6246 C   0  0  0  0  0  0  0  0  0  0  0  0
   12.8688    7.7370   22.7287 C   0  0  0  0  0  0  0  0  0  0  0  0
    7.4487    9.1361   23.6506 C   0  0  0  0  0  0  0  0  0  0  0  0
    8.9772    2.5025   22.0273 C   0  0  0  0  0  0  0  0  0  0  0  0
   10.4859    4.0901   20.9730 C   0  0  0  0  0  0  0  0  0  0  0  0
   11.0962    9.3293   23.5072 C   0  0  0  0  0  0  0  0  0  0  0  0
    5.1273    7.8529   23.6208 N   0  0  0  0  0  0  0  0  0  0  0  0
    9.7552    9.2338   23.0171 N   0  0  0  0  0  0  0  0  0  0  0  0
   11.1797    6.7591   21.3326 N   0  0  0  0  0  0  0  0  0  0  0  0
   11.7728    8.0337   23.7267 C   0  0  0  0  0  0  0  0  0  0  0  0
    7.1194    8.3344   24.6775 C   0  0  0  0  0  0  0  0  0  0  0  0
    8.4311    4.7963   22.0500 C   0  0  0  0  0  0  0  0  0  0  0  0
    8.7393   10.8706   24.1871 O   0  0  0  0  0  0  0  0  0  0  0  0
    9.3093    3.8166   21.6712 C   0  0  0  0  0  0  0  0  0  0  0  0
  1  5  1  0
  1 15  4  0
  1 22  4  0
  2 20  1  0
  2 24  1  0
  3  6  4  0
  3 27  4  0
  4 22  4  0
  4 26  4  0
  6  7  4  0
  6 13  1  0
  7 19  4  0
  8 18  1  0
  8 23  1  0
  8 28  2  0
  9 17  1  0
  9 24  1  0
 10 11  1  0
 10 24  1  0
 11 23  1  0
 12 14  4  0
 12 16  4  0
 14 19  4  0
 15 18  4  0
 16 20  4  0
 17 25  1  0
 18 26  4  0
 19 29  4  0
 20 29  4  0
 21 23  1  0
 21 25  1  0
 27 29  4  0
M  END
$$$$

 Created by Python create_sdf_string function

 29 32  0  0  0  0  0  0  0  0999 V2000
    5.4450    8.7154   22.6662 C   0  0  0  0  0  0  0  0  0  0  0  0
   10.9154    5.4574   20.5483 C   0  0  0  0  0  0  0  0  0  0  0  0
    7.2709    4.5089   22.7542 C   0  0  0  0  0  0  0  0  0  0  0  0
    5.9698    7.6329   24.6581 C   0  0  0  0  0  0  0  0  0  0  0  0
    4.5542    8.9057   21.7104 O   0  0  0  0  0  0  0  0  0  0  0  0
    6.9895    3.2085   23.0690 C   0  0  0  0  0  0  0  0  0  0  0  0
    7.8391    2.2253   22.7260 N   0  0  0  0  0  0  0  0  0  0  0  0
    8.6968    9.8373   23.6359 C   0  0  0  0  0  0  0  0  0  0  0  0
   12.5135    6.5957   21.8396 C   0  0  0  0  0  0  0  0  0  0  0  0
   10.9406    8.2330   21.1350 C   0  0  0  0  0  0  0  0  0  0  0  0
    9.6648    8.5956   21.7310 C   0  0  0  0  0  0  0  0  0  0  0  0
   10.8829    1.7153   20.9865 C   0  0  0  0  0  0  0  0  0  0  0  0
    5.7768    2.8533   23.7910 C   0  0  0  0  0  0  0  0  0  0  0  0
    9.7977    1.4791   21.6912 N   0  0  0  0  0  0  0  0  0  0  0  0
    6.5976    9.3401   22.6478 N   0  0  0  0  0  0  0  0  0  0  0  0
   11.2031    3.0042   20.6246 C   0  0  0  0  0  0  0  0  0  0  0  0
   12.8688    7.7370   22.7287 C   0  0  0  0  0  0  0  0  0  0  0  0
    7.4487    9.1361   23.6506 C   0  0  0  0  0  0  0  0  0  0  0  0
    8.9772    2.5025   22.0273 C   0  0  0  0  0  0  0  0  0  0  0  0
   10.4859    4.0901   20.9730 C   0  0  0  0  0  0  0  0  0  0  0  0
   11.0962    9.3293   23.5072 C   0  0  0  0  0  0  0  0  0  0  0  0
    5.1273    7.8529   23.6208 N   0  0  0  0  0  0  0  0  0  0  0  0
    9.7552    9.2338   23.0171 N   0  0  0  0  0  0  0  0  0  0  0  0
   11.1797    6.7591   21.3326 N   0  0  0  0  0  0  0  0  0  0  0  0
   11.7728    8.0337   23.7267 C   0  0  0  0  0  0  0  0  0  0  0  0
    7.1194    8.3344   24.6775 C   0  0  0  0  0  0  0  0  0  0  0  0
    8.4311    4.7963   22.0500 C   0  0  0  0  0  0  0  0  0  0  0  0
    8.7393   10.8706   24.1871 O   0  0  0  0  0  0  0  0  0  0  0  0
    9.3093    3.8166   21.6712 C   0  0  0  0  0  0  0  0  0  0  0  0
  1  5  1  0
  1 15  4  0
  1 22  4  0
  2 20  1  0
  2 24  1  0
  3  6  4  0
  3 27  4  0
  4 22  4  0
  4 26  4  0
  6  7  4  0
  6 13  1  0
  7 19  4  0
  8 18  1  0
  8 23  1  0
  8 28  2  0
  9 17  1  0
  9 24  1  0
 10 11  1  0
 10 24  1  0
 11 23  1  0
 12 14  4  0
 12 16  4  0
 14 19  4  0
 15 18  4  0
 16 20  4  0
 17 25  1  0
 18 26  4  0
 19 29  4  0
 20 29  4  0
 21 23  1  0
 21 25  1  0
 27 29  4  0
M  END
$$$$

 Created by Python create_sdf_string function

 29 32  0  0  0  0  0  0  0  0999 V2000
    5.4450    8.7154   22.6662 C   0  0  0  0  0  0  0  0  0  0  0  0
   10.9154    5.4574   20.5483 C   0  0  0  0  0  0  0  0  0  0  0  0
    7.2709    4.5089   22.7542 C   0  0  0  0  0  0  0  0  0  0  0  0
    5.9698    7.6329   24.6581 C   0  0  0  0  0  0  0  0  0  0  0  0
    4.5542    8.9057   21.7104 O   0  0  0  0  0  0  0  0  0  0  0  0
    6.9895    3.2085   23.0690 C   0  0  0  0  0  0  0  0  0  0  0  0
    7.8391    2.2253   22.7260 N   0  0  0  0  0  0  0  0  0  0  0  0
    8.6968    9.8373   23.6359 C   0  0  0  0  0  0  0  0  0  0  0  0
   12.5135    6.5957   21.8396 C   0  0  0  0  0  0  0  0  0  0  0  0
   10.9406    8.2330   21.1350 C   0  0  0  0  0  0  0  0  0  0  0  0
    9.6648    8.5956   21.7310 C   0  0  0  0  0  0  0  0  0  0  0  0
   10.8829    1.7153   20.9865 C   0  0  0  0  0  0  0  0  0  0  0  0
    5.7768    2.8533   23.7910 C   0  0  0  0  0  0  0  0  0  0  0  0
    9.7977    1.4791   21.6912 N   0  0  0  0  0  0  0  0  0  0  0  0
    6.5976    9.3401   22.6478 N   0  0  0  0  0  0  0  0  0  0  0  0
   11.2031    3.0042   20.6246 C   0  0  0  0  0  0  0  0  0  0  0  0
   12.8688    7.7370   22.7287 C   0  0  0  0  0  0  0  0  0  0  0  0
    7.4487    9.1361   23.6506 C   0  0  0  0  0  0  0  0  0  0  0  0
    8.9772    2.5025   22.0273 C   0  0  0  0  0  0  0  0  0  0  0  0
   10.4859    4.0901   20.9730 C   0  0  0  0  0  0  0  0  0  0  0  0
   11.0962    9.3293   23.5072 C   0  0  0  0  0  0  0  0  0  0  0  0
    5.1273    7.8529   23.6208 N   0  0  0  0  0  0  0  0  0  0  0  0
    9.7552    9.2338   23.0171 N   0  0  0  0  0  0  0  0  0  0  0  0
   11.1797    6.7591   21.3326 N   0  0  0  0  0  0  0  0  0  0  0  0
   11.7728    8.0337   23.7267 C   0  0  0  0  0  0  0  0  0  0  0  0
    7.1194    8.3344   24.6775 C   0  0  0  0  0  0  0  0  0  0  0  0
    8.4311    4.7963   22.0500 C   0  0  0  0  0  0  0  0  0  0  0  0
    8.7393   10.8706   24.1871 O   0  0  0  0  0  0  0  0  0  0  0  0
    9.3093    3.8166   21.6712 C   0  0  0  0  0  0  0  0  0  0  0  0
  1  5  1  0
  1 15  4  0
  1 22  4  0
  2 20  1  0
  2 24  1  0
  3  6  4  0
  3 27  4  0
  4 22  4  0
  4 26  4  0
  6  7  4  0
  6 13  1  0
  7 19  4  0
  8 18  1  0
  8 23  1  0
  8 28  2  0
  9 17  1  0
  9 24  1  0
 10 11  1  0
 10 24  1  0
 11 23  1  0
 12 14  4  0
 12 16  4  0
 14 19  4  0
 15 18  4  0
 16 20  4  0
 17 25  1  0
 18 26  4  0
 19 29  4  0
 20 29  4  0
 21 23  1  0
 21 25  1  0
 27 29  4  0
M  END
$$$$

 Created by Python create_sdf_string function

 29 32  0  0  0  0  0  0  0  0999 V2000
    5.4450    8.7154   22.6662 C   0  0  0  0  0  0  0  0  0  0  0  0
   10.9154    5.4574   20.5483 C   0  0  0  0  0  0  0  0  0  0  0  0
    7.2709    4.5089   22.7542 C   0  0  0  0  0  0  0  0  0  0  0  0
    5.9698    7.6329   24.6581 C   0  0  0  0  0  0  0  0  0  0  0  0
    4.5542    8.9057   21.7104 O   0  0  0  0  0  0  0  0  0  0  0  0
    6.9895    3.2085   23.0690 C   0  0  0  0  0  0  0  0  0  0  0  0
    7.8391    2.2253   22.7260 N   0  0  0  0  0  0  0  0  0  0  0  0
    8.6968    9.8373   23.6359 C   0  0  0  0  0  0  0  0  0  0  0  0
   12.5135    6.5957   21.8396 C   0  0  0  0  0  0  0  0  0  0  0  0
   10.9406    8.2330   21.1350 C   0  0  0  0  0  0  0  0  0  0  0  0
    9.6648    8.5956   21.7310 C   0  0  0  0  0  0  0  0  0  0  0  0
   10.8829    1.7153   20.9865 C   0  0  0  0  0  0  0  0  0  0  0  0
    5.7768    2.8533   23.7910 C   0  0  0  0  0  0  0  0  0  0  0  0
    9.7977    1.4791   21.6912 N   0  0  0  0  0  0  0  0  0  0  0  0
    6.5976    9.3401   22.6478 N   0  0  0  0  0  0  0  0  0  0  0  0
   11.2031    3.0042   20.6246 C   0  0  0  0  0  0  0  0  0  0  0  0
   12.8688    7.7370   22.7287 C   0  0  0  0  0  0  0  0  0  0  0  0
    7.4487    9.1361   23.6506 C   0  0  0  0  0  0  0  0  0  0  0  0
    8.9772    2.5025   22.0273 C   0  0  0  0  0  0  0  0  0  0  0  0
   10.4859    4.0901   20.9730 C   0  0  0  0  0  0  0  0  0  0  0  0
   11.0962    9.3293   23.5072 C   0  0  0  0  0  0  0  0  0  0  0  0
    5.1273    7.8529   23.6208 N   0  0  0  0  0  0  0  0  0  0  0  0
    9.7552    9.2338   23.0171 N   0  0  0  0  0  0  0  0  0  0  0  0
   11.1797    6.7591   21.3326 N   0  0  0  0  0  0  0  0  0  0  0  0
   11.7728    8.0337   23.7267 C   0  0  0  0  0  0  0  0  0  0  0  0
    7.1194    8.3344   24.6775 C   0  0  0  0  0  0  0  0  0  0  0  0
    8.4311    4.7963   22.0500 C   0  0  0  0  0  0  0  0  0  0  0  0
    8.7393   10.8706   24.1871 O   0  0  0  0  0  0  0  0  0  0  0  0
    9.3093    3.8166   21.6712 C   0  0  0  0  0  0  0  0  0  0  0  0
  1  5  1  0
  1 15  4  0
  1 22  4  0
  2 20  1  0
  2 24  1  0
  3  6  4  0
  3 27  4  0
  4 22  4  0
  4 26  4  0
  6  7  4  0
  6 13  1  0
  7 19  4  0
  8 18  1  0
  8 23  1  0
  8 28  2  0
  9 17  1  0
  9 24  1  0
 10 11  1  0
 10 24  1  0
 11 23  1  0
 12 14  4  0
 12 16  4  0
 14 19  4  0
 15 18  4  0
 16 20  4  0
 17 25  1  0
 18 26  4  0
 19 29  4  0
 20 29  4  0
 21 23  1  0
 21 25  1  0
 27 29  4  0
M  END
$$$$

 Created by Python create_sdf_string function

 29 32  0  0  0  0  0  0  0  0999 V2000
    5.4450    8.7154   22.6662 C   0  0  0  0  0  0  0  0  0  0  0  0
   10.9154    5.4574   20.5483 C   0  0  0  0  0  0  0  0  0  0  0  0
    7.2709    4.5089   22.7542 C   0  0  0  0  0  0  0  0  0  0  0  0
    5.9698    7.6329   24.6581 C   0  0  0  0  0  0  0  0  0  0  0  0
    4.5542    8.9057   21.7104 O   0  0  0  0  0  0  0  0  0  0  0  0
    6.9895    3.2085   23.0690 C   0  0  0  0  0  0  0  0  0  0  0  0
    7.8391    2.2253   22.7260 N   0  0  0  0  0  0  0  0  0  0  0  0
    8.6968    9.8373   23.6359 C   0  0  0  0  0  0  0  0  0  0  0  0
   12.5135    6.5957   21.8396 C   0  0  0  0  0  0  0  0  0  0  0  0
   10.9406    8.2330   21.1350 C   0  0  0  0  0  0  0  0  0  0  0  0
    9.6648    8.5956   21.7310 C   0  0  0  0  0  0  0  0  0  0  0  0
   10.8829    1.7153   20.9865 C   0  0  0  0  0  0  0  0  0  0  0  0
    5.7768    2.8533   23.7910 C   0  0  0  0  0  0  0  0  0  0  0  0
    9.7977    1.4791   21.6912 N   0  0  0  0  0  0  0  0  0  0  0  0
    6.5976    9.3401   22.6478 N   0  0  0  0  0  0  0  0  0  0  0  0
   11.2031    3.0042   20.6246 C   0  0  0  0  0  0  0  0  0  0  0  0
   12.8688    7.7370   22.7287 C   0  0  0  0  0  0  0  0  0  0  0  0
    7.4487    9.1361   23.6506 C   0  0  0  0  0  0  0  0  0  0  0  0
    8.9772    2.5025   22.0273 C   0  0  0  0  0  0  0  0  0  0  0  0
   10.4859    4.0901   20.9730 C   0  0  0  0  0  0  0  0  0  0  0  0
   11.0962    9.3293   23.5072 C   0  0  0  0  0  0  0  0  0  0  0  0
    5.1273    7.8529   23.6208 N   0  0  0  0  0  0  0  0  0  0  0  0
    9.7552    9.2338   23.0171 N   0  0  0  0  0  0  0  0  0  0  0  0
   11.1797    6.7591   21.3326 N   0  0  0  0  0  0  0  0  0  0  0  0
   11.7728    8.0337   23.7267 C   0  0  0  0  0  0  0  0  0  0  0  0
    7.1194    8.3344   24.6775 C   0  0  0  0  0  0  0  0  0  0  0  0
    8.4311    4.7963   22.0500 C   0  0  0  0  0  0  0  0  0  0  0  0
    8.7393   10.8706   24.1871 O   0  0  0  0  0  0  0  0  0  0  0  0
    9.3093    3.8166   21.6712 C   0  0  0  0  0  0  0  0  0  0  0  0
  1  5  1  0
  1 15  4  0
  1 22  4  0
  2 20  1  0
  2 24  1  0
  3  6  4  0
  3 27  4  0
  4 22  4  0
  4 26  4  0
  6  7  4  0
  6 13  1  0
  7 19  4  0
  8 18  1  0
  8 23  1  0
  8 28  2  0
  9 17  1  0
  9 24  1  0
 10 11  1  0
 10 24  1  0
 11 23  1  0
 12 14  4  0
 12 16  4  0
 14 19  4  0
 15 18  4  0
 16 20  4  0
 17 25  1  0
 18 26  4  0
 19 29  4  0
 20 29  4  0
 21 23  1  0
 21 25  1  0
 27 29  4  0
M  END
$$$$

 Created by Python create_sdf_string function

 29 32  0  0  0  0  0  0  0  0999 V2000
    5.4450    8.7154   22.6662 C   0  0  0  0  0  0  0  0  0  0  0  0
   10.9154    5.4574   20.5483 C   0  0  0  0  0  0  0  0  0  0  0  0
    7.2709    4.5089   22.7542 C   0  0  0  0  0  0  0  0  0  0  0  0
    5.9698    7.6329   24.6581 C   0  0  0  0  0  0  0  0  0  0  0  0
    4.5542    8.9057   21.7104 O   0  0  0  0  0  0  0  0  0  0  0  0
    6.9895    3.2085   23.0690 C   0  0  0  0  0  0  0  0  0  0  0  0
    7.8391    2.2253   22.7260 N   0  0  0  0  0  0  0  0  0  0  0  0
    8.6968    9.8373   23.6359 C   0  0  0  0  0  0  0  0  0  0  0  0
   12.5135    6.5957   21.8396 C   0  0  0  0  0  0  0  0  0  0  0  0
   10.9406    8.2330   21.1350 C   0  0  0  0  0  0  0  0  0  0  0  0
    9.6648    8.5956   21.7310 C   0  0  0  0  0  0  0  0  0  0  0  0
   10.8829    1.7153   20.9865 C   0  0  0  0  0  0  0  0  0  0  0  0
    5.7768    2.8533   23.7910 C   0  0  0  0  0  0  0  0  0  0  0  0
    9.7977    1.4791   21.6912 N   0  0  0  0  0  0  0  0  0  0  0  0
    6.5976    9.3401   22.6478 N   0  0  0  0  0  0  0  0  0  0  0  0
   11.2031    3.0042   20.6246 C   0  0  0  0  0  0  0  0  0  0  0  0
   12.8688    7.7370   22.7287 C   0  0  0  0  0  0  0  0  0  0  0  0
    7.4487    9.1361   23.6506 C   0  0  0  0  0  0  0  0  0  0  0  0
    8.9772    2.5025   22.0273 C   0  0  0  0  0  0  0  0  0  0  0  0
   10.4859    4.0901   20.9730 C   0  0  0  0  0  0  0  0  0  0  0  0
   11.0962    9.3293   23.5072 C   0  0  0  0  0  0  0  0  0  0  0  0
    5.1273    7.8529   23.6208 N   0  0  0  0  0  0  0  0  0  0  0  0
    9.7552    9.2338   23.0171 N   0  0  0  0  0  0  0  0  0  0  0  0
   11.1797    6.7591   21.3326 N   0  0  0  0  0  0  0  0  0  0  0  0
   11.7728    8.0337   23.7267 C   0  0  0  0  0  0  0  0  0  0  0  0
    7.1194    8.3344   24.6775 C   0  0  0  0  0  0  0  0  0  0  0  0
    8.4311    4.7963   22.0500 C   0  0  0  0  0  0  0  0  0  0  0  0
    8.7393   10.8706   24.1871 O   0  0  0  0  0  0  0  0  0  0  0  0
    9.3093    3.8166   21.6712 C   0  0  0  0  0  0  0  0  0  0  0  0
  1  5  1  0
  1 15  4  0
  1 22  4  0
  2 20  1  0
  2 24  1  0
  3  6  4  0
  3 27  4  0
  4 22  4  0
  4 26  4  0
  6  7  4  0
  6 13  1  0
  7 19  4  0
  8 18  1  0
  8 23  1  0
  8 28  2  0
  9 17  1  0
  9 24  1  0
 10 11  1  0
 10 24  1  0
 11 23  1  0
 12 14  4  0
 12 16  4  0
 14 19  4  0
 15 18  4  0
 16 20  4  0
 17 25  1  0
 18 26  4  0
 19 29  4  0
 20 29  4  0
 21 23  1  0
 21 25  1  0
 27 29  4  0
M  END
$$$$

 Created by Python create_sdf_string function

 29 32  0  0  0  0  0  0  0  0999 V2000
    5.4450    8.7154   22.6662 C   0  0  0  0  0  0  0  0  0  0  0  0
   10.9154    5.4574   20.5483 C   0  0  0  0  0  0  0  0  0  0  0  0
    7.2709    4.5089   22.7542 C   0  0  0  0  0  0  0  0  0  0  0  0
    5.9698    7.6329   24.6581 C   0  0  0  0  0  0  0  0  0  0  0  0
    4.5542    8.9057   21.7104 O   0  0  0  0  0  0  0  0  0  0  0  0
    6.9895    3.2085   23.0690 C   0  0  0  0  0  0  0  0  0  0  0  0
    7.8391    2.2253   22.7260 N   0  0  0  0  0  0  0  0  0  0  0  0
    8.6968    9.8373   23.6359 C   0  0  0  0  0  0  0  0  0  0  0  0
   12.5135    6.5957   21.8396 C   0  0  0  0  0  0  0  0  0  0  0  0
   10.9406    8.2330   21.1350 C   0  0  0  0  0  0  0  0  0  0  0  0
    9.6648    8.5956   21.7310 C   0  0  0  0  0  0  0  0  0  0  0  0
   10.8829    1.7153   20.9865 C   0  0  0  0  0  0  0  0  0  0  0  0
    5.7768    2.8533   23.7910 C   0  0  0  0  0  0  0  0  0  0  0  0
    9.7977    1.4791   21.6912 N   0  0  0  0  0  0  0  0  0  0  0  0
    6.5976    9.3401   22.6478 N   0  0  0  0  0  0  0  0  0  0  0  0
   11.2031    3.0042   20.6246 C   0  0  0  0  0  0  0  0  0  0  0  0
   12.8688    7.7370   22.7287 C   0  0  0  0  0  0  0  0  0  0  0  0
    7.4487    9.1361   23.6506 C   0  0  0  0  0  0  0  0  0  0  0  0
    8.9772    2.5025   22.0273 C   0  0  0  0  0  0  0  0  0  0  0  0
   10.4859    4.0901   20.9730 C   0  0  0  0  0  0  0  0  0  0  0  0
   11.0962    9.3293   23.5072 C   0  0  0  0  0  0  0  0  0  0  0  0
    5.1273    7.8529   23.6208 N   0  0  0  0  0  0  0  0  0  0  0  0
    9.7552    9.2338   23.0171 N   0  0  0  0  0  0  0  0  0  0  0  0
   11.1797    6.7591   21.3326 N   0  0  0  0  0  0  0  0  0  0  0  0
   11.7728    8.0337   23.7267 C   0  0  0  0  0  0  0  0  0  0  0  0
    7.1194    8.3344   24.6775 C   0  0  0  0  0  0  0  0  0  0  0  0
    8.4311    4.7963   22.0500 C   0  0  0  0  0  0  0  0  0  0  0  0
    8.7393   10.8706   24.1871 O   0  0  0  0  0  0  0  0  0  0  0  0
    9.3093    3.8166   21.6712 C   0  0  0  0  0  0  0  0  0  0  0  0
  1  5  1  0
  1 15  4  0
  1 22  4  0
  2 20  1  0
  2 24  1  0
  3  6  4  0
  3 27  4  0
  4 22  4  0
  4 26  4  0
  6  7  4  0
  6 13  1  0
  7 19  4  0
  8 18  1  0
  8 23  1  0
  8 28  2  0
  9 17  1  0
  9 24  1  0
 10 11  1  0
 10 24  1  0
 11 23  1  0
 12 14  4  0
 12 16  4  0
 14 19  4  0
 15 18  4  0
 16 20  4  0
 17 25  1  0
 18 26  4  0
 19 29  4  0
 20 29  4  0
 21 23  1  0
 21 25  1  0
 27 29  4  0
M  END
$$$$

 Created by Python create_sdf_string function

 29 32  0  0  0  0  0  0  0  0999 V2000
    5.4450    8.7154   22.6662 C   0  0  0  0  0  0  0  0  0  0  0  0
   10.9154    5.4574   20.5483 C   0  0  0  0  0  0  0  0  0  0  0  0
    7.2709    4.5089   22.7542 C   0  0  0  0  0  0  0  0  0  0  0  0
    5.9698    7.6329   24.6581 C   0  0  0  0  0  0  0  0  0  0  0  0
    4.5542    8.9057   21.7104 O   0  0  0  0  0  0  0  0  0  0  0  0
    6.9895    3.2085   23.0690 C   0  0  0  0  0  0  0  0  0  0  0  0
    7.8391    2.2253   22.7260 N   0  0  0  0  0  0  0  0  0  0  0  0
    8.6968    9.8373   23.6359 C   0  0  0  0  0  0  0  0  0  0  0  0
   12.5135    6.5957   21.8396 C   0  0  0  0  0  0  0  0  0  0  0  0
   10.9406    8.2330   21.1350 C   0  0  0  0  0  0  0  0  0  0  0  0
    9.6648    8.5956   21.7310 C   0  0  0  0  0  0  0  0  0  0  0  0
   10.8829    1.7153   20.9865 C   0  0  0  0  0  0  0  0  0  0  0  0
    5.7768    2.8533   23.7910 C   0  0  0  0  0  0  0  0  0  0  0  0
    9.7977    1.4791   21.6912 N   0  0  0  0  0  0  0  0  0  0  0  0
    6.5976    9.3401   22.6478 N   0  0  0  0  0  0  0  0  0  0  0  0
   11.2031    3.0042   20.6246 C   0  0  0  0  0  0  0  0  0  0  0  0
   12.8688    7.7370   22.7287 C   0  0  0  0  0  0  0  0  0  0  0  0
    7.4487    9.1361   23.6506 C   0  0  0  0  0  0  0  0  0  0  0  0
    8.9772    2.5025   22.0273 C   0  0  0  0  0  0  0  0  0  0  0  0
   10.4859    4.0901   20.9730 C   0  0  0  0  0  0  0  0  0  0  0  0
   11.0962    9.3293   23.5072 C   0  0  0  0  0  0  0  0  0  0  0  0
    5.1273    7.8529   23.6208 N   0  0  0  0  0  0  0  0  0  0  0  0
    9.7552    9.2338   23.0171 N   0  0  0  0  0  0  0  0  0  0  0  0
   11.1797    6.7591   21.3326 N   0  0  0  0  0  0  0  0  0  0  0  0
   11.7728    8.0337   23.7267 C   0  0  0  0  0  0  0  0  0  0  0  0
    7.1194    8.3344   24.6775 C   0  0  0  0  0  0  0  0  0  0  0  0
    8.4311    4.7963   22.0500 C   0  0  0  0  0  0  0  0  0  0  0  0
    8.7393   10.8706   24.1871 O   0  0  0  0  0  0  0  0  0  0  0  0
    9.3093    3.8166   21.6712 C   0  0  0  0  0  0  0  0  0  0  0  0
  1  5  1  0
  1 15  4  0
  1 22  4  0
  2 20  1  0
  2 24  1  0
  3  6  4  0
  3 27  4  0
  4 22  4  0
  4 26  4  0
  6  7  4  0
  6 13  1  0
  7 19  4  0
  8 18  1  0
  8 23  1  0
  8 28  2  0
  9 17  1  0
  9 24  1  0
 10 11  1  0
 10 24  1  0
 11 23  1  0
 12 14  4  0
 12 16  4  0
 14 19  4  0
 15 18  4  0
 16 20  4  0
 17 25  1  0
 18 26  4  0
 19 29  4  0
 20 29  4  0
 21 23  1  0
 21 25  1  0
 27 29  4  0
M  END
$$$$

 Created by Python create_sdf_string function

 29 32  0  0  0  0  0  0  0  0999 V2000
    5.4450    8.7154   22.6662 C   0  0  0  0  0  0  0  0  0  0  0  0
   10.9154    5.4574   20.5483 C   0  0  0  0  0  0  0  0  0  0  0  0
    7.2709    4.5089   22.7542 C   0  0  0  0  0  0  0  0  0  0  0  0
    5.9698    7.6329   24.6581 C   0  0  0  0  0  0  0  0  0  0  0  0
    4.5542    8.9057   21.7104 O   0  0  0  0  0  0  0  0  0  0  0  0
    6.9895    3.2085   23.0690 C   0  0  0  0  0  0  0  0  0  0  0  0
    7.8391    2.2253   22.7260 N   0  0  0  0  0  0  0  0  0  0  0  0
    8.6968    9.8373   23.6359 C   0  0  0  0  0  0  0  0  0  0  0  0
   12.5135    6.5957   21.8396 C   0  0  0  0  0  0  0  0  0  0  0  0
   10.9406    8.2330   21.1350 C   0  0  0  0  0  0  0  0  0  0  0  0
    9.6648    8.5956   21.7310 C   0  0  0  0  0  0  0  0  0  0  0  0
   10.8829    1.7153   20.9865 C   0  0  0  0  0  0  0  0  0  0  0  0
    5.7768    2.8533   23.7910 C   0  0  0  0  0  0  0  0  0  0  0  0
    9.7977    1.4791   21.6912 N   0  0  0  0  0  0  0  0  0  0  0  0
    6.5976    9.3401   22.6478 N   0  0  0  0  0  0  0  0  0  0  0  0
   11.2031    3.0042   20.6246 C   0  0  0  0  0  0  0  0  0  0  0  0
   12.8688    7.7370   22.7287 C   0  0  0  0  0  0  0  0  0  0  0  0
    7.4487    9.1361   23.6506 C   0  0  0  0  0  0  0  0  0  0  0  0
    8.9772    2.5025   22.0273 C   0  0  0  0  0  0  0  0  0  0  0  0
   10.4859    4.0901   20.9730 C   0  0  0  0  0  0  0  0  0  0  0  0
   11.0962    9.3293   23.5072 C   0  0  0  0  0  0  0  0  0  0  0  0
    5.1273    7.8529   23.6208 N   0  0  0  0  0  0  0  0  0  0  0  0
    9.7552    9.2338   23.0171 N   0  0  0  0  0  0  0  0  0  0  0  0
   11.1797    6.7591   21.3326 N   0  0  0  0  0  0  0  0  0  0  0  0
   11.7728    8.0337   23.7267 C   0  0  0  0  0  0  0  0  0  0  0  0
    7.1194    8.3344   24.6775 C   0  0  0  0  0  0  0  0  0  0  0  0
    8.4311    4.7963   22.0500 C   0  0  0  0  0  0  0  0  0  0  0  0
    8.7393   10.8706   24.1871 O   0  0  0  0  0  0  0  0  0  0  0  0
    9.3093    3.8166   21.6712 C   0  0  0  0  0  0  0  0  0  0  0  0
  1  5  1  0
  1 15  4  0
  1 22  4  0
  2 20  1  0
  2 24  1  0
  3  6  4  0
  3 27  4  0
  4 22  4  0
  4 26  4  0
  6  7  4  0
  6 13  1  0
  7 19  4  0
  8 18  1  0
  8 23  1  0
  8 28  2  0
  9 17  1  0
  9 24  1  0
 10 11  1  0
 10 24  1  0
 11 23  1  0
 12 14  4  0
 12 16  4  0
 14 19  4  0
 15 18  4  0
 16 20  4  0
 17 25  1  0
 18 26  4  0
 19 29  4  0
 20 29  4  0
 21 23  1  0
 21 25  1  0
 27 29  4  0
M  END
$$$$

 Created by Python create_sdf_string function

 29 32  0  0  0  0  0  0  0  0999 V2000
    5.4450    8.7154   22.6662 C   0  0  0  0  0  0  0  0  0  0  0  0
   10.9154    5.4574   20.5483 C   0  0  0  0  0  0  0  0  0  0  0  0
    7.2709    4.5089   22.7542 C   0  0  0  0  0  0  0  0  0  0  0  0
    5.9698    7.6329   24.6581 C   0  0  0  0  0  0  0  0  0  0  0  0
    4.5542    8.9057   21.7104 O   0  0  0  0  0  0  0  0  0  0  0  0
    6.9895    3.2085   23.0690 C   0  0  0  0  0  0  0  0  0  0  0  0
    7.8391    2.2253   22.7260 N   0  0  0  0  0  0  0  0  0  0  0  0
    8.6968    9.8373   23.6359 C   0  0  0  0  0  0  0  0  0  0  0  0
   12.5135    6.5957   21.8396 C   0  0  0  0  0  0  0  0  0  0  0  0
   10.9406    8.2330   21.1350 C   0  0  0  0  0  0  0  0  0  0  0  0
    9.6648    8.5956   21.7310 C   0  0  0  0  0  0  0  0  0  0  0  0
   10.8829    1.7153   20.9865 C   0  0  0  0  0  0  0  0  0  0  0  0
    5.7768    2.8533   23.7910 C   0  0  0  0  0  0  0  0  0  0  0  0
    9.7977    1.4791   21.6912 N   0  0  0  0  0  0  0  0  0  0  0  0
    6.5976    9.3401   22.6478 N   0  0  0  0  0  0  0  0  0  0  0  0
   11.2031    3.0042   20.6246 C   0  0  0  0  0  0  0  0  0  0  0  0
   12.8688    7.7370   22.7287 C   0  0  0  0  0  0  0  0  0  0  0  0
    7.4487    9.1361   23.6506 C   0  0  0  0  0  0  0  0  0  0  0  0
    8.9772    2.5025   22.0273 C   0  0  0  0  0  0  0  0  0  0  0  0
   10.4859    4.0901   20.9730 C   0  0  0  0  0  0  0  0  0  0  0  0
   11.0962    9.3293   23.5072 C   0  0  0  0  0  0  0  0  0  0  0  0
    5.1273    7.8529   23.6208 N   0  0  0  0  0  0  0  0  0  0  0  0
    9.7552    9.2338   23.0171 N   0  0  0  0  0  0  0  0  0  0  0  0
   11.1797    6.7591   21.3326 N   0  0  0  0  0  0  0  0  0  0  0  0
   11.7728    8.0337   23.7267 C   0  0  0  0  0  0  0  0  0  0  0  0
    7.1194    8.3344   24.6775 C   0  0  0  0  0  0  0  0  0  0  0  0
    8.4311    4.7963   22.0500 C   0  0  0  0  0  0  0  0  0  0  0  0
    8.7393   10.8706   24.1871 O   0  0  0  0  0  0  0  0  0  0  0  0
    9.3093    3.8166   21.6712 C   0  0  0  0  0  0  0  0  0  0  0  0
  1  5  1  0
  1 15  4  0
  1 22  4  0
  2 20  1  0
  2 24  1  0
  3  6  4  0
  3 27  4  0
  4 22  4  0
  4 26  4  0
  6  7  4  0
  6 13  1  0
  7 19  4  0
  8 18  1  0
  8 23  1  0
  8 28  2  0
  9 17  1  0
  9 24  1  0
 10 11  1  0
 10 24  1  0
 11 23  1  0
 12 14  4  0
 12 16  4  0
 14 19  4  0
 15 18  4  0
 16 20  4  0
 17 25  1  0
 18 26  4  0
 19 29  4  0
 20 29  4  0
 21 23  1  0
 21 25  1  0
 27 29  4  0
M  END
$$$$

 Created by Python create_sdf_string function

 29 32  0  0  0  0  0  0  0  0999 V2000
    5.4450    8.7154   22.6662 C   0  0  0  0  0  0  0  0  0  0  0  0
   10.9154    5.4574   20.5483 C   0  0  0  0  0  0  0  0  0  0  0  0
    7.2709    4.5089   22.7542 C   0  0  0  0  0  0  0  0  0  0  0  0
    5.9698    7.6329   24.6581 C   0  0  0  0  0  0  0  0  0  0  0  0
    4.5542    8.9057   21.7104 O   0  0  0  0  0  0  0  0  0  0  0  0
    6.9895    3.2085   23.0690 C   0  0  0  0  0  0  0  0  0  0  0  0
    7.8391    2.2253   22.7260 N   0  0  0  0  0  0  0  0  0  0  0  0
    8.6968    9.8373   23.6359 C   0  0  0  0  0  0  0  0  0  0  0  0
   12.5135    6.5957   21.8396 C   0  0  0  0  0  0  0  0  0  0  0  0
   10.9406    8.2330   21.1350 C   0  0  0  0  0  0  0  0  0  0  0  0
    9.6648    8.5956   21.7310 C   0  0  0  0  0  0  0  0  0  0  0  0
   10.8829    1.7153   20.9865 C   0  0  0  0  0  0  0  0  0  0  0  0
    5.7768    2.8533   23.7910 C   0  0  0  0  0  0  0  0  0  0  0  0
    9.7977    1.4791   21.6912 N   0  0  0  0  0  0  0  0  0  0  0  0
    6.5976    9.3401   22.6478 N   0  0  0  0  0  0  0  0  0  0  0  0
   11.2031    3.0042   20.6246 C   0  0  0  0  0  0  0  0  0  0  0  0
   12.8688    7.7370   22.7287 C   0  0  0  0  0  0  0  0  0  0  0  0
    7.4487    9.1361   23.6506 C   0  0  0  0  0  0  0  0  0  0  0  0
    8.9772    2.5025   22.0273 C   0  0  0  0  0  0  0  0  0  0  0  0
   10.4859    4.0901   20.9730 C   0  0  0  0  0  0  0  0  0  0  0  0
   11.0962    9.3293   23.5072 C   0  0  0  0  0  0  0  0  0  0  0  0
    5.1273    7.8529   23.6208 N   0  0  0  0  0  0  0  0  0  0  0  0
    9.7552    9.2338   23.0171 N   0  0  0  0  0  0  0  0  0  0  0  0
   11.1797    6.7591   21.3326 N   0  0  0  0  0  0  0  0  0  0  0  0
   11.7728    8.0337   23.7267 C   0  0  0  0  0  0  0  0  0  0  0  0
    7.1194    8.3344   24.6775 C   0  0  0  0  0  0  0  0  0  0  0  0
    8.4311    4.7963   22.0500 C   0  0  0  0  0  0  0  0  0  0  0  0
    8.7393   10.8706   24.1871 O   0  0  0  0  0  0  0  0  0  0  0  0
    9.3093    3.8166   21.6712 C   0  0  0  0  0  0  0  0  0  0  0  0
  1  5  1  0
  1 15  4  0
  1 22  4  0
  2 20  1  0
  2 24  1  0
  3  6  4  0
  3 27  4  0
  4 22  4  0
  4 26  4  0
  6  7  4  0
  6 13  1  0
  7 19  4  0
  8 18  1  0
  8 23  1  0
  8 28  2  0
  9 17  1  0
  9 24  1  0
 10 11  1  0
 10 24  1  0
 11 23  1  0
 12 14  4  0
 12 16  4  0
 14 19  4  0
 15 18  4  0
 16 20  4  0
 17 25  1  0
 18 26  4  0
 19 29  4  0
 20 29  4  0
 21 23  1  0
 21 25  1  0
 27 29  4  0
M  END
$$$$

 Created by Python create_sdf_string function

 29 32  0  0  0  0  0  0  0  0999 V2000
    5.4450    8.7154   22.6662 C   0  0  0  0  0  0  0  0  0  0  0  0
   10.9154    5.4574   20.5483 C   0  0  0  0  0  0  0  0  0  0  0  0
    7.2709    4.5089   22.7542 C   0  0  0  0  0  0  0  0  0  0  0  0
    5.9698    7.6329   24.6581 C   0  0  0  0  0  0  0  0  0  0  0  0
    4.5542    8.9057   21.7104 O   0  0  0  0  0  0  0  0  0  0  0  0
    6.9895    3.2085   23.0690 C   0  0  0  0  0  0  0  0  0  0  0  0
    7.8391    2.2253   22.7260 N   0  0  0  0  0  0  0  0  0  0  0  0
    8.6968    9.8373   23.6359 C   0  0  0  0  0  0  0  0  0  0  0  0
   12.5135    6.5957   21.8396 C   0  0  0  0  0  0  0  0  0  0  0  0
   10.9406    8.2330   21.1350 C   0  0  0  0  0  0  0  0  0  0  0  0
    9.6648    8.5956   21.7310 C   0  0  0  0  0  0  0  0  0  0  0  0
   10.8829    1.7153   20.9865 C   0  0  0  0  0  0  0  0  0  0  0  0
    5.7768    2.8533   23.7910 C   0  0  0  0  0  0  0  0  0  0  0  0
    9.7977    1.4791   21.6912 N   0  0  0  0  0  0  0  0  0  0  0  0
    6.5976    9.3401   22.6478 N   0  0  0  0  0  0  0  0  0  0  0  0
   11.2031    3.0042   20.6246 C   0  0  0  0  0  0  0  0  0  0  0  0
   12.8688    7.7370   22.7287 C   0  0  0  0  0  0  0  0  0  0  0  0
    7.4487    9.1361   23.6506 C   0  0  0  0  0  0  0  0  0  0  0  0
    8.9772    2.5025   22.0273 C   0  0  0  0  0  0  0  0  0  0  0  0
   10.4859    4.0901   20.9730 C   0  0  0  0  0  0  0  0  0  0  0  0
   11.0962    9.3293   23.5072 C   0  0  0  0  0  0  0  0  0  0  0  0
    5.1273    7.8529   23.6208 N   0  0  0  0  0  0  0  0  0  0  0  0
    9.7552    9.2338   23.0171 N   0  0  0  0  0  0  0  0  0  0  0  0
   11.1797    6.7591   21.3326 N   0  0  0  0  0  0  0  0  0  0  0  0
   11.7728    8.0337   23.7267 C   0  0  0  0  0  0  0  0  0  0  0  0
    7.1194    8.3344   24.6775 C   0  0  0  0  0  0  0  0  0  0  0  0
    8.4311    4.7963   22.0500 C   0  0  0  0  0  0  0  0  0  0  0  0
    8.7393   10.8706   24.1871 O   0  0  0  0  0  0  0  0  0  0  0  0
    9.3093    3.8166   21.6712 C   0  0  0  0  0  0  0  0  0  0  0  0
  1  5  1  0
  1 15  4  0
  1 22  4  0
  2 20  1  0
  2 24  1  0
  3  6  4  0
  3 27  4  0
  4 22  4  0
  4 26  4  0
  6  7  4  0
  6 13  1  0
  7 19  4  0
  8 18  1  0
  8 23  1  0
  8 28  2  0
  9 17  1  0
  9 24  1  0
 10 11  1  0
 10 24  1  0
 11 23  1  0
 12 14  4  0
 12 16  4  0
 14 19  4  0
 15 18  4  0
 16 20  4  0
 17 25  1  0
 18 26  4  0
 19 29  4  0
 20 29  4  0
 21 23  1  0
 21 25  1  0
 27 29  4  0
M  END
$$$$

 Created by Python create_sdf_string function

 29 32  0  0  0  0  0  0  0  0999 V2000
    5.4450    8.7154   22.6662 C   0  0  0  0  0  0  0  0  0  0  0  0
   10.9154    5.4574   20.5483 C   0  0  0  0  0  0  0  0  0  0  0  0
    7.2709    4.5089   22.7542 C   0  0  0  0  0  0  0  0  0  0  0  0
    5.9698    7.6329   24.6581 C   0  0  0  0  0  0  0  0  0  0  0  0
    4.5542    8.9057   21.7104 O   0  0  0  0  0  0  0  0  0  0  0  0
    6.9895    3.2085   23.0690 C   0  0  0  0  0  0  0  0  0  0  0  0
    7.8391    2.2253   22.7260 N   0  0  0  0  0  0  0  0  0  0  0  0
    8.6968    9.8373   23.6359 C   0  0  0  0  0  0  0  0  0  0  0  0
   12.5135    6.5957   21.8396 C   0  0  0  0  0  0  0  0  0  0  0  0
   10.9406    8.2330   21.1350 C   0  0  0  0  0  0  0  0  0  0  0  0
    9.6648    8.5956   21.7310 C   0  0  0  0  0  0  0  0  0  0  0  0
   10.8829    1.7153   20.9865 C   0  0  0  0  0  0  0  0  0  0  0  0
    5.7768    2.8533   23.7910 C   0  0  0  0  0  0  0  0  0  0  0  0
    9.7977    1.4791   21.6912 N   0  0  0  0  0  0  0  0  0  0  0  0
    6.5976    9.3401   22.6478 N   0  0  0  0  0  0  0  0  0  0  0  0
   11.2031    3.0042   20.6246 C   0  0  0  0  0  0  0  0  0  0  0  0
   12.8688    7.7370   22.7287 C   0  0  0  0  0  0  0  0  0  0  0  0
    7.4487    9.1361   23.6506 C   0  0  0  0  0  0  0  0  0  0  0  0
    8.9772    2.5025   22.0273 C   0  0  0  0  0  0  0  0  0  0  0  0
   10.4859    4.0901   20.9730 C   0  0  0  0  0  0  0  0  0  0  0  0
   11.0962    9.3293   23.5072 C   0  0  0  0  0  0  0  0  0  0  0  0
    5.1273    7.8529   23.6208 N   0  0  0  0  0  0  0  0  0  0  0  0
    9.7552    9.2338   23.0171 N   0  0  0  0  0  0  0  0  0  0  0  0
   11.1797    6.7591   21.3326 N   0  0  0  0  0  0  0  0  0  0  0  0
   11.7728    8.0337   23.7267 C   0  0  0  0  0  0  0  0  0  0  0  0
    7.1194    8.3344   24.6775 C   0  0  0  0  0  0  0  0  0  0  0  0
    8.4311    4.7963   22.0500 C   0  0  0  0  0  0  0  0  0  0  0  0
    8.7393   10.8706   24.1871 O   0  0  0  0  0  0  0  0  0  0  0  0
    9.3093    3.8166   21.6712 C   0  0  0  0  0  0  0  0  0  0  0  0
  1  5  1  0
  1 15  4  0
  1 22  4  0
  2 20  1  0
  2 24  1  0
  3  6  4  0
  3 27  4  0
  4 22  4  0
  4 26  4  0
  6  7  4  0
  6 13  1  0
  7 19  4  0
  8 18  1  0
  8 23  1  0
  8 28  2  0
  9 17  1  0
  9 24  1  0
 10 11  1  0
 10 24  1  0
 11 23  1  0
 12 14  4  0
 12 16  4  0
 14 19  4  0
 15 18  4  0
 16 20  4  0
 17 25  1  0
 18 26  4  0
 19 29  4  0
 20 29  4  0
 21 23  1  0
 21 25  1  0
 27 29  4  0
M  END
$$$$

 Created by Python create_sdf_string function

 29 32  0  0  0  0  0  0  0  0999 V2000
    5.4450    8.7154   22.6662 C   0  0  0  0  0  0  0  0  0  0  0  0
   10.9154    5.4574   20.5483 C   0  0  0  0  0  0  0  0  0  0  0  0
    7.2709    4.5089   22.7542 C   0  0  0  0  0  0  0  0  0  0  0  0
    5.9698    7.6329   24.6581 C   0  0  0  0  0  0  0  0  0  0  0  0
    4.5542    8.9057   21.7104 O   0  0  0  0  0  0  0  0  0  0  0  0
    6.9895    3.2085   23.0690 C   0  0  0  0  0  0  0  0  0  0  0  0
    7.8391    2.2253   22.7260 N   0  0  0  0  0  0  0  0  0  0  0  0
    8.6968    9.8373   23.6359 C   0  0  0  0  0  0  0  0  0  0  0  0
   12.5135    6.5957   21.8396 C   0  0  0  0  0  0  0  0  0  0  0  0
   10.9406    8.2330   21.1350 C   0  0  0  0  0  0  0  0  0  0  0  0
    9.6648    8.5956   21.7310 C   0  0  0  0  0  0  0  0  0  0  0  0
   10.8829    1.7153   20.9865 C   0  0  0  0  0  0  0  0  0  0  0  0
    5.7768    2.8533   23.7910 C   0  0  0  0  0  0  0  0  0  0  0  0
    9.7977    1.4791   21.6912 N   0  0  0  0  0  0  0  0  0  0  0  0
    6.5976    9.3401   22.6478 N   0  0  0  0  0  0  0  0  0  0  0  0
   11.2031    3.0042   20.6246 C   0  0  0  0  0  0  0  0  0  0  0  0
   12.8688    7.7370   22.7287 C   0  0  0  0  0  0  0  0  0  0  0  0
    7.4487    9.1361   23.6506 C   0  0  0  0  0  0  0  0  0  0  0  0
    8.9772    2.5025   22.0273 C   0  0  0  0  0  0  0  0  0  0  0  0
   10.4859    4.0901   20.9730 C   0  0  0  0  0  0  0  0  0  0  0  0
   11.0962    9.3293   23.5072 C   0  0  0  0  0  0  0  0  0  0  0  0
    5.1273    7.8529   23.6208 N   0  0  0  0  0  0  0  0  0  0  0  0
    9.7552    9.2338   23.0171 N   0  0  0  0  0  0  0  0  0  0  0  0
   11.1797    6.7591   21.3326 N   0  0  0  0  0  0  0  0  0  0  0  0
   11.7728    8.0337   23.7267 C   0  0  0  0  0  0  0  0  0  0  0  0
    7.1194    8.3344   24.6775 C   0  0  0  0  0  0  0  0  0  0  0  0
    8.4311    4.7963   22.0500 C   0  0  0  0  0  0  0  0  0  0  0  0
    8.7393   10.8706   24.1871 O   0  0  0  0  0  0  0  0  0  0  0  0
    9.3093    3.8166   21.6712 C   0  0  0  0  0  0  0  0  0  0  0  0
  1  5  1  0
  1 15  4  0
  1 22  4  0
  2 20  1  0
  2 24  1  0
  3  6  4  0
  3 27  4  0
  4 22  4  0
  4 26  4  0
  6  7  4  0
  6 13  1  0
  7 19  4  0
  8 18  1  0
  8 23  1  0
  8 28  2  0
  9 17  1  0
  9 24  1  0
 10 11  1  0
 10 24  1  0
 11 23  1  0
 12 14  4  0
 12 16  4  0
 14 19  4  0
 15 18  4  0
 16 20  4  0
 17 25  1  0
 18 26  4  0
 19 29  4  0
 20 29  4  0
 21 23  1  0
 21 25  1  0
 27 29  4  0
M  END
$$$$

 Created by Python create_sdf_string function

 29 32  0  0  0  0  0  0  0  0999 V2000
    5.4450    8.7154   22.6662 C   0  0  0  0  0  0  0  0  0  0  0  0
   10.9154    5.4574   20.5483 C   0  0  0  0  0  0  0  0  0  0  0  0
    7.2709    4.5089   22.7542 C   0  0  0  0  0  0  0  0  0  0  0  0
    5.9698    7.6329   24.6581 C   0  0  0  0  0  0  0  0  0  0  0  0
    4.5542    8.9057   21.7104 O   0  0  0  0  0  0  0  0  0  0  0  0
    6.9895    3.2085   23.0690 C   0  0  0  0  0  0  0  0  0  0  0  0
    7.8391    2.2253   22.7260 N   0  0  0  0  0  0  0  0  0  0  0  0
    8.6968    9.8373   23.6359 C   0  0  0  0  0  0  0  0  0  0  0  0
   12.5135    6.5957   21.8396 C   0  0  0  0  0  0  0  0  0  0  0  0
   10.9406    8.2330   21.1350 C   0  0  0  0  0  0  0  0  0  0  0  0
    9.6648    8.5956   21.7310 C   0  0  0  0  0  0  0  0  0  0  0  0
   10.8829    1.7153   20.9865 C   0  0  0  0  0  0  0  0  0  0  0  0
    5.7768    2.8533   23.7910 C   0  0  0  0  0  0  0  0  0  0  0  0
    9.7977    1.4791   21.6912 N   0  0  0  0  0  0  0  0  0  0  0  0
    6.5976    9.3401   22.6478 N   0  0  0  0  0  0  0  0  0  0  0  0
   11.2031    3.0042   20.6246 C   0  0  0  0  0  0  0  0  0  0  0  0
   12.8688    7.7370   22.7287 C   0  0  0  0  0  0  0  0  0  0  0  0
    7.4487    9.1361   23.6506 C   0  0  0  0  0  0  0  0  0  0  0  0
    8.9772    2.5025   22.0273 C   0  0  0  0  0  0  0  0  0  0  0  0
   10.4859    4.0901   20.9730 C   0  0  0  0  0  0  0  0  0  0  0  0
   11.0962    9.3293   23.5072 C   0  0  0  0  0  0  0  0  0  0  0  0
    5.1273    7.8529   23.6208 N   0  0  0  0  0  0  0  0  0  0  0  0
    9.7552    9.2338   23.0171 N   0  0  0  0  0  0  0  0  0  0  0  0
   11.1797    6.7591   21.3326 N   0  0  0  0  0  0  0  0  0  0  0  0
   11.7728    8.0337   23.7267 C   0  0  0  0  0  0  0  0  0  0  0  0
    7.1194    8.3344   24.6775 C   0  0  0  0  0  0  0  0  0  0  0  0
    8.4311    4.7963   22.0500 C   0  0  0  0  0  0  0  0  0  0  0  0
    8.7393   10.8706   24.1871 O   0  0  0  0  0  0  0  0  0  0  0  0
    9.3093    3.8166   21.6712 C   0  0  0  0  0  0  0  0  0  0  0  0
  1  5  1  0
  1 15  4  0
  1 22  4  0
  2 20  1  0
  2 24  1  0
  3  6  4  0
  3 27  4  0
  4 22  4  0
  4 26  4  0
  6  7  4  0
  6 13  1  0
  7 19  4  0
  8 18  1  0
  8 23  1  0
  8 28  2  0
  9 17  1  0
  9 24  1  0
 10 11  1  0
 10 24  1  0
 11 23  1  0
 12 14  4  0
 12 16  4  0
 14 19  4  0
 15 18  4  0
 16 20  4  0
 17 25  1  0
 18 26  4  0
 19 29  4  0
 20 29  4  0
 21 23  1  0
 21 25  1  0
 27 29  4  0
M  END
$$$$

 Created by Python create_sdf_string function

 29 32  0  0  0  0  0  0  0  0999 V2000
    5.4450    8.7154   22.6662 C   0  0  0  0  0  0  0  0  0  0  0  0
   10.9154    5.4574   20.5483 C   0  0  0  0  0  0  0  0  0  0  0  0
    7.2709    4.5089   22.7542 C   0  0  0  0  0  0  0  0  0  0  0  0
    5.9698    7.6329   24.6581 C   0  0  0  0  0  0  0  0  0  0  0  0
    4.5542    8.9057   21.7104 O   0  0  0  0  0  0  0  0  0  0  0  0
    6.9895    3.2085   23.0690 C   0  0  0  0  0  0  0  0  0  0  0  0
    7.8391    2.2253   22.7260 N   0  0  0  0  0  0  0  0  0  0  0  0
    8.6968    9.8373   23.6359 C   0  0  0  0  0  0  0  0  0  0  0  0
   12.5135    6.5957   21.8396 C   0  0  0  0  0  0  0  0  0  0  0  0
   10.9406    8.2330   21.1350 C   0  0  0  0  0  0  0  0  0  0  0  0
    9.6648    8.5956   21.7310 C   0  0  0  0  0  0  0  0  0  0  0  0
   10.8829    1.7153   20.9865 C   0  0  0  0  0  0  0  0  0  0  0  0
    5.7768    2.8533   23.7910 C   0  0  0  0  0  0  0  0  0  0  0  0
    9.7977    1.4791   21.6912 N   0  0  0  0  0  0  0  0  0  0  0  0
    6.5976    9.3401   22.6478 N   0  0  0  0  0  0  0  0  0  0  0  0
   11.2031    3.0042   20.6246 C   0  0  0  0  0  0  0  0  0  0  0  0
   12.8688    7.7370   22.7287 C   0  0  0  0  0  0  0  0  0  0  0  0
    7.4487    9.1361   23.6506 C   0  0  0  0  0  0  0  0  0  0  0  0
    8.9772    2.5025   22.0273 C   0  0  0  0  0  0  0  0  0  0  0  0
   10.4859    4.0901   20.9730 C   0  0  0  0  0  0  0  0  0  0  0  0
   11.0962    9.3293   23.5072 C   0  0  0  0  0  0  0  0  0  0  0  0
    5.1273    7.8529   23.6208 N   0  0  0  0  0  0  0  0  0  0  0  0
    9.7552    9.2338   23.0171 N   0  0  0  0  0  0  0  0  0  0  0  0
   11.1797    6.7591   21.3326 N   0  0  0  0  0  0  0  0  0  0  0  0
   11.7728    8.0337   23.7267 C   0  0  0  0  0  0  0  0  0  0  0  0
    7.1194    8.3344   24.6775 C   0  0  0  0  0  0  0  0  0  0  0  0
    8.4311    4.7963   22.0500 C   0  0  0  0  0  0  0  0  0  0  0  0
    8.7393   10.8706   24.1871 O   0  0  0  0  0  0  0  0  0  0  0  0
    9.3093    3.8166   21.6712 C   0  0  0  0  0  0  0  0  0  0  0  0
  1  5  1  0
  1 15  4  0
  1 22  4  0
  2 20  1  0
  2 24  1  0
  3  6  4  0
  3 27  4  0
  4 22  4  0
  4 26  4  0
  6  7  4  0
  6 13  1  0
  7 19  4  0
  8 18  1  0
  8 23  1  0
  8 28  2  0
  9 17  1  0
  9 24  1  0
 10 11  1  0
 10 24  1  0
 11 23  1  0
 12 14  4  0
 12 16  4  0
 14 19  4  0
 15 18  4  0
 16 20  4  0
 17 25  1  0
 18 26  4  0
 19 29  4  0
 20 29  4  0
 21 23  1  0
 21 25  1  0
 27 29  4  0
M  END
$$$$

 Created by Python create_sdf_string function

 29 32  0  0  0  0  0  0  0  0999 V2000
    5.4450    8.7154   22.6662 C   0  0  0  0  0  0  0  0  0  0  0  0
   10.9154    5.4574   20.5483 C   0  0  0  0  0  0  0  0  0  0  0  0
    7.2709    4.5089   22.7542 C   0  0  0  0  0  0  0  0  0  0  0  0
    5.9698    7.6329   24.6581 C   0  0  0  0  0  0  0  0  0  0  0  0
    4.5542    8.9057   21.7104 O   0  0  0  0  0  0  0  0  0  0  0  0
    6.9895    3.2085   23.0690 C   0  0  0  0  0  0  0  0  0  0  0  0
    7.8391    2.2253   22.7260 N   0  0  0  0  0  0  0  0  0  0  0  0
    8.6968    9.8373   23.6359 C   0  0  0  0  0  0  0  0  0  0  0  0
   12.5135    6.5957   21.8396 C   0  0  0  0  0  0  0  0  0  0  0  0
   10.9406    8.2330   21.1350 C   0  0  0  0  0  0  0  0  0  0  0  0
    9.6648    8.5956   21.7310 C   0  0  0  0  0  0  0  0  0  0  0  0
   10.8829    1.7153   20.9865 C   0  0  0  0  0  0  0  0  0  0  0  0
    5.7768    2.8533   23.7910 C   0  0  0  0  0  0  0  0  0  0  0  0
    9.7977    1.4791   21.6912 N   0  0  0  0  0  0  0  0  0  0  0  0
    6.5976    9.3401   22.6478 N   0  0  0  0  0  0  0  0  0  0  0  0
   11.2031    3.0042   20.6246 C   0  0  0  0  0  0  0  0  0  0  0  0
   12.8688    7.7370   22.7287 C   0  0  0  0  0  0  0  0  0  0  0  0
    7.4487    9.1361   23.6506 C   0  0  0  0  0  0  0  0  0  0  0  0
    8.9772    2.5025   22.0273 C   0  0  0  0  0  0  0  0  0  0  0  0
   10.4859    4.0901   20.9730 C   0  0  0  0  0  0  0  0  0  0  0  0
   11.0962    9.3293   23.5072 C   0  0  0  0  0  0  0  0  0  0  0  0
    5.1273    7.8529   23.6208 N   0  0  0  0  0  0  0  0  0  0  0  0
    9.7552    9.2338   23.0171 N   0  0  0  0  0  0  0  0  0  0  0  0
   11.1797    6.7591   21.3326 N   0  0  0  0  0  0  0  0  0  0  0  0
   11.7728    8.0337   23.7267 C   0  0  0  0  0  0  0  0  0  0  0  0
    7.1194    8.3344   24.6775 C   0  0  0  0  0  0  0  0  0  0  0  0
    8.4311    4.7963   22.0500 C   0  0  0  0  0  0  0  0  0  0  0  0
    8.7393   10.8706   24.1871 O   0  0  0  0  0  0  0  0  0  0  0  0
    9.3093    3.8166   21.6712 C   0  0  0  0  0  0  0  0  0  0  0  0
  1  5  1  0
  1 15  4  0
  1 22  4  0
  2 20  1  0
  2 24  1  0
  3  6  4  0
  3 27  4  0
  4 22  4  0
  4 26  4  0
  6  7  4  0
  6 13  1  0
  7 19  4  0
  8 18  1  0
  8 23  1  0
  8 28  2  0
  9 17  1  0
  9 24  1  0
 10 11  1  0
 10 24  1  0
 11 23  1  0
 12 14  4  0
 12 16  4  0
 14 19  4  0
 15 18  4  0
 16 20  4  0
 17 25  1  0
 18 26  4  0
 19 29  4  0
 20 29  4  0
 21 23  1  0
 21 25  1  0
 27 29  4  0
M  END
$$$$

 Created by Python create_sdf_string function

 29 32  0  0  0  0  0  0  0  0999 V2000
    5.4450    8.7154   22.6662 C   0  0  0  0  0  0  0  0  0  0  0  0
   10.9154    5.4574   20.5483 C   0  0  0  0  0  0  0  0  0  0  0  0
    7.2709    4.5089   22.7542 C   0  0  0  0  0  0  0  0  0  0  0  0
    5.9698    7.6329   24.6581 C   0  0  0  0  0  0  0  0  0  0  0  0
    4.5542    8.9057   21.7104 O   0  0  0  0  0  0  0  0  0  0  0  0
    6.9895    3.2085   23.0690 C   0  0  0  0  0  0  0  0  0  0  0  0
    7.8391    2.2253   22.7260 N   0  0  0  0  0  0  0  0  0  0  0  0
    8.6968    9.8373   23.6359 C   0  0  0  0  0  0  0  0  0  0  0  0
   12.5135    6.5957   21.8396 C   0  0  0  0  0  0  0  0  0  0  0  0
   10.9406    8.2330   21.1350 C   0  0  0  0  0  0  0  0  0  0  0  0
    9.6648    8.5956   21.7310 C   0  0  0  0  0  0  0  0  0  0  0  0
   10.8829    1.7153   20.9865 C   0  0  0  0  0  0  0  0  0  0  0  0
    5.7768    2.8533   23.7910 C   0  0  0  0  0  0  0  0  0  0  0  0
    9.7977    1.4791   21.6912 N   0  0  0  0  0  0  0  0  0  0  0  0
    6.5976    9.3401   22.6478 N   0  0  0  0  0  0  0  0  0  0  0  0
   11.2031    3.0042   20.6246 C   0  0  0  0  0  0  0  0  0  0  0  0
   12.8688    7.7370   22.7287 C   0  0  0  0  0  0  0  0  0  0  0  0
    7.4487    9.1361   23.6506 C   0  0  0  0  0  0  0  0  0  0  0  0
    8.9772    2.5025   22.0273 C   0  0  0  0  0  0  0  0  0  0  0  0
   10.4859    4.0901   20.9730 C   0  0  0  0  0  0  0  0  0  0  0  0
   11.0962    9.3293   23.5072 C   0  0  0  0  0  0  0  0  0  0  0  0
    5.1273    7.8529   23.6208 N   0  0  0  0  0  0  0  0  0  0  0  0
    9.7552    9.2338   23.0171 N   0  0  0  0  0  0  0  0  0  0  0  0
   11.1797    6.7591   21.3326 N   0  0  0  0  0  0  0  0  0  0  0  0
   11.7728    8.0337   23.7267 C   0  0  0  0  0  0  0  0  0  0  0  0
    7.1194    8.3344   24.6775 C   0  0  0  0  0  0  0  0  0  0  0  0
    8.4311    4.7963   22.0500 C   0  0  0  0  0  0  0  0  0  0  0  0
    8.7393   10.8706   24.1871 O   0  0  0  0  0  0  0  0  0  0  0  0
    9.3093    3.8166   21.6712 C   0  0  0  0  0  0  0  0  0  0  0  0
  1  5  1  0
  1 15  4  0
  1 22  4  0
  2 20  1  0
  2 24  1  0
  3  6  4  0
  3 27  4  0
  4 22  4  0
  4 26  4  0
  6  7  4  0
  6 13  1  0
  7 19  4  0
  8 18  1  0
  8 23  1  0
  8 28  2  0
  9 17  1  0
  9 24  1  0
 10 11  1  0
 10 24  1  0
 11 23  1  0
 12 14  4  0
 12 16  4  0
 14 19  4  0
 15 18  4  0
 16 20  4  0
 17 25  1  0
 18 26  4  0
 19 29  4  0
 20 29  4  0
 21 23  1  0
 21 25  1  0
 27 29  4  0
M  END
$$$$

 Created by Python create_sdf_string function

 29 32  0  0  0  0  0  0  0  0999 V2000
    5.4450    8.7154   22.6662 C   0  0  0  0  0  0  0  0  0  0  0  0
   10.9154    5.4574   20.5483 C   0  0  0  0  0  0  0  0  0  0  0  0
    7.2709    4.5089   22.7542 C   0  0  0  0  0  0  0  0  0  0  0  0
    5.9698    7.6329   24.6581 C   0  0  0  0  0  0  0  0  0  0  0  0
    4.5542    8.9057   21.7104 O   0  0  0  0  0  0  0  0  0  0  0  0
    6.9895    3.2085   23.0690 C   0  0  0  0  0  0  0  0  0  0  0  0
    7.8391    2.2253   22.7260 N   0  0  0  0  0  0  0  0  0  0  0  0
    8.6968    9.8373   23.6359 C   0  0  0  0  0  0  0  0  0  0  0  0
   12.5135    6.5957   21.8396 C   0  0  0  0  0  0  0  0  0  0  0  0
   10.9406    8.2330   21.1350 C   0  0  0  0  0  0  0  0  0  0  0  0
    9.6648    8.5956   21.7310 C   0  0  0  0  0  0  0  0  0  0  0  0
   10.8829    1.7153   20.9865 C   0  0  0  0  0  0  0  0  0  0  0  0
    5.7768    2.8533   23.7910 C   0  0  0  0  0  0  0  0  0  0  0  0
    9.7977    1.4791   21.6912 N   0  0  0  0  0  0  0  0  0  0  0  0
    6.5976    9.3401   22.6478 N   0  0  0  0  0  0  0  0  0  0  0  0
   11.2031    3.0042   20.6246 C   0  0  0  0  0  0  0  0  0  0  0  0
   12.8688    7.7370   22.7287 C   0  0  0  0  0  0  0  0  0  0  0  0
    7.4487    9.1361   23.6506 C   0  0  0  0  0  0  0  0  0  0  0  0
    8.9772    2.5025   22.0273 C   0  0  0  0  0  0  0  0  0  0  0  0
   10.4859    4.0901   20.9730 C   0  0  0  0  0  0  0  0  0  0  0  0
   11.0962    9.3293   23.5072 C   0  0  0  0  0  0  0  0  0  0  0  0
    5.1273    7.8529   23.6208 N   0  0  0  0  0  0  0  0  0  0  0  0
    9.7552    9.2338   23.0171 N   0  0  0  0  0  0  0  0  0  0  0  0
   11.1797    6.7591   21.3326 N   0  0  0  0  0  0  0  0  0  0  0  0
   11.7728    8.0337   23.7267 C   0  0  0  0  0  0  0  0  0  0  0  0
    7.1194    8.3344   24.6775 C   0  0  0  0  0  0  0  0  0  0  0  0
    8.4311    4.7963   22.0500 C   0  0  0  0  0  0  0  0  0  0  0  0
    8.7393   10.8706   24.1871 O   0  0  0  0  0  0  0  0  0  0  0  0
    9.3093    3.8166   21.6712 C   0  0  0  0  0  0  0  0  0  0  0  0
  1  5  1  0
  1 15  4  0
  1 22  4  0
  2 20  1  0
  2 24  1  0
  3  6  4  0
  3 27  4  0
  4 22  4  0
  4 26  4  0
  6  7  4  0
  6 13  1  0
  7 19  4  0
  8 18  1  0
  8 23  1  0
  8 28  2  0
  9 17  1  0
  9 24  1  0
 10 11  1  0
 10 24  1  0
 11 23  1  0
 12 14  4  0
 12 16  4  0
 14 19  4  0
 15 18  4  0
 16 20  4  0
 17 25  1  0
 18 26  4  0
 19 29  4  0
 20 29  4  0
 21 23  1  0
 21 25  1  0
 27 29  4  0
M  END
$$$$

 Created by Python create_sdf_string function

 29 32  0  0  0  0  0  0  0  0999 V2000
    5.4450    8.7154   22.6662 C   0  0  0  0  0  0  0  0  0  0  0  0
   10.9154    5.4574   20.5483 C   0  0  0  0  0  0  0  0  0  0  0  0
    7.2709    4.5089   22.7542 C   0  0  0  0  0  0  0  0  0  0  0  0
    5.9698    7.6329   24.6581 C   0  0  0  0  0  0  0  0  0  0  0  0
    4.5542    8.9057   21.7104 O   0  0  0  0  0  0  0  0  0  0  0  0
    6.9895    3.2085   23.0690 C   0  0  0  0  0  0  0  0  0  0  0  0
    7.8391    2.2253   22.7260 N   0  0  0  0  0  0  0  0  0  0  0  0
    8.6968    9.8373   23.6359 C   0  0  0  0  0  0  0  0  0  0  0  0
   12.5135    6.5957   21.8396 C   0  0  0  0  0  0  0  0  0  0  0  0
   10.9406    8.2330   21.1350 C   0  0  0  0  0  0  0  0  0  0  0  0
    9.6648    8.5956   21.7310 C   0  0  0  0  0  0  0  0  0  0  0  0
   10.8829    1.7153   20.9865 C   0  0  0  0  0  0  0  0  0  0  0  0
    5.7768    2.8533   23.7910 C   0  0  0  0  0  0  0  0  0  0  0  0
    9.7977    1.4791   21.6912 N   0  0  0  0  0  0  0  0  0  0  0  0
    6.5976    9.3401   22.6478 N   0  0  0  0  0  0  0  0  0  0  0  0
   11.2031    3.0042   20.6246 C   0  0  0  0  0  0  0  0  0  0  0  0
   12.8688    7.7370   22.7287 C   0  0  0  0  0  0  0  0  0  0  0  0
    7.4487    9.1361   23.6506 C   0  0  0  0  0  0  0  0  0  0  0  0
    8.9772    2.5025   22.0273 C   0  0  0  0  0  0  0  0  0  0  0  0
   10.4859    4.0901   20.9730 C   0  0  0  0  0  0  0  0  0  0  0  0
   11.0962    9.3293   23.5072 C   0  0  0  0  0  0  0  0  0  0  0  0
    5.1273    7.8529   23.6208 N   0  0  0  0  0  0  0  0  0  0  0  0
    9.7552    9.2338   23.0171 N   0  0  0  0  0  0  0  0  0  0  0  0
   11.1797    6.7591   21.3326 N   0  0  0  0  0  0  0  0  0  0  0  0
   11.7728    8.0337   23.7267 C   0  0  0  0  0  0  0  0  0  0  0  0
    7.1194    8.3344   24.6775 C   0  0  0  0  0  0  0  0  0  0  0  0
    8.4311    4.7963   22.0500 C   0  0  0  0  0  0  0  0  0  0  0  0
    8.7393   10.8706   24.1871 O   0  0  0  0  0  0  0  0  0  0  0  0
    9.3093    3.8166   21.6712 C   0  0  0  0  0  0  0  0  0  0  0  0
  1  5  1  0
  1 15  4  0
  1 22  4  0
  2 20  1  0
  2 24  1  0
  3  6  4  0
  3 27  4  0
  4 22  4  0
  4 26  4  0
  6  7  4  0
  6 13  1  0
  7 19  4  0
  8 18  1  0
  8 23  1  0
  8 28  2  0
  9 17  1  0
  9 24  1  0
 10 11  1  0
 10 24  1  0
 11 23  1  0
 12 14  4  0
 12 16  4  0
 14 19  4  0
 15 18  4  0
 16 20  4  0
 17 25  1  0
 18 26  4  0
 19 29  4  0
 20 29  4  0
 21 23  1  0
 21 25  1  0
 27 29  4  0
M  END
$$$$

 Created by Python create_sdf_string function

 29 32  0  0  0  0  0  0  0  0999 V2000
    5.4450    8.7154   22.6662 C   0  0  0  0  0  0  0  0  0  0  0  0
   10.9154    5.4574   20.5483 C   0  0  0  0  0  0  0  0  0  0  0  0
    7.2709    4.5089   22.7542 C   0  0  0  0  0  0  0  0  0  0  0  0
    5.9698    7.6329   24.6581 C   0  0  0  0  0  0  0  0  0  0  0  0
    4.5542    8.9057   21.7104 O   0  0  0  0  0  0  0  0  0  0  0  0
    6.9895    3.2085   23.0690 C   0  0  0  0  0  0  0  0  0  0  0  0
    7.8391    2.2253   22.7260 N   0  0  0  0  0  0  0  0  0  0  0  0
    8.6968    9.8373   23.6359 C   0  0  0  0  0  0  0  0  0  0  0  0
   12.5135    6.5957   21.8396 C   0  0  0  0  0  0  0  0  0  0  0  0
   10.9406    8.2330   21.1350 C   0  0  0  0  0  0  0  0  0  0  0  0
    9.6648    8.5956   21.7310 C   0  0  0  0  0  0  0  0  0  0  0  0
   10.8829    1.7153   20.9865 C   0  0  0  0  0  0  0  0  0  0  0  0
    5.7768    2.8533   23.7910 C   0  0  0  0  0  0  0  0  0  0  0  0
    9.7977    1.4791   21.6912 N   0  0  0  0  0  0  0  0  0  0  0  0
    6.5976    9.3401   22.6478 N   0  0  0  0  0  0  0  0  0  0  0  0
   11.2031    3.0042   20.6246 C   0  0  0  0  0  0  0  0  0  0  0  0
   12.8688    7.7370   22.7287 C   0  0  0  0  0  0  0  0  0  0  0  0
    7.4487    9.1361   23.6506 C   0  0  0  0  0  0  0  0  0  0  0  0
    8.9772    2.5025   22.0273 C   0  0  0  0  0  0  0  0  0  0  0  0
   10.4859    4.0901   20.9730 C   0  0  0  0  0  0  0  0  0  0  0  0
   11.0962    9.3293   23.5072 C   0  0  0  0  0  0  0  0  0  0  0  0
    5.1273    7.8529   23.6208 N   0  0  0  0  0  0  0  0  0  0  0  0
    9.7552    9.2338   23.0171 N   0  0  0  0  0  0  0  0  0  0  0  0
   11.1797    6.7591   21.3326 N   0  0  0  0  0  0  0  0  0  0  0  0
   11.7728    8.0337   23.7267 C   0  0  0  0  0  0  0  0  0  0  0  0
    7.1194    8.3344   24.6775 C   0  0  0  0  0  0  0  0  0  0  0  0
    8.4311    4.7963   22.0500 C   0  0  0  0  0  0  0  0  0  0  0  0
    8.7393   10.8706   24.1871 O   0  0  0  0  0  0  0  0  0  0  0  0
    9.3093    3.8166   21.6712 C   0  0  0  0  0  0  0  0  0  0  0  0
  1  5  1  0
  1 15  4  0
  1 22  4  0
  2 20  1  0
  2 24  1  0
  3  6  4  0
  3 27  4  0
  4 22  4  0
  4 26  4  0
  6  7  4  0
  6 13  1  0
  7 19  4  0
  8 18  1  0
  8 23  1  0
  8 28  2  0
  9 17  1  0
  9 24  1  0
 10 11  1  0
 10 24  1  0
 11 23  1  0
 12 14  4  0
 12 16  4  0
 14 19  4  0
 15 18  4  0
 16 20  4  0
 17 25  1  0
 18 26  4  0
 19 29  4  0
 20 29  4  0
 21 23  1  0
 21 25  1  0
 27 29  4  0
M  END
$$$$

 Created by Python create_sdf_string function

 29 32  0  0  0  0  0  0  0  0999 V2000
    5.4450    8.7154   22.6662 C   0  0  0  0  0  0  0  0  0  0  0  0
   10.9154    5.4574   20.5483 C   0  0  0  0  0  0  0  0  0  0  0  0
    7.2709    4.5089   22.7542 C   0  0  0  0  0  0  0  0  0  0  0  0
    5.9698    7.6329   24.6581 C   0  0  0  0  0  0  0  0  0  0  0  0
    4.5542    8.9057   21.7104 O   0  0  0  0  0  0  0  0  0  0  0  0
    6.9895    3.2085   23.0690 C   0  0  0  0  0  0  0  0  0  0  0  0
    7.8391    2.2253   22.7260 N   0  0  0  0  0  0  0  0  0  0  0  0
    8.6968    9.8373   23.6359 C   0  0  0  0  0  0  0  0  0  0  0  0
   12.5135    6.5957   21.8396 C   0  0  0  0  0  0  0  0  0  0  0  0
   10.9406    8.2330   21.1350 C   0  0  0  0  0  0  0  0  0  0  0  0
    9.6648    8.5956   21.7310 C   0  0  0  0  0  0  0  0  0  0  0  0
   10.8829    1.7153   20.9865 C   0  0  0  0  0  0  0  0  0  0  0  0
    5.7768    2.8533   23.7910 C   0  0  0  0  0  0  0  0  0  0  0  0
    9.7977    1.4791   21.6912 N   0  0  0  0  0  0  0  0  0  0  0  0
    6.5976    9.3401   22.6478 N   0  0  0  0  0  0  0  0  0  0  0  0
   11.2031    3.0042   20.6246 C   0  0  0  0  0  0  0  0  0  0  0  0
   12.8688    7.7370   22.7287 C   0  0  0  0  0  0  0  0  0  0  0  0
    7.4487    9.1361   23.6506 C   0  0  0  0  0  0  0  0  0  0  0  0
    8.9772    2.5025   22.0273 C   0  0  0  0  0  0  0  0  0  0  0  0
   10.4859    4.0901   20.9730 C   0  0  0  0  0  0  0  0  0  0  0  0
   11.0962    9.3293   23.5072 C   0  0  0  0  0  0  0  0  0  0  0  0
    5.1273    7.8529   23.6208 N   0  0  0  0  0  0  0  0  0  0  0  0
    9.7552    9.2338   23.0171 N   0  0  0  0  0  0  0  0  0  0  0  0
   11.1797    6.7591   21.3326 N   0  0  0  0  0  0  0  0  0  0  0  0
   11.7728    8.0337   23.7267 C   0  0  0  0  0  0  0  0  0  0  0  0
    7.1194    8.3344   24.6775 C   0  0  0  0  0  0  0  0  0  0  0  0
    8.4311    4.7963   22.0500 C   0  0  0  0  0  0  0  0  0  0  0  0
    8.7393   10.8706   24.1871 O   0  0  0  0  0  0  0  0  0  0  0  0
    9.3093    3.8166   21.6712 C   0  0  0  0  0  0  0  0  0  0  0  0
  1  5  1  0
  1 15  4  0
  1 22  4  0
  2 20  1  0
  2 24  1  0
  3  6  4  0
  3 27  4  0
  4 22  4  0
  4 26  4  0
  6  7  4  0
  6 13  1  0
  7 19  4  0
  8 18  1  0
  8 23  1  0
  8 28  2  0
  9 17  1  0
  9 24  1  0
 10 11  1  0
 10 24  1  0
 11 23  1  0
 12 14  4  0
 12 16  4  0
 14 19  4  0
 15 18  4  0
 16 20  4  0
 17 25  1  0
 18 26  4  0
 19 29  4  0
 20 29  4  0
 21 23  1  0
 21 25  1  0
 27 29  4  0
M  END
$$$$

 Created by Python create_sdf_string function

 29 32  0  0  0  0  0  0  0  0999 V2000
    5.4450    8.7154   22.6662 C   0  0  0  0  0  0  0  0  0  0  0  0
   10.9154    5.4574   20.5483 C   0  0  0  0  0  0  0  0  0  0  0  0
    7.2709    4.5089   22.7542 C   0  0  0  0  0  0  0  0  0  0  0  0
    5.9698    7.6329   24.6581 C   0  0  0  0  0  0  0  0  0  0  0  0
    4.5542    8.9057   21.7104 O   0  0  0  0  0  0  0  0  0  0  0  0
    6.9895    3.2085   23.0690 C   0  0  0  0  0  0  0  0  0  0  0  0
    7.8391    2.2253   22.7260 N   0  0  0  0  0  0  0  0  0  0  0  0
    8.6968    9.8373   23.6359 C   0  0  0  0  0  0  0  0  0  0  0  0
   12.5135    6.5957   21.8396 C   0  0  0  0  0  0  0  0  0  0  0  0
   10.9406    8.2330   21.1350 C   0  0  0  0  0  0  0  0  0  0  0  0
    9.6648    8.5956   21.7310 C   0  0  0  0  0  0  0  0  0  0  0  0
   10.8829    1.7153   20.9865 C   0  0  0  0  0  0  0  0  0  0  0  0
    5.7768    2.8533   23.7910 C   0  0  0  0  0  0  0  0  0  0  0  0
    9.7977    1.4791   21.6912 N   0  0  0  0  0  0  0  0  0  0  0  0
    6.5976    9.3401   22.6478 N   0  0  0  0  0  0  0  0  0  0  0  0
   11.2031    3.0042   20.6246 C   0  0  0  0  0  0  0  0  0  0  0  0
   12.8688    7.7370   22.7287 C   0  0  0  0  0  0  0  0  0  0  0  0
    7.4487    9.1361   23.6506 C   0  0  0  0  0  0  0  0  0  0  0  0
    8.9772    2.5025   22.0273 C   0  0  0  0  0  0  0  0  0  0  0  0
   10.4859    4.0901   20.9730 C   0  0  0  0  0  0  0  0  0  0  0  0
   11.0962    9.3293   23.5072 C   0  0  0  0  0  0  0  0  0  0  0  0
    5.1273    7.8529   23.6208 N   0  0  0  0  0  0  0  0  0  0  0  0
    9.7552    9.2338   23.0171 N   0  0  0  0  0  0  0  0  0  0  0  0
   11.1797    6.7591   21.3326 N   0  0  0  0  0  0  0  0  0  0  0  0
   11.7728    8.0337   23.7267 C   0  0  0  0  0  0  0  0  0  0  0  0
    7.1194    8.3344   24.6775 C   0  0  0  0  0  0  0  0  0  0  0  0
    8.4311    4.7963   22.0500 C   0  0  0  0  0  0  0  0  0  0  0  0
    8.7393   10.8706   24.1871 O   0  0  0  0  0  0  0  0  0  0  0  0
    9.3093    3.8166   21.6712 C   0  0  0  0  0  0  0  0  0  0  0  0
  1  5  1  0
  1 15  4  0
  1 22  4  0
  2 20  1  0
  2 24  1  0
  3  6  4  0
  3 27  4  0
  4 22  4  0
  4 26  4  0
  6  7  4  0
  6 13  1  0
  7 19  4  0
  8 18  1  0
  8 23  1  0
  8 28  2  0
  9 17  1  0
  9 24  1  0
 10 11  1  0
 10 24  1  0
 11 23  1  0
 12 14  4  0
 12 16  4  0
 14 19  4  0
 15 18  4  0
 16 20  4  0
 17 25  1  0
 18 26  4  0
 19 29  4  0
 20 29  4  0
 21 23  1  0
 21 25  1  0
 27 29  4  0
M  END
$$$$

 Created by Python create_sdf_string function

 29 32  0  0  0  0  0  0  0  0999 V2000
    5.4450    8.7154   22.6662 C   0  0  0  0  0  0  0  0  0  0  0  0
   10.9154    5.4574   20.5483 C   0  0  0  0  0  0  0  0  0  0  0  0
    7.2709    4.5089   22.7542 C   0  0  0  0  0  0  0  0  0  0  0  0
    5.9698    7.6329   24.6581 C   0  0  0  0  0  0  0  0  0  0  0  0
    4.5542    8.9057   21.7104 O   0  0  0  0  0  0  0  0  0  0  0  0
    6.9895    3.2085   23.0690 C   0  0  0  0  0  0  0  0  0  0  0  0
    7.8391    2.2253   22.7260 N   0  0  0  0  0  0  0  0  0  0  0  0
    8.6968    9.8373   23.6359 C   0  0  0  0  0  0  0  0  0  0  0  0
   12.5135    6.5957   21.8396 C   0  0  0  0  0  0  0  0  0  0  0  0
   10.9406    8.2330   21.1350 C   0  0  0  0  0  0  0  0  0  0  0  0
    9.6648    8.5956   21.7310 C   0  0  0  0  0  0  0  0  0  0  0  0
   10.8829    1.7153   20.9865 C   0  0  0  0  0  0  0  0  0  0  0  0
    5.7768    2.8533   23.7910 C   0  0  0  0  0  0  0  0  0  0  0  0
    9.7977    1.4791   21.6912 N   0  0  0  0  0  0  0  0  0  0  0  0
    6.5976    9.3401   22.6478 N   0  0  0  0  0  0  0  0  0  0  0  0
   11.2031    3.0042   20.6246 C   0  0  0  0  0  0  0  0  0  0  0  0
   12.8688    7.7370   22.7287 C   0  0  0  0  0  0  0  0  0  0  0  0
    7.4487    9.1361   23.6506 C   0  0  0  0  0  0  0  0  0  0  0  0
    8.9772    2.5025   22.0273 C   0  0  0  0  0  0  0  0  0  0  0  0
   10.4859    4.0901   20.9730 C   0  0  0  0  0  0  0  0  0  0  0  0
   11.0962    9.3293   23.5072 C   0  0  0  0  0  0  0  0  0  0  0  0
    5.1273    7.8529   23.6208 N   0  0  0  0  0  0  0  0  0  0  0  0
    9.7552    9.2338   23.0171 N   0  0  0  0  0  0  0  0  0  0  0  0
   11.1797    6.7591   21.3326 N   0  0  0  0  0  0  0  0  0  0  0  0
   11.7728    8.0337   23.7267 C   0  0  0  0  0  0  0  0  0  0  0  0
    7.1194    8.3344   24.6775 C   0  0  0  0  0  0  0  0  0  0  0  0
    8.4311    4.7963   22.0500 C   0  0  0  0  0  0  0  0  0  0  0  0
    8.7393   10.8706   24.1871 O   0  0  0  0  0  0  0  0  0  0  0  0
    9.3093    3.8166   21.6712 C   0  0  0  0  0  0  0  0  0  0  0  0
  1  5  1  0
  1 15  4  0
  1 22  4  0
  2 20  1  0
  2 24  1  0
  3  6  4  0
  3 27  4  0
  4 22  4  0
  4 26  4  0
  6  7  4  0
  6 13  1  0
  7 19  4  0
  8 18  1  0
  8 23  1  0
  8 28  2  0
  9 17  1  0
  9 24  1  0
 10 11  1  0
 10 24  1  0
 11 23  1  0
 12 14  4  0
 12 16  4  0
 14 19  4  0
 15 18  4  0
 16 20  4  0
 17 25  1  0
 18 26  4  0
 19 29  4  0
 20 29  4  0
 21 23  1  0
 21 25  1  0
 27 29  4  0
M  END
$$$$

 Created by Python create_sdf_string function

 29 32  0  0  0  0  0  0  0  0999 V2000
    5.4450    8.7154   22.6662 C   0  0  0  0  0  0  0  0  0  0  0  0
   10.9154    5.4574   20.5483 C   0  0  0  0  0  0  0  0  0  0  0  0
    7.2709    4.5089   22.7542 C   0  0  0  0  0  0  0  0  0  0  0  0
    5.9698    7.6329   24.6581 C   0  0  0  0  0  0  0  0  0  0  0  0
    4.5542    8.9057   21.7104 O   0  0  0  0  0  0  0  0  0  0  0  0
    6.9895    3.2085   23.0690 C   0  0  0  0  0  0  0  0  0  0  0  0
    7.8391    2.2253   22.7260 N   0  0  0  0  0  0  0  0  0  0  0  0
    8.6968    9.8373   23.6359 C   0  0  0  0  0  0  0  0  0  0  0  0
   12.5135    6.5957   21.8396 C   0  0  0  0  0  0  0  0  0  0  0  0
   10.9406    8.2330   21.1350 C   0  0  0  0  0  0  0  0  0  0  0  0
    9.6648    8.5956   21.7310 C   0  0  0  0  0  0  0  0  0  0  0  0
   10.8829    1.7153   20.9865 C   0  0  0  0  0  0  0  0  0  0  0  0
    5.7768    2.8533   23.7910 C   0  0  0  0  0  0  0  0  0  0  0  0
    9.7977    1.4791   21.6912 N   0  0  0  0  0  0  0  0  0  0  0  0
    6.5976    9.3401   22.6478 N   0  0  0  0  0  0  0  0  0  0  0  0
   11.2031    3.0042   20.6246 C   0  0  0  0  0  0  0  0  0  0  0  0
   12.8688    7.7370   22.7287 C   0  0  0  0  0  0  0  0  0  0  0  0
    7.4487    9.1361   23.6506 C   0  0  0  0  0  0  0  0  0  0  0  0
    8.9772    2.5025   22.0273 C   0  0  0  0  0  0  0  0  0  0  0  0
   10.4859    4.0901   20.9730 C   0  0  0  0  0  0  0  0  0  0  0  0
   11.0962    9.3293   23.5072 C   0  0  0  0  0  0  0  0  0  0  0  0
    5.1273    7.8529   23.6208 N   0  0  0  0  0  0  0  0  0  0  0  0
    9.7552    9.2338   23.0171 N   0  0  0  0  0  0  0  0  0  0  0  0
   11.1797    6.7591   21.3326 N   0  0  0  0  0  0  0  0  0  0  0  0
   11.7728    8.0337   23.7267 C   0  0  0  0  0  0  0  0  0  0  0  0
    7.1194    8.3344   24.6775 C   0  0  0  0  0  0  0  0  0  0  0  0
    8.4311    4.7963   22.0500 C   0  0  0  0  0  0  0  0  0  0  0  0
    8.7393   10.8706   24.1871 O   0  0  0  0  0  0  0  0  0  0  0  0
    9.3093    3.8166   21.6712 C   0  0  0  0  0  0  0  0  0  0  0  0
  1  5  1  0
  1 15  4  0
  1 22  4  0
  2 20  1  0
  2 24  1  0
  3  6  4  0
  3 27  4  0
  4 22  4  0
  4 26  4  0
  6  7  4  0
  6 13  1  0
  7 19  4  0
  8 18  1  0
  8 23  1  0
  8 28  2  0
  9 17  1  0
  9 24  1  0
 10 11  1  0
 10 24  1  0
 11 23  1  0
 12 14  4  0
 12 16  4  0
 14 19  4  0
 15 18  4  0
 16 20  4  0
 17 25  1  0
 18 26  4  0
 19 29  4  0
 20 29  4  0
 21 23  1  0
 21 25  1  0
 27 29  4  0
M  END
$$$$

 Created by Python create_sdf_string function

 29 32  0  0  0  0  0  0  0  0999 V2000
    5.4450    8.7154   22.6662 C   0  0  0  0  0  0  0  0  0  0  0  0
   10.9154    5.4574   20.5483 C   0  0  0  0  0  0  0  0  0  0  0  0
    7.2709    4.5089   22.7542 C   0  0  0  0  0  0  0  0  0  0  0  0
    5.9698    7.6329   24.6581 C   0  0  0  0  0  0  0  0  0  0  0  0
    4.5542    8.9057   21.7104 O   0  0  0  0  0  0  0  0  0  0  0  0
    6.9895    3.2085   23.0690 C   0  0  0  0  0  0  0  0  0  0  0  0
    7.8391    2.2253   22.7260 N   0  0  0  0  0  0  0  0  0  0  0  0
    8.6968    9.8373   23.6359 C   0  0  0  0  0  0  0  0  0  0  0  0
   12.5135    6.5957   21.8396 C   0  0  0  0  0  0  0  0  0  0  0  0
   10.9406    8.2330   21.1350 C   0  0  0  0  0  0  0  0  0  0  0  0
    9.6648    8.5956   21.7310 C   0  0  0  0  0  0  0  0  0  0  0  0
   10.8829    1.7153   20.9865 C   0  0  0  0  0  0  0  0  0  0  0  0
    5.7768    2.8533   23.7910 C   0  0  0  0  0  0  0  0  0  0  0  0
    9.7977    1.4791   21.6912 N   0  0  0  0  0  0  0  0  0  0  0  0
    6.5976    9.3401   22.6478 N   0  0  0  0  0  0  0  0  0  0  0  0
   11.2031    3.0042   20.6246 C   0  0  0  0  0  0  0  0  0  0  0  0
   12.8688    7.7370   22.7287 C   0  0  0  0  0  0  0  0  0  0  0  0
    7.4487    9.1361   23.6506 C   0  0  0  0  0  0  0  0  0  0  0  0
    8.9772    2.5025   22.0273 C   0  0  0  0  0  0  0  0  0  0  0  0
   10.4859    4.0901   20.9730 C   0  0  0  0  0  0  0  0  0  0  0  0
   11.0962    9.3293   23.5072 C   0  0  0  0  0  0  0  0  0  0  0  0
    5.1273    7.8529   23.6208 N   0  0  0  0  0  0  0  0  0  0  0  0
    9.7552    9.2338   23.0171 N   0  0  0  0  0  0  0  0  0  0  0  0
   11.1797    6.7591   21.3326 N   0  0  0  0  0  0  0  0  0  0  0  0
   11.7728    8.0337   23.7267 C   0  0  0  0  0  0  0  0  0  0  0  0
    7.1194    8.3344   24.6775 C   0  0  0  0  0  0  0  0  0  0  0  0
    8.4311    4.7963   22.0500 C   0  0  0  0  0  0  0  0  0  0  0  0
    8.7393   10.8706   24.1871 O   0  0  0  0  0  0  0  0  0  0  0  0
    9.3093    3.8166   21.6712 C   0  0  0  0  0  0  0  0  0  0  0  0
  1  5  1  0
  1 15  4  0
  1 22  4  0
  2 20  1  0
  2 24  1  0
  3  6  4  0
  3 27  4  0
  4 22  4  0
  4 26  4  0
  6  7  4  0
  6 13  1  0
  7 19  4  0
  8 18  1  0
  8 23  1  0
  8 28  2  0
  9 17  1  0
  9 24  1  0
 10 11  1  0
 10 24  1  0
 11 23  1  0
 12 14  4  0
 12 16  4  0
 14 19  4  0
 15 18  4  0
 16 20  4  0
 17 25  1  0
 18 26  4  0
 19 29  4  0
 20 29  4  0
 21 23  1  0
 21 25  1  0
 27 29  4  0
M  END
$$$$

 Created by Python create_sdf_string function

 29 32  0  0  0  0  0  0  0  0999 V2000
    5.4450    8.7154   22.6662 C   0  0  0  0  0  0  0  0  0  0  0  0
   10.9154    5.4574   20.5483 C   0  0  0  0  0  0  0  0  0  0  0  0
    7.2709    4.5089   22.7542 C   0  0  0  0  0  0  0  0  0  0  0  0
    5.9698    7.6329   24.6581 C   0  0  0  0  0  0  0  0  0  0  0  0
    4.5542    8.9057   21.7104 O   0  0  0  0  0  0  0  0  0  0  0  0
    6.9895    3.2085   23.0690 C   0  0  0  0  0  0  0  0  0  0  0  0
    7.8391    2.2253   22.7260 N   0  0  0  0  0  0  0  0  0  0  0  0
    8.6968    9.8373   23.6359 C   0  0  0  0  0  0  0  0  0  0  0  0
   12.5135    6.5957   21.8396 C   0  0  0  0  0  0  0  0  0  0  0  0
   10.9406    8.2330   21.1350 C   0  0  0  0  0  0  0  0  0  0  0  0
    9.6648    8.5956   21.7310 C   0  0  0  0  0  0  0  0  0  0  0  0
   10.8829    1.7153   20.9865 C   0  0  0  0  0  0  0  0  0  0  0  0
    5.7768    2.8533   23.7910 C   0  0  0  0  0  0  0  0  0  0  0  0
    9.7977    1.4791   21.6912 N   0  0  0  0  0  0  0  0  0  0  0  0
    6.5976    9.3401   22.6478 N   0  0  0  0  0  0  0  0  0  0  0  0
   11.2031    3.0042   20.6246 C   0  0  0  0  0  0  0  0  0  0  0  0
   12.8688    7.7370   22.7287 C   0  0  0  0  0  0  0  0  0  0  0  0
    7.4487    9.1361   23.6506 C   0  0  0  0  0  0  0  0  0  0  0  0
    8.9772    2.5025   22.0273 C   0  0  0  0  0  0  0  0  0  0  0  0
   10.4859    4.0901   20.9730 C   0  0  0  0  0  0  0  0  0  0  0  0
   11.0962    9.3293   23.5072 C   0  0  0  0  0  0  0  0  0  0  0  0
    5.1273    7.8529   23.6208 N   0  0  0  0  0  0  0  0  0  0  0  0
    9.7552    9.2338   23.0171 N   0  0  0  0  0  0  0  0  0  0  0  0
   11.1797    6.7591   21.3326 N   0  0  0  0  0  0  0  0  0  0  0  0
   11.7728    8.0337   23.7267 C   0  0  0  0  0  0  0  0  0  0  0  0
    7.1194    8.3344   24.6775 C   0  0  0  0  0  0  0  0  0  0  0  0
    8.4311    4.7963   22.0500 C   0  0  0  0  0  0  0  0  0  0  0  0
    8.7393   10.8706   24.1871 O   0  0  0  0  0  0  0  0  0  0  0  0
    9.3093    3.8166   21.6712 C   0  0  0  0  0  0  0  0  0  0  0  0
  1  5  1  0
  1 15  4  0
  1 22  4  0
  2 20  1  0
  2 24  1  0
  3  6  4  0
  3 27  4  0
  4 22  4  0
  4 26  4  0
  6  7  4  0
  6 13  1  0
  7 19  4  0
  8 18  1  0
  8 23  1  0
  8 28  2  0
  9 17  1  0
  9 24  1  0
 10 11  1  0
 10 24  1  0
 11 23  1  0
 12 14  4  0
 12 16  4  0
 14 19  4  0
 15 18  4  0
 16 20  4  0
 17 25  1  0
 18 26  4  0
 19 29  4  0
 20 29  4  0
 21 23  1  0
 21 25  1  0
 27 29  4  0
M  END
$$$$

 Created by Python create_sdf_string function

 29 32  0  0  0  0  0  0  0  0999 V2000
    5.4450    8.7154   22.6662 C   0  0  0  0  0  0  0  0  0  0  0  0
   10.9154    5.4574   20.5483 C   0  0  0  0  0  0  0  0  0  0  0  0
    7.2709    4.5089   22.7542 C   0  0  0  0  0  0  0  0  0  0  0  0
    5.9698    7.6329   24.6581 C   0  0  0  0  0  0  0  0  0  0  0  0
    4.5542    8.9057   21.7104 O   0  0  0  0  0  0  0  0  0  0  0  0
    6.9895    3.2085   23.0690 C   0  0  0  0  0  0  0  0  0  0  0  0
    7.8391    2.2253   22.7260 N   0  0  0  0  0  0  0  0  0  0  0  0
    8.6968    9.8373   23.6359 C   0  0  0  0  0  0  0  0  0  0  0  0
   12.5135    6.5957   21.8396 C   0  0  0  0  0  0  0  0  0  0  0  0
   10.9406    8.2330   21.1350 C   0  0  0  0  0  0  0  0  0  0  0  0
    9.6648    8.5956   21.7310 C   0  0  0  0  0  0  0  0  0  0  0  0
   10.8829    1.7153   20.9865 C   0  0  0  0  0  0  0  0  0  0  0  0
    5.7768    2.8533   23.7910 C   0  0  0  0  0  0  0  0  0  0  0  0
    9.7977    1.4791   21.6912 N   0  0  0  0  0  0  0  0  0  0  0  0
    6.5976    9.3401   22.6478 N   0  0  0  0  0  0  0  0  0  0  0  0
   11.2031    3.0042   20.6246 C   0  0  0  0  0  0  0  0  0  0  0  0
   12.8688    7.7370   22.7287 C   0  0  0  0  0  0  0  0  0  0  0  0
    7.4487    9.1361   23.6506 C   0  0  0  0  0  0  0  0  0  0  0  0
    8.9772    2.5025   22.0273 C   0  0  0  0  0  0  0  0  0  0  0  0
   10.4859    4.0901   20.9730 C   0  0  0  0  0  0  0  0  0  0  0  0
   11.0962    9.3293   23.5072 C   0  0  0  0  0  0  0  0  0  0  0  0
    5.1273    7.8529   23.6208 N   0  0  0  0  0  0  0  0  0  0  0  0
    9.7552    9.2338   23.0171 N   0  0  0  0  0  0  0  0  0  0  0  0
   11.1797    6.7591   21.3326 N   0  0  0  0  0  0  0  0  0  0  0  0
   11.7728    8.0337   23.7267 C   0  0  0  0  0  0  0  0  0  0  0  0
    7.1194    8.3344   24.6775 C   0  0  0  0  0  0  0  0  0  0  0  0
    8.4311    4.7963   22.0500 C   0  0  0  0  0  0  0  0  0  0  0  0
    8.7393   10.8706   24.1871 O   0  0  0  0  0  0  0  0  0  0  0  0
    9.3093    3.8166   21.6712 C   0  0  0  0  0  0  0  0  0  0  0  0
  1  5  1  0
  1 15  4  0
  1 22  4  0
  2 20  1  0
  2 24  1  0
  3  6  4  0
  3 27  4  0
  4 22  4  0
  4 26  4  0
  6  7  4  0
  6 13  1  0
  7 19  4  0
  8 18  1  0
  8 23  1  0
  8 28  2  0
  9 17  1  0
  9 24  1  0
 10 11  1  0
 10 24  1  0
 11 23  1  0
 12 14  4  0
 12 16  4  0
 14 19  4  0
 15 18  4  0
 16 20  4  0
 17 25  1  0
 18 26  4  0
 19 29  4  0
 20 29  4  0
 21 23  1  0
 21 25  1  0
 27 29  4  0
M  END
$$$$

 Created by Python create_sdf_string function

 29 32  0  0  0  0  0  0  0  0999 V2000
    5.4450    8.7154   22.6662 C   0  0  0  0  0  0  0  0  0  0  0  0
   10.9154    5.4574   20.5483 C   0  0  0  0  0  0  0  0  0  0  0  0
    7.2709    4.5089   22.7542 C   0  0  0  0  0  0  0  0  0  0  0  0
    5.9698    7.6329   24.6581 C   0  0  0  0  0  0  0  0  0  0  0  0
    4.5542    8.9057   21.7104 O   0  0  0  0  0  0  0  0  0  0  0  0
    6.9895    3.2085   23.0690 C   0  0  0  0  0  0  0  0  0  0  0  0
    7.8391    2.2253   22.7260 N   0  0  0  0  0  0  0  0  0  0  0  0
    8.6968    9.8373   23.6359 C   0  0  0  0  0  0  0  0  0  0  0  0
   12.5135    6.5957   21.8396 C   0  0  0  0  0  0  0  0  0  0  0  0
   10.9406    8.2330   21.1350 C   0  0  0  0  0  0  0  0  0  0  0  0
    9.6648    8.5956   21.7310 C   0  0  0  0  0  0  0  0  0  0  0  0
   10.8829    1.7153   20.9865 C   0  0  0  0  0  0  0  0  0  0  0  0
    5.7768    2.8533   23.7910 C   0  0  0  0  0  0  0  0  0  0  0  0
    9.7977    1.4791   21.6912 N   0  0  0  0  0  0  0  0  0  0  0  0
    6.5976    9.3401   22.6478 N   0  0  0  0  0  0  0  0  0  0  0  0
   11.2031    3.0042   20.6246 C   0  0  0  0  0  0  0  0  0  0  0  0
   12.8688    7.7370   22.7287 C   0  0  0  0  0  0  0  0  0  0  0  0
    7.4487    9.1361   23.6506 C   0  0  0  0  0  0  0  0  0  0  0  0
    8.9772    2.5025   22.0273 C   0  0  0  0  0  0  0  0  0  0  0  0
   10.4859    4.0901   20.9730 C   0  0  0  0  0  0  0  0  0  0  0  0
   11.0962    9.3293   23.5072 C   0  0  0  0  0  0  0  0  0  0  0  0
    5.1273    7.8529   23.6208 N   0  0  0  0  0  0  0  0  0  0  0  0
    9.7552    9.2338   23.0171 N   0  0  0  0  0  0  0  0  0  0  0  0
   11.1797    6.7591   21.3326 N   0  0  0  0  0  0  0  0  0  0  0  0
   11.7728    8.0337   23.7267 C   0  0  0  0  0  0  0  0  0  0  0  0
    7.1194    8.3344   24.6775 C   0  0  0  0  0  0  0  0  0  0  0  0
    8.4311    4.7963   22.0500 C   0  0  0  0  0  0  0  0  0  0  0  0
    8.7393   10.8706   24.1871 O   0  0  0  0  0  0  0  0  0  0  0  0
    9.3093    3.8166   21.6712 C   0  0  0  0  0  0  0  0  0  0  0  0
  1  5  1  0
  1 15  4  0
  1 22  4  0
  2 20  1  0
  2 24  1  0
  3  6  4  0
  3 27  4  0
  4 22  4  0
  4 26  4  0
  6  7  4  0
  6 13  1  0
  7 19  4  0
  8 18  1  0
  8 23  1  0
  8 28  2  0
  9 17  1  0
  9 24  1  0
 10 11  1  0
 10 24  1  0
 11 23  1  0
 12 14  4  0
 12 16  4  0
 14 19  4  0
 15 18  4  0
 16 20  4  0
 17 25  1  0
 18 26  4  0
 19 29  4  0
 20 29  4  0
 21 23  1  0
 21 25  1  0
 27 29  4  0
M  END
$$$$

 Created by Python create_sdf_string function

 29 32  0  0  0  0  0  0  0  0999 V2000
    5.4450    8.7154   22.6662 C   0  0  0  0  0  0  0  0  0  0  0  0
   10.9154    5.4574   20.5483 C   0  0  0  0  0  0  0  0  0  0  0  0
    7.2709    4.5089   22.7542 C   0  0  0  0  0  0  0  0  0  0  0  0
    5.9698    7.6329   24.6581 C   0  0  0  0  0  0  0  0  0  0  0  0
    4.5542    8.9057   21.7104 O   0  0  0  0  0  0  0  0  0  0  0  0
    6.9895    3.2085   23.0690 C   0  0  0  0  0  0  0  0  0  0  0  0
    7.8391    2.2253   22.7260 N   0  0  0  0  0  0  0  0  0  0  0  0
    8.6968    9.8373   23.6359 C   0  0  0  0  0  0  0  0  0  0  0  0
   12.5135    6.5957   21.8396 C   0  0  0  0  0  0  0  0  0  0  0  0
   10.9406    8.2330   21.1350 C   0  0  0  0  0  0  0  0  0  0  0  0
    9.6648    8.5956   21.7310 C   0  0  0  0  0  0  0  0  0  0  0  0
   10.8829    1.7153   20.9865 C   0  0  0  0  0  0  0  0  0  0  0  0
    5.7768    2.8533   23.7910 C   0  0  0  0  0  0  0  0  0  0  0  0
    9.7977    1.4791   21.6912 N   0  0  0  0  0  0  0  0  0  0  0  0
    6.5976    9.3401   22.6478 N   0  0  0  0  0  0  0  0  0  0  0  0
   11.2031    3.0042   20.6246 C   0  0  0  0  0  0  0  0  0  0  0  0
   12.8688    7.7370   22.7287 C   0  0  0  0  0  0  0  0  0  0  0  0
    7.4487    9.1361   23.6506 C   0  0  0  0  0  0  0  0  0  0  0  0
    8.9772    2.5025   22.0273 C   0  0  0  0  0  0  0  0  0  0  0  0
   10.4859    4.0901   20.9730 C   0  0  0  0  0  0  0  0  0  0  0  0
   11.0962    9.3293   23.5072 C   0  0  0  0  0  0  0  0  0  0  0  0
    5.1273    7.8529   23.6208 N   0  0  0  0  0  0  0  0  0  0  0  0
    9.7552    9.2338   23.0171 N   0  0  0  0  0  0  0  0  0  0  0  0
   11.1797    6.7591   21.3326 N   0  0  0  0  0  0  0  0  0  0  0  0
   11.7728    8.0337   23.7267 C   0  0  0  0  0  0  0  0  0  0  0  0
    7.1194    8.3344   24.6775 C   0  0  0  0  0  0  0  0  0  0  0  0
    8.4311    4.7963   22.0500 C   0  0  0  0  0  0  0  0  0  0  0  0
    8.7393   10.8706   24.1871 O   0  0  0  0  0  0  0  0  0  0  0  0
    9.3093    3.8166   21.6712 C   0  0  0  0  0  0  0  0  0  0  0  0
  1  5  1  0
  1 15  4  0
  1 22  4  0
  2 20  1  0
  2 24  1  0
  3  6  4  0
  3 27  4  0
  4 22  4  0
  4 26  4  0
  6  7  4  0
  6 13  1  0
  7 19  4  0
  8 18  1  0
  8 23  1  0
  8 28  2  0
  9 17  1  0
  9 24  1  0
 10 11  1  0
 10 24  1  0
 11 23  1  0
 12 14  4  0
 12 16  4  0
 14 19  4  0
 15 18  4  0
 16 20  4  0
 17 25  1  0
 18 26  4  0
 19 29  4  0
 20 29  4  0
 21 23  1  0
 21 25  1  0
 27 29  4  0
M  END
$$$$

 Created by Python create_sdf_string function

 29 32  0  0  0  0  0  0  0  0999 V2000
    5.4450    8.7154   22.6662 C   0  0  0  0  0  0  0  0  0  0  0  0
   10.9154    5.4574   20.5483 C   0  0  0  0  0  0  0  0  0  0  0  0
    7.2709    4.5089   22.7542 C   0  0  0  0  0  0  0  0  0  0  0  0
    5.9698    7.6329   24.6581 C   0  0  0  0  0  0  0  0  0  0  0  0
    4.5542    8.9057   21.7104 O   0  0  0  0  0  0  0  0  0  0  0  0
    6.9895    3.2085   23.0690 C   0  0  0  0  0  0  0  0  0  0  0  0
    7.8391    2.2253   22.7260 N   0  0  0  0  0  0  0  0  0  0  0  0
    8.6968    9.8373   23.6359 C   0  0  0  0  0  0  0  0  0  0  0  0
   12.5135    6.5957   21.8396 C   0  0  0  0  0  0  0  0  0  0  0  0
   10.9406    8.2330   21.1350 C   0  0  0  0  0  0  0  0  0  0  0  0
    9.6648    8.5956   21.7310 C   0  0  0  0  0  0  0  0  0  0  0  0
   10.8829    1.7153   20.9865 C   0  0  0  0  0  0  0  0  0  0  0  0
    5.7768    2.8533   23.7910 C   0  0  0  0  0  0  0  0  0  0  0  0
    9.7977    1.4791   21.6912 N   0  0  0  0  0  0  0  0  0  0  0  0
    6.5976    9.3401   22.6478 N   0  0  0  0  0  0  0  0  0  0  0  0
   11.2031    3.0042   20.6246 C   0  0  0  0  0  0  0  0  0  0  0  0
   12.8688    7.7370   22.7287 C   0  0  0  0  0  0  0  0  0  0  0  0
    7.4487    9.1361   23.6506 C   0  0  0  0  0  0  0  0  0  0  0  0
    8.9772    2.5025   22.0273 C   0  0  0  0  0  0  0  0  0  0  0  0
   10.4859    4.0901   20.9730 C   0  0  0  0  0  0  0  0  0  0  0  0
   11.0962    9.3293   23.5072 C   0  0  0  0  0  0  0  0  0  0  0  0
    5.1273    7.8529   23.6208 N   0  0  0  0  0  0  0  0  0  0  0  0
    9.7552    9.2338   23.0171 N   0  0  0  0  0  0  0  0  0  0  0  0
   11.1797    6.7591   21.3326 N   0  0  0  0  0  0  0  0  0  0  0  0
   11.7728    8.0337   23.7267 C   0  0  0  0  0  0  0  0  0  0  0  0
    7.1194    8.3344   24.6775 C   0  0  0  0  0  0  0  0  0  0  0  0
    8.4311    4.7963   22.0500 C   0  0  0  0  0  0  0  0  0  0  0  0
    8.7393   10.8706   24.1871 O   0  0  0  0  0  0  0  0  0  0  0  0
    9.3093    3.8166   21.6712 C   0  0  0  0  0  0  0  0  0  0  0  0
  1  5  1  0
  1 15  4  0
  1 22  4  0
  2 20  1  0
  2 24  1  0
  3  6  4  0
  3 27  4  0
  4 22  4  0
  4 26  4  0
  6  7  4  0
  6 13  1  0
  7 19  4  0
  8 18  1  0
  8 23  1  0
  8 28  2  0
  9 17  1  0
  9 24  1  0
 10 11  1  0
 10 24  1  0
 11 23  1  0
 12 14  4  0
 12 16  4  0
 14 19  4  0
 15 18  4  0
 16 20  4  0
 17 25  1  0
 18 26  4  0
 19 29  4  0
 20 29  4  0
 21 23  1  0
 21 25  1  0
 27 29  4  0
M  END
$$$$

 Created by Python create_sdf_string function

 29 32  0  0  0  0  0  0  0  0999 V2000
    5.4450    8.7154   22.6662 C   0  0  0  0  0  0  0  0  0  0  0  0
   10.9154    5.4574   20.5483 C   0  0  0  0  0  0  0  0  0  0  0  0
    7.2709    4.5089   22.7542 C   0  0  0  0  0  0  0  0  0  0  0  0
    5.9698    7.6329   24.6581 C   0  0  0  0  0  0  0  0  0  0  0  0
    4.5542    8.9057   21.7104 O   0  0  0  0  0  0  0  0  0  0  0  0
    6.9895    3.2085   23.0690 C   0  0  0  0  0  0  0  0  0  0  0  0
    7.8391    2.2253   22.7260 N   0  0  0  0  0  0  0  0  0  0  0  0
    8.6968    9.8373   23.6359 C   0  0  0  0  0  0  0  0  0  0  0  0
   12.5135    6.5957   21.8396 C   0  0  0  0  0  0  0  0  0  0  0  0
   10.9406    8.2330   21.1350 C   0  0  0  0  0  0  0  0  0  0  0  0
    9.6648    8.5956   21.7310 C   0  0  0  0  0  0  0  0  0  0  0  0
   10.8829    1.7153   20.9865 C   0  0  0  0  0  0  0  0  0  0  0  0
    5.7768    2.8533   23.7910 C   0  0  0  0  0  0  0  0  0  0  0  0
    9.7977    1.4791   21.6912 N   0  0  0  0  0  0  0  0  0  0  0  0
    6.5976    9.3401   22.6478 N   0  0  0  0  0  0  0  0  0  0  0  0
   11.2031    3.0042   20.6246 C   0  0  0  0  0  0  0  0  0  0  0  0
   12.8688    7.7370   22.7287 C   0  0  0  0  0  0  0  0  0  0  0  0
    7.4487    9.1361   23.6506 C   0  0  0  0  0  0  0  0  0  0  0  0
    8.9772    2.5025   22.0273 C   0  0  0  0  0  0  0  0  0  0  0  0
   10.4859    4.0901   20.9730 C   0  0  0  0  0  0  0  0  0  0  0  0
   11.0962    9.3293   23.5072 C   0  0  0  0  0  0  0  0  0  0  0  0
    5.1273    7.8529   23.6208 N   0  0  0  0  0  0  0  0  0  0  0  0
    9.7552    9.2338   23.0171 N   0  0  0  0  0  0  0  0  0  0  0  0
   11.1797    6.7591   21.3326 N   0  0  0  0  0  0  0  0  0  0  0  0
   11.7728    8.0337   23.7267 C   0  0  0  0  0  0  0  0  0  0  0  0
    7.1194    8.3344   24.6775 C   0  0  0  0  0  0  0  0  0  0  0  0
    8.4311    4.7963   22.0500 C   0  0  0  0  0  0  0  0  0  0  0  0
    8.7393   10.8706   24.1871 O   0  0  0  0  0  0  0  0  0  0  0  0
    9.3093    3.8166   21.6712 C   0  0  0  0  0  0  0  0  0  0  0  0
  1  5  1  0
  1 15  4  0
  1 22  4  0
  2 20  1  0
  2 24  1  0
  3  6  4  0
  3 27  4  0
  4 22  4  0
  4 26  4  0
  6  7  4  0
  6 13  1  0
  7 19  4  0
  8 18  1  0
  8 23  1  0
  8 28  2  0
  9 17  1  0
  9 24  1  0
 10 11  1  0
 10 24  1  0
 11 23  1  0
 12 14  4  0
 12 16  4  0
 14 19  4  0
 15 18  4  0
 16 20  4  0
 17 25  1  0
 18 26  4  0
 19 29  4  0
 20 29  4  0
 21 23  1  0
 21 25  1  0
 27 29  4  0
M  END
$$$$

 Created by Python create_sdf_string function

 29 32  0  0  0  0  0  0  0  0999 V2000
    5.4450    8.7154   22.6662 C   0  0  0  0  0  0  0  0  0  0  0  0
   10.9154    5.4574   20.5483 C   0  0  0  0  0  0  0  0  0  0  0  0
    7.2709    4.5089   22.7542 C   0  0  0  0  0  0  0  0  0  0  0  0
    5.9698    7.6329   24.6581 C   0  0  0  0  0  0  0  0  0  0  0  0
    4.5542    8.9057   21.7104 O   0  0  0  0  0  0  0  0  0  0  0  0
    6.9895    3.2085   23.0690 C   0  0  0  0  0  0  0  0  0  0  0  0
    7.8391    2.2253   22.7260 N   0  0  0  0  0  0  0  0  0  0  0  0
    8.6968    9.8373   23.6359 C   0  0  0  0  0  0  0  0  0  0  0  0
   12.5135    6.5957   21.8396 C   0  0  0  0  0  0  0  0  0  0  0  0
   10.9406    8.2330   21.1350 C   0  0  0  0  0  0  0  0  0  0  0  0
    9.6648    8.5956   21.7310 C   0  0  0  0  0  0  0  0  0  0  0  0
   10.8829    1.7153   20.9865 C   0  0  0  0  0  0  0  0  0  0  0  0
    5.7768    2.8533   23.7910 C   0  0  0  0  0  0  0  0  0  0  0  0
    9.7977    1.4791   21.6912 N   0  0  0  0  0  0  0  0  0  0  0  0
    6.5976    9.3401   22.6478 N   0  0  0  0  0  0  0  0  0  0  0  0
   11.2031    3.0042   20.6246 C   0  0  0  0  0  0  0  0  0  0  0  0
   12.8688    7.7370   22.7287 C   0  0  0  0  0  0  0  0  0  0  0  0
    7.4487    9.1361   23.6506 C   0  0  0  0  0  0  0  0  0  0  0  0
    8.9772    2.5025   22.0273 C   0  0  0  0  0  0  0  0  0  0  0  0
   10.4859    4.0901   20.9730 C   0  0  0  0  0  0  0  0  0  0  0  0
   11.0962    9.3293   23.5072 C   0  0  0  0  0  0  0  0  0  0  0  0
    5.1273    7.8529   23.6208 N   0  0  0  0  0  0  0  0  0  0  0  0
    9.7552    9.2338   23.0171 N   0  0  0  0  0  0  0  0  0  0  0  0
   11.1797    6.7591   21.3326 N   0  0  0  0  0  0  0  0  0  0  0  0
   11.7728    8.0337   23.7267 C   0  0  0  0  0  0  0  0  0  0  0  0
    7.1194    8.3344   24.6775 C   0  0  0  0  0  0  0  0  0  0  0  0
    8.4311    4.7963   22.0500 C   0  0  0  0  0  0  0  0  0  0  0  0
    8.7393   10.8706   24.1871 O   0  0  0  0  0  0  0  0  0  0  0  0
    9.3093    3.8166   21.6712 C   0  0  0  0  0  0  0  0  0  0  0  0
  1  5  1  0
  1 15  4  0
  1 22  4  0
  2 20  1  0
  2 24  1  0
  3  6  4  0
  3 27  4  0
  4 22  4  0
  4 26  4  0
  6  7  4  0
  6 13  1  0
  7 19  4  0
  8 18  1  0
  8 23  1  0
  8 28  2  0
  9 17  1  0
  9 24  1  0
 10 11  1  0
 10 24  1  0
 11 23  1  0
 12 14  4  0
 12 16  4  0
 14 19  4  0
 15 18  4  0
 16 20  4  0
 17 25  1  0
 18 26  4  0
 19 29  4  0
 20 29  4  0
 21 23  1  0
 21 25  1  0
 27 29  4  0
M  END
$$$$

 Created by Python create_sdf_string function

 29 32  0  0  0  0  0  0  0  0999 V2000
    5.4450    8.7154   22.6662 C   0  0  0  0  0  0  0  0  0  0  0  0
   10.9154    5.4574   20.5483 C   0  0  0  0  0  0  0  0  0  0  0  0
    7.2709    4.5089   22.7542 C   0  0  0  0  0  0  0  0  0  0  0  0
    5.9698    7.6329   24.6581 C   0  0  0  0  0  0  0  0  0  0  0  0
    4.5542    8.9057   21.7104 O   0  0  0  0  0  0  0  0  0  0  0  0
    6.9895    3.2085   23.0690 C   0  0  0  0  0  0  0  0  0  0  0  0
    7.8391    2.2253   22.7260 N   0  0  0  0  0  0  0  0  0  0  0  0
    8.6968    9.8373   23.6359 C   0  0  0  0  0  0  0  0  0  0  0  0
   12.5135    6.5957   21.8396 C   0  0  0  0  0  0  0  0  0  0  0  0
   10.9406    8.2330   21.1350 C   0  0  0  0  0  0  0  0  0  0  0  0
    9.6648    8.5956   21.7310 C   0  0  0  0  0  0  0  0  0  0  0  0
   10.8829    1.7153   20.9865 C   0  0  0  0  0  0  0  0  0  0  0  0
    5.7768    2.8533   23.7910 C   0  0  0  0  0  0  0  0  0  0  0  0
    9.7977    1.4791   21.6912 N   0  0  0  0  0  0  0  0  0  0  0  0
    6.5976    9.3401   22.6478 N   0  0  0  0  0  0  0  0  0  0  0  0
   11.2031    3.0042   20.6246 C   0  0  0  0  0  0  0  0  0  0  0  0
   12.8688    7.7370   22.7287 C   0  0  0  0  0  0  0  0  0  0  0  0
    7.4487    9.1361   23.6506 C   0  0  0  0  0  0  0  0  0  0  0  0
    8.9772    2.5025   22.0273 C   0  0  0  0  0  0  0  0  0  0  0  0
   10.4859    4.0901   20.9730 C   0  0  0  0  0  0  0  0  0  0  0  0
   11.0962    9.3293   23.5072 C   0  0  0  0  0  0  0  0  0  0  0  0
    5.1273    7.8529   23.6208 N   0  0  0  0  0  0  0  0  0  0  0  0
    9.7552    9.2338   23.0171 N   0  0  0  0  0  0  0  0  0  0  0  0
   11.1797    6.7591   21.3326 N   0  0  0  0  0  0  0  0  0  0  0  0
   11.7728    8.0337   23.7267 C   0  0  0  0  0  0  0  0  0  0  0  0
    7.1194    8.3344   24.6775 C   0  0  0  0  0  0  0  0  0  0  0  0
    8.4311    4.7963   22.0500 C   0  0  0  0  0  0  0  0  0  0  0  0
    8.7393   10.8706   24.1871 O   0  0  0  0  0  0  0  0  0  0  0  0
    9.3093    3.8166   21.6712 C   0  0  0  0  0  0  0  0  0  0  0  0
  1  5  1  0
  1 15  4  0
  1 22  4  0
  2 20  1  0
  2 24  1  0
  3  6  4  0
  3 27  4  0
  4 22  4  0
  4 26  4  0
  6  7  4  0
  6 13  1  0
  7 19  4  0
  8 18  1  0
  8 23  1  0
  8 28  2  0
  9 17  1  0
  9 24  1  0
 10 11  1  0
 10 24  1  0
 11 23  1  0
 12 14  4  0
 12 16  4  0
 14 19  4  0
 15 18  4  0
 16 20  4  0
 17 25  1  0
 18 26  4  0
 19 29  4  0
 20 29  4  0
 21 23  1  0
 21 25  1  0
 27 29  4  0
M  END
$$$$

 Created by Python create_sdf_string function

 29 32  0  0  0  0  0  0  0  0999 V2000
    5.4450    8.7154   22.6662 C   0  0  0  0  0  0  0  0  0  0  0  0
   10.9154    5.4574   20.5483 C   0  0  0  0  0  0  0  0  0  0  0  0
    7.2709    4.5089   22.7542 C   0  0  0  0  0  0  0  0  0  0  0  0
    5.9698    7.6329   24.6581 C   0  0  0  0  0  0  0  0  0  0  0  0
    4.5542    8.9057   21.7104 O   0  0  0  0  0  0  0  0  0  0  0  0
    6.9895    3.2085   23.0690 C   0  0  0  0  0  0  0  0  0  0  0  0
    7.8391    2.2253   22.7260 N   0  0  0  0  0  0  0  0  0  0  0  0
    8.6968    9.8373   23.6359 C   0  0  0  0  0  0  0  0  0  0  0  0
   12.5135    6.5957   21.8396 C   0  0  0  0  0  0  0  0  0  0  0  0
   10.9406    8.2330   21.1350 C   0  0  0  0  0  0  0  0  0  0  0  0
    9.6648    8.5956   21.7310 C   0  0  0  0  0  0  0  0  0  0  0  0
   10.8829    1.7153   20.9865 C   0  0  0  0  0  0  0  0  0  0  0  0
    5.7768    2.8533   23.7910 C   0  0  0  0  0  0  0  0  0  0  0  0
    9.7977    1.4791   21.6912 N   0  0  0  0  0  0  0  0  0  0  0  0
    6.5976    9.3401   22.6478 N   0  0  0  0  0  0  0  0  0  0  0  0
   11.2031    3.0042   20.6246 C   0  0  0  0  0  0  0  0  0  0  0  0
   12.8688    7.7370   22.7287 C   0  0  0  0  0  0  0  0  0  0  0  0
    7.4487    9.1361   23.6506 C   0  0  0  0  0  0  0  0  0  0  0  0
    8.9772    2.5025   22.0273 C   0  0  0  0  0  0  0  0  0  0  0  0
   10.4859    4.0901   20.9730 C   0  0  0  0  0  0  0  0  0  0  0  0
   11.0962    9.3293   23.5072 C   0  0  0  0  0  0  0  0  0  0  0  0
    5.1273    7.8529   23.6208 N   0  0  0  0  0  0  0  0  0  0  0  0
    9.7552    9.2338   23.0171 N   0  0  0  0  0  0  0  0  0  0  0  0
   11.1797    6.7591   21.3326 N   0  0  0  0  0  0  0  0  0  0  0  0
   11.7728    8.0337   23.7267 C   0  0  0  0  0  0  0  0  0  0  0  0
    7.1194    8.3344   24.6775 C   0  0  0  0  0  0  0  0  0  0  0  0
    8.4311    4.7963   22.0500 C   0  0  0  0  0  0  0  0  0  0  0  0
    8.7393   10.8706   24.1871 O   0  0  0  0  0  0  0  0  0  0  0  0
    9.3093    3.8166   21.6712 C   0  0  0  0  0  0  0  0  0  0  0  0
  1  5  1  0
  1 15  4  0
  1 22  4  0
  2 20  1  0
  2 24  1  0
  3  6  4  0
  3 27  4  0
  4 22  4  0
  4 26  4  0
  6  7  4  0
  6 13  1  0
  7 19  4  0
  8 18  1  0
  8 23  1  0
  8 28  2  0
  9 17  1  0
  9 24  1  0
 10 11  1  0
 10 24  1  0
 11 23  1  0
 12 14  4  0
 12 16  4  0
 14 19  4  0
 15 18  4  0
 16 20  4  0
 17 25  1  0
 18 26  4  0
 19 29  4  0
 20 29  4  0
 21 23  1  0
 21 25  1  0
 27 29  4  0
M  END
$$$$

 Created by Python create_sdf_string function

 29 32  0  0  0  0  0  0  0  0999 V2000
    5.4450    8.7154   22.6662 C   0  0  0  0  0  0  0  0  0  0  0  0
   10.9154    5.4574   20.5483 C   0  0  0  0  0  0  0  0  0  0  0  0
    7.2709    4.5089   22.7542 C   0  0  0  0  0  0  0  0  0  0  0  0
    5.9698    7.6329   24.6581 C   0  0  0  0  0  0  0  0  0  0  0  0
    4.5542    8.9057   21.7104 O   0  0  0  0  0  0  0  0  0  0  0  0
    6.9895    3.2085   23.0690 C   0  0  0  0  0  0  0  0  0  0  0  0
    7.8391    2.2253   22.7260 N   0  0  0  0  0  0  0  0  0  0  0  0
    8.6968    9.8373   23.6359 C   0  0  0  0  0  0  0  0  0  0  0  0
   12.5135    6.5957   21.8396 C   0  0  0  0  0  0  0  0  0  0  0  0
   10.9406    8.2330   21.1350 C   0  0  0  0  0  0  0  0  0  0  0  0
    9.6648    8.5956   21.7310 C   0  0  0  0  0  0  0  0  0  0  0  0
   10.8829    1.7153   20.9865 C   0  0  0  0  0  0  0  0  0  0  0  0
    5.7768    2.8533   23.7910 C   0  0  0  0  0  0  0  0  0  0  0  0
    9.7977    1.4791   21.6912 N   0  0  0  0  0  0  0  0  0  0  0  0
    6.5976    9.3401   22.6478 N   0  0  0  0  0  0  0  0  0  0  0  0
   11.2031    3.0042   20.6246 C   0  0  0  0  0  0  0  0  0  0  0  0
   12.8688    7.7370   22.7287 C   0  0  0  0  0  0  0  0  0  0  0  0
    7.4487    9.1361   23.6506 C   0  0  0  0  0  0  0  0  0  0  0  0
    8.9772    2.5025   22.0273 C   0  0  0  0  0  0  0  0  0  0  0  0
   10.4859    4.0901   20.9730 C   0  0  0  0  0  0  0  0  0  0  0  0
   11.0962    9.3293   23.5072 C   0  0  0  0  0  0  0  0  0  0  0  0
    5.1273    7.8529   23.6208 N   0  0  0  0  0  0  0  0  0  0  0  0
    9.7552    9.2338   23.0171 N   0  0  0  0  0  0  0  0  0  0  0  0
   11.1797    6.7591   21.3326 N   0  0  0  0  0  0  0  0  0  0  0  0
   11.7728    8.0337   23.7267 C   0  0  0  0  0  0  0  0  0  0  0  0
    7.1194    8.3344   24.6775 C   0  0  0  0  0  0  0  0  0  0  0  0
    8.4311    4.7963   22.0500 C   0  0  0  0  0  0  0  0  0  0  0  0
    8.7393   10.8706   24.1871 O   0  0  0  0  0  0  0  0  0  0  0  0
    9.3093    3.8166   21.6712 C   0  0  0  0  0  0  0  0  0  0  0  0
  1  5  1  0
  1 15  4  0
  1 22  4  0
  2 20  1  0
  2 24  1  0
  3  6  4  0
  3 27  4  0
  4 22  4  0
  4 26  4  0
  6  7  4  0
  6 13  1  0
  7 19  4  0
  8 18  1  0
  8 23  1  0
  8 28  2  0
  9 17  1  0
  9 24  1  0
 10 11  1  0
 10 24  1  0
 11 23  1  0
 12 14  4  0
 12 16  4  0
 14 19  4  0
 15 18  4  0
 16 20  4  0
 17 25  1  0
 18 26  4  0
 19 29  4  0
 20 29  4  0
 21 23  1  0
 21 25  1  0
 27 29  4  0
M  END
$$$$

 Created by Python create_sdf_string function

 29 32  0  0  0  0  0  0  0  0999 V2000
    5.4450    8.7154   22.6662 C   0  0  0  0  0  0  0  0  0  0  0  0
   10.9154    5.4574   20.5483 C   0  0  0  0  0  0  0  0  0  0  0  0
    7.2709    4.5089   22.7542 C   0  0  0  0  0  0  0  0  0  0  0  0
    5.9698    7.6329   24.6581 C   0  0  0  0  0  0  0  0  0  0  0  0
    4.5542    8.9057   21.7104 O   0  0  0  0  0  0  0  0  0  0  0  0
    6.9895    3.2085   23.0690 C   0  0  0  0  0  0  0  0  0  0  0  0
    7.8391    2.2253   22.7260 N   0  0  0  0  0  0  0  0  0  0  0  0
    8.6968    9.8373   23.6359 C   0  0  0  0  0  0  0  0  0  0  0  0
   12.5135    6.5957   21.8396 C   0  0  0  0  0  0  0  0  0  0  0  0
   10.9406    8.2330   21.1350 C   0  0  0  0  0  0  0  0  0  0  0  0
    9.6648    8.5956   21.7310 C   0  0  0  0  0  0  0  0  0  0  0  0
   10.8829    1.7153   20.9865 C   0  0  0  0  0  0  0  0  0  0  0  0
    5.7768    2.8533   23.7910 C   0  0  0  0  0  0  0  0  0  0  0  0
    9.7977    1.4791   21.6912 N   0  0  0  0  0  0  0  0  0  0  0  0
    6.5976    9.3401   22.6478 N   0  0  0  0  0  0  0  0  0  0  0  0
   11.2031    3.0042   20.6246 C   0  0  0  0  0  0  0  0  0  0  0  0
   12.8688    7.7370   22.7287 C   0  0  0  0  0  0  0  0  0  0  0  0
    7.4487    9.1361   23.6506 C   0  0  0  0  0  0  0  0  0  0  0  0
    8.9772    2.5025   22.0273 C   0  0  0  0  0  0  0  0  0  0  0  0
   10.4859    4.0901   20.9730 C   0  0  0  0  0  0  0  0  0  0  0  0
   11.0962    9.3293   23.5072 C   0  0  0  0  0  0  0  0  0  0  0  0
    5.1273    7.8529   23.6208 N   0  0  0  0  0  0  0  0  0  0  0  0
    9.7552    9.2338   23.0171 N   0  0  0  0  0  0  0  0  0  0  0  0
   11.1797    6.7591   21.3326 N   0  0  0  0  0  0  0  0  0  0  0  0
   11.7728    8.0337   23.7267 C   0  0  0  0  0  0  0  0  0  0  0  0
    7.1194    8.3344   24.6775 C   0  0  0  0  0  0  0  0  0  0  0  0
    8.4311    4.7963   22.0500 C   0  0  0  0  0  0  0  0  0  0  0  0
    8.7393   10.8706   24.1871 O   0  0  0  0  0  0  0  0  0  0  0  0
    9.3093    3.8166   21.6712 C   0  0  0  0  0  0  0  0  0  0  0  0
  1  5  1  0
  1 15  4  0
  1 22  4  0
  2 20  1  0
  2 24  1  0
  3  6  4  0
  3 27  4  0
  4 22  4  0
  4 26  4  0
  6  7  4  0
  6 13  1  0
  7 19  4  0
  8 18  1  0
  8 23  1  0
  8 28  2  0
  9 17  1  0
  9 24  1  0
 10 11  1  0
 10 24  1  0
 11 23  1  0
 12 14  4  0
 12 16  4  0
 14 19  4  0
 15 18  4  0
 16 20  4  0
 17 25  1  0
 18 26  4  0
 19 29  4  0
 20 29  4  0
 21 23  1  0
 21 25  1  0
 27 29  4  0
M  END
$$$$

 Created by Python create_sdf_string function

 29 32  0  0  0  0  0  0  0  0999 V2000
    5.4450    8.7154   22.6662 C   0  0  0  0  0  0  0  0  0  0  0  0
   10.9154    5.4574   20.5483 C   0  0  0  0  0  0  0  0  0  0  0  0
    7.2709    4.5089   22.7542 C   0  0  0  0  0  0  0  0  0  0  0  0
    5.9698    7.6329   24.6581 C   0  0  0  0  0  0  0  0  0  0  0  0
    4.5542    8.9057   21.7104 O   0  0  0  0  0  0  0  0  0  0  0  0
    6.9895    3.2085   23.0690 C   0  0  0  0  0  0  0  0  0  0  0  0
    7.8391    2.2253   22.7260 N   0  0  0  0  0  0  0  0  0  0  0  0
    8.6968    9.8373   23.6359 C   0  0  0  0  0  0  0  0  0  0  0  0
   12.5135    6.5957   21.8396 C   0  0  0  0  0  0  0  0  0  0  0  0
   10.9406    8.2330   21.1350 C   0  0  0  0  0  0  0  0  0  0  0  0
    9.6648    8.5956   21.7310 C   0  0  0  0  0  0  0  0  0  0  0  0
   10.8829    1.7153   20.9865 C   0  0  0  0  0  0  0  0  0  0  0  0
    5.7768    2.8533   23.7910 C   0  0  0  0  0  0  0  0  0  0  0  0
    9.7977    1.4791   21.6912 N   0  0  0  0  0  0  0  0  0  0  0  0
    6.5976    9.3401   22.6478 N   0  0  0  0  0  0  0  0  0  0  0  0
   11.2031    3.0042   20.6246 C   0  0  0  0  0  0  0  0  0  0  0  0
   12.8688    7.7370   22.7287 C   0  0  0  0  0  0  0  0  0  0  0  0
    7.4487    9.1361   23.6506 C   0  0  0  0  0  0  0  0  0  0  0  0
    8.9772    2.5025   22.0273 C   0  0  0  0  0  0  0  0  0  0  0  0
   10.4859    4.0901   20.9730 C   0  0  0  0  0  0  0  0  0  0  0  0
   11.0962    9.3293   23.5072 C   0  0  0  0  0  0  0  0  0  0  0  0
    5.1273    7.8529   23.6208 N   0  0  0  0  0  0  0  0  0  0  0  0
    9.7552    9.2338   23.0171 N   0  0  0  0  0  0  0  0  0  0  0  0
   11.1797    6.7591   21.3326 N   0  0  0  0  0  0  0  0  0  0  0  0
   11.7728    8.0337   23.7267 C   0  0  0  0  0  0  0  0  0  0  0  0
    7.1194    8.3344   24.6775 C   0  0  0  0  0  0  0  0  0  0  0  0
    8.4311    4.7963   22.0500 C   0  0  0  0  0  0  0  0  0  0  0  0
    8.7393   10.8706   24.1871 O   0  0  0  0  0  0  0  0  0  0  0  0
    9.3093    3.8166   21.6712 C   0  0  0  0  0  0  0  0  0  0  0  0
  1  5  1  0
  1 15  4  0
  1 22  4  0
  2 20  1  0
  2 24  1  0
  3  6  4  0
  3 27  4  0
  4 22  4  0
  4 26  4  0
  6  7  4  0
  6 13  1  0
  7 19  4  0
  8 18  1  0
  8 23  1  0
  8 28  2  0
  9 17  1  0
  9 24  1  0
 10 11  1  0
 10 24  1  0
 11 23  1  0
 12 14  4  0
 12 16  4  0
 14 19  4  0
 15 18  4  0
 16 20  4  0
 17 25  1  0
 18 26  4  0
 19 29  4  0
 20 29  4  0
 21 23  1  0
 21 25  1  0
 27 29  4  0
M  END
$$$$

 Created by Python create_sdf_string function

 29 32  0  0  0  0  0  0  0  0999 V2000
    5.4450    8.7154   22.6662 C   0  0  0  0  0  0  0  0  0  0  0  0
   10.9154    5.4574   20.5483 C   0  0  0  0  0  0  0  0  0  0  0  0
    7.2709    4.5089   22.7542 C   0  0  0  0  0  0  0  0  0  0  0  0
    5.9698    7.6329   24.6581 C   0  0  0  0  0  0  0  0  0  0  0  0
    4.5542    8.9057   21.7104 O   0  0  0  0  0  0  0  0  0  0  0  0
    6.9895    3.2085   23.0690 C   0  0  0  0  0  0  0  0  0  0  0  0
    7.8391    2.2253   22.7260 N   0  0  0  0  0  0  0  0  0  0  0  0
    8.6968    9.8373   23.6359 C   0  0  0  0  0  0  0  0  0  0  0  0
   12.5135    6.5957   21.8396 C   0  0  0  0  0  0  0  0  0  0  0  0
   10.9406    8.2330   21.1350 C   0  0  0  0  0  0  0  0  0  0  0  0
    9.6648    8.5956   21.7310 C   0  0  0  0  0  0  0  0  0  0  0  0
   10.8829    1.7153   20.9865 C   0  0  0  0  0  0  0  0  0  0  0  0
    5.7768    2.8533   23.7910 C   0  0  0  0  0  0  0  0  0  0  0  0
    9.7977    1.4791   21.6912 N   0  0  0  0  0  0  0  0  0  0  0  0
    6.5976    9.3401   22.6478 N   0  0  0  0  0  0  0  0  0  0  0  0
   11.2031    3.0042   20.6246 C   0  0  0  0  0  0  0  0  0  0  0  0
   12.8688    7.7370   22.7287 C   0  0  0  0  0  0  0  0  0  0  0  0
    7.4487    9.1361   23.6506 C   0  0  0  0  0  0  0  0  0  0  0  0
    8.9772    2.5025   22.0273 C   0  0  0  0  0  0  0  0  0  0  0  0
   10.4859    4.0901   20.9730 C   0  0  0  0  0  0  0  0  0  0  0  0
   11.0962    9.3293   23.5072 C   0  0  0  0  0  0  0  0  0  0  0  0
    5.1273    7.8529   23.6208 N   0  0  0  0  0  0  0  0  0  0  0  0
    9.7552    9.2338   23.0171 N   0  0  0  0  0  0  0  0  0  0  0  0
   11.1797    6.7591   21.3326 N   0  0  0  0  0  0  0  0  0  0  0  0
   11.7728    8.0337   23.7267 C   0  0  0  0  0  0  0  0  0  0  0  0
    7.1194    8.3344   24.6775 C   0  0  0  0  0  0  0  0  0  0  0  0
    8.4311    4.7963   22.0500 C   0  0  0  0  0  0  0  0  0  0  0  0
    8.7393   10.8706   24.1871 O   0  0  0  0  0  0  0  0  0  0  0  0
    9.3093    3.8166   21.6712 C   0  0  0  0  0  0  0  0  0  0  0  0
  1  5  1  0
  1 15  4  0
  1 22  4  0
  2 20  1  0
  2 24  1  0
  3  6  4  0
  3 27  4  0
  4 22  4  0
  4 26  4  0
  6  7  4  0
  6 13  1  0
  7 19  4  0
  8 18  1  0
  8 23  1  0
  8 28  2  0
  9 17  1  0
  9 24  1  0
 10 11  1  0
 10 24  1  0
 11 23  1  0
 12 14  4  0
 12 16  4  0
 14 19  4  0
 15 18  4  0
 16 20  4  0
 17 25  1  0
 18 26  4  0
 19 29  4  0
 20 29  4  0
 21 23  1  0
 21 25  1  0
 27 29  4  0
M  END
$$$$

 Created by Python create_sdf_string function

 29 32  0  0  0  0  0  0  0  0999 V2000
    5.4450    8.7154   22.6662 C   0  0  0  0  0  0  0  0  0  0  0  0
   10.9154    5.4574   20.5483 C   0  0  0  0  0  0  0  0  0  0  0  0
    7.2709    4.5089   22.7542 C   0  0  0  0  0  0  0  0  0  0  0  0
    5.9698    7.6329   24.6581 C   0  0  0  0  0  0  0  0  0  0  0  0
    4.5542    8.9057   21.7104 O   0  0  0  0  0  0  0  0  0  0  0  0
    6.9895    3.2085   23.0690 C   0  0  0  0  0  0  0  0  0  0  0  0
    7.8391    2.2253   22.7260 N   0  0  0  0  0  0  0  0  0  0  0  0
    8.6968    9.8373   23.6359 C   0  0  0  0  0  0  0  0  0  0  0  0
   12.5135    6.5957   21.8396 C   0  0  0  0  0  0  0  0  0  0  0  0
   10.9406    8.2330   21.1350 C   0  0  0  0  0  0  0  0  0  0  0  0
    9.6648    8.5956   21.7310 C   0  0  0  0  0  0  0  0  0  0  0  0
   10.8829    1.7153   20.9865 C   0  0  0  0  0  0  0  0  0  0  0  0
    5.7768    2.8533   23.7910 C   0  0  0  0  0  0  0  0  0  0  0  0
    9.7977    1.4791   21.6912 N   0  0  0  0  0  0  0  0  0  0  0  0
    6.5976    9.3401   22.6478 N   0  0  0  0  0  0  0  0  0  0  0  0
   11.2031    3.0042   20.6246 C   0  0  0  0  0  0  0  0  0  0  0  0
   12.8688    7.7370   22.7287 C   0  0  0  0  0  0  0  0  0  0  0  0
    7.4487    9.1361   23.6506 C   0  0  0  0  0  0  0  0  0  0  0  0
    8.9772    2.5025   22.0273 C   0  0  0  0  0  0  0  0  0  0  0  0
   10.4859    4.0901   20.9730 C   0  0  0  0  0  0  0  0  0  0  0  0
   11.0962    9.3293   23.5072 C   0  0  0  0  0  0  0  0  0  0  0  0
    5.1273    7.8529   23.6208 N   0  0  0  0  0  0  0  0  0  0  0  0
    9.7552    9.2338   23.0171 N   0  0  0  0  0  0  0  0  0  0  0  0
   11.1797    6.7591   21.3326 N   0  0  0  0  0  0  0  0  0  0  0  0
   11.7728    8.0337   23.7267 C   0  0  0  0  0  0  0  0  0  0  0  0
    7.1194    8.3344   24.6775 C   0  0  0  0  0  0  0  0  0  0  0  0
    8.4311    4.7963   22.0500 C   0  0  0  0  0  0  0  0  0  0  0  0
    8.7393   10.8706   24.1871 O   0  0  0  0  0  0  0  0  0  0  0  0
    9.3093    3.8166   21.6712 C   0  0  0  0  0  0  0  0  0  0  0  0
  1  5  1  0
  1 15  4  0
  1 22  4  0
  2 20  1  0
  2 24  1  0
  3  6  4  0
  3 27  4  0
  4 22  4  0
  4 26  4  0
  6  7  4  0
  6 13  1  0
  7 19  4  0
  8 18  1  0
  8 23  1  0
  8 28  2  0
  9 17  1  0
  9 24  1  0
 10 11  1  0
 10 24  1  0
 11 23  1  0
 12 14  4  0
 12 16  4  0
 14 19  4  0
 15 18  4  0
 16 20  4  0
 17 25  1  0
 18 26  4  0
 19 29  4  0
 20 29  4  0
 21 23  1  0
 21 25  1  0
 27 29  4  0
M  END
$$$$

 Created by Python create_sdf_string function

 29 32  0  0  0  0  0  0  0  0999 V2000
    5.4450    8.7154   22.6662 C   0  0  0  0  0  0  0  0  0  0  0  0
   10.9154    5.4574   20.5483 C   0  0  0  0  0  0  0  0  0  0  0  0
    7.2709    4.5089   22.7542 C   0  0  0  0  0  0  0  0  0  0  0  0
    5.9698    7.6329   24.6581 C   0  0  0  0  0  0  0  0  0  0  0  0
    4.5542    8.9057   21.7104 O   0  0  0  0  0  0  0  0  0  0  0  0
    6.9895    3.2085   23.0690 C   0  0  0  0  0  0  0  0  0  0  0  0
    7.8391    2.2253   22.7260 N   0  0  0  0  0  0  0  0  0  0  0  0
    8.6968    9.8373   23.6359 C   0  0  0  0  0  0  0  0  0  0  0  0
   12.5135    6.5957   21.8396 C   0  0  0  0  0  0  0  0  0  0  0  0
   10.9406    8.2330   21.1350 C   0  0  0  0  0  0  0  0  0  0  0  0
    9.6648    8.5956   21.7310 C   0  0  0  0  0  0  0  0  0  0  0  0
   10.8829    1.7153   20.9865 C   0  0  0  0  0  0  0  0  0  0  0  0
    5.7768    2.8533   23.7910 C   0  0  0  0  0  0  0  0  0  0  0  0
    9.7977    1.4791   21.6912 N   0  0  0  0  0  0  0  0  0  0  0  0
    6.5976    9.3401   22.6478 N   0  0  0  0  0  0  0  0  0  0  0  0
   11.2031    3.0042   20.6246 C   0  0  0  0  0  0  0  0  0  0  0  0
   12.8688    7.7370   22.7287 C   0  0  0  0  0  0  0  0  0  0  0  0
    7.4487    9.1361   23.6506 C   0  0  0  0  0  0  0  0  0  0  0  0
    8.9772    2.5025   22.0273 C   0  0  0  0  0  0  0  0  0  0  0  0
   10.4859    4.0901   20.9730 C   0  0  0  0  0  0  0  0  0  0  0  0
   11.0962    9.3293   23.5072 C   0  0  0  0  0  0  0  0  0  0  0  0
    5.1273    7.8529   23.6208 N   0  0  0  0  0  0  0  0  0  0  0  0
    9.7552    9.2338   23.0171 N   0  0  0  0  0  0  0  0  0  0  0  0
   11.1797    6.7591   21.3326 N   0  0  0  0  0  0  0  0  0  0  0  0
   11.7728    8.0337   23.7267 C   0  0  0  0  0  0  0  0  0  0  0  0
    7.1194    8.3344   24.6775 C   0  0  0  0  0  0  0  0  0  0  0  0
    8.4311    4.7963   22.0500 C   0  0  0  0  0  0  0  0  0  0  0  0
    8.7393   10.8706   24.1871 O   0  0  0  0  0  0  0  0  0  0  0  0
    9.3093    3.8166   21.6712 C   0  0  0  0  0  0  0  0  0  0  0  0
  1  5  1  0
  1 15  4  0
  1 22  4  0
  2 20  1  0
  2 24  1  0
  3  6  4  0
  3 27  4  0
  4 22  4  0
  4 26  4  0
  6  7  4  0
  6 13  1  0
  7 19  4  0
  8 18  1  0
  8 23  1  0
  8 28  2  0
  9 17  1  0
  9 24  1  0
 10 11  1  0
 10 24  1  0
 11 23  1  0
 12 14  4  0
 12 16  4  0
 14 19  4  0
 15 18  4  0
 16 20  4  0
 17 25  1  0
 18 26  4  0
 19 29  4  0
 20 29  4  0
 21 23  1  0
 21 25  1  0
 27 29  4  0
M  END
$$$$

 Created by Python create_sdf_string function

 29 32  0  0  0  0  0  0  0  0999 V2000
    5.4450    8.7154   22.6662 C   0  0  0  0  0  0  0  0  0  0  0  0
   10.9154    5.4574   20.5483 C   0  0  0  0  0  0  0  0  0  0  0  0
    7.2709    4.5089   22.7542 C   0  0  0  0  0  0  0  0  0  0  0  0
    5.9698    7.6329   24.6581 C   0  0  0  0  0  0  0  0  0  0  0  0
    4.5542    8.9057   21.7104 O   0  0  0  0  0  0  0  0  0  0  0  0
    6.9895    3.2085   23.0690 C   0  0  0  0  0  0  0  0  0  0  0  0
    7.8391    2.2253   22.7260 N   0  0  0  0  0  0  0  0  0  0  0  0
    8.6968    9.8373   23.6359 C   0  0  0  0  0  0  0  0  0  0  0  0
   12.5135    6.5957   21.8396 C   0  0  0  0  0  0  0  0  0  0  0  0
   10.9406    8.2330   21.1350 C   0  0  0  0  0  0  0  0  0  0  0  0
    9.6648    8.5956   21.7310 C   0  0  0  0  0  0  0  0  0  0  0  0
   10.8829    1.7153   20.9865 C   0  0  0  0  0  0  0  0  0  0  0  0
    5.7768    2.8533   23.7910 C   0  0  0  0  0  0  0  0  0  0  0  0
    9.7977    1.4791   21.6912 N   0  0  0  0  0  0  0  0  0  0  0  0
    6.5976    9.3401   22.6478 N   0  0  0  0  0  0  0  0  0  0  0  0
   11.2031    3.0042   20.6246 C   0  0  0  0  0  0  0  0  0  0  0  0
   12.8688    7.7370   22.7287 C   0  0  0  0  0  0  0  0  0  0  0  0
    7.4487    9.1361   23.6506 C   0  0  0  0  0  0  0  0  0  0  0  0
    8.9772    2.5025   22.0273 C   0  0  0  0  0  0  0  0  0  0  0  0
   10.4859    4.0901   20.9730 C   0  0  0  0  0  0  0  0  0  0  0  0
   11.0962    9.3293   23.5072 C   0  0  0  0  0  0  0  0  0  0  0  0
    5.1273    7.8529   23.6208 N   0  0  0  0  0  0  0  0  0  0  0  0
    9.7552    9.2338   23.0171 N   0  0  0  0  0  0  0  0  0  0  0  0
   11.1797    6.7591   21.3326 N   0  0  0  0  0  0  0  0  0  0  0  0
   11.7728    8.0337   23.7267 C   0  0  0  0  0  0  0  0  0  0  0  0
    7.1194    8.3344   24.6775 C   0  0  0  0  0  0  0  0  0  0  0  0
    8.4311    4.7963   22.0500 C   0  0  0  0  0  0  0  0  0  0  0  0
    8.7393   10.8706   24.1871 O   0  0  0  0  0  0  0  0  0  0  0  0
    9.3093    3.8166   21.6712 C   0  0  0  0  0  0  0  0  0  0  0  0
  1  5  1  0
  1 15  4  0
  1 22  4  0
  2 20  1  0
  2 24  1  0
  3  6  4  0
  3 27  4  0
  4 22  4  0
  4 26  4  0
  6  7  4  0
  6 13  1  0
  7 19  4  0
  8 18  1  0
  8 23  1  0
  8 28  2  0
  9 17  1  0
  9 24  1  0
 10 11  1  0
 10 24  1  0
 11 23  1  0
 12 14  4  0
 12 16  4  0
 14 19  4  0
 15 18  4  0
 16 20  4  0
 17 25  1  0
 18 26  4  0
 19 29  4  0
 20 29  4  0
 21 23  1  0
 21 25  1  0
 27 29  4  0
M  END
$$$$

 Created by Python create_sdf_string function

 29 32  0  0  0  0  0  0  0  0999 V2000
    5.4450    8.7154   22.6662 C   0  0  0  0  0  0  0  0  0  0  0  0
   10.9154    5.4574   20.5483 C   0  0  0  0  0  0  0  0  0  0  0  0
    7.2709    4.5089   22.7542 C   0  0  0  0  0  0  0  0  0  0  0  0
    5.9698    7.6329   24.6581 C   0  0  0  0  0  0  0  0  0  0  0  0
    4.5542    8.9057   21.7104 O   0  0  0  0  0  0  0  0  0  0  0  0
    6.9895    3.2085   23.0690 C   0  0  0  0  0  0  0  0  0  0  0  0
    7.8391    2.2253   22.7260 N   0  0  0  0  0  0  0  0  0  0  0  0
    8.6968    9.8373   23.6359 C   0  0  0  0  0  0  0  0  0  0  0  0
   12.5135    6.5957   21.8396 C   0  0  0  0  0  0  0  0  0  0  0  0
   10.9406    8.2330   21.1350 C   0  0  0  0  0  0  0  0  0  0  0  0
    9.6648    8.5956   21.7310 C   0  0  0  0  0  0  0  0  0  0  0  0
   10.8829    1.7153   20.9865 C   0  0  0  0  0  0  0  0  0  0  0  0
    5.7768    2.8533   23.7910 C   0  0  0  0  0  0  0  0  0  0  0  0
    9.7977    1.4791   21.6912 N   0  0  0  0  0  0  0  0  0  0  0  0
    6.5976    9.3401   22.6478 N   0  0  0  0  0  0  0  0  0  0  0  0
   11.2031    3.0042   20.6246 C   0  0  0  0  0  0  0  0  0  0  0  0
   12.8688    7.7370   22.7287 C   0  0  0  0  0  0  0  0  0  0  0  0
    7.4487    9.1361   23.6506 C   0  0  0  0  0  0  0  0  0  0  0  0
    8.9772    2.5025   22.0273 C   0  0  0  0  0  0  0  0  0  0  0  0
   10.4859    4.0901   20.9730 C   0  0  0  0  0  0  0  0  0  0  0  0
   11.0962    9.3293   23.5072 C   0  0  0  0  0  0  0  0  0  0  0  0
    5.1273    7.8529   23.6208 N   0  0  0  0  0  0  0  0  0  0  0  0
    9.7552    9.2338   23.0171 N   0  0  0  0  0  0  0  0  0  0  0  0
   11.1797    6.7591   21.3326 N   0  0  0  0  0  0  0  0  0  0  0  0
   11.7728    8.0337   23.7267 C   0  0  0  0  0  0  0  0  0  0  0  0
    7.1194    8.3344   24.6775 C   0  0  0  0  0  0  0  0  0  0  0  0
    8.4311    4.7963   22.0500 C   0  0  0  0  0  0  0  0  0  0  0  0
    8.7393   10.8706   24.1871 O   0  0  0  0  0  0  0  0  0  0  0  0
    9.3093    3.8166   21.6712 C   0  0  0  0  0  0  0  0  0  0  0  0
  1  5  1  0
  1 15  4  0
  1 22  4  0
  2 20  1  0
  2 24  1  0
  3  6  4  0
  3 27  4  0
  4 22  4  0
  4 26  4  0
  6  7  4  0
  6 13  1  0
  7 19  4  0
  8 18  1  0
  8 23  1  0
  8 28  2  0
  9 17  1  0
  9 24  1  0
 10 11  1  0
 10 24  1  0
 11 23  1  0
 12 14  4  0
 12 16  4  0
 14 19  4  0
 15 18  4  0
 16 20  4  0
 17 25  1  0
 18 26  4  0
 19 29  4  0
 20 29  4  0
 21 23  1  0
 21 25  1  0
 27 29  4  0
M  END
$$$$

 Created by Python create_sdf_string function

 29 32  0  0  0  0  0  0  0  0999 V2000
    5.4450    8.7154   22.6662 C   0  0  0  0  0  0  0  0  0  0  0  0
   10.9154    5.4574   20.5483 C   0  0  0  0  0  0  0  0  0  0  0  0
    7.2709    4.5089   22.7542 C   0  0  0  0  0  0  0  0  0  0  0  0
    5.9698    7.6329   24.6581 C   0  0  0  0  0  0  0  0  0  0  0  0
    4.5542    8.9057   21.7104 O   0  0  0  0  0  0  0  0  0  0  0  0
    6.9895    3.2085   23.0690 C   0  0  0  0  0  0  0  0  0  0  0  0
    7.8391    2.2253   22.7260 N   0  0  0  0  0  0  0  0  0  0  0  0
    8.6968    9.8373   23.6359 C   0  0  0  0  0  0  0  0  0  0  0  0
   12.5135    6.5957   21.8396 C   0  0  0  0  0  0  0  0  0  0  0  0
   10.9406    8.2330   21.1350 C   0  0  0  0  0  0  0  0  0  0  0  0
    9.6648    8.5956   21.7310 C   0  0  0  0  0  0  0  0  0  0  0  0
   10.8829    1.7153   20.9865 C   0  0  0  0  0  0  0  0  0  0  0  0
    5.7768    2.8533   23.7910 C   0  0  0  0  0  0  0  0  0  0  0  0
    9.7977    1.4791   21.6912 N   0  0  0  0  0  0  0  0  0  0  0  0
    6.5976    9.3401   22.6478 N   0  0  0  0  0  0  0  0  0  0  0  0
   11.2031    3.0042   20.6246 C   0  0  0  0  0  0  0  0  0  0  0  0
   12.8688    7.7370   22.7287 C   0  0  0  0  0  0  0  0  0  0  0  0
    7.4487    9.1361   23.6506 C   0  0  0  0  0  0  0  0  0  0  0  0
    8.9772    2.5025   22.0273 C   0  0  0  0  0  0  0  0  0  0  0  0
   10.4859    4.0901   20.9730 C   0  0  0  0  0  0  0  0  0  0  0  0
   11.0962    9.3293   23.5072 C   0  0  0  0  0  0  0  0  0  0  0  0
    5.1273    7.8529   23.6208 N   0  0  0  0  0  0  0  0  0  0  0  0
    9.7552    9.2338   23.0171 N   0  0  0  0  0  0  0  0  0  0  0  0
   11.1797    6.7591   21.3326 N   0  0  0  0  0  0  0  0  0  0  0  0
   11.7728    8.0337   23.7267 C   0  0  0  0  0  0  0  0  0  0  0  0
    7.1194    8.3344   24.6775 C   0  0  0  0  0  0  0  0  0  0  0  0
    8.4311    4.7963   22.0500 C   0  0  0  0  0  0  0  0  0  0  0  0
    8.7393   10.8706   24.1871 O   0  0  0  0  0  0  0  0  0  0  0  0
    9.3093    3.8166   21.6712 C   0  0  0  0  0  0  0  0  0  0  0  0
  1  5  1  0
  1 15  4  0
  1 22  4  0
  2 20  1  0
  2 24  1  0
  3  6  4  0
  3 27  4  0
  4 22  4  0
  4 26  4  0
  6  7  4  0
  6 13  1  0
  7 19  4  0
  8 18  1  0
  8 23  1  0
  8 28  2  0
  9 17  1  0
  9 24  1  0
 10 11  1  0
 10 24  1  0
 11 23  1  0
 12 14  4  0
 12 16  4  0
 14 19  4  0
 15 18  4  0
 16 20  4  0
 17 25  1  0
 18 26  4  0
 19 29  4  0
 20 29  4  0
 21 23  1  0
 21 25  1  0
 27 29  4  0
M  END
$$$$

 Created by Python create_sdf_string function

 29 32  0  0  0  0  0  0  0  0999 V2000
    5.4450    8.7154   22.6662 C   0  0  0  0  0  0  0  0  0  0  0  0
   10.9154    5.4574   20.5483 C   0  0  0  0  0  0  0  0  0  0  0  0
    7.2709    4.5089   22.7542 C   0  0  0  0  0  0  0  0  0  0  0  0
    5.9698    7.6329   24.6581 C   0  0  0  0  0  0  0  0  0  0  0  0
    4.5542    8.9057   21.7104 O   0  0  0  0  0  0  0  0  0  0  0  0
    6.9895    3.2085   23.0690 C   0  0  0  0  0  0  0  0  0  0  0  0
    7.8391    2.2253   22.7260 N   0  0  0  0  0  0  0  0  0  0  0  0
    8.6968    9.8373   23.6359 C   0  0  0  0  0  0  0  0  0  0  0  0
   12.5135    6.5957   21.8396 C   0  0  0  0  0  0  0  0  0  0  0  0
   10.9406    8.2330   21.1350 C   0  0  0  0  0  0  0  0  0  0  0  0
    9.6648    8.5956   21.7310 C   0  0  0  0  0  0  0  0  0  0  0  0
   10.8829    1.7153   20.9865 C   0  0  0  0  0  0  0  0  0  0  0  0
    5.7768    2.8533   23.7910 C   0  0  0  0  0  0  0  0  0  0  0  0
    9.7977    1.4791   21.6912 N   0  0  0  0  0  0  0  0  0  0  0  0
    6.5976    9.3401   22.6478 N   0  0  0  0  0  0  0  0  0  0  0  0
   11.2031    3.0042   20.6246 C   0  0  0  0  0  0  0  0  0  0  0  0
   12.8688    7.7370   22.7287 C   0  0  0  0  0  0  0  0  0  0  0  0
    7.4487    9.1361   23.6506 C   0  0  0  0  0  0  0  0  0  0  0  0
    8.9772    2.5025   22.0273 C   0  0  0  0  0  0  0  0  0  0  0  0
   10.4859    4.0901   20.9730 C   0  0  0  0  0  0  0  0  0  0  0  0
   11.0962    9.3293   23.5072 C   0  0  0  0  0  0  0  0  0  0  0  0
    5.1273    7.8529   23.6208 N   0  0  0  0  0  0  0  0  0  0  0  0
    9.7552    9.2338   23.0171 N   0  0  0  0  0  0  0  0  0  0  0  0
   11.1797    6.7591   21.3326 N   0  0  0  0  0  0  0  0  0  0  0  0
   11.7728    8.0337   23.7267 C   0  0  0  0  0  0  0  0  0  0  0  0
    7.1194    8.3344   24.6775 C   0  0  0  0  0  0  0  0  0  0  0  0
    8.4311    4.7963   22.0500 C   0  0  0  0  0  0  0  0  0  0  0  0
    8.7393   10.8706   24.1871 O   0  0  0  0  0  0  0  0  0  0  0  0
    9.3093    3.8166   21.6712 C   0  0  0  0  0  0  0  0  0  0  0  0
  1  5  1  0
  1 15  4  0
  1 22  4  0
  2 20  1  0
  2 24  1  0
  3  6  4  0
  3 27  4  0
  4 22  4  0
  4 26  4  0
  6  7  4  0
  6 13  1  0
  7 19  4  0
  8 18  1  0
  8 23  1  0
  8 28  2  0
  9 17  1  0
  9 24  1  0
 10 11  1  0
 10 24  1  0
 11 23  1  0
 12 14  4  0
 12 16  4  0
 14 19  4  0
 15 18  4  0
 16 20  4  0
 17 25  1  0
 18 26  4  0
 19 29  4  0
 20 29  4  0
 21 23  1  0
 21 25  1  0
 27 29  4  0
M  END
$$$$

 Created by Python create_sdf_string function

 29 32  0  0  0  0  0  0  0  0999 V2000
    5.4450    8.7154   22.6662 C   0  0  0  0  0  0  0  0  0  0  0  0
   10.9154    5.4574   20.5483 C   0  0  0  0  0  0  0  0  0  0  0  0
    7.2709    4.5089   22.7542 C   0  0  0  0  0  0  0  0  0  0  0  0
    5.9698    7.6329   24.6581 C   0  0  0  0  0  0  0  0  0  0  0  0
    4.5542    8.9057   21.7104 O   0  0  0  0  0  0  0  0  0  0  0  0
    6.9895    3.2085   23.0690 C   0  0  0  0  0  0  0  0  0  0  0  0
    7.8391    2.2253   22.7260 N   0  0  0  0  0  0  0  0  0  0  0  0
    8.6968    9.8373   23.6359 C   0  0  0  0  0  0  0  0  0  0  0  0
   12.5135    6.5957   21.8396 C   0  0  0  0  0  0  0  0  0  0  0  0
   10.9406    8.2330   21.1350 C   0  0  0  0  0  0  0  0  0  0  0  0
    9.6648    8.5956   21.7310 C   0  0  0  0  0  0  0  0  0  0  0  0
   10.8829    1.7153   20.9865 C   0  0  0  0  0  0  0  0  0  0  0  0
    5.7768    2.8533   23.7910 C   0  0  0  0  0  0  0  0  0  0  0  0
    9.7977    1.4791   21.6912 N   0  0  0  0  0  0  0  0  0  0  0  0
    6.5976    9.3401   22.6478 N   0  0  0  0  0  0  0  0  0  0  0  0
   11.2031    3.0042   20.6246 C   0  0  0  0  0  0  0  0  0  0  0  0
   12.8688    7.7370   22.7287 C   0  0  0  0  0  0  0  0  0  0  0  0
    7.4487    9.1361   23.6506 C   0  0  0  0  0  0  0  0  0  0  0  0
    8.9772    2.5025   22.0273 C   0  0  0  0  0  0  0  0  0  0  0  0
   10.4859    4.0901   20.9730 C   0  0  0  0  0  0  0  0  0  0  0  0
   11.0962    9.3293   23.5072 C   0  0  0  0  0  0  0  0  0  0  0  0
    5.1273    7.8529   23.6208 N   0  0  0  0  0  0  0  0  0  0  0  0
    9.7552    9.2338   23.0171 N   0  0  0  0  0  0  0  0  0  0  0  0
   11.1797    6.7591   21.3326 N   0  0  0  0  0  0  0  0  0  0  0  0
   11.7728    8.0337   23.7267 C   0  0  0  0  0  0  0  0  0  0  0  0
    7.1194    8.3344   24.6775 C   0  0  0  0  0  0  0  0  0  0  0  0
    8.4311    4.7963   22.0500 C   0  0  0  0  0  0  0  0  0  0  0  0
    8.7393   10.8706   24.1871 O   0  0  0  0  0  0  0  0  0  0  0  0
    9.3093    3.8166   21.6712 C   0  0  0  0  0  0  0  0  0  0  0  0
  1  5  1  0
  1 15  4  0
  1 22  4  0
  2 20  1  0
  2 24  1  0
  3  6  4  0
  3 27  4  0
  4 22  4  0
  4 26  4  0
  6  7  4  0
  6 13  1  0
  7 19  4  0
  8 18  1  0
  8 23  1  0
  8 28  2  0
  9 17  1  0
  9 24  1  0
 10 11  1  0
 10 24  1  0
 11 23  1  0
 12 14  4  0
 12 16  4  0
 14 19  4  0
 15 18  4  0
 16 20  4  0
 17 25  1  0
 18 26  4  0
 19 29  4  0
 20 29  4  0
 21 23  1  0
 21 25  1  0
 27 29  4  0
M  END
$$$$

 Created by Python create_sdf_string function

 29 32  0  0  0  0  0  0  0  0999 V2000
    5.4450    8.7154   22.6662 C   0  0  0  0  0  0  0  0  0  0  0  0
   10.9154    5.4574   20.5483 C   0  0  0  0  0  0  0  0  0  0  0  0
    7.2709    4.5089   22.7542 C   0  0  0  0  0  0  0  0  0  0  0  0
    5.9698    7.6329   24.6581 C   0  0  0  0  0  0  0  0  0  0  0  0
    4.5542    8.9057   21.7104 O   0  0  0  0  0  0  0  0  0  0  0  0
    6.9895    3.2085   23.0690 C   0  0  0  0  0  0  0  0  0  0  0  0
    7.8391    2.2253   22.7260 N   0  0  0  0  0  0  0  0  0  0  0  0
    8.6968    9.8373   23.6359 C   0  0  0  0  0  0  0  0  0  0  0  0
   12.5135    6.5957   21.8396 C   0  0  0  0  0  0  0  0  0  0  0  0
   10.9406    8.2330   21.1350 C   0  0  0  0  0  0  0  0  0  0  0  0
    9.6648    8.5956   21.7310 C   0  0  0  0  0  0  0  0  0  0  0  0
   10.8829    1.7153   20.9865 C   0  0  0  0  0  0  0  0  0  0  0  0
    5.7768    2.8533   23.7910 C   0  0  0  0  0  0  0  0  0  0  0  0
    9.7977    1.4791   21.6912 N   0  0  0  0  0  0  0  0  0  0  0  0
    6.5976    9.3401   22.6478 N   0  0  0  0  0  0  0  0  0  0  0  0
   11.2031    3.0042   20.6246 C   0  0  0  0  0  0  0  0  0  0  0  0
   12.8688    7.7370   22.7287 C   0  0  0  0  0  0  0  0  0  0  0  0
    7.4487    9.1361   23.6506 C   0  0  0  0  0  0  0  0  0  0  0  0
    8.9772    2.5025   22.0273 C   0  0  0  0  0  0  0  0  0  0  0  0
   10.4859    4.0901   20.9730 C   0  0  0  0  0  0  0  0  0  0  0  0
   11.0962    9.3293   23.5072 C   0  0  0  0  0  0  0  0  0  0  0  0
    5.1273    7.8529   23.6208 N   0  0  0  0  0  0  0  0  0  0  0  0
    9.7552    9.2338   23.0171 N   0  0  0  0  0  0  0  0  0  0  0  0
   11.1797    6.7591   21.3326 N   0  0  0  0  0  0  0  0  0  0  0  0
   11.7728    8.0337   23.7267 C   0  0  0  0  0  0  0  0  0  0  0  0
    7.1194    8.3344   24.6775 C   0  0  0  0  0  0  0  0  0  0  0  0
    8.4311    4.7963   22.0500 C   0  0  0  0  0  0  0  0  0  0  0  0
    8.7393   10.8706   24.1871 O   0  0  0  0  0  0  0  0  0  0  0  0
    9.3093    3.8166   21.6712 C   0  0  0  0  0  0  0  0  0  0  0  0
  1  5  1  0
  1 15  4  0
  1 22  4  0
  2 20  1  0
  2 24  1  0
  3  6  4  0
  3 27  4  0
  4 22  4  0
  4 26  4  0
  6  7  4  0
  6 13  1  0
  7 19  4  0
  8 18  1  0
  8 23  1  0
  8 28  2  0
  9 17  1  0
  9 24  1  0
 10 11  1  0
 10 24  1  0
 11 23  1  0
 12 14  4  0
 12 16  4  0
 14 19  4  0
 15 18  4  0
 16 20  4  0
 17 25  1  0
 18 26  4  0
 19 29  4  0
 20 29  4  0
 21 23  1  0
 21 25  1  0
 27 29  4  0
M  END
$$$$

 Created by Python create_sdf_string function

 29 32  0  0  0  0  0  0  0  0999 V2000
    5.4450    8.7154   22.6662 C   0  0  0  0  0  0  0  0  0  0  0  0
   10.9154    5.4574   20.5483 C   0  0  0  0  0  0  0  0  0  0  0  0
    7.2709    4.5089   22.7542 C   0  0  0  0  0  0  0  0  0  0  0  0
    5.9698    7.6329   24.6581 C   0  0  0  0  0  0  0  0  0  0  0  0
    4.5542    8.9057   21.7104 O   0  0  0  0  0  0  0  0  0  0  0  0
    6.9895    3.2085   23.0690 C   0  0  0  0  0  0  0  0  0  0  0  0
    7.8391    2.2253   22.7260 N   0  0  0  0  0  0  0  0  0  0  0  0
    8.6968    9.8373   23.6359 C   0  0  0  0  0  0  0  0  0  0  0  0
   12.5135    6.5957   21.8396 C   0  0  0  0  0  0  0  0  0  0  0  0
   10.9406    8.2330   21.1350 C   0  0  0  0  0  0  0  0  0  0  0  0
    9.6648    8.5956   21.7310 C   0  0  0  0  0  0  0  0  0  0  0  0
   10.8829    1.7153   20.9865 C   0  0  0  0  0  0  0  0  0  0  0  0
    5.7768    2.8533   23.7910 C   0  0  0  0  0  0  0  0  0  0  0  0
    9.7977    1.4791   21.6912 N   0  0  0  0  0  0  0  0  0  0  0  0
    6.5976    9.3401   22.6478 N   0  0  0  0  0  0  0  0  0  0  0  0
   11.2031    3.0042   20.6246 C   0  0  0  0  0  0  0  0  0  0  0  0
   12.8688    7.7370   22.7287 C   0  0  0  0  0  0  0  0  0  0  0  0
    7.4487    9.1361   23.6506 C   0  0  0  0  0  0  0  0  0  0  0  0
    8.9772    2.5025   22.0273 C   0  0  0  0  0  0  0  0  0  0  0  0
   10.4859    4.0901   20.9730 C   0  0  0  0  0  0  0  0  0  0  0  0
   11.0962    9.3293   23.5072 C   0  0  0  0  0  0  0  0  0  0  0  0
    5.1273    7.8529   23.6208 N   0  0  0  0  0  0  0  0  0  0  0  0
    9.7552    9.2338   23.0171 N   0  0  0  0  0  0  0  0  0  0  0  0
   11.1797    6.7591   21.3326 N   0  0  0  0  0  0  0  0  0  0  0  0
   11.7728    8.0337   23.7267 C   0  0  0  0  0  0  0  0  0  0  0  0
    7.1194    8.3344   24.6775 C   0  0  0  0  0  0  0  0  0  0  0  0
    8.4311    4.7963   22.0500 C   0  0  0  0  0  0  0  0  0  0  0  0
    8.7393   10.8706   24.1871 O   0  0  0  0  0  0  0  0  0  0  0  0
    9.3093    3.8166   21.6712 C   0  0  0  0  0  0  0  0  0  0  0  0
  1  5  1  0
  1 15  4  0
  1 22  4  0
  2 20  1  0
  2 24  1  0
  3  6  4  0
  3 27  4  0
  4 22  4  0
  4 26  4  0
  6  7  4  0
  6 13  1  0
  7 19  4  0
  8 18  1  0
  8 23  1  0
  8 28  2  0
  9 17  1  0
  9 24  1  0
 10 11  1  0
 10 24  1  0
 11 23  1  0
 12 14  4  0
 12 16  4  0
 14 19  4  0
 15 18  4  0
 16 20  4  0
 17 25  1  0
 18 26  4  0
 19 29  4  0
 20 29  4  0
 21 23  1  0
 21 25  1  0
 27 29  4  0
M  END
$$$$

 Created by Python create_sdf_string function

 29 32  0  0  0  0  0  0  0  0999 V2000
    5.4450    8.7154   22.6662 C   0  0  0  0  0  0  0  0  0  0  0  0
   10.9154    5.4574   20.5483 C   0  0  0  0  0  0  0  0  0  0  0  0
    7.2709    4.5089   22.7542 C   0  0  0  0  0  0  0  0  0  0  0  0
    5.9698    7.6329   24.6581 C   0  0  0  0  0  0  0  0  0  0  0  0
    4.5542    8.9057   21.7104 O   0  0  0  0  0  0  0  0  0  0  0  0
    6.9895    3.2085   23.0690 C   0  0  0  0  0  0  0  0  0  0  0  0
    7.8391    2.2253   22.7260 N   0  0  0  0  0  0  0  0  0  0  0  0
    8.6968    9.8373   23.6359 C   0  0  0  0  0  0  0  0  0  0  0  0
   12.5135    6.5957   21.8396 C   0  0  0  0  0  0  0  0  0  0  0  0
   10.9406    8.2330   21.1350 C   0  0  0  0  0  0  0  0  0  0  0  0
    9.6648    8.5956   21.7310 C   0  0  0  0  0  0  0  0  0  0  0  0
   10.8829    1.7153   20.9865 C   0  0  0  0  0  0  0  0  0  0  0  0
    5.7768    2.8533   23.7910 C   0  0  0  0  0  0  0  0  0  0  0  0
    9.7977    1.4791   21.6912 N   0  0  0  0  0  0  0  0  0  0  0  0
    6.5976    9.3401   22.6478 N   0  0  0  0  0  0  0  0  0  0  0  0
   11.2031    3.0042   20.6246 C   0  0  0  0  0  0  0  0  0  0  0  0
   12.8688    7.7370   22.7287 C   0  0  0  0  0  0  0  0  0  0  0  0
    7.4487    9.1361   23.6506 C   0  0  0  0  0  0  0  0  0  0  0  0
    8.9772    2.5025   22.0273 C   0  0  0  0  0  0  0  0  0  0  0  0
   10.4859    4.0901   20.9730 C   0  0  0  0  0  0  0  0  0  0  0  0
   11.0962    9.3293   23.5072 C   0  0  0  0  0  0  0  0  0  0  0  0
    5.1273    7.8529   23.6208 N   0  0  0  0  0  0  0  0  0  0  0  0
    9.7552    9.2338   23.0171 N   0  0  0  0  0  0  0  0  0  0  0  0
   11.1797    6.7591   21.3326 N   0  0  0  0  0  0  0  0  0  0  0  0
   11.7728    8.0337   23.7267 C   0  0  0  0  0  0  0  0  0  0  0  0
    7.1194    8.3344   24.6775 C   0  0  0  0  0  0  0  0  0  0  0  0
    8.4311    4.7963   22.0500 C   0  0  0  0  0  0  0  0  0  0  0  0
    8.7393   10.8706   24.1871 O   0  0  0  0  0  0  0  0  0  0  0  0
    9.3093    3.8166   21.6712 C   0  0  0  0  0  0  0  0  0  0  0  0
  1  5  1  0
  1 15  4  0
  1 22  4  0
  2 20  1  0
  2 24  1  0
  3  6  4  0
  3 27  4  0
  4 22  4  0
  4 26  4  0
  6  7  4  0
  6 13  1  0
  7 19  4  0
  8 18  1  0
  8 23  1  0
  8 28  2  0
  9 17  1  0
  9 24  1  0
 10 11  1  0
 10 24  1  0
 11 23  1  0
 12 14  4  0
 12 16  4  0
 14 19  4  0
 15 18  4  0
 16 20  4  0
 17 25  1  0
 18 26  4  0
 19 29  4  0
 20 29  4  0
 21 23  1  0
 21 25  1  0
 27 29  4  0
M  END
$$$$

 Created by Python create_sdf_string function

 29 32  0  0  0  0  0  0  0  0999 V2000
    5.4450    8.7154   22.6662 C   0  0  0  0  0  0  0  0  0  0  0  0
   10.9154    5.4574   20.5483 C   0  0  0  0  0  0  0  0  0  0  0  0
    7.2709    4.5089   22.7542 C   0  0  0  0  0  0  0  0  0  0  0  0
    5.9698    7.6329   24.6581 C   0  0  0  0  0  0  0  0  0  0  0  0
    4.5542    8.9057   21.7104 O   0  0  0  0  0  0  0  0  0  0  0  0
    6.9895    3.2085   23.0690 C   0  0  0  0  0  0  0  0  0  0  0  0
    7.8391    2.2253   22.7260 N   0  0  0  0  0  0  0  0  0  0  0  0
    8.6968    9.8373   23.6359 C   0  0  0  0  0  0  0  0  0  0  0  0
   12.5135    6.5957   21.8396 C   0  0  0  0  0  0  0  0  0  0  0  0
   10.9406    8.2330   21.1350 C   0  0  0  0  0  0  0  0  0  0  0  0
    9.6648    8.5956   21.7310 C   0  0  0  0  0  0  0  0  0  0  0  0
   10.8829    1.7153   20.9865 C   0  0  0  0  0  0  0  0  0  0  0  0
    5.7768    2.8533   23.7910 C   0  0  0  0  0  0  0  0  0  0  0  0
    9.7977    1.4791   21.6912 N   0  0  0  0  0  0  0  0  0  0  0  0
    6.5976    9.3401   22.6478 N   0  0  0  0  0  0  0  0  0  0  0  0
   11.2031    3.0042   20.6246 C   0  0  0  0  0  0  0  0  0  0  0  0
   12.8688    7.7370   22.7287 C   0  0  0  0  0  0  0  0  0  0  0  0
    7.4487    9.1361   23.6506 C   0  0  0  0  0  0  0  0  0  0  0  0
    8.9772    2.5025   22.0273 C   0  0  0  0  0  0  0  0  0  0  0  0
   10.4859    4.0901   20.9730 C   0  0  0  0  0  0  0  0  0  0  0  0
   11.0962    9.3293   23.5072 C   0  0  0  0  0  0  0  0  0  0  0  0
    5.1273    7.8529   23.6208 N   0  0  0  0  0  0  0  0  0  0  0  0
    9.7552    9.2338   23.0171 N   0  0  0  0  0  0  0  0  0  0  0  0
   11.1797    6.7591   21.3326 N   0  0  0  0  0  0  0  0  0  0  0  0
   11.7728    8.0337   23.7267 C   0  0  0  0  0  0  0  0  0  0  0  0
    7.1194    8.3344   24.6775 C   0  0  0  0  0  0  0  0  0  0  0  0
    8.4311    4.7963   22.0500 C   0  0  0  0  0  0  0  0  0  0  0  0
    8.7393   10.8706   24.1871 O   0  0  0  0  0  0  0  0  0  0  0  0
    9.3093    3.8166   21.6712 C   0  0  0  0  0  0  0  0  0  0  0  0
  1  5  1  0
  1 15  4  0
  1 22  4  0
  2 20  1  0
  2 24  1  0
  3  6  4  0
  3 27  4  0
  4 22  4  0
  4 26  4  0
  6  7  4  0
  6 13  1  0
  7 19  4  0
  8 18  1  0
  8 23  1  0
  8 28  2  0
  9 17  1  0
  9 24  1  0
 10 11  1  0
 10 24  1  0
 11 23  1  0
 12 14  4  0
 12 16  4  0
 14 19  4  0
 15 18  4  0
 16 20  4  0
 17 25  1  0
 18 26  4  0
 19 29  4  0
 20 29  4  0
 21 23  1  0
 21 25  1  0
 27 29  4  0
M  END
$$$$

 Created by Python create_sdf_string function

 29 32  0  0  0  0  0  0  0  0999 V2000
    5.4450    8.7154   22.6662 C   0  0  0  0  0  0  0  0  0  0  0  0
   10.9154    5.4574   20.5483 C   0  0  0  0  0  0  0  0  0  0  0  0
    7.2709    4.5089   22.7542 C   0  0  0  0  0  0  0  0  0  0  0  0
    5.9698    7.6329   24.6581 C   0  0  0  0  0  0  0  0  0  0  0  0
    4.5542    8.9057   21.7104 O   0  0  0  0  0  0  0  0  0  0  0  0
    6.9895    3.2085   23.0690 C   0  0  0  0  0  0  0  0  0  0  0  0
    7.8391    2.2253   22.7260 N   0  0  0  0  0  0  0  0  0  0  0  0
    8.6968    9.8373   23.6359 C   0  0  0  0  0  0  0  0  0  0  0  0
   12.5135    6.5957   21.8396 C   0  0  0  0  0  0  0  0  0  0  0  0
   10.9406    8.2330   21.1350 C   0  0  0  0  0  0  0  0  0  0  0  0
    9.6648    8.5956   21.7310 C   0  0  0  0  0  0  0  0  0  0  0  0
   10.8829    1.7153   20.9865 C   0  0  0  0  0  0  0  0  0  0  0  0
    5.7768    2.8533   23.7910 C   0  0  0  0  0  0  0  0  0  0  0  0
    9.7977    1.4791   21.6912 N   0  0  0  0  0  0  0  0  0  0  0  0
    6.5976    9.3401   22.6478 N   0  0  0  0  0  0  0  0  0  0  0  0
   11.2031    3.0042   20.6246 C   0  0  0  0  0  0  0  0  0  0  0  0
   12.8688    7.7370   22.7287 C   0  0  0  0  0  0  0  0  0  0  0  0
    7.4487    9.1361   23.6506 C   0  0  0  0  0  0  0  0  0  0  0  0
    8.9772    2.5025   22.0273 C   0  0  0  0  0  0  0  0  0  0  0  0
   10.4859    4.0901   20.9730 C   0  0  0  0  0  0  0  0  0  0  0  0
   11.0962    9.3293   23.5072 C   0  0  0  0  0  0  0  0  0  0  0  0
    5.1273    7.8529   23.6208 N   0  0  0  0  0  0  0  0  0  0  0  0
    9.7552    9.2338   23.0171 N   0  0  0  0  0  0  0  0  0  0  0  0
   11.1797    6.7591   21.3326 N   0  0  0  0  0  0  0  0  0  0  0  0
   11.7728    8.0337   23.7267 C   0  0  0  0  0  0  0  0  0  0  0  0
    7.1194    8.3344   24.6775 C   0  0  0  0  0  0  0  0  0  0  0  0
    8.4311    4.7963   22.0500 C   0  0  0  0  0  0  0  0  0  0  0  0
    8.7393   10.8706   24.1871 O   0  0  0  0  0  0  0  0  0  0  0  0
    9.3093    3.8166   21.6712 C   0  0  0  0  0  0  0  0  0  0  0  0
  1  5  1  0
  1 15  4  0
  1 22  4  0
  2 20  1  0
  2 24  1  0
  3  6  4  0
  3 27  4  0
  4 22  4  0
  4 26  4  0
  6  7  4  0
  6 13  1  0
  7 19  4  0
  8 18  1  0
  8 23  1  0
  8 28  2  0
  9 17  1  0
  9 24  1  0
 10 11  1  0
 10 24  1  0
 11 23  1  0
 12 14  4  0
 12 16  4  0
 14 19  4  0
 15 18  4  0
 16 20  4  0
 17 25  1  0
 18 26  4  0
 19 29  4  0
 20 29  4  0
 21 23  1  0
 21 25  1  0
 27 29  4  0
M  END
$$$$

 Created by Python create_sdf_string function

 29 32  0  0  0  0  0  0  0  0999 V2000
    5.4450    8.7154   22.6662 C   0  0  0  0  0  0  0  0  0  0  0  0
   10.9154    5.4574   20.5483 C   0  0  0  0  0  0  0  0  0  0  0  0
    7.2709    4.5089   22.7542 C   0  0  0  0  0  0  0  0  0  0  0  0
    5.9698    7.6329   24.6581 C   0  0  0  0  0  0  0  0  0  0  0  0
    4.5542    8.9057   21.7104 O   0  0  0  0  0  0  0  0  0  0  0  0
    6.9895    3.2085   23.0690 C   0  0  0  0  0  0  0  0  0  0  0  0
    7.8391    2.2253   22.7260 N   0  0  0  0  0  0  0  0  0  0  0  0
    8.6968    9.8373   23.6359 C   0  0  0  0  0  0  0  0  0  0  0  0
   12.5135    6.5957   21.8396 C   0  0  0  0  0  0  0  0  0  0  0  0
   10.9406    8.2330   21.1350 C   0  0  0  0  0  0  0  0  0  0  0  0
    9.6648    8.5956   21.7310 C   0  0  0  0  0  0  0  0  0  0  0  0
   10.8829    1.7153   20.9865 C   0  0  0  0  0  0  0  0  0  0  0  0
    5.7768    2.8533   23.7910 C   0  0  0  0  0  0  0  0  0  0  0  0
    9.7977    1.4791   21.6912 N   0  0  0  0  0  0  0  0  0  0  0  0
    6.5976    9.3401   22.6478 N   0  0  0  0  0  0  0  0  0  0  0  0
   11.2031    3.0042   20.6246 C   0  0  0  0  0  0  0  0  0  0  0  0
   12.8688    7.7370   22.7287 C   0  0  0  0  0  0  0  0  0  0  0  0
    7.4487    9.1361   23.6506 C   0  0  0  0  0  0  0  0  0  0  0  0
    8.9772    2.5025   22.0273 C   0  0  0  0  0  0  0  0  0  0  0  0
   10.4859    4.0901   20.9730 C   0  0  0  0  0  0  0  0  0  0  0  0
   11.0962    9.3293   23.5072 C   0  0  0  0  0  0  0  0  0  0  0  0
    5.1273    7.8529   23.6208 N   0  0  0  0  0  0  0  0  0  0  0  0
    9.7552    9.2338   23.0171 N   0  0  0  0  0  0  0  0  0  0  0  0
   11.1797    6.7591   21.3326 N   0  0  0  0  0  0  0  0  0  0  0  0
   11.7728    8.0337   23.7267 C   0  0  0  0  0  0  0  0  0  0  0  0
    7.1194    8.3344   24.6775 C   0  0  0  0  0  0  0  0  0  0  0  0
    8.4311    4.7963   22.0500 C   0  0  0  0  0  0  0  0  0  0  0  0
    8.7393   10.8706   24.1871 O   0  0  0  0  0  0  0  0  0  0  0  0
    9.3093    3.8166   21.6712 C   0  0  0  0  0  0  0  0  0  0  0  0
  1  5  1  0
  1 15  4  0
  1 22  4  0
  2 20  1  0
  2 24  1  0
  3  6  4  0
  3 27  4  0
  4 22  4  0
  4 26  4  0
  6  7  4  0
  6 13  1  0
  7 19  4  0
  8 18  1  0
  8 23  1  0
  8 28  2  0
  9 17  1  0
  9 24  1  0
 10 11  1  0
 10 24  1  0
 11 23  1  0
 12 14  4  0
 12 16  4  0
 14 19  4  0
 15 18  4  0
 16 20  4  0
 17 25  1  0
 18 26  4  0
 19 29  4  0
 20 29  4  0
 21 23  1  0
 21 25  1  0
 27 29  4  0
M  END
$$$$

 Created by Python create_sdf_string function

 29 32  0  0  0  0  0  0  0  0999 V2000
    5.4450    8.7154   22.6662 C   0  0  0  0  0  0  0  0  0  0  0  0
   10.9154    5.4574   20.5483 C   0  0  0  0  0  0  0  0  0  0  0  0
    7.2709    4.5089   22.7542 C   0  0  0  0  0  0  0  0  0  0  0  0
    5.9698    7.6329   24.6581 C   0  0  0  0  0  0  0  0  0  0  0  0
    4.5542    8.9057   21.7104 O   0  0  0  0  0  0  0  0  0  0  0  0
    6.9895    3.2085   23.0690 C   0  0  0  0  0  0  0  0  0  0  0  0
    7.8391    2.2253   22.7260 N   0  0  0  0  0  0  0  0  0  0  0  0
    8.6968    9.8373   23.6359 C   0  0  0  0  0  0  0  0  0  0  0  0
   12.5135    6.5957   21.8396 C   0  0  0  0  0  0  0  0  0  0  0  0
   10.9406    8.2330   21.1350 C   0  0  0  0  0  0  0  0  0  0  0  0
    9.6648    8.5956   21.7310 C   0  0  0  0  0  0  0  0  0  0  0  0
   10.8829    1.7153   20.9865 C   0  0  0  0  0  0  0  0  0  0  0  0
    5.7768    2.8533   23.7910 C   0  0  0  0  0  0  0  0  0  0  0  0
    9.7977    1.4791   21.6912 N   0  0  0  0  0  0  0  0  0  0  0  0
    6.5976    9.3401   22.6478 N   0  0  0  0  0  0  0  0  0  0  0  0
   11.2031    3.0042   20.6246 C   0  0  0  0  0  0  0  0  0  0  0  0
   12.8688    7.7370   22.7287 C   0  0  0  0  0  0  0  0  0  0  0  0
    7.4487    9.1361   23.6506 C   0  0  0  0  0  0  0  0  0  0  0  0
    8.9772    2.5025   22.0273 C   0  0  0  0  0  0  0  0  0  0  0  0
   10.4859    4.0901   20.9730 C   0  0  0  0  0  0  0  0  0  0  0  0
   11.0962    9.3293   23.5072 C   0  0  0  0  0  0  0  0  0  0  0  0
    5.1273    7.8529   23.6208 N   0  0  0  0  0  0  0  0  0  0  0  0
    9.7552    9.2338   23.0171 N   0  0  0  0  0  0  0  0  0  0  0  0
   11.1797    6.7591   21.3326 N   0  0  0  0  0  0  0  0  0  0  0  0
   11.7728    8.0337   23.7267 C   0  0  0  0  0  0  0  0  0  0  0  0
    7.1194    8.3344   24.6775 C   0  0  0  0  0  0  0  0  0  0  0  0
    8.4311    4.7963   22.0500 C   0  0  0  0  0  0  0  0  0  0  0  0
    8.7393   10.8706   24.1871 O   0  0  0  0  0  0  0  0  0  0  0  0
    9.3093    3.8166   21.6712 C   0  0  0  0  0  0  0  0  0  0  0  0
  1  5  1  0
  1 15  4  0
  1 22  4  0
  2 20  1  0
  2 24  1  0
  3  6  4  0
  3 27  4  0
  4 22  4  0
  4 26  4  0
  6  7  4  0
  6 13  1  0
  7 19  4  0
  8 18  1  0
  8 23  1  0
  8 28  2  0
  9 17  1  0
  9 24  1  0
 10 11  1  0
 10 24  1  0
 11 23  1  0
 12 14  4  0
 12 16  4  0
 14 19  4  0
 15 18  4  0
 16 20  4  0
 17 25  1  0
 18 26  4  0
 19 29  4  0
 20 29  4  0
 21 23  1  0
 21 25  1  0
 27 29  4  0
M  END
$$$$

 Created by Python create_sdf_string function

 29 32  0  0  0  0  0  0  0  0999 V2000
    5.4450    8.7154   22.6662 C   0  0  0  0  0  0  0  0  0  0  0  0
   10.9154    5.4574   20.5483 C   0  0  0  0  0  0  0  0  0  0  0  0
    7.2709    4.5089   22.7542 C   0  0  0  0  0  0  0  0  0  0  0  0
    5.9698    7.6329   24.6581 C   0  0  0  0  0  0  0  0  0  0  0  0
    4.5542    8.9057   21.7104 O   0  0  0  0  0  0  0  0  0  0  0  0
    6.9895    3.2085   23.0690 C   0  0  0  0  0  0  0  0  0  0  0  0
    7.8391    2.2253   22.7260 N   0  0  0  0  0  0  0  0  0  0  0  0
    8.6968    9.8373   23.6359 C   0  0  0  0  0  0  0  0  0  0  0  0
   12.5135    6.5957   21.8396 C   0  0  0  0  0  0  0  0  0  0  0  0
   10.9406    8.2330   21.1350 C   0  0  0  0  0  0  0  0  0  0  0  0
    9.6648    8.5956   21.7310 C   0  0  0  0  0  0  0  0  0  0  0  0
   10.8829    1.7153   20.9865 C   0  0  0  0  0  0  0  0  0  0  0  0
    5.7768    2.8533   23.7910 C   0  0  0  0  0  0  0  0  0  0  0  0
    9.7977    1.4791   21.6912 N   0  0  0  0  0  0  0  0  0  0  0  0
    6.5976    9.3401   22.6478 N   0  0  0  0  0  0  0  0  0  0  0  0
   11.2031    3.0042   20.6246 C   0  0  0  0  0  0  0  0  0  0  0  0
   12.8688    7.7370   22.7287 C   0  0  0  0  0  0  0  0  0  0  0  0
    7.4487    9.1361   23.6506 C   0  0  0  0  0  0  0  0  0  0  0  0
    8.9772    2.5025   22.0273 C   0  0  0  0  0  0  0  0  0  0  0  0
   10.4859    4.0901   20.9730 C   0  0  0  0  0  0  0  0  0  0  0  0
   11.0962    9.3293   23.5072 C   0  0  0  0  0  0  0  0  0  0  0  0
    5.1273    7.8529   23.6208 N   0  0  0  0  0  0  0  0  0  0  0  0
    9.7552    9.2338   23.0171 N   0  0  0  0  0  0  0  0  0  0  0  0
   11.1797    6.7591   21.3326 N   0  0  0  0  0  0  0  0  0  0  0  0
   11.7728    8.0337   23.7267 C   0  0  0  0  0  0  0  0  0  0  0  0
    7.1194    8.3344   24.6775 C   0  0  0  0  0  0  0  0  0  0  0  0
    8.4311    4.7963   22.0500 C   0  0  0  0  0  0  0  0  0  0  0  0
    8.7393   10.8706   24.1871 O   0  0  0  0  0  0  0  0  0  0  0  0
    9.3093    3.8166   21.6712 C   0  0  0  0  0  0  0  0  0  0  0  0
  1  5  1  0
  1 15  4  0
  1 22  4  0
  2 20  1  0
  2 24  1  0
  3  6  4  0
  3 27  4  0
  4 22  4  0
  4 26  4  0
  6  7  4  0
  6 13  1  0
  7 19  4  0
  8 18  1  0
  8 23  1  0
  8 28  2  0
  9 17  1  0
  9 24  1  0
 10 11  1  0
 10 24  1  0
 11 23  1  0
 12 14  4  0
 12 16  4  0
 14 19  4  0
 15 18  4  0
 16 20  4  0
 17 25  1  0
 18 26  4  0
 19 29  4  0
 20 29  4  0
 21 23  1  0
 21 25  1  0
 27 29  4  0
M  END
$$$$

 Created by Python create_sdf_string function

 29 32  0  0  0  0  0  0  0  0999 V2000
    5.4450    8.7154   22.6662 C   0  0  0  0  0  0  0  0  0  0  0  0
   10.9154    5.4574   20.5483 C   0  0  0  0  0  0  0  0  0  0  0  0
    7.2709    4.5089   22.7542 C   0  0  0  0  0  0  0  0  0  0  0  0
    5.9698    7.6329   24.6581 C   0  0  0  0  0  0  0  0  0  0  0  0
    4.5542    8.9057   21.7104 O   0  0  0  0  0  0  0  0  0  0  0  0
    6.9895    3.2085   23.0690 C   0  0  0  0  0  0  0  0  0  0  0  0
    7.8391    2.2253   22.7260 N   0  0  0  0  0  0  0  0  0  0  0  0
    8.6968    9.8373   23.6359 C   0  0  0  0  0  0  0  0  0  0  0  0
   12.5135    6.5957   21.8396 C   0  0  0  0  0  0  0  0  0  0  0  0
   10.9406    8.2330   21.1350 C   0  0  0  0  0  0  0  0  0  0  0  0
    9.6648    8.5956   21.7310 C   0  0  0  0  0  0  0  0  0  0  0  0
   10.8829    1.7153   20.9865 C   0  0  0  0  0  0  0  0  0  0  0  0
    5.7768    2.8533   23.7910 C   0  0  0  0  0  0  0  0  0  0  0  0
    9.7977    1.4791   21.6912 N   0  0  0  0  0  0  0  0  0  0  0  0
    6.5976    9.3401   22.6478 N   0  0  0  0  0  0  0  0  0  0  0  0
   11.2031    3.0042   20.6246 C   0  0  0  0  0  0  0  0  0  0  0  0
   12.8688    7.7370   22.7287 C   0  0  0  0  0  0  0  0  0  0  0  0
    7.4487    9.1361   23.6506 C   0  0  0  0  0  0  0  0  0  0  0  0
    8.9772    2.5025   22.0273 C   0  0  0  0  0  0  0  0  0  0  0  0
   10.4859    4.0901   20.9730 C   0  0  0  0  0  0  0  0  0  0  0  0
   11.0962    9.3293   23.5072 C   0  0  0  0  0  0  0  0  0  0  0  0
    5.1273    7.8529   23.6208 N   0  0  0  0  0  0  0  0  0  0  0  0
    9.7552    9.2338   23.0171 N   0  0  0  0  0  0  0  0  0  0  0  0
   11.1797    6.7591   21.3326 N   0  0  0  0  0  0  0  0  0  0  0  0
   11.7728    8.0337   23.7267 C   0  0  0  0  0  0  0  0  0  0  0  0
    7.1194    8.3344   24.6775 C   0  0  0  0  0  0  0  0  0  0  0  0
    8.4311    4.7963   22.0500 C   0  0  0  0  0  0  0  0  0  0  0  0
    8.7393   10.8706   24.1871 O   0  0  0  0  0  0  0  0  0  0  0  0
    9.3093    3.8166   21.6712 C   0  0  0  0  0  0  0  0  0  0  0  0
  1  5  1  0
  1 15  4  0
  1 22  4  0
  2 20  1  0
  2 24  1  0
  3  6  4  0
  3 27  4  0
  4 22  4  0
  4 26  4  0
  6  7  4  0
  6 13  1  0
  7 19  4  0
  8 18  1  0
  8 23  1  0
  8 28  2  0
  9 17  1  0
  9 24  1  0
 10 11  1  0
 10 24  1  0
 11 23  1  0
 12 14  4  0
 12 16  4  0
 14 19  4  0
 15 18  4  0
 16 20  4  0
 17 25  1  0
 18 26  4  0
 19 29  4  0
 20 29  4  0
 21 23  1  0
 21 25  1  0
 27 29  4  0
M  END
$$$$

 Created by Python create_sdf_string function

 29 32  0  0  0  0  0  0  0  0999 V2000
    5.4450    8.7154   22.6662 C   0  0  0  0  0  0  0  0  0  0  0  0
   10.9154    5.4574   20.5483 C   0  0  0  0  0  0  0  0  0  0  0  0
    7.2709    4.5089   22.7542 C   0  0  0  0  0  0  0  0  0  0  0  0
    5.9698    7.6329   24.6581 C   0  0  0  0  0  0  0  0  0  0  0  0
    4.5542    8.9057   21.7104 O   0  0  0  0  0  0  0  0  0  0  0  0
    6.9895    3.2085   23.0690 C   0  0  0  0  0  0  0  0  0  0  0  0
    7.8391    2.2253   22.7260 N   0  0  0  0  0  0  0  0  0  0  0  0
    8.6968    9.8373   23.6359 C   0  0  0  0  0  0  0  0  0  0  0  0
   12.5135    6.5957   21.8396 C   0  0  0  0  0  0  0  0  0  0  0  0
   10.9406    8.2330   21.1350 C   0  0  0  0  0  0  0  0  0  0  0  0
    9.6648    8.5956   21.7310 C   0  0  0  0  0  0  0  0  0  0  0  0
   10.8829    1.7153   20.9865 C   0  0  0  0  0  0  0  0  0  0  0  0
    5.7768    2.8533   23.7910 C   0  0  0  0  0  0  0  0  0  0  0  0
    9.7977    1.4791   21.6912 N   0  0  0  0  0  0  0  0  0  0  0  0
    6.5976    9.3401   22.6478 N   0  0  0  0  0  0  0  0  0  0  0  0
   11.2031    3.0042   20.6246 C   0  0  0  0  0  0  0  0  0  0  0  0
   12.8688    7.7370   22.7287 C   0  0  0  0  0  0  0  0  0  0  0  0
    7.4487    9.1361   23.6506 C   0  0  0  0  0  0  0  0  0  0  0  0
    8.9772    2.5025   22.0273 C   0  0  0  0  0  0  0  0  0  0  0  0
   10.4859    4.0901   20.9730 C   0  0  0  0  0  0  0  0  0  0  0  0
   11.0962    9.3293   23.5072 C   0  0  0  0  0  0  0  0  0  0  0  0
    5.1273    7.8529   23.6208 N   0  0  0  0  0  0  0  0  0  0  0  0
    9.7552    9.2338   23.0171 N   0  0  0  0  0  0  0  0  0  0  0  0
   11.1797    6.7591   21.3326 N   0  0  0  0  0  0  0  0  0  0  0  0
   11.7728    8.0337   23.7267 C   0  0  0  0  0  0  0  0  0  0  0  0
    7.1194    8.3344   24.6775 C   0  0  0  0  0  0  0  0  0  0  0  0
    8.4311    4.7963   22.0500 C   0  0  0  0  0  0  0  0  0  0  0  0
    8.7393   10.8706   24.1871 O   0  0  0  0  0  0  0  0  0  0  0  0
    9.3093    3.8166   21.6712 C   0  0  0  0  0  0  0  0  0  0  0  0
  1  5  1  0
  1 15  4  0
  1 22  4  0
  2 20  1  0
  2 24  1  0
  3  6  4  0
  3 27  4  0
  4 22  4  0
  4 26  4  0
  6  7  4  0
  6 13  1  0
  7 19  4  0
  8 18  1  0
  8 23  1  0
  8 28  2  0
  9 17  1  0
  9 24  1  0
 10 11  1  0
 10 24  1  0
 11 23  1  0
 12 14  4  0
 12 16  4  0
 14 19  4  0
 15 18  4  0
 16 20  4  0
 17 25  1  0
 18 26  4  0
 19 29  4  0
 20 29  4  0
 21 23  1  0
 21 25  1  0
 27 29  4  0
M  END
$$$$

 Created by Python create_sdf_string function

 29 32  0  0  0  0  0  0  0  0999 V2000
    5.4450    8.7154   22.6662 C   0  0  0  0  0  0  0  0  0  0  0  0
   10.9154    5.4574   20.5483 C   0  0  0  0  0  0  0  0  0  0  0  0
    7.2709    4.5089   22.7542 C   0  0  0  0  0  0  0  0  0  0  0  0
    5.9698    7.6329   24.6581 C   0  0  0  0  0  0  0  0  0  0  0  0
    4.5542    8.9057   21.7104 O   0  0  0  0  0  0  0  0  0  0  0  0
    6.9895    3.2085   23.0690 C   0  0  0  0  0  0  0  0  0  0  0  0
    7.8391    2.2253   22.7260 N   0  0  0  0  0  0  0  0  0  0  0  0
    8.6968    9.8373   23.6359 C   0  0  0  0  0  0  0  0  0  0  0  0
   12.5135    6.5957   21.8396 C   0  0  0  0  0  0  0  0  0  0  0  0
   10.9406    8.2330   21.1350 C   0  0  0  0  0  0  0  0  0  0  0  0
    9.6648    8.5956   21.7310 C   0  0  0  0  0  0  0  0  0  0  0  0
   10.8829    1.7153   20.9865 C   0  0  0  0  0  0  0  0  0  0  0  0
    5.7768    2.8533   23.7910 C   0  0  0  0  0  0  0  0  0  0  0  0
    9.7977    1.4791   21.6912 N   0  0  0  0  0  0  0  0  0  0  0  0
    6.5976    9.3401   22.6478 N   0  0  0  0  0  0  0  0  0  0  0  0
   11.2031    3.0042   20.6246 C   0  0  0  0  0  0  0  0  0  0  0  0
   12.8688    7.7370   22.7287 C   0  0  0  0  0  0  0  0  0  0  0  0
    7.4487    9.1361   23.6506 C   0  0  0  0  0  0  0  0  0  0  0  0
    8.9772    2.5025   22.0273 C   0  0  0  0  0  0  0  0  0  0  0  0
   10.4859    4.0901   20.9730 C   0  0  0  0  0  0  0  0  0  0  0  0
   11.0962    9.3293   23.5072 C   0  0  0  0  0  0  0  0  0  0  0  0
    5.1273    7.8529   23.6208 N   0  0  0  0  0  0  0  0  0  0  0  0
    9.7552    9.2338   23.0171 N   0  0  0  0  0  0  0  0  0  0  0  0
   11.1797    6.7591   21.3326 N   0  0  0  0  0  0  0  0  0  0  0  0
   11.7728    8.0337   23.7267 C   0  0  0  0  0  0  0  0  0  0  0  0
    7.1194    8.3344   24.6775 C   0  0  0  0  0  0  0  0  0  0  0  0
    8.4311    4.7963   22.0500 C   0  0  0  0  0  0  0  0  0  0  0  0
    8.7393   10.8706   24.1871 O   0  0  0  0  0  0  0  0  0  0  0  0
    9.3093    3.8166   21.6712 C   0  0  0  0  0  0  0  0  0  0  0  0
  1  5  1  0
  1 15  4  0
  1 22  4  0
  2 20  1  0
  2 24  1  0
  3  6  4  0
  3 27  4  0
  4 22  4  0
  4 26  4  0
  6  7  4  0
  6 13  1  0
  7 19  4  0
  8 18  1  0
  8 23  1  0
  8 28  2  0
  9 17  1  0
  9 24  1  0
 10 11  1  0
 10 24  1  0
 11 23  1  0
 12 14  4  0
 12 16  4  0
 14 19  4  0
 15 18  4  0
 16 20  4  0
 17 25  1  0
 18 26  4  0
 19 29  4  0
 20 29  4  0
 21 23  1  0
 21 25  1  0
 27 29  4  0
M  END
$$$$

 Created by Python create_sdf_string function

 29 32  0  0  0  0  0  0  0  0999 V2000
    5.4450    8.7154   22.6662 C   0  0  0  0  0  0  0  0  0  0  0  0
   10.9154    5.4574   20.5483 C   0  0  0  0  0  0  0  0  0  0  0  0
    7.2709    4.5089   22.7542 C   0  0  0  0  0  0  0  0  0  0  0  0
    5.9698    7.6329   24.6581 C   0  0  0  0  0  0  0  0  0  0  0  0
    4.5542    8.9057   21.7104 O   0  0  0  0  0  0  0  0  0  0  0  0
    6.9895    3.2085   23.0690 C   0  0  0  0  0  0  0  0  0  0  0  0
    7.8391    2.2253   22.7260 N   0  0  0  0  0  0  0  0  0  0  0  0
    8.6968    9.8373   23.6359 C   0  0  0  0  0  0  0  0  0  0  0  0
   12.5135    6.5957   21.8396 C   0  0  0  0  0  0  0  0  0  0  0  0
   10.9406    8.2330   21.1350 C   0  0  0  0  0  0  0  0  0  0  0  0
    9.6648    8.5956   21.7310 C   0  0  0  0  0  0  0  0  0  0  0  0
   10.8829    1.7153   20.9865 C   0  0  0  0  0  0  0  0  0  0  0  0
    5.7768    2.8533   23.7910 C   0  0  0  0  0  0  0  0  0  0  0  0
    9.7977    1.4791   21.6912 N   0  0  0  0  0  0  0  0  0  0  0  0
    6.5976    9.3401   22.6478 N   0  0  0  0  0  0  0  0  0  0  0  0
   11.2031    3.0042   20.6246 C   0  0  0  0  0  0  0  0  0  0  0  0
   12.8688    7.7370   22.7287 C   0  0  0  0  0  0  0  0  0  0  0  0
    7.4487    9.1361   23.6506 C   0  0  0  0  0  0  0  0  0  0  0  0
    8.9772    2.5025   22.0273 C   0  0  0  0  0  0  0  0  0  0  0  0
   10.4859    4.0901   20.9730 C   0  0  0  0  0  0  0  0  0  0  0  0
   11.0962    9.3293   23.5072 C   0  0  0  0  0  0  0  0  0  0  0  0
    5.1273    7.8529   23.6208 N   0  0  0  0  0  0  0  0  0  0  0  0
    9.7552    9.2338   23.0171 N   0  0  0  0  0  0  0  0  0  0  0  0
   11.1797    6.7591   21.3326 N   0  0  0  0  0  0  0  0  0  0  0  0
   11.7728    8.0337   23.7267 C   0  0  0  0  0  0  0  0  0  0  0  0
    7.1194    8.3344   24.6775 C   0  0  0  0  0  0  0  0  0  0  0  0
    8.4311    4.7963   22.0500 C   0  0  0  0  0  0  0  0  0  0  0  0
    8.7393   10.8706   24.1871 O   0  0  0  0  0  0  0  0  0  0  0  0
    9.3093    3.8166   21.6712 C   0  0  0  0  0  0  0  0  0  0  0  0
  1  5  1  0
  1 15  4  0
  1 22  4  0
  2 20  1  0
  2 24  1  0
  3  6  4  0
  3 27  4  0
  4 22  4  0
  4 26  4  0
  6  7  4  0
  6 13  1  0
  7 19  4  0
  8 18  1  0
  8 23  1  0
  8 28  2  0
  9 17  1  0
  9 24  1  0
 10 11  1  0
 10 24  1  0
 11 23  1  0
 12 14  4  0
 12 16  4  0
 14 19  4  0
 15 18  4  0
 16 20  4  0
 17 25  1  0
 18 26  4  0
 19 29  4  0
 20 29  4  0
 21 23  1  0
 21 25  1  0
 27 29  4  0
M  END
$$$$

 Created by Python create_sdf_string function

 29 32  0  0  0  0  0  0  0  0999 V2000
    5.4450    8.7154   22.6662 C   0  0  0  0  0  0  0  0  0  0  0  0
   10.9154    5.4574   20.5483 C   0  0  0  0  0  0  0  0  0  0  0  0
    7.2709    4.5089   22.7542 C   0  0  0  0  0  0  0  0  0  0  0  0
    5.9698    7.6329   24.6581 C   0  0  0  0  0  0  0  0  0  0  0  0
    4.5542    8.9057   21.7104 O   0  0  0  0  0  0  0  0  0  0  0  0
    6.9895    3.2085   23.0690 C   0  0  0  0  0  0  0  0  0  0  0  0
    7.8391    2.2253   22.7260 N   0  0  0  0  0  0  0  0  0  0  0  0
    8.6968    9.8373   23.6359 C   0  0  0  0  0  0  0  0  0  0  0  0
   12.5135    6.5957   21.8396 C   0  0  0  0  0  0  0  0  0  0  0  0
   10.9406    8.2330   21.1350 C   0  0  0  0  0  0  0  0  0  0  0  0
    9.6648    8.5956   21.7310 C   0  0  0  0  0  0  0  0  0  0  0  0
   10.8829    1.7153   20.9865 C   0  0  0  0  0  0  0  0  0  0  0  0
    5.7768    2.8533   23.7910 C   0  0  0  0  0  0  0  0  0  0  0  0
    9.7977    1.4791   21.6912 N   0  0  0  0  0  0  0  0  0  0  0  0
    6.5976    9.3401   22.6478 N   0  0  0  0  0  0  0  0  0  0  0  0
   11.2031    3.0042   20.6246 C   0  0  0  0  0  0  0  0  0  0  0  0
   12.8688    7.7370   22.7287 C   0  0  0  0  0  0  0  0  0  0  0  0
    7.4487    9.1361   23.6506 C   0  0  0  0  0  0  0  0  0  0  0  0
    8.9772    2.5025   22.0273 C   0  0  0  0  0  0  0  0  0  0  0  0
   10.4859    4.0901   20.9730 C   0  0  0  0  0  0  0  0  0  0  0  0
   11.0962    9.3293   23.5072 C   0  0  0  0  0  0  0  0  0  0  0  0
    5.1273    7.8529   23.6208 N   0  0  0  0  0  0  0  0  0  0  0  0
    9.7552    9.2338   23.0171 N   0  0  0  0  0  0  0  0  0  0  0  0
   11.1797    6.7591   21.3326 N   0  0  0  0  0  0  0  0  0  0  0  0
   11.7728    8.0337   23.7267 C   0  0  0  0  0  0  0  0  0  0  0  0
    7.1194    8.3344   24.6775 C   0  0  0  0  0  0  0  0  0  0  0  0
    8.4311    4.7963   22.0500 C   0  0  0  0  0  0  0  0  0  0  0  0
    8.7393   10.8706   24.1871 O   0  0  0  0  0  0  0  0  0  0  0  0
    9.3093    3.8166   21.6712 C   0  0  0  0  0  0  0  0  0  0  0  0
  1  5  1  0
  1 15  4  0
  1 22  4  0
  2 20  1  0
  2 24  1  0
  3  6  4  0
  3 27  4  0
  4 22  4  0
  4 26  4  0
  6  7  4  0
  6 13  1  0
  7 19  4  0
  8 18  1  0
  8 23  1  0
  8 28  2  0
  9 17  1  0
  9 24  1  0
 10 11  1  0
 10 24  1  0
 11 23  1  0
 12 14  4  0
 12 16  4  0
 14 19  4  0
 15 18  4  0
 16 20  4  0
 17 25  1  0
 18 26  4  0
 19 29  4  0
 20 29  4  0
 21 23  1  0
 21 25  1  0
 27 29  4  0
M  END
$$$$

 Created by Python create_sdf_string function

 29 32  0  0  0  0  0  0  0  0999 V2000
    5.4450    8.7154   22.6662 C   0  0  0  0  0  0  0  0  0  0  0  0
   10.9154    5.4574   20.5483 C   0  0  0  0  0  0  0  0  0  0  0  0
    7.2709    4.5089   22.7542 C   0  0  0  0  0  0  0  0  0  0  0  0
    5.9698    7.6329   24.6581 C   0  0  0  0  0  0  0  0  0  0  0  0
    4.5542    8.9057   21.7104 O   0  0  0  0  0  0  0  0  0  0  0  0
    6.9895    3.2085   23.0690 C   0  0  0  0  0  0  0  0  0  0  0  0
    7.8391    2.2253   22.7260 N   0  0  0  0  0  0  0  0  0  0  0  0
    8.6968    9.8373   23.6359 C   0  0  0  0  0  0  0  0  0  0  0  0
   12.5135    6.5957   21.8396 C   0  0  0  0  0  0  0  0  0  0  0  0
   10.9406    8.2330   21.1350 C   0  0  0  0  0  0  0  0  0  0  0  0
    9.6648    8.5956   21.7310 C   0  0  0  0  0  0  0  0  0  0  0  0
   10.8829    1.7153   20.9865 C   0  0  0  0  0  0  0  0  0  0  0  0
    5.7768    2.8533   23.7910 C   0  0  0  0  0  0  0  0  0  0  0  0
    9.7977    1.4791   21.6912 N   0  0  0  0  0  0  0  0  0  0  0  0
    6.5976    9.3401   22.6478 N   0  0  0  0  0  0  0  0  0  0  0  0
   11.2031    3.0042   20.6246 C   0  0  0  0  0  0  0  0  0  0  0  0
   12.8688    7.7370   22.7287 C   0  0  0  0  0  0  0  0  0  0  0  0
    7.4487    9.1361   23.6506 C   0  0  0  0  0  0  0  0  0  0  0  0
    8.9772    2.5025   22.0273 C   0  0  0  0  0  0  0  0  0  0  0  0
   10.4859    4.0901   20.9730 C   0  0  0  0  0  0  0  0  0  0  0  0
   11.0962    9.3293   23.5072 C   0  0  0  0  0  0  0  0  0  0  0  0
    5.1273    7.8529   23.6208 N   0  0  0  0  0  0  0  0  0  0  0  0
    9.7552    9.2338   23.0171 N   0  0  0  0  0  0  0  0  0  0  0  0
   11.1797    6.7591   21.3326 N   0  0  0  0  0  0  0  0  0  0  0  0
   11.7728    8.0337   23.7267 C   0  0  0  0  0  0  0  0  0  0  0  0
    7.1194    8.3344   24.6775 C   0  0  0  0  0  0  0  0  0  0  0  0
    8.4311    4.7963   22.0500 C   0  0  0  0  0  0  0  0  0  0  0  0
    8.7393   10.8706   24.1871 O   0  0  0  0  0  0  0  0  0  0  0  0
    9.3093    3.8166   21.6712 C   0  0  0  0  0  0  0  0  0  0  0  0
  1  5  1  0
  1 15  4  0
  1 22  4  0
  2 20  1  0
  2 24  1  0
  3  6  4  0
  3 27  4  0
  4 22  4  0
  4 26  4  0
  6  7  4  0
  6 13  1  0
  7 19  4  0
  8 18  1  0
  8 23  1  0
  8 28  2  0
  9 17  1  0
  9 24  1  0
 10 11  1  0
 10 24  1  0
 11 23  1  0
 12 14  4  0
 12 16  4  0
 14 19  4  0
 15 18  4  0
 16 20  4  0
 17 25  1  0
 18 26  4  0
 19 29  4  0
 20 29  4  0
 21 23  1  0
 21 25  1  0
 27 29  4  0
M  END
$$$$

 Created by Python create_sdf_string function

 29 32  0  0  0  0  0  0  0  0999 V2000
    5.4450    8.7154   22.6662 C   0  0  0  0  0  0  0  0  0  0  0  0
   10.9154    5.4574   20.5483 C   0  0  0  0  0  0  0  0  0  0  0  0
    7.2709    4.5089   22.7542 C   0  0  0  0  0  0  0  0  0  0  0  0
    5.9698    7.6329   24.6581 C   0  0  0  0  0  0  0  0  0  0  0  0
    4.5542    8.9057   21.7104 O   0  0  0  0  0  0  0  0  0  0  0  0
    6.9895    3.2085   23.0690 C   0  0  0  0  0  0  0  0  0  0  0  0
    7.8391    2.2253   22.7260 N   0  0  0  0  0  0  0  0  0  0  0  0
    8.6968    9.8373   23.6359 C   0  0  0  0  0  0  0  0  0  0  0  0
   12.5135    6.5957   21.8396 C   0  0  0  0  0  0  0  0  0  0  0  0
   10.9406    8.2330   21.1350 C   0  0  0  0  0  0  0  0  0  0  0  0
    9.6648    8.5956   21.7310 C   0  0  0  0  0  0  0  0  0  0  0  0
   10.8829    1.7153   20.9865 C   0  0  0  0  0  0  0  0  0  0  0  0
    5.7768    2.8533   23.7910 C   0  0  0  0  0  0  0  0  0  0  0  0
    9.7977    1.4791   21.6912 N   0  0  0  0  0  0  0  0  0  0  0  0
    6.5976    9.3401   22.6478 N   0  0  0  0  0  0  0  0  0  0  0  0
   11.2031    3.0042   20.6246 C   0  0  0  0  0  0  0  0  0  0  0  0
   12.8688    7.7370   22.7287 C   0  0  0  0  0  0  0  0  0  0  0  0
    7.4487    9.1361   23.6506 C   0  0  0  0  0  0  0  0  0  0  0  0
    8.9772    2.5025   22.0273 C   0  0  0  0  0  0  0  0  0  0  0  0
   10.4859    4.0901   20.9730 C   0  0  0  0  0  0  0  0  0  0  0  0
   11.0962    9.3293   23.5072 C   0  0  0  0  0  0  0  0  0  0  0  0
    5.1273    7.8529   23.6208 N   0  0  0  0  0  0  0  0  0  0  0  0
    9.7552    9.2338   23.0171 N   0  0  0  0  0  0  0  0  0  0  0  0
   11.1797    6.7591   21.3326 N   0  0  0  0  0  0  0  0  0  0  0  0
   11.7728    8.0337   23.7267 C   0  0  0  0  0  0  0  0  0  0  0  0
    7.1194    8.3344   24.6775 C   0  0  0  0  0  0  0  0  0  0  0  0
    8.4311    4.7963   22.0500 C   0  0  0  0  0  0  0  0  0  0  0  0
    8.7393   10.8706   24.1871 O   0  0  0  0  0  0  0  0  0  0  0  0
    9.3093    3.8166   21.6712 C   0  0  0  0  0  0  0  0  0  0  0  0
  1  5  1  0
  1 15  4  0
  1 22  4  0
  2 20  1  0
  2 24  1  0
  3  6  4  0
  3 27  4  0
  4 22  4  0
  4 26  4  0
  6  7  4  0
  6 13  1  0
  7 19  4  0
  8 18  1  0
  8 23  1  0
  8 28  2  0
  9 17  1  0
  9 24  1  0
 10 11  1  0
 10 24  1  0
 11 23  1  0
 12 14  4  0
 12 16  4  0
 14 19  4  0
 15 18  4  0
 16 20  4  0
 17 25  1  0
 18 26  4  0
 19 29  4  0
 20 29  4  0
 21 23  1  0
 21 25  1  0
 27 29  4  0
M  END
$$$$

 Created by Python create_sdf_string function

 29 32  0  0  0  0  0  0  0  0999 V2000
    5.4450    8.7154   22.6662 C   0  0  0  0  0  0  0  0  0  0  0  0
   10.9154    5.4574   20.5483 C   0  0  0  0  0  0  0  0  0  0  0  0
    7.2709    4.5089   22.7542 C   0  0  0  0  0  0  0  0  0  0  0  0
    5.9698    7.6329   24.6581 C   0  0  0  0  0  0  0  0  0  0  0  0
    4.5542    8.9057   21.7104 O   0  0  0  0  0  0  0  0  0  0  0  0
    6.9895    3.2085   23.0690 C   0  0  0  0  0  0  0  0  0  0  0  0
    7.8391    2.2253   22.7260 N   0  0  0  0  0  0  0  0  0  0  0  0
    8.6968    9.8373   23.6359 C   0  0  0  0  0  0  0  0  0  0  0  0
   12.5135    6.5957   21.8396 C   0  0  0  0  0  0  0  0  0  0  0  0
   10.9406    8.2330   21.1350 C   0  0  0  0  0  0  0  0  0  0  0  0
    9.6648    8.5956   21.7310 C   0  0  0  0  0  0  0  0  0  0  0  0
   10.8829    1.7153   20.9865 C   0  0  0  0  0  0  0  0  0  0  0  0
    5.7768    2.8533   23.7910 C   0  0  0  0  0  0  0  0  0  0  0  0
    9.7977    1.4791   21.6912 N   0  0  0  0  0  0  0  0  0  0  0  0
    6.5976    9.3401   22.6478 N   0  0  0  0  0  0  0  0  0  0  0  0
   11.2031    3.0042   20.6246 C   0  0  0  0  0  0  0  0  0  0  0  0
   12.8688    7.7370   22.7287 C   0  0  0  0  0  0  0  0  0  0  0  0
    7.4487    9.1361   23.6506 C   0  0  0  0  0  0  0  0  0  0  0  0
    8.9772    2.5025   22.0273 C   0  0  0  0  0  0  0  0  0  0  0  0
   10.4859    4.0901   20.9730 C   0  0  0  0  0  0  0  0  0  0  0  0
   11.0962    9.3293   23.5072 C   0  0  0  0  0  0  0  0  0  0  0  0
    5.1273    7.8529   23.6208 N   0  0  0  0  0  0  0  0  0  0  0  0
    9.7552    9.2338   23.0171 N   0  0  0  0  0  0  0  0  0  0  0  0
   11.1797    6.7591   21.3326 N   0  0  0  0  0  0  0  0  0  0  0  0
   11.7728    8.0337   23.7267 C   0  0  0  0  0  0  0  0  0  0  0  0
    7.1194    8.3344   24.6775 C   0  0  0  0  0  0  0  0  0  0  0  0
    8.4311    4.7963   22.0500 C   0  0  0  0  0  0  0  0  0  0  0  0
    8.7393   10.8706   24.1871 O   0  0  0  0  0  0  0  0  0  0  0  0
    9.3093    3.8166   21.6712 C   0  0  0  0  0  0  0  0  0  0  0  0
  1  5  1  0
  1 15  4  0
  1 22  4  0
  2 20  1  0
  2 24  1  0
  3  6  4  0
  3 27  4  0
  4 22  4  0
  4 26  4  0
  6  7  4  0
  6 13  1  0
  7 19  4  0
  8 18  1  0
  8 23  1  0
  8 28  2  0
  9 17  1  0
  9 24  1  0
 10 11  1  0
 10 24  1  0
 11 23  1  0
 12 14  4  0
 12 16  4  0
 14 19  4  0
 15 18  4  0
 16 20  4  0
 17 25  1  0
 18 26  4  0
 19 29  4  0
 20 29  4  0
 21 23  1  0
 21 25  1  0
 27 29  4  0
M  END
$$$$

 Created by Python create_sdf_string function

 29 32  0  0  0  0  0  0  0  0999 V2000
    5.4450    8.7154   22.6662 C   0  0  0  0  0  0  0  0  0  0  0  0
   10.9154    5.4574   20.5483 C   0  0  0  0  0  0  0  0  0  0  0  0
    7.2709    4.5089   22.7542 C   0  0  0  0  0  0  0  0  0  0  0  0
    5.9698    7.6329   24.6581 C   0  0  0  0  0  0  0  0  0  0  0  0
    4.5542    8.9057   21.7104 O   0  0  0  0  0  0  0  0  0  0  0  0
    6.9895    3.2085   23.0690 C   0  0  0  0  0  0  0  0  0  0  0  0
    7.8391    2.2253   22.7260 N   0  0  0  0  0  0  0  0  0  0  0  0
    8.6968    9.8373   23.6359 C   0  0  0  0  0  0  0  0  0  0  0  0
   12.5135    6.5957   21.8396 C   0  0  0  0  0  0  0  0  0  0  0  0
   10.9406    8.2330   21.1350 C   0  0  0  0  0  0  0  0  0  0  0  0
    9.6648    8.5956   21.7310 C   0  0  0  0  0  0  0  0  0  0  0  0
   10.8829    1.7153   20.9865 C   0  0  0  0  0  0  0  0  0  0  0  0
    5.7768    2.8533   23.7910 C   0  0  0  0  0  0  0  0  0  0  0  0
    9.7977    1.4791   21.6912 N   0  0  0  0  0  0  0  0  0  0  0  0
    6.5976    9.3401   22.6478 N   0  0  0  0  0  0  0  0  0  0  0  0
   11.2031    3.0042   20.6246 C   0  0  0  0  0  0  0  0  0  0  0  0
   12.8688    7.7370   22.7287 C   0  0  0  0  0  0  0  0  0  0  0  0
    7.4487    9.1361   23.6506 C   0  0  0  0  0  0  0  0  0  0  0  0
    8.9772    2.5025   22.0273 C   0  0  0  0  0  0  0  0  0  0  0  0
   10.4859    4.0901   20.9730 C   0  0  0  0  0  0  0  0  0  0  0  0
   11.0962    9.3293   23.5072 C   0  0  0  0  0  0  0  0  0  0  0  0
    5.1273    7.8529   23.6208 N   0  0  0  0  0  0  0  0  0  0  0  0
    9.7552    9.2338   23.0171 N   0  0  0  0  0  0  0  0  0  0  0  0
   11.1797    6.7591   21.3326 N   0  0  0  0  0  0  0  0  0  0  0  0
   11.7728    8.0337   23.7267 C   0  0  0  0  0  0  0  0  0  0  0  0
    7.1194    8.3344   24.6775 C   0  0  0  0  0  0  0  0  0  0  0  0
    8.4311    4.7963   22.0500 C   0  0  0  0  0  0  0  0  0  0  0  0
    8.7393   10.8706   24.1871 O   0  0  0  0  0  0  0  0  0  0  0  0
    9.3093    3.8166   21.6712 C   0  0  0  0  0  0  0  0  0  0  0  0
  1  5  1  0
  1 15  4  0
  1 22  4  0
  2 20  1  0
  2 24  1  0
  3  6  4  0
  3 27  4  0
  4 22  4  0
  4 26  4  0
  6  7  4  0
  6 13  1  0
  7 19  4  0
  8 18  1  0
  8 23  1  0
  8 28  2  0
  9 17  1  0
  9 24  1  0
 10 11  1  0
 10 24  1  0
 11 23  1  0
 12 14  4  0
 12 16  4  0
 14 19  4  0
 15 18  4  0
 16 20  4  0
 17 25  1  0
 18 26  4  0
 19 29  4  0
 20 29  4  0
 21 23  1  0
 21 25  1  0
 27 29  4  0
M  END
$$$$

 Created by Python create_sdf_string function

 29 32  0  0  0  0  0  0  0  0999 V2000
    5.4450    8.7154   22.6662 C   0  0  0  0  0  0  0  0  0  0  0  0
   10.9154    5.4574   20.5483 C   0  0  0  0  0  0  0  0  0  0  0  0
    7.2709    4.5089   22.7542 C   0  0  0  0  0  0  0  0  0  0  0  0
    5.9698    7.6329   24.6581 C   0  0  0  0  0  0  0  0  0  0  0  0
    4.5542    8.9057   21.7104 O   0  0  0  0  0  0  0  0  0  0  0  0
    6.9895    3.2085   23.0690 C   0  0  0  0  0  0  0  0  0  0  0  0
    7.8391    2.2253   22.7260 N   0  0  0  0  0  0  0  0  0  0  0  0
    8.6968    9.8373   23.6359 C   0  0  0  0  0  0  0  0  0  0  0  0
   12.5135    6.5957   21.8396 C   0  0  0  0  0  0  0  0  0  0  0  0
   10.9406    8.2330   21.1350 C   0  0  0  0  0  0  0  0  0  0  0  0
    9.6648    8.5956   21.7310 C   0  0  0  0  0  0  0  0  0  0  0  0
   10.8829    1.7153   20.9865 C   0  0  0  0  0  0  0  0  0  0  0  0
    5.7768    2.8533   23.7910 C   0  0  0  0  0  0  0  0  0  0  0  0
    9.7977    1.4791   21.6912 N   0  0  0  0  0  0  0  0  0  0  0  0
    6.5976    9.3401   22.6478 N   0  0  0  0  0  0  0  0  0  0  0  0
   11.2031    3.0042   20.6246 C   0  0  0  0  0  0  0  0  0  0  0  0
   12.8688    7.7370   22.7287 C   0  0  0  0  0  0  0  0  0  0  0  0
    7.4487    9.1361   23.6506 C   0  0  0  0  0  0  0  0  0  0  0  0
    8.9772    2.5025   22.0273 C   0  0  0  0  0  0  0  0  0  0  0  0
   10.4859    4.0901   20.9730 C   0  0  0  0  0  0  0  0  0  0  0  0
   11.0962    9.3293   23.5072 C   0  0  0  0  0  0  0  0  0  0  0  0
    5.1273    7.8529   23.6208 N   0  0  0  0  0  0  0  0  0  0  0  0
    9.7552    9.2338   23.0171 N   0  0  0  0  0  0  0  0  0  0  0  0
   11.1797    6.7591   21.3326 N   0  0  0  0  0  0  0  0  0  0  0  0
   11.7728    8.0337   23.7267 C   0  0  0  0  0  0  0  0  0  0  0  0
    7.1194    8.3344   24.6775 C   0  0  0  0  0  0  0  0  0  0  0  0
    8.4311    4.7963   22.0500 C   0  0  0  0  0  0  0  0  0  0  0  0
    8.7393   10.8706   24.1871 O   0  0  0  0  0  0  0  0  0  0  0  0
    9.3093    3.8166   21.6712 C   0  0  0  0  0  0  0  0  0  0  0  0
  1  5  1  0
  1 15  4  0
  1 22  4  0
  2 20  1  0
  2 24  1  0
  3  6  4  0
  3 27  4  0
  4 22  4  0
  4 26  4  0
  6  7  4  0
  6 13  1  0
  7 19  4  0
  8 18  1  0
  8 23  1  0
  8 28  2  0
  9 17  1  0
  9 24  1  0
 10 11  1  0
 10 24  1  0
 11 23  1  0
 12 14  4  0
 12 16  4  0
 14 19  4  0
 15 18  4  0
 16 20  4  0
 17 25  1  0
 18 26  4  0
 19 29  4  0
 20 29  4  0
 21 23  1  0
 21 25  1  0
 27 29  4  0
M  END
$$$$

 Created by Python create_sdf_string function

 29 32  0  0  0  0  0  0  0  0999 V2000
    5.4450    8.7154   22.6662 C   0  0  0  0  0  0  0  0  0  0  0  0
   10.9154    5.4574   20.5483 C   0  0  0  0  0  0  0  0  0  0  0  0
    7.2709    4.5089   22.7542 C   0  0  0  0  0  0  0  0  0  0  0  0
    5.9698    7.6329   24.6581 C   0  0  0  0  0  0  0  0  0  0  0  0
    4.5542    8.9057   21.7104 O   0  0  0  0  0  0  0  0  0  0  0  0
    6.9895    3.2085   23.0690 C   0  0  0  0  0  0  0  0  0  0  0  0
    7.8391    2.2253   22.7260 N   0  0  0  0  0  0  0  0  0  0  0  0
    8.6968    9.8373   23.6359 C   0  0  0  0  0  0  0  0  0  0  0  0
   12.5135    6.5957   21.8396 C   0  0  0  0  0  0  0  0  0  0  0  0
   10.9406    8.2330   21.1350 C   0  0  0  0  0  0  0  0  0  0  0  0
    9.6648    8.5956   21.7310 C   0  0  0  0  0  0  0  0  0  0  0  0
   10.8829    1.7153   20.9865 C   0  0  0  0  0  0  0  0  0  0  0  0
    5.7768    2.8533   23.7910 C   0  0  0  0  0  0  0  0  0  0  0  0
    9.7977    1.4791   21.6912 N   0  0  0  0  0  0  0  0  0  0  0  0
    6.5976    9.3401   22.6478 N   0  0  0  0  0  0  0  0  0  0  0  0
   11.2031    3.0042   20.6246 C   0  0  0  0  0  0  0  0  0  0  0  0
   12.8688    7.7370   22.7287 C   0  0  0  0  0  0  0  0  0  0  0  0
    7.4487    9.1361   23.6506 C   0  0  0  0  0  0  0  0  0  0  0  0
    8.9772    2.5025   22.0273 C   0  0  0  0  0  0  0  0  0  0  0  0
   10.4859    4.0901   20.9730 C   0  0  0  0  0  0  0  0  0  0  0  0
   11.0962    9.3293   23.5072 C   0  0  0  0  0  0  0  0  0  0  0  0
    5.1273    7.8529   23.6208 N   0  0  0  0  0  0  0  0  0  0  0  0
    9.7552    9.2338   23.0171 N   0  0  0  0  0  0  0  0  0  0  0  0
   11.1797    6.7591   21.3326 N   0  0  0  0  0  0  0  0  0  0  0  0
   11.7728    8.0337   23.7267 C   0  0  0  0  0  0  0  0  0  0  0  0
    7.1194    8.3344   24.6775 C   0  0  0  0  0  0  0  0  0  0  0  0
    8.4311    4.7963   22.0500 C   0  0  0  0  0  0  0  0  0  0  0  0
    8.7393   10.8706   24.1871 O   0  0  0  0  0  0  0  0  0  0  0  0
    9.3093    3.8166   21.6712 C   0  0  0  0  0  0  0  0  0  0  0  0
  1  5  1  0
  1 15  4  0
  1 22  4  0
  2 20  1  0
  2 24  1  0
  3  6  4  0
  3 27  4  0
  4 22  4  0
  4 26  4  0
  6  7  4  0
  6 13  1  0
  7 19  4  0
  8 18  1  0
  8 23  1  0
  8 28  2  0
  9 17  1  0
  9 24  1  0
 10 11  1  0
 10 24  1  0
 11 23  1  0
 12 14  4  0
 12 16  4  0
 14 19  4  0
 15 18  4  0
 16 20  4  0
 17 25  1  0
 18 26  4  0
 19 29  4  0
 20 29  4  0
 21 23  1  0
 21 25  1  0
 27 29  4  0
M  END
$$$$

 Created by Python create_sdf_string function

 29 32  0  0  0  0  0  0  0  0999 V2000
    5.4450    8.7154   22.6662 C   0  0  0  0  0  0  0  0  0  0  0  0
   10.9154    5.4574   20.5483 C   0  0  0  0  0  0  0  0  0  0  0  0
    7.2709    4.5089   22.7542 C   0  0  0  0  0  0  0  0  0  0  0  0
    5.9698    7.6329   24.6581 C   0  0  0  0  0  0  0  0  0  0  0  0
    4.5542    8.9057   21.7104 O   0  0  0  0  0  0  0  0  0  0  0  0
    6.9895    3.2085   23.0690 C   0  0  0  0  0  0  0  0  0  0  0  0
    7.8391    2.2253   22.7260 N   0  0  0  0  0  0  0  0  0  0  0  0
    8.6968    9.8373   23.6359 C   0  0  0  0  0  0  0  0  0  0  0  0
   12.5135    6.5957   21.8396 C   0  0  0  0  0  0  0  0  0  0  0  0
   10.9406    8.2330   21.1350 C   0  0  0  0  0  0  0  0  0  0  0  0
    9.6648    8.5956   21.7310 C   0  0  0  0  0  0  0  0  0  0  0  0
   10.8829    1.7153   20.9865 C   0  0  0  0  0  0  0  0  0  0  0  0
    5.7768    2.8533   23.7910 C   0  0  0  0  0  0  0  0  0  0  0  0
    9.7977    1.4791   21.6912 N   0  0  0  0  0  0  0  0  0  0  0  0
    6.5976    9.3401   22.6478 N   0  0  0  0  0  0  0  0  0  0  0  0
   11.2031    3.0042   20.6246 C   0  0  0  0  0  0  0  0  0  0  0  0
   12.8688    7.7370   22.7287 C   0  0  0  0  0  0  0  0  0  0  0  0
    7.4487    9.1361   23.6506 C   0  0  0  0  0  0  0  0  0  0  0  0
    8.9772    2.5025   22.0273 C   0  0  0  0  0  0  0  0  0  0  0  0
   10.4859    4.0901   20.9730 C   0  0  0  0  0  0  0  0  0  0  0  0
   11.0962    9.3293   23.5072 C   0  0  0  0  0  0  0  0  0  0  0  0
    5.1273    7.8529   23.6208 N   0  0  0  0  0  0  0  0  0  0  0  0
    9.7552    9.2338   23.0171 N   0  0  0  0  0  0  0  0  0  0  0  0
   11.1797    6.7591   21.3326 N   0  0  0  0  0  0  0  0  0  0  0  0
   11.7728    8.0337   23.7267 C   0  0  0  0  0  0  0  0  0  0  0  0
    7.1194    8.3344   24.6775 C   0  0  0  0  0  0  0  0  0  0  0  0
    8.4311    4.7963   22.0500 C   0  0  0  0  0  0  0  0  0  0  0  0
    8.7393   10.8706   24.1871 O   0  0  0  0  0  0  0  0  0  0  0  0
    9.3093    3.8166   21.6712 C   0  0  0  0  0  0  0  0  0  0  0  0
  1  5  1  0
  1 15  4  0
  1 22  4  0
  2 20  1  0
  2 24  1  0
  3  6  4  0
  3 27  4  0
  4 22  4  0
  4 26  4  0
  6  7  4  0
  6 13  1  0
  7 19  4  0
  8 18  1  0
  8 23  1  0
  8 28  2  0
  9 17  1  0
  9 24  1  0
 10 11  1  0
 10 24  1  0
 11 23  1  0
 12 14  4  0
 12 16  4  0
 14 19  4  0
 15 18  4  0
 16 20  4  0
 17 25  1  0
 18 26  4  0
 19 29  4  0
 20 29  4  0
 21 23  1  0
 21 25  1  0
 27 29  4  0
M  END
$$$$

 Created by Python create_sdf_string function

 29 32  0  0  0  0  0  0  0  0999 V2000
    5.4450    8.7154   22.6662 C   0  0  0  0  0  0  0  0  0  0  0  0
   10.9154    5.4574   20.5483 C   0  0  0  0  0  0  0  0  0  0  0  0
    7.2709    4.5089   22.7542 C   0  0  0  0  0  0  0  0  0  0  0  0
    5.9698    7.6329   24.6581 C   0  0  0  0  0  0  0  0  0  0  0  0
    4.5542    8.9057   21.7104 O   0  0  0  0  0  0  0  0  0  0  0  0
    6.9895    3.2085   23.0690 C   0  0  0  0  0  0  0  0  0  0  0  0
    7.8391    2.2253   22.7260 N   0  0  0  0  0  0  0  0  0  0  0  0
    8.6968    9.8373   23.6359 C   0  0  0  0  0  0  0  0  0  0  0  0
   12.5135    6.5957   21.8396 C   0  0  0  0  0  0  0  0  0  0  0  0
   10.9406    8.2330   21.1350 C   0  0  0  0  0  0  0  0  0  0  0  0
    9.6648    8.5956   21.7310 C   0  0  0  0  0  0  0  0  0  0  0  0
   10.8829    1.7153   20.9865 C   0  0  0  0  0  0  0  0  0  0  0  0
    5.7768    2.8533   23.7910 C   0  0  0  0  0  0  0  0  0  0  0  0
    9.7977    1.4791   21.6912 N   0  0  0  0  0  0  0  0  0  0  0  0
    6.5976    9.3401   22.6478 N   0  0  0  0  0  0  0  0  0  0  0  0
   11.2031    3.0042   20.6246 C   0  0  0  0  0  0  0  0  0  0  0  0
   12.8688    7.7370   22.7287 C   0  0  0  0  0  0  0  0  0  0  0  0
    7.4487    9.1361   23.6506 C   0  0  0  0  0  0  0  0  0  0  0  0
    8.9772    2.5025   22.0273 C   0  0  0  0  0  0  0  0  0  0  0  0
   10.4859    4.0901   20.9730 C   0  0  0  0  0  0  0  0  0  0  0  0
   11.0962    9.3293   23.5072 C   0  0  0  0  0  0  0  0  0  0  0  0
    5.1273    7.8529   23.6208 N   0  0  0  0  0  0  0  0  0  0  0  0
    9.7552    9.2338   23.0171 N   0  0  0  0  0  0  0  0  0  0  0  0
   11.1797    6.7591   21.3326 N   0  0  0  0  0  0  0  0  0  0  0  0
   11.7728    8.0337   23.7267 C   0  0  0  0  0  0  0  0  0  0  0  0
    7.1194    8.3344   24.6775 C   0  0  0  0  0  0  0  0  0  0  0  0
    8.4311    4.7963   22.0500 C   0  0  0  0  0  0  0  0  0  0  0  0
    8.7393   10.8706   24.1871 O   0  0  0  0  0  0  0  0  0  0  0  0
    9.3093    3.8166   21.6712 C   0  0  0  0  0  0  0  0  0  0  0  0
  1  5  1  0
  1 15  4  0
  1 22  4  0
  2 20  1  0
  2 24  1  0
  3  6  4  0
  3 27  4  0
  4 22  4  0
  4 26  4  0
  6  7  4  0
  6 13  1  0
  7 19  4  0
  8 18  1  0
  8 23  1  0
  8 28  2  0
  9 17  1  0
  9 24  1  0
 10 11  1  0
 10 24  1  0
 11 23  1  0
 12 14  4  0
 12 16  4  0
 14 19  4  0
 15 18  4  0
 16 20  4  0
 17 25  1  0
 18 26  4  0
 19 29  4  0
 20 29  4  0
 21 23  1  0
 21 25  1  0
 27 29  4  0
M  END
$$$$

 Created by Python create_sdf_string function

 29 32  0  0  0  0  0  0  0  0999 V2000
    5.4450    8.7154   22.6662 C   0  0  0  0  0  0  0  0  0  0  0  0
   10.9154    5.4574   20.5483 C   0  0  0  0  0  0  0  0  0  0  0  0
    7.2709    4.5089   22.7542 C   0  0  0  0  0  0  0  0  0  0  0  0
    5.9698    7.6329   24.6581 C   0  0  0  0  0  0  0  0  0  0  0  0
    4.5542    8.9057   21.7104 O   0  0  0  0  0  0  0  0  0  0  0  0
    6.9895    3.2085   23.0690 C   0  0  0  0  0  0  0  0  0  0  0  0
    7.8391    2.2253   22.7260 N   0  0  0  0  0  0  0  0  0  0  0  0
    8.6968    9.8373   23.6359 C   0  0  0  0  0  0  0  0  0  0  0  0
   12.5135    6.5957   21.8396 C   0  0  0  0  0  0  0  0  0  0  0  0
   10.9406    8.2330   21.1350 C   0  0  0  0  0  0  0  0  0  0  0  0
    9.6648    8.5956   21.7310 C   0  0  0  0  0  0  0  0  0  0  0  0
   10.8829    1.7153   20.9865 C   0  0  0  0  0  0  0  0  0  0  0  0
    5.7768    2.8533   23.7910 C   0  0  0  0  0  0  0  0  0  0  0  0
    9.7977    1.4791   21.6912 N   0  0  0  0  0  0  0  0  0  0  0  0
    6.5976    9.3401   22.6478 N   0  0  0  0  0  0  0  0  0  0  0  0
   11.2031    3.0042   20.6246 C   0  0  0  0  0  0  0  0  0  0  0  0
   12.8688    7.7370   22.7287 C   0  0  0  0  0  0  0  0  0  0  0  0
    7.4487    9.1361   23.6506 C   0  0  0  0  0  0  0  0  0  0  0  0
    8.9772    2.5025   22.0273 C   0  0  0  0  0  0  0  0  0  0  0  0
   10.4859    4.0901   20.9730 C   0  0  0  0  0  0  0  0  0  0  0  0
   11.0962    9.3293   23.5072 C   0  0  0  0  0  0  0  0  0  0  0  0
    5.1273    7.8529   23.6208 N   0  0  0  0  0  0  0  0  0  0  0  0
    9.7552    9.2338   23.0171 N   0  0  0  0  0  0  0  0  0  0  0  0
   11.1797    6.7591   21.3326 N   0  0  0  0  0  0  0  0  0  0  0  0
   11.7728    8.0337   23.7267 C   0  0  0  0  0  0  0  0  0  0  0  0
    7.1194    8.3344   24.6775 C   0  0  0  0  0  0  0  0  0  0  0  0
    8.4311    4.7963   22.0500 C   0  0  0  0  0  0  0  0  0  0  0  0
    8.7393   10.8706   24.1871 O   0  0  0  0  0  0  0  0  0  0  0  0
    9.3093    3.8166   21.6712 C   0  0  0  0  0  0  0  0  0  0  0  0
  1  5  1  0
  1 15  4  0
  1 22  4  0
  2 20  1  0
  2 24  1  0
  3  6  4  0
  3 27  4  0
  4 22  4  0
  4 26  4  0
  6  7  4  0
  6 13  1  0
  7 19  4  0
  8 18  1  0
  8 23  1  0
  8 28  2  0
  9 17  1  0
  9 24  1  0
 10 11  1  0
 10 24  1  0
 11 23  1  0
 12 14  4  0
 12 16  4  0
 14 19  4  0
 15 18  4  0
 16 20  4  0
 17 25  1  0
 18 26  4  0
 19 29  4  0
 20 29  4  0
 21 23  1  0
 21 25  1  0
 27 29  4  0
M  END
$$$$

 Created by Python create_sdf_string function

 29 32  0  0  0  0  0  0  0  0999 V2000
    5.4450    8.7154   22.6662 C   0  0  0  0  0  0  0  0  0  0  0  0
   10.9154    5.4574   20.5483 C   0  0  0  0  0  0  0  0  0  0  0  0
    7.2709    4.5089   22.7542 C   0  0  0  0  0  0  0  0  0  0  0  0
    5.9698    7.6329   24.6581 C   0  0  0  0  0  0  0  0  0  0  0  0
    4.5542    8.9057   21.7104 O   0  0  0  0  0  0  0  0  0  0  0  0
    6.9895    3.2085   23.0690 C   0  0  0  0  0  0  0  0  0  0  0  0
    7.8391    2.2253   22.7260 N   0  0  0  0  0  0  0  0  0  0  0  0
    8.6968    9.8373   23.6359 C   0  0  0  0  0  0  0  0  0  0  0  0
   12.5135    6.5957   21.8396 C   0  0  0  0  0  0  0  0  0  0  0  0
   10.9406    8.2330   21.1350 C   0  0  0  0  0  0  0  0  0  0  0  0
    9.6648    8.5956   21.7310 C   0  0  0  0  0  0  0  0  0  0  0  0
   10.8829    1.7153   20.9865 C   0  0  0  0  0  0  0  0  0  0  0  0
    5.7768    2.8533   23.7910 C   0  0  0  0  0  0  0  0  0  0  0  0
    9.7977    1.4791   21.6912 N   0  0  0  0  0  0  0  0  0  0  0  0
    6.5976    9.3401   22.6478 N   0  0  0  0  0  0  0  0  0  0  0  0
   11.2031    3.0042   20.6246 C   0  0  0  0  0  0  0  0  0  0  0  0
   12.8688    7.7370   22.7287 C   0  0  0  0  0  0  0  0  0  0  0  0
    7.4487    9.1361   23.6506 C   0  0  0  0  0  0  0  0  0  0  0  0
    8.9772    2.5025   22.0273 C   0  0  0  0  0  0  0  0  0  0  0  0
   10.4859    4.0901   20.9730 C   0  0  0  0  0  0  0  0  0  0  0  0
   11.0962    9.3293   23.5072 C   0  0  0  0  0  0  0  0  0  0  0  0
    5.1273    7.8529   23.6208 N   0  0  0  0  0  0  0  0  0  0  0  0
    9.7552    9.2338   23.0171 N   0  0  0  0  0  0  0  0  0  0  0  0
   11.1797    6.7591   21.3326 N   0  0  0  0  0  0  0  0  0  0  0  0
   11.7728    8.0337   23.7267 C   0  0  0  0  0  0  0  0  0  0  0  0
    7.1194    8.3344   24.6775 C   0  0  0  0  0  0  0  0  0  0  0  0
    8.4311    4.7963   22.0500 C   0  0  0  0  0  0  0  0  0  0  0  0
    8.7393   10.8706   24.1871 O   0  0  0  0  0  0  0  0  0  0  0  0
    9.3093    3.8166   21.6712 C   0  0  0  0  0  0  0  0  0  0  0  0
  1  5  1  0
  1 15  4  0
  1 22  4  0
  2 20  1  0
  2 24  1  0
  3  6  4  0
  3 27  4  0
  4 22  4  0
  4 26  4  0
  6  7  4  0
  6 13  1  0
  7 19  4  0
  8 18  1  0
  8 23  1  0
  8 28  2  0
  9 17  1  0
  9 24  1  0
 10 11  1  0
 10 24  1  0
 11 23  1  0
 12 14  4  0
 12 16  4  0
 14 19  4  0
 15 18  4  0
 16 20  4  0
 17 25  1  0
 18 26  4  0
 19 29  4  0
 20 29  4  0
 21 23  1  0
 21 25  1  0
 27 29  4  0
M  END
$$$$

 Created by Python create_sdf_string function

 29 32  0  0  0  0  0  0  0  0999 V2000
    5.4450    8.7154   22.6662 C   0  0  0  0  0  0  0  0  0  0  0  0
   10.9154    5.4574   20.5483 C   0  0  0  0  0  0  0  0  0  0  0  0
    7.2709    4.5089   22.7542 C   0  0  0  0  0  0  0  0  0  0  0  0
    5.9698    7.6329   24.6581 C   0  0  0  0  0  0  0  0  0  0  0  0
    4.5542    8.9057   21.7104 O   0  0  0  0  0  0  0  0  0  0  0  0
    6.9895    3.2085   23.0690 C   0  0  0  0  0  0  0  0  0  0  0  0
    7.8391    2.2253   22.7260 N   0  0  0  0  0  0  0  0  0  0  0  0
    8.6968    9.8373   23.6359 C   0  0  0  0  0  0  0  0  0  0  0  0
   12.5135    6.5957   21.8396 C   0  0  0  0  0  0  0  0  0  0  0  0
   10.9406    8.2330   21.1350 C   0  0  0  0  0  0  0  0  0  0  0  0
    9.6648    8.5956   21.7310 C   0  0  0  0  0  0  0  0  0  0  0  0
   10.8829    1.7153   20.9865 C   0  0  0  0  0  0  0  0  0  0  0  0
    5.7768    2.8533   23.7910 C   0  0  0  0  0  0  0  0  0  0  0  0
    9.7977    1.4791   21.6912 N   0  0  0  0  0  0  0  0  0  0  0  0
    6.5976    9.3401   22.6478 N   0  0  0  0  0  0  0  0  0  0  0  0
   11.2031    3.0042   20.6246 C   0  0  0  0  0  0  0  0  0  0  0  0
   12.8688    7.7370   22.7287 C   0  0  0  0  0  0  0  0  0  0  0  0
    7.4487    9.1361   23.6506 C   0  0  0  0  0  0  0  0  0  0  0  0
    8.9772    2.5025   22.0273 C   0  0  0  0  0  0  0  0  0  0  0  0
   10.4859    4.0901   20.9730 C   0  0  0  0  0  0  0  0  0  0  0  0
   11.0962    9.3293   23.5072 C   0  0  0  0  0  0  0  0  0  0  0  0
    5.1273    7.8529   23.6208 N   0  0  0  0  0  0  0  0  0  0  0  0
    9.7552    9.2338   23.0171 N   0  0  0  0  0  0  0  0  0  0  0  0
   11.1797    6.7591   21.3326 N   0  0  0  0  0  0  0  0  0  0  0  0
   11.7728    8.0337   23.7267 C   0  0  0  0  0  0  0  0  0  0  0  0
    7.1194    8.3344   24.6775 C   0  0  0  0  0  0  0  0  0  0  0  0
    8.4311    4.7963   22.0500 C   0  0  0  0  0  0  0  0  0  0  0  0
    8.7393   10.8706   24.1871 O   0  0  0  0  0  0  0  0  0  0  0  0
    9.3093    3.8166   21.6712 C   0  0  0  0  0  0  0  0  0  0  0  0
  1  5  1  0
  1 15  4  0
  1 22  4  0
  2 20  1  0
  2 24  1  0
  3  6  4  0
  3 27  4  0
  4 22  4  0
  4 26  4  0
  6  7  4  0
  6 13  1  0
  7 19  4  0
  8 18  1  0
  8 23  1  0
  8 28  2  0
  9 17  1  0
  9 24  1  0
 10 11  1  0
 10 24  1  0
 11 23  1  0
 12 14  4  0
 12 16  4  0
 14 19  4  0
 15 18  4  0
 16 20  4  0
 17 25  1  0
 18 26  4  0
 19 29  4  0
 20 29  4  0
 21 23  1  0
 21 25  1  0
 27 29  4  0
M  END
$$$$

 Created by Python create_sdf_string function

 29 32  0  0  0  0  0  0  0  0999 V2000
    5.4450    8.7154   22.6662 C   0  0  0  0  0  0  0  0  0  0  0  0
   10.9154    5.4574   20.5483 C   0  0  0  0  0  0  0  0  0  0  0  0
    7.2709    4.5089   22.7542 C   0  0  0  0  0  0  0  0  0  0  0  0
    5.9698    7.6329   24.6581 C   0  0  0  0  0  0  0  0  0  0  0  0
    4.5542    8.9057   21.7104 O   0  0  0  0  0  0  0  0  0  0  0  0
    6.9895    3.2085   23.0690 C   0  0  0  0  0  0  0  0  0  0  0  0
    7.8391    2.2253   22.7260 N   0  0  0  0  0  0  0  0  0  0  0  0
    8.6968    9.8373   23.6359 C   0  0  0  0  0  0  0  0  0  0  0  0
   12.5135    6.5957   21.8396 C   0  0  0  0  0  0  0  0  0  0  0  0
   10.9406    8.2330   21.1350 C   0  0  0  0  0  0  0  0  0  0  0  0
    9.6648    8.5956   21.7310 C   0  0  0  0  0  0  0  0  0  0  0  0
   10.8829    1.7153   20.9865 C   0  0  0  0  0  0  0  0  0  0  0  0
    5.7768    2.8533   23.7910 C   0  0  0  0  0  0  0  0  0  0  0  0
    9.7977    1.4791   21.6912 N   0  0  0  0  0  0  0  0  0  0  0  0
    6.5976    9.3401   22.6478 N   0  0  0  0  0  0  0  0  0  0  0  0
   11.2031    3.0042   20.6246 C   0  0  0  0  0  0  0  0  0  0  0  0
   12.8688    7.7370   22.7287 C   0  0  0  0  0  0  0  0  0  0  0  0
    7.4487    9.1361   23.6506 C   0  0  0  0  0  0  0  0  0  0  0  0
    8.9772    2.5025   22.0273 C   0  0  0  0  0  0  0  0  0  0  0  0
   10.4859    4.0901   20.9730 C   0  0  0  0  0  0  0  0  0  0  0  0
   11.0962    9.3293   23.5072 C   0  0  0  0  0  0  0  0  0  0  0  0
    5.1273    7.8529   23.6208 N   0  0  0  0  0  0  0  0  0  0  0  0
    9.7552    9.2338   23.0171 N   0  0  0  0  0  0  0  0  0  0  0  0
   11.1797    6.7591   21.3326 N   0  0  0  0  0  0  0  0  0  0  0  0
   11.7728    8.0337   23.7267 C   0  0  0  0  0  0  0  0  0  0  0  0
    7.1194    8.3344   24.6775 C   0  0  0  0  0  0  0  0  0  0  0  0
    8.4311    4.7963   22.0500 C   0  0  0  0  0  0  0  0  0  0  0  0
    8.7393   10.8706   24.1871 O   0  0  0  0  0  0  0  0  0  0  0  0
    9.3093    3.8166   21.6712 C   0  0  0  0  0  0  0  0  0  0  0  0
  1  5  1  0
  1 15  4  0
  1 22  4  0
  2 20  1  0
  2 24  1  0
  3  6  4  0
  3 27  4  0
  4 22  4  0
  4 26  4  0
  6  7  4  0
  6 13  1  0
  7 19  4  0
  8 18  1  0
  8 23  1  0
  8 28  2  0
  9 17  1  0
  9 24  1  0
 10 11  1  0
 10 24  1  0
 11 23  1  0
 12 14  4  0
 12 16  4  0
 14 19  4  0
 15 18  4  0
 16 20  4  0
 17 25  1  0
 18 26  4  0
 19 29  4  0
 20 29  4  0
 21 23  1  0
 21 25  1  0
 27 29  4  0
M  END
$$$$

 Created by Python create_sdf_string function

 29 32  0  0  0  0  0  0  0  0999 V2000
    5.4450    8.7154   22.6662 C   0  0  0  0  0  0  0  0  0  0  0  0
   10.9154    5.4574   20.5483 C   0  0  0  0  0  0  0  0  0  0  0  0
    7.2709    4.5089   22.7542 C   0  0  0  0  0  0  0  0  0  0  0  0
    5.9698    7.6329   24.6581 C   0  0  0  0  0  0  0  0  0  0  0  0
    4.5542    8.9057   21.7104 O   0  0  0  0  0  0  0  0  0  0  0  0
    6.9895    3.2085   23.0690 C   0  0  0  0  0  0  0  0  0  0  0  0
    7.8391    2.2253   22.7260 N   0  0  0  0  0  0  0  0  0  0  0  0
    8.6968    9.8373   23.6359 C   0  0  0  0  0  0  0  0  0  0  0  0
   12.5135    6.5957   21.8396 C   0  0  0  0  0  0  0  0  0  0  0  0
   10.9406    8.2330   21.1350 C   0  0  0  0  0  0  0  0  0  0  0  0
    9.6648    8.5956   21.7310 C   0  0  0  0  0  0  0  0  0  0  0  0
   10.8829    1.7153   20.9865 C   0  0  0  0  0  0  0  0  0  0  0  0
    5.7768    2.8533   23.7910 C   0  0  0  0  0  0  0  0  0  0  0  0
    9.7977    1.4791   21.6912 N   0  0  0  0  0  0  0  0  0  0  0  0
    6.5976    9.3401   22.6478 N   0  0  0  0  0  0  0  0  0  0  0  0
   11.2031    3.0042   20.6246 C   0  0  0  0  0  0  0  0  0  0  0  0
   12.8688    7.7370   22.7287 C   0  0  0  0  0  0  0  0  0  0  0  0
    7.4487    9.1361   23.6506 C   0  0  0  0  0  0  0  0  0  0  0  0
    8.9772    2.5025   22.0273 C   0  0  0  0  0  0  0  0  0  0  0  0
   10.4859    4.0901   20.9730 C   0  0  0  0  0  0  0  0  0  0  0  0
   11.0962    9.3293   23.5072 C   0  0  0  0  0  0  0  0  0  0  0  0
    5.1273    7.8529   23.6208 N   0  0  0  0  0  0  0  0  0  0  0  0
    9.7552    9.2338   23.0171 N   0  0  0  0  0  0  0  0  0  0  0  0
   11.1797    6.7591   21.3326 N   0  0  0  0  0  0  0  0  0  0  0  0
   11.7728    8.0337   23.7267 C   0  0  0  0  0  0  0  0  0  0  0  0
    7.1194    8.3344   24.6775 C   0  0  0  0  0  0  0  0  0  0  0  0
    8.4311    4.7963   22.0500 C   0  0  0  0  0  0  0  0  0  0  0  0
    8.7393   10.8706   24.1871 O   0  0  0  0  0  0  0  0  0  0  0  0
    9.3093    3.8166   21.6712 C   0  0  0  0  0  0  0  0  0  0  0  0
  1  5  1  0
  1 15  4  0
  1 22  4  0
  2 20  1  0
  2 24  1  0
  3  6  4  0
  3 27  4  0
  4 22  4  0
  4 26  4  0
  6  7  4  0
  6 13  1  0
  7 19  4  0
  8 18  1  0
  8 23  1  0
  8 28  2  0
  9 17  1  0
  9 24  1  0
 10 11  1  0
 10 24  1  0
 11 23  1  0
 12 14  4  0
 12 16  4  0
 14 19  4  0
 15 18  4  0
 16 20  4  0
 17 25  1  0
 18 26  4  0
 19 29  4  0
 20 29  4  0
 21 23  1  0
 21 25  1  0
 27 29  4  0
M  END
$$$$

 Created by Python create_sdf_string function

 29 32  0  0  0  0  0  0  0  0999 V2000
    5.4450    8.7154   22.6662 C   0  0  0  0  0  0  0  0  0  0  0  0
   10.9154    5.4574   20.5483 C   0  0  0  0  0  0  0  0  0  0  0  0
    7.2709    4.5089   22.7542 C   0  0  0  0  0  0  0  0  0  0  0  0
    5.9698    7.6329   24.6581 C   0  0  0  0  0  0  0  0  0  0  0  0
    4.5542    8.9057   21.7104 O   0  0  0  0  0  0  0  0  0  0  0  0
    6.9895    3.2085   23.0690 C   0  0  0  0  0  0  0  0  0  0  0  0
    7.8391    2.2253   22.7260 N   0  0  0  0  0  0  0  0  0  0  0  0
    8.6968    9.8373   23.6359 C   0  0  0  0  0  0  0  0  0  0  0  0
   12.5135    6.5957   21.8396 C   0  0  0  0  0  0  0  0  0  0  0  0
   10.9406    8.2330   21.1350 C   0  0  0  0  0  0  0  0  0  0  0  0
    9.6648    8.5956   21.7310 C   0  0  0  0  0  0  0  0  0  0  0  0
   10.8829    1.7153   20.9865 C   0  0  0  0  0  0  0  0  0  0  0  0
    5.7768    2.8533   23.7910 C   0  0  0  0  0  0  0  0  0  0  0  0
    9.7977    1.4791   21.6912 N   0  0  0  0  0  0  0  0  0  0  0  0
    6.5976    9.3401   22.6478 N   0  0  0  0  0  0  0  0  0  0  0  0
   11.2031    3.0042   20.6246 C   0  0  0  0  0  0  0  0  0  0  0  0
   12.8688    7.7370   22.7287 C   0  0  0  0  0  0  0  0  0  0  0  0
    7.4487    9.1361   23.6506 C   0  0  0  0  0  0  0  0  0  0  0  0
    8.9772    2.5025   22.0273 C   0  0  0  0  0  0  0  0  0  0  0  0
   10.4859    4.0901   20.9730 C   0  0  0  0  0  0  0  0  0  0  0  0
   11.0962    9.3293   23.5072 C   0  0  0  0  0  0  0  0  0  0  0  0
    5.1273    7.8529   23.6208 N   0  0  0  0  0  0  0  0  0  0  0  0
    9.7552    9.2338   23.0171 N   0  0  0  0  0  0  0  0  0  0  0  0
   11.1797    6.7591   21.3326 N   0  0  0  0  0  0  0  0  0  0  0  0
   11.7728    8.0337   23.7267 C   0  0  0  0  0  0  0  0  0  0  0  0
    7.1194    8.3344   24.6775 C   0  0  0  0  0  0  0  0  0  0  0  0
    8.4311    4.7963   22.0500 C   0  0  0  0  0  0  0  0  0  0  0  0
    8.7393   10.8706   24.1871 O   0  0  0  0  0  0  0  0  0  0  0  0
    9.3093    3.8166   21.6712 C   0  0  0  0  0  0  0  0  0  0  0  0
  1  5  1  0
  1 15  4  0
  1 22  4  0
  2 20  1  0
  2 24  1  0
  3  6  4  0
  3 27  4  0
  4 22  4  0
  4 26  4  0
  6  7  4  0
  6 13  1  0
  7 19  4  0
  8 18  1  0
  8 23  1  0
  8 28  2  0
  9 17  1  0
  9 24  1  0
 10 11  1  0
 10 24  1  0
 11 23  1  0
 12 14  4  0
 12 16  4  0
 14 19  4  0
 15 18  4  0
 16 20  4  0
 17 25  1  0
 18 26  4  0
 19 29  4  0
 20 29  4  0
 21 23  1  0
 21 25  1  0
 27 29  4  0
M  END
$$$$

 Created by Python create_sdf_string function

 29 32  0  0  0  0  0  0  0  0999 V2000
    5.4450    8.7154   22.6662 C   0  0  0  0  0  0  0  0  0  0  0  0
   10.9154    5.4574   20.5483 C   0  0  0  0  0  0  0  0  0  0  0  0
    7.2709    4.5089   22.7542 C   0  0  0  0  0  0  0  0  0  0  0  0
    5.9698    7.6329   24.6581 C   0  0  0  0  0  0  0  0  0  0  0  0
    4.5542    8.9057   21.7104 O   0  0  0  0  0  0  0  0  0  0  0  0
    6.9895    3.2085   23.0690 C   0  0  0  0  0  0  0  0  0  0  0  0
    7.8391    2.2253   22.7260 N   0  0  0  0  0  0  0  0  0  0  0  0
    8.6968    9.8373   23.6359 C   0  0  0  0  0  0  0  0  0  0  0  0
   12.5135    6.5957   21.8396 C   0  0  0  0  0  0  0  0  0  0  0  0
   10.9406    8.2330   21.1350 C   0  0  0  0  0  0  0  0  0  0  0  0
    9.6648    8.5956   21.7310 C   0  0  0  0  0  0  0  0  0  0  0  0
   10.8829    1.7153   20.9865 C   0  0  0  0  0  0  0  0  0  0  0  0
    5.7768    2.8533   23.7910 C   0  0  0  0  0  0  0  0  0  0  0  0
    9.7977    1.4791   21.6912 N   0  0  0  0  0  0  0  0  0  0  0  0
    6.5976    9.3401   22.6478 N   0  0  0  0  0  0  0  0  0  0  0  0
   11.2031    3.0042   20.6246 C   0  0  0  0  0  0  0  0  0  0  0  0
   12.8688    7.7370   22.7287 C   0  0  0  0  0  0  0  0  0  0  0  0
    7.4487    9.1361   23.6506 C   0  0  0  0  0  0  0  0  0  0  0  0
    8.9772    2.5025   22.0273 C   0  0  0  0  0  0  0  0  0  0  0  0
   10.4859    4.0901   20.9730 C   0  0  0  0  0  0  0  0  0  0  0  0
   11.0962    9.3293   23.5072 C   0  0  0  0  0  0  0  0  0  0  0  0
    5.1273    7.8529   23.6208 N   0  0  0  0  0  0  0  0  0  0  0  0
    9.7552    9.2338   23.0171 N   0  0  0  0  0  0  0  0  0  0  0  0
   11.1797    6.7591   21.3326 N   0  0  0  0  0  0  0  0  0  0  0  0
   11.7728    8.0337   23.7267 C   0  0  0  0  0  0  0  0  0  0  0  0
    7.1194    8.3344   24.6775 C   0  0  0  0  0  0  0  0  0  0  0  0
    8.4311    4.7963   22.0500 C   0  0  0  0  0  0  0  0  0  0  0  0
    8.7393   10.8706   24.1871 O   0  0  0  0  0  0  0  0  0  0  0  0
    9.3093    3.8166   21.6712 C   0  0  0  0  0  0  0  0  0  0  0  0
  1  5  1  0
  1 15  4  0
  1 22  4  0
  2 20  1  0
  2 24  1  0
  3  6  4  0
  3 27  4  0
  4 22  4  0
  4 26  4  0
  6  7  4  0
  6 13  1  0
  7 19  4  0
  8 18  1  0
  8 23  1  0
  8 28  2  0
  9 17  1  0
  9 24  1  0
 10 11  1  0
 10 24  1  0
 11 23  1  0
 12 14  4  0
 12 16  4  0
 14 19  4  0
 15 18  4  0
 16 20  4  0
 17 25  1  0
 18 26  4  0
 19 29  4  0
 20 29  4  0
 21 23  1  0
 21 25  1  0
 27 29  4  0
M  END
$$$$

 Created by Python create_sdf_string function

 29 32  0  0  0  0  0  0  0  0999 V2000
    5.4450    8.7154   22.6662 C   0  0  0  0  0  0  0  0  0  0  0  0
   10.9154    5.4574   20.5483 C   0  0  0  0  0  0  0  0  0  0  0  0
    7.2709    4.5089   22.7542 C   0  0  0  0  0  0  0  0  0  0  0  0
    5.9698    7.6329   24.6581 C   0  0  0  0  0  0  0  0  0  0  0  0
    4.5542    8.9057   21.7104 O   0  0  0  0  0  0  0  0  0  0  0  0
    6.9895    3.2085   23.0690 C   0  0  0  0  0  0  0  0  0  0  0  0
    7.8391    2.2253   22.7260 N   0  0  0  0  0  0  0  0  0  0  0  0
    8.6968    9.8373   23.6359 C   0  0  0  0  0  0  0  0  0  0  0  0
   12.5135    6.5957   21.8396 C   0  0  0  0  0  0  0  0  0  0  0  0
   10.9406    8.2330   21.1350 C   0  0  0  0  0  0  0  0  0  0  0  0
    9.6648    8.5956   21.7310 C   0  0  0  0  0  0  0  0  0  0  0  0
   10.8829    1.7153   20.9865 C   0  0  0  0  0  0  0  0  0  0  0  0
    5.7768    2.8533   23.7910 C   0  0  0  0  0  0  0  0  0  0  0  0
    9.7977    1.4791   21.6912 N   0  0  0  0  0  0  0  0  0  0  0  0
    6.5976    9.3401   22.6478 N   0  0  0  0  0  0  0  0  0  0  0  0
   11.2031    3.0042   20.6246 C   0  0  0  0  0  0  0  0  0  0  0  0
   12.8688    7.7370   22.7287 C   0  0  0  0  0  0  0  0  0  0  0  0
    7.4487    9.1361   23.6506 C   0  0  0  0  0  0  0  0  0  0  0  0
    8.9772    2.5025   22.0273 C   0  0  0  0  0  0  0  0  0  0  0  0
   10.4859    4.0901   20.9730 C   0  0  0  0  0  0  0  0  0  0  0  0
   11.0962    9.3293   23.5072 C   0  0  0  0  0  0  0  0  0  0  0  0
    5.1273    7.8529   23.6208 N   0  0  0  0  0  0  0  0  0  0  0  0
    9.7552    9.2338   23.0171 N   0  0  0  0  0  0  0  0  0  0  0  0
   11.1797    6.7591   21.3326 N   0  0  0  0  0  0  0  0  0  0  0  0
   11.7728    8.0337   23.7267 C   0  0  0  0  0  0  0  0  0  0  0  0
    7.1194    8.3344   24.6775 C   0  0  0  0  0  0  0  0  0  0  0  0
    8.4311    4.7963   22.0500 C   0  0  0  0  0  0  0  0  0  0  0  0
    8.7393   10.8706   24.1871 O   0  0  0  0  0  0  0  0  0  0  0  0
    9.3093    3.8166   21.6712 C   0  0  0  0  0  0  0  0  0  0  0  0
  1  5  1  0
  1 15  4  0
  1 22  4  0
  2 20  1  0
  2 24  1  0
  3  6  4  0
  3 27  4  0
  4 22  4  0
  4 26  4  0
  6  7  4  0
  6 13  1  0
  7 19  4  0
  8 18  1  0
  8 23  1  0
  8 28  2  0
  9 17  1  0
  9 24  1  0
 10 11  1  0
 10 24  1  0
 11 23  1  0
 12 14  4  0
 12 16  4  0
 14 19  4  0
 15 18  4  0
 16 20  4  0
 17 25  1  0
 18 26  4  0
 19 29  4  0
 20 29  4  0
 21 23  1  0
 21 25  1  0
 27 29  4  0
M  END
$$$$

 Created by Python create_sdf_string function

 29 32  0  0  0  0  0  0  0  0999 V2000
    5.4450    8.7154   22.6662 C   0  0  0  0  0  0  0  0  0  0  0  0
   10.9154    5.4574   20.5483 C   0  0  0  0  0  0  0  0  0  0  0  0
    7.2709    4.5089   22.7542 C   0  0  0  0  0  0  0  0  0  0  0  0
    5.9698    7.6329   24.6581 C   0  0  0  0  0  0  0  0  0  0  0  0
    4.5542    8.9057   21.7104 O   0  0  0  0  0  0  0  0  0  0  0  0
    6.9895    3.2085   23.0690 C   0  0  0  0  0  0  0  0  0  0  0  0
    7.8391    2.2253   22.7260 N   0  0  0  0  0  0  0  0  0  0  0  0
    8.6968    9.8373   23.6359 C   0  0  0  0  0  0  0  0  0  0  0  0
   12.5135    6.5957   21.8396 C   0  0  0  0  0  0  0  0  0  0  0  0
   10.9406    8.2330   21.1350 C   0  0  0  0  0  0  0  0  0  0  0  0
    9.6648    8.5956   21.7310 C   0  0  0  0  0  0  0  0  0  0  0  0
   10.8829    1.7153   20.9865 C   0  0  0  0  0  0  0  0  0  0  0  0
    5.7768    2.8533   23.7910 C   0  0  0  0  0  0  0  0  0  0  0  0
    9.7977    1.4791   21.6912 N   0  0  0  0  0  0  0  0  0  0  0  0
    6.5976    9.3401   22.6478 N   0  0  0  0  0  0  0  0  0  0  0  0
   11.2031    3.0042   20.6246 C   0  0  0  0  0  0  0  0  0  0  0  0
   12.8688    7.7370   22.7287 C   0  0  0  0  0  0  0  0  0  0  0  0
    7.4487    9.1361   23.6506 C   0  0  0  0  0  0  0  0  0  0  0  0
    8.9772    2.5025   22.0273 C   0  0  0  0  0  0  0  0  0  0  0  0
   10.4859    4.0901   20.9730 C   0  0  0  0  0  0  0  0  0  0  0  0
   11.0962    9.3293   23.5072 C   0  0  0  0  0  0  0  0  0  0  0  0
    5.1273    7.8529   23.6208 N   0  0  0  0  0  0  0  0  0  0  0  0
    9.7552    9.2338   23.0171 N   0  0  0  0  0  0  0  0  0  0  0  0
   11.1797    6.7591   21.3326 N   0  0  0  0  0  0  0  0  0  0  0  0
   11.7728    8.0337   23.7267 C   0  0  0  0  0  0  0  0  0  0  0  0
    7.1194    8.3344   24.6775 C   0  0  0  0  0  0  0  0  0  0  0  0
    8.4311    4.7963   22.0500 C   0  0  0  0  0  0  0  0  0  0  0  0
    8.7393   10.8706   24.1871 O   0  0  0  0  0  0  0  0  0  0  0  0
    9.3093    3.8166   21.6712 C   0  0  0  0  0  0  0  0  0  0  0  0
  1  5  1  0
  1 15  4  0
  1 22  4  0
  2 20  1  0
  2 24  1  0
  3  6  4  0
  3 27  4  0
  4 22  4  0
  4 26  4  0
  6  7  4  0
  6 13  1  0
  7 19  4  0
  8 18  1  0
  8 23  1  0
  8 28  2  0
  9 17  1  0
  9 24  1  0
 10 11  1  0
 10 24  1  0
 11 23  1  0
 12 14  4  0
 12 16  4  0
 14 19  4  0
 15 18  4  0
 16 20  4  0
 17 25  1  0
 18 26  4  0
 19 29  4  0
 20 29  4  0
 21 23  1  0
 21 25  1  0
 27 29  4  0
M  END
$$$$

 Created by Python create_sdf_string function

 29 32  0  0  0  0  0  0  0  0999 V2000
    5.4450    8.7154   22.6662 C   0  0  0  0  0  0  0  0  0  0  0  0
   10.9154    5.4574   20.5483 C   0  0  0  0  0  0  0  0  0  0  0  0
    7.2709    4.5089   22.7542 C   0  0  0  0  0  0  0  0  0  0  0  0
    5.9698    7.6329   24.6581 C   0  0  0  0  0  0  0  0  0  0  0  0
    4.5542    8.9057   21.7104 O   0  0  0  0  0  0  0  0  0  0  0  0
    6.9895    3.2085   23.0690 C   0  0  0  0  0  0  0  0  0  0  0  0
    7.8391    2.2253   22.7260 N   0  0  0  0  0  0  0  0  0  0  0  0
    8.6968    9.8373   23.6359 C   0  0  0  0  0  0  0  0  0  0  0  0
   12.5135    6.5957   21.8396 C   0  0  0  0  0  0  0  0  0  0  0  0
   10.9406    8.2330   21.1350 C   0  0  0  0  0  0  0  0  0  0  0  0
    9.6648    8.5956   21.7310 C   0  0  0  0  0  0  0  0  0  0  0  0
   10.8829    1.7153   20.9865 C   0  0  0  0  0  0  0  0  0  0  0  0
    5.7768    2.8533   23.7910 C   0  0  0  0  0  0  0  0  0  0  0  0
    9.7977    1.4791   21.6912 N   0  0  0  0  0  0  0  0  0  0  0  0
    6.5976    9.3401   22.6478 N   0  0  0  0  0  0  0  0  0  0  0  0
   11.2031    3.0042   20.6246 C   0  0  0  0  0  0  0  0  0  0  0  0
   12.8688    7.7370   22.7287 C   0  0  0  0  0  0  0  0  0  0  0  0
    7.4487    9.1361   23.6506 C   0  0  0  0  0  0  0  0  0  0  0  0
    8.9772    2.5025   22.0273 C   0  0  0  0  0  0  0  0  0  0  0  0
   10.4859    4.0901   20.9730 C   0  0  0  0  0  0  0  0  0  0  0  0
   11.0962    9.3293   23.5072 C   0  0  0  0  0  0  0  0  0  0  0  0
    5.1273    7.8529   23.6208 N   0  0  0  0  0  0  0  0  0  0  0  0
    9.7552    9.2338   23.0171 N   0  0  0  0  0  0  0  0  0  0  0  0
   11.1797    6.7591   21.3326 N   0  0  0  0  0  0  0  0  0  0  0  0
   11.7728    8.0337   23.7267 C   0  0  0  0  0  0  0  0  0  0  0  0
    7.1194    8.3344   24.6775 C   0  0  0  0  0  0  0  0  0  0  0  0
    8.4311    4.7963   22.0500 C   0  0  0  0  0  0  0  0  0  0  0  0
    8.7393   10.8706   24.1871 O   0  0  0  0  0  0  0  0  0  0  0  0
    9.3093    3.8166   21.6712 C   0  0  0  0  0  0  0  0  0  0  0  0
  1  5  1  0
  1 15  4  0
  1 22  4  0
  2 20  1  0
  2 24  1  0
  3  6  4  0
  3 27  4  0
  4 22  4  0
  4 26  4  0
  6  7  4  0
  6 13  1  0
  7 19  4  0
  8 18  1  0
  8 23  1  0
  8 28  2  0
  9 17  1  0
  9 24  1  0
 10 11  1  0
 10 24  1  0
 11 23  1  0
 12 14  4  0
 12 16  4  0
 14 19  4  0
 15 18  4  0
 16 20  4  0
 17 25  1  0
 18 26  4  0
 19 29  4  0
 20 29  4  0
 21 23  1  0
 21 25  1  0
 27 29  4  0
M  END
$$$$

 Created by Python create_sdf_string function

 29 32  0  0  0  0  0  0  0  0999 V2000
    5.4450    8.7154   22.6662 C   0  0  0  0  0  0  0  0  0  0  0  0
   10.9154    5.4574   20.5483 C   0  0  0  0  0  0  0  0  0  0  0  0
    7.2709    4.5089   22.7542 C   0  0  0  0  0  0  0  0  0  0  0  0
    5.9698    7.6329   24.6581 C   0  0  0  0  0  0  0  0  0  0  0  0
    4.5542    8.9057   21.7104 O   0  0  0  0  0  0  0  0  0  0  0  0
    6.9895    3.2085   23.0690 C   0  0  0  0  0  0  0  0  0  0  0  0
    7.8391    2.2253   22.7260 N   0  0  0  0  0  0  0  0  0  0  0  0
    8.6968    9.8373   23.6359 C   0  0  0  0  0  0  0  0  0  0  0  0
   12.5135    6.5957   21.8396 C   0  0  0  0  0  0  0  0  0  0  0  0
   10.9406    8.2330   21.1350 C   0  0  0  0  0  0  0  0  0  0  0  0
    9.6648    8.5956   21.7310 C   0  0  0  0  0  0  0  0  0  0  0  0
   10.8829    1.7153   20.9865 C   0  0  0  0  0  0  0  0  0  0  0  0
    5.7768    2.8533   23.7910 C   0  0  0  0  0  0  0  0  0  0  0  0
    9.7977    1.4791   21.6912 N   0  0  0  0  0  0  0  0  0  0  0  0
    6.5976    9.3401   22.6478 N   0  0  0  0  0  0  0  0  0  0  0  0
   11.2031    3.0042   20.6246 C   0  0  0  0  0  0  0  0  0  0  0  0
   12.8688    7.7370   22.7287 C   0  0  0  0  0  0  0  0  0  0  0  0
    7.4487    9.1361   23.6506 C   0  0  0  0  0  0  0  0  0  0  0  0
    8.9772    2.5025   22.0273 C   0  0  0  0  0  0  0  0  0  0  0  0
   10.4859    4.0901   20.9730 C   0  0  0  0  0  0  0  0  0  0  0  0
   11.0962    9.3293   23.5072 C   0  0  0  0  0  0  0  0  0  0  0  0
    5.1273    7.8529   23.6208 N   0  0  0  0  0  0  0  0  0  0  0  0
    9.7552    9.2338   23.0171 N   0  0  0  0  0  0  0  0  0  0  0  0
   11.1797    6.7591   21.3326 N   0  0  0  0  0  0  0  0  0  0  0  0
   11.7728    8.0337   23.7267 C   0  0  0  0  0  0  0  0  0  0  0  0
    7.1194    8.3344   24.6775 C   0  0  0  0  0  0  0  0  0  0  0  0
    8.4311    4.7963   22.0500 C   0  0  0  0  0  0  0  0  0  0  0  0
    8.7393   10.8706   24.1871 O   0  0  0  0  0  0  0  0  0  0  0  0
    9.3093    3.8166   21.6712 C   0  0  0  0  0  0  0  0  0  0  0  0
  1  5  1  0
  1 15  4  0
  1 22  4  0
  2 20  1  0
  2 24  1  0
  3  6  4  0
  3 27  4  0
  4 22  4  0
  4 26  4  0
  6  7  4  0
  6 13  1  0
  7 19  4  0
  8 18  1  0
  8 23  1  0
  8 28  2  0
  9 17  1  0
  9 24  1  0
 10 11  1  0
 10 24  1  0
 11 23  1  0
 12 14  4  0
 12 16  4  0
 14 19  4  0
 15 18  4  0
 16 20  4  0
 17 25  1  0
 18 26  4  0
 19 29  4  0
 20 29  4  0
 21 23  1  0
 21 25  1  0
 27 29  4  0
M  END
$$$$

 Created by Python create_sdf_string function

 29 32  0  0  0  0  0  0  0  0999 V2000
    5.4450    8.7154   22.6662 C   0  0  0  0  0  0  0  0  0  0  0  0
   10.9154    5.4574   20.5483 C   0  0  0  0  0  0  0  0  0  0  0  0
    7.2709    4.5089   22.7542 C   0  0  0  0  0  0  0  0  0  0  0  0
    5.9698    7.6329   24.6581 C   0  0  0  0  0  0  0  0  0  0  0  0
    4.5542    8.9057   21.7104 O   0  0  0  0  0  0  0  0  0  0  0  0
    6.9895    3.2085   23.0690 C   0  0  0  0  0  0  0  0  0  0  0  0
    7.8391    2.2253   22.7260 N   0  0  0  0  0  0  0  0  0  0  0  0
    8.6968    9.8373   23.6359 C   0  0  0  0  0  0  0  0  0  0  0  0
   12.5135    6.5957   21.8396 C   0  0  0  0  0  0  0  0  0  0  0  0
   10.9406    8.2330   21.1350 C   0  0  0  0  0  0  0  0  0  0  0  0
    9.6648    8.5956   21.7310 C   0  0  0  0  0  0  0  0  0  0  0  0
   10.8829    1.7153   20.9865 C   0  0  0  0  0  0  0  0  0  0  0  0
    5.7768    2.8533   23.7910 C   0  0  0  0  0  0  0  0  0  0  0  0
    9.7977    1.4791   21.6912 N   0  0  0  0  0  0  0  0  0  0  0  0
    6.5976    9.3401   22.6478 N   0  0  0  0  0  0  0  0  0  0  0  0
   11.2031    3.0042   20.6246 C   0  0  0  0  0  0  0  0  0  0  0  0
   12.8688    7.7370   22.7287 C   0  0  0  0  0  0  0  0  0  0  0  0
    7.4487    9.1361   23.6506 C   0  0  0  0  0  0  0  0  0  0  0  0
    8.9772    2.5025   22.0273 C   0  0  0  0  0  0  0  0  0  0  0  0
   10.4859    4.0901   20.9730 C   0  0  0  0  0  0  0  0  0  0  0  0
   11.0962    9.3293   23.5072 C   0  0  0  0  0  0  0  0  0  0  0  0
    5.1273    7.8529   23.6208 N   0  0  0  0  0  0  0  0  0  0  0  0
    9.7552    9.2338   23.0171 N   0  0  0  0  0  0  0  0  0  0  0  0
   11.1797    6.7591   21.3326 N   0  0  0  0  0  0  0  0  0  0  0  0
   11.7728    8.0337   23.7267 C   0  0  0  0  0  0  0  0  0  0  0  0
    7.1194    8.3344   24.6775 C   0  0  0  0  0  0  0  0  0  0  0  0
    8.4311    4.7963   22.0500 C   0  0  0  0  0  0  0  0  0  0  0  0
    8.7393   10.8706   24.1871 O   0  0  0  0  0  0  0  0  0  0  0  0
    9.3093    3.8166   21.6712 C   0  0  0  0  0  0  0  0  0  0  0  0
  1  5  1  0
  1 15  4  0
  1 22  4  0
  2 20  1  0
  2 24  1  0
  3  6  4  0
  3 27  4  0
  4 22  4  0
  4 26  4  0
  6  7  4  0
  6 13  1  0
  7 19  4  0
  8 18  1  0
  8 23  1  0
  8 28  2  0
  9 17  1  0
  9 24  1  0
 10 11  1  0
 10 24  1  0
 11 23  1  0
 12 14  4  0
 12 16  4  0
 14 19  4  0
 15 18  4  0
 16 20  4  0
 17 25  1  0
 18 26  4  0
 19 29  4  0
 20 29  4  0
 21 23  1  0
 21 25  1  0
 27 29  4  0
M  END
$$$$

 Created by Python create_sdf_string function

 29 32  0  0  0  0  0  0  0  0999 V2000
    5.4450    8.7154   22.6662 C   0  0  0  0  0  0  0  0  0  0  0  0
   10.9154    5.4574   20.5483 C   0  0  0  0  0  0  0  0  0  0  0  0
    7.2709    4.5089   22.7542 C   0  0  0  0  0  0  0  0  0  0  0  0
    5.9698    7.6329   24.6581 C   0  0  0  0  0  0  0  0  0  0  0  0
    4.5542    8.9057   21.7104 O   0  0  0  0  0  0  0  0  0  0  0  0
    6.9895    3.2085   23.0690 C   0  0  0  0  0  0  0  0  0  0  0  0
    7.8391    2.2253   22.7260 N   0  0  0  0  0  0  0  0  0  0  0  0
    8.6968    9.8373   23.6359 C   0  0  0  0  0  0  0  0  0  0  0  0
   12.5135    6.5957   21.8396 C   0  0  0  0  0  0  0  0  0  0  0  0
   10.9406    8.2330   21.1350 C   0  0  0  0  0  0  0  0  0  0  0  0
    9.6648    8.5956   21.7310 C   0  0  0  0  0  0  0  0  0  0  0  0
   10.8829    1.7153   20.9865 C   0  0  0  0  0  0  0  0  0  0  0  0
    5.7768    2.8533   23.7910 C   0  0  0  0  0  0  0  0  0  0  0  0
    9.7977    1.4791   21.6912 N   0  0  0  0  0  0  0  0  0  0  0  0
    6.5976    9.3401   22.6478 N   0  0  0  0  0  0  0  0  0  0  0  0
   11.2031    3.0042   20.6246 C   0  0  0  0  0  0  0  0  0  0  0  0
   12.8688    7.7370   22.7287 C   0  0  0  0  0  0  0  0  0  0  0  0
    7.4487    9.1361   23.6506 C   0  0  0  0  0  0  0  0  0  0  0  0
    8.9772    2.5025   22.0273 C   0  0  0  0  0  0  0  0  0  0  0  0
   10.4859    4.0901   20.9730 C   0  0  0  0  0  0  0  0  0  0  0  0
   11.0962    9.3293   23.5072 C   0  0  0  0  0  0  0  0  0  0  0  0
    5.1273    7.8529   23.6208 N   0  0  0  0  0  0  0  0  0  0  0  0
    9.7552    9.2338   23.0171 N   0  0  0  0  0  0  0  0  0  0  0  0
   11.1797    6.7591   21.3326 N   0  0  0  0  0  0  0  0  0  0  0  0
   11.7728    8.0337   23.7267 C   0  0  0  0  0  0  0  0  0  0  0  0
    7.1194    8.3344   24.6775 C   0  0  0  0  0  0  0  0  0  0  0  0
    8.4311    4.7963   22.0500 C   0  0  0  0  0  0  0  0  0  0  0  0
    8.7393   10.8706   24.1871 O   0  0  0  0  0  0  0  0  0  0  0  0
    9.3093    3.8166   21.6712 C   0  0  0  0  0  0  0  0  0  0  0  0
  1  5  1  0
  1 15  4  0
  1 22  4  0
  2 20  1  0
  2 24  1  0
  3  6  4  0
  3 27  4  0
  4 22  4  0
  4 26  4  0
  6  7  4  0
  6 13  1  0
  7 19  4  0
  8 18  1  0
  8 23  1  0
  8 28  2  0
  9 17  1  0
  9 24  1  0
 10 11  1  0
 10 24  1  0
 11 23  1  0
 12 14  4  0
 12 16  4  0
 14 19  4  0
 15 18  4  0
 16 20  4  0
 17 25  1  0
 18 26  4  0
 19 29  4  0
 20 29  4  0
 21 23  1  0
 21 25  1  0
 27 29  4  0
M  END
$$$$

 Created by Python create_sdf_string function

 29 32  0  0  0  0  0  0  0  0999 V2000
    5.4450    8.7154   22.6662 C   0  0  0  0  0  0  0  0  0  0  0  0
   10.9154    5.4574   20.5483 C   0  0  0  0  0  0  0  0  0  0  0  0
    7.2709    4.5089   22.7542 C   0  0  0  0  0  0  0  0  0  0  0  0
    5.9698    7.6329   24.6581 C   0  0  0  0  0  0  0  0  0  0  0  0
    4.5542    8.9057   21.7104 O   0  0  0  0  0  0  0  0  0  0  0  0
    6.9895    3.2085   23.0690 C   0  0  0  0  0  0  0  0  0  0  0  0
    7.8391    2.2253   22.7260 N   0  0  0  0  0  0  0  0  0  0  0  0
    8.6968    9.8373   23.6359 C   0  0  0  0  0  0  0  0  0  0  0  0
   12.5135    6.5957   21.8396 C   0  0  0  0  0  0  0  0  0  0  0  0
   10.9406    8.2330   21.1350 C   0  0  0  0  0  0  0  0  0  0  0  0
    9.6648    8.5956   21.7310 C   0  0  0  0  0  0  0  0  0  0  0  0
   10.8829    1.7153   20.9865 C   0  0  0  0  0  0  0  0  0  0  0  0
    5.7768    2.8533   23.7910 C   0  0  0  0  0  0  0  0  0  0  0  0
    9.7977    1.4791   21.6912 N   0  0  0  0  0  0  0  0  0  0  0  0
    6.5976    9.3401   22.6478 N   0  0  0  0  0  0  0  0  0  0  0  0
   11.2031    3.0042   20.6246 C   0  0  0  0  0  0  0  0  0  0  0  0
   12.8688    7.7370   22.7287 C   0  0  0  0  0  0  0  0  0  0  0  0
    7.4487    9.1361   23.6506 C   0  0  0  0  0  0  0  0  0  0  0  0
    8.9772    2.5025   22.0273 C   0  0  0  0  0  0  0  0  0  0  0  0
   10.4859    4.0901   20.9730 C   0  0  0  0  0  0  0  0  0  0  0  0
   11.0962    9.3293   23.5072 C   0  0  0  0  0  0  0  0  0  0  0  0
    5.1273    7.8529   23.6208 N   0  0  0  0  0  0  0  0  0  0  0  0
    9.7552    9.2338   23.0171 N   0  0  0  0  0  0  0  0  0  0  0  0
   11.1797    6.7591   21.3326 N   0  0  0  0  0  0  0  0  0  0  0  0
   11.7728    8.0337   23.7267 C   0  0  0  0  0  0  0  0  0  0  0  0
    7.1194    8.3344   24.6775 C   0  0  0  0  0  0  0  0  0  0  0  0
    8.4311    4.7963   22.0500 C   0  0  0  0  0  0  0  0  0  0  0  0
    8.7393   10.8706   24.1871 O   0  0  0  0  0  0  0  0  0  0  0  0
    9.3093    3.8166   21.6712 C   0  0  0  0  0  0  0  0  0  0  0  0
  1  5  1  0
  1 15  4  0
  1 22  4  0
  2 20  1  0
  2 24  1  0
  3  6  4  0
  3 27  4  0
  4 22  4  0
  4 26  4  0
  6  7  4  0
  6 13  1  0
  7 19  4  0
  8 18  1  0
  8 23  1  0
  8 28  2  0
  9 17  1  0
  9 24  1  0
 10 11  1  0
 10 24  1  0
 11 23  1  0
 12 14  4  0
 12 16  4  0
 14 19  4  0
 15 18  4  0
 16 20  4  0
 17 25  1  0
 18 26  4  0
 19 29  4  0
 20 29  4  0
 21 23  1  0
 21 25  1  0
 27 29  4  0
M  END
$$$$

 Created by Python create_sdf_string function

 29 32  0  0  0  0  0  0  0  0999 V2000
    5.4450    8.7154   22.6662 C   0  0  0  0  0  0  0  0  0  0  0  0
   10.9154    5.4574   20.5483 C   0  0  0  0  0  0  0  0  0  0  0  0
    7.2709    4.5089   22.7542 C   0  0  0  0  0  0  0  0  0  0  0  0
    5.9698    7.6329   24.6581 C   0  0  0  0  0  0  0  0  0  0  0  0
    4.5542    8.9057   21.7104 O   0  0  0  0  0  0  0  0  0  0  0  0
    6.9895    3.2085   23.0690 C   0  0  0  0  0  0  0  0  0  0  0  0
    7.8391    2.2253   22.7260 N   0  0  0  0  0  0  0  0  0  0  0  0
    8.6968    9.8373   23.6359 C   0  0  0  0  0  0  0  0  0  0  0  0
   12.5135    6.5957   21.8396 C   0  0  0  0  0  0  0  0  0  0  0  0
   10.9406    8.2330   21.1350 C   0  0  0  0  0  0  0  0  0  0  0  0
    9.6648    8.5956   21.7310 C   0  0  0  0  0  0  0  0  0  0  0  0
   10.8829    1.7153   20.9865 C   0  0  0  0  0  0  0  0  0  0  0  0
    5.7768    2.8533   23.7910 C   0  0  0  0  0  0  0  0  0  0  0  0
    9.7977    1.4791   21.6912 N   0  0  0  0  0  0  0  0  0  0  0  0
    6.5976    9.3401   22.6478 N   0  0  0  0  0  0  0  0  0  0  0  0
   11.2031    3.0042   20.6246 C   0  0  0  0  0  0  0  0  0  0  0  0
   12.8688    7.7370   22.7287 C   0  0  0  0  0  0  0  0  0  0  0  0
    7.4487    9.1361   23.6506 C   0  0  0  0  0  0  0  0  0  0  0  0
    8.9772    2.5025   22.0273 C   0  0  0  0  0  0  0  0  0  0  0  0
   10.4859    4.0901   20.9730 C   0  0  0  0  0  0  0  0  0  0  0  0
   11.0962    9.3293   23.5072 C   0  0  0  0  0  0  0  0  0  0  0  0
    5.1273    7.8529   23.6208 N   0  0  0  0  0  0  0  0  0  0  0  0
    9.7552    9.2338   23.0171 N   0  0  0  0  0  0  0  0  0  0  0  0
   11.1797    6.7591   21.3326 N   0  0  0  0  0  0  0  0  0  0  0  0
   11.7728    8.0337   23.7267 C   0  0  0  0  0  0  0  0  0  0  0  0
    7.1194    8.3344   24.6775 C   0  0  0  0  0  0  0  0  0  0  0  0
    8.4311    4.7963   22.0500 C   0  0  0  0  0  0  0  0  0  0  0  0
    8.7393   10.8706   24.1871 O   0  0  0  0  0  0  0  0  0  0  0  0
    9.3093    3.8166   21.6712 C   0  0  0  0  0  0  0  0  0  0  0  0
  1  5  1  0
  1 15  4  0
  1 22  4  0
  2 20  1  0
  2 24  1  0
  3  6  4  0
  3 27  4  0
  4 22  4  0
  4 26  4  0
  6  7  4  0
  6 13  1  0
  7 19  4  0
  8 18  1  0
  8 23  1  0
  8 28  2  0
  9 17  1  0
  9 24  1  0
 10 11  1  0
 10 24  1  0
 11 23  1  0
 12 14  4  0
 12 16  4  0
 14 19  4  0
 15 18  4  0
 16 20  4  0
 17 25  1  0
 18 26  4  0
 19 29  4  0
 20 29  4  0
 21 23  1  0
 21 25  1  0
 27 29  4  0
M  END
$$$$

 Created by Python create_sdf_string function

 29 32  0  0  0  0  0  0  0  0999 V2000
    5.4450    8.7154   22.6662 C   0  0  0  0  0  0  0  0  0  0  0  0
   10.9154    5.4574   20.5483 C   0  0  0  0  0  0  0  0  0  0  0  0
    7.2709    4.5089   22.7542 C   0  0  0  0  0  0  0  0  0  0  0  0
    5.9698    7.6329   24.6581 C   0  0  0  0  0  0  0  0  0  0  0  0
    4.5542    8.9057   21.7104 O   0  0  0  0  0  0  0  0  0  0  0  0
    6.9895    3.2085   23.0690 C   0  0  0  0  0  0  0  0  0  0  0  0
    7.8391    2.2253   22.7260 N   0  0  0  0  0  0  0  0  0  0  0  0
    8.6968    9.8373   23.6359 C   0  0  0  0  0  0  0  0  0  0  0  0
   12.5135    6.5957   21.8396 C   0  0  0  0  0  0  0  0  0  0  0  0
   10.9406    8.2330   21.1350 C   0  0  0  0  0  0  0  0  0  0  0  0
    9.6648    8.5956   21.7310 C   0  0  0  0  0  0  0  0  0  0  0  0
   10.8829    1.7153   20.9865 C   0  0  0  0  0  0  0  0  0  0  0  0
    5.7768    2.8533   23.7910 C   0  0  0  0  0  0  0  0  0  0  0  0
    9.7977    1.4791   21.6912 N   0  0  0  0  0  0  0  0  0  0  0  0
    6.5976    9.3401   22.6478 N   0  0  0  0  0  0  0  0  0  0  0  0
   11.2031    3.0042   20.6246 C   0  0  0  0  0  0  0  0  0  0  0  0
   12.8688    7.7370   22.7287 C   0  0  0  0  0  0  0  0  0  0  0  0
    7.4487    9.1361   23.6506 C   0  0  0  0  0  0  0  0  0  0  0  0
    8.9772    2.5025   22.0273 C   0  0  0  0  0  0  0  0  0  0  0  0
   10.4859    4.0901   20.9730 C   0  0  0  0  0  0  0  0  0  0  0  0
   11.0962    9.3293   23.5072 C   0  0  0  0  0  0  0  0  0  0  0  0
    5.1273    7.8529   23.6208 N   0  0  0  0  0  0  0  0  0  0  0  0
    9.7552    9.2338   23.0171 N   0  0  0  0  0  0  0  0  0  0  0  0
   11.1797    6.7591   21.3326 N   0  0  0  0  0  0  0  0  0  0  0  0
   11.7728    8.0337   23.7267 C   0  0  0  0  0  0  0  0  0  0  0  0
    7.1194    8.3344   24.6775 C   0  0  0  0  0  0  0  0  0  0  0  0
    8.4311    4.7963   22.0500 C   0  0  0  0  0  0  0  0  0  0  0  0
    8.7393   10.8706   24.1871 O   0  0  0  0  0  0  0  0  0  0  0  0
    9.3093    3.8166   21.6712 C   0  0  0  0  0  0  0  0  0  0  0  0
  1  5  1  0
  1 15  4  0
  1 22  4  0
  2 20  1  0
  2 24  1  0
  3  6  4  0
  3 27  4  0
  4 22  4  0
  4 26  4  0
  6  7  4  0
  6 13  1  0
  7 19  4  0
  8 18  1  0
  8 23  1  0
  8 28  2  0
  9 17  1  0
  9 24  1  0
 10 11  1  0
 10 24  1  0
 11 23  1  0
 12 14  4  0
 12 16  4  0
 14 19  4  0
 15 18  4  0
 16 20  4  0
 17 25  1  0
 18 26  4  0
 19 29  4  0
 20 29  4  0
 21 23  1  0
 21 25  1  0
 27 29  4  0
M  END
$$$$

 Created by Python create_sdf_string function

 29 32  0  0  0  0  0  0  0  0999 V2000
    5.4450    8.7154   22.6662 C   0  0  0  0  0  0  0  0  0  0  0  0
   10.9154    5.4574   20.5483 C   0  0  0  0  0  0  0  0  0  0  0  0
    7.2709    4.5089   22.7542 C   0  0  0  0  0  0  0  0  0  0  0  0
    5.9698    7.6329   24.6581 C   0  0  0  0  0  0  0  0  0  0  0  0
    4.5542    8.9057   21.7104 O   0  0  0  0  0  0  0  0  0  0  0  0
    6.9895    3.2085   23.0690 C   0  0  0  0  0  0  0  0  0  0  0  0
    7.8391    2.2253   22.7260 N   0  0  0  0  0  0  0  0  0  0  0  0
    8.6968    9.8373   23.6359 C   0  0  0  0  0  0  0  0  0  0  0  0
   12.5135    6.5957   21.8396 C   0  0  0  0  0  0  0  0  0  0  0  0
   10.9406    8.2330   21.1350 C   0  0  0  0  0  0  0  0  0  0  0  0
    9.6648    8.5956   21.7310 C   0  0  0  0  0  0  0  0  0  0  0  0
   10.8829    1.7153   20.9865 C   0  0  0  0  0  0  0  0  0  0  0  0
    5.7768    2.8533   23.7910 C   0  0  0  0  0  0  0  0  0  0  0  0
    9.7977    1.4791   21.6912 N   0  0  0  0  0  0  0  0  0  0  0  0
    6.5976    9.3401   22.6478 N   0  0  0  0  0  0  0  0  0  0  0  0
   11.2031    3.0042   20.6246 C   0  0  0  0  0  0  0  0  0  0  0  0
   12.8688    7.7370   22.7287 C   0  0  0  0  0  0  0  0  0  0  0  0
    7.4487    9.1361   23.6506 C   0  0  0  0  0  0  0  0  0  0  0  0
    8.9772    2.5025   22.0273 C   0  0  0  0  0  0  0  0  0  0  0  0
   10.4859    4.0901   20.9730 C   0  0  0  0  0  0  0  0  0  0  0  0
   11.0962    9.3293   23.5072 C   0  0  0  0  0  0  0  0  0  0  0  0
    5.1273    7.8529   23.6208 N   0  0  0  0  0  0  0  0  0  0  0  0
    9.7552    9.2338   23.0171 N   0  0  0  0  0  0  0  0  0  0  0  0
   11.1797    6.7591   21.3326 N   0  0  0  0  0  0  0  0  0  0  0  0
   11.7728    8.0337   23.7267 C   0  0  0  0  0  0  0  0  0  0  0  0
    7.1194    8.3344   24.6775 C   0  0  0  0  0  0  0  0  0  0  0  0
    8.4311    4.7963   22.0500 C   0  0  0  0  0  0  0  0  0  0  0  0
    8.7393   10.8706   24.1871 O   0  0  0  0  0  0  0  0  0  0  0  0
    9.3093    3.8166   21.6712 C   0  0  0  0  0  0  0  0  0  0  0  0
  1  5  1  0
  1 15  4  0
  1 22  4  0
  2 20  1  0
  2 24  1  0
  3  6  4  0
  3 27  4  0
  4 22  4  0
  4 26  4  0
  6  7  4  0
  6 13  1  0
  7 19  4  0
  8 18  1  0
  8 23  1  0
  8 28  2  0
  9 17  1  0
  9 24  1  0
 10 11  1  0
 10 24  1  0
 11 23  1  0
 12 14  4  0
 12 16  4  0
 14 19  4  0
 15 18  4  0
 16 20  4  0
 17 25  1  0
 18 26  4  0
 19 29  4  0
 20 29  4  0
 21 23  1  0
 21 25  1  0
 27 29  4  0
M  END
$$$$

 Created by Python create_sdf_string function

 29 32  0  0  0  0  0  0  0  0999 V2000
    5.4450    8.7154   22.6662 C   0  0  0  0  0  0  0  0  0  0  0  0
   10.9154    5.4574   20.5483 C   0  0  0  0  0  0  0  0  0  0  0  0
    7.2709    4.5089   22.7542 C   0  0  0  0  0  0  0  0  0  0  0  0
    5.9698    7.6329   24.6581 C   0  0  0  0  0  0  0  0  0  0  0  0
    4.5542    8.9057   21.7104 O   0  0  0  0  0  0  0  0  0  0  0  0
    6.9895    3.2085   23.0690 C   0  0  0  0  0  0  0  0  0  0  0  0
    7.8391    2.2253   22.7260 N   0  0  0  0  0  0  0  0  0  0  0  0
    8.6968    9.8373   23.6359 C   0  0  0  0  0  0  0  0  0  0  0  0
   12.5135    6.5957   21.8396 C   0  0  0  0  0  0  0  0  0  0  0  0
   10.9406    8.2330   21.1350 C   0  0  0  0  0  0  0  0  0  0  0  0
    9.6648    8.5956   21.7310 C   0  0  0  0  0  0  0  0  0  0  0  0
   10.8829    1.7153   20.9865 C   0  0  0  0  0  0  0  0  0  0  0  0
    5.7768    2.8533   23.7910 C   0  0  0  0  0  0  0  0  0  0  0  0
    9.7977    1.4791   21.6912 N   0  0  0  0  0  0  0  0  0  0  0  0
    6.5976    9.3401   22.6478 N   0  0  0  0  0  0  0  0  0  0  0  0
   11.2031    3.0042   20.6246 C   0  0  0  0  0  0  0  0  0  0  0  0
   12.8688    7.7370   22.7287 C   0  0  0  0  0  0  0  0  0  0  0  0
    7.4487    9.1361   23.6506 C   0  0  0  0  0  0  0  0  0  0  0  0
    8.9772    2.5025   22.0273 C   0  0  0  0  0  0  0  0  0  0  0  0
   10.4859    4.0901   20.9730 C   0  0  0  0  0  0  0  0  0  0  0  0
   11.0962    9.3293   23.5072 C   0  0  0  0  0  0  0  0  0  0  0  0
    5.1273    7.8529   23.6208 N   0  0  0  0  0  0  0  0  0  0  0  0
    9.7552    9.2338   23.0171 N   0  0  0  0  0  0  0  0  0  0  0  0
   11.1797    6.7591   21.3326 N   0  0  0  0  0  0  0  0  0  0  0  0
   11.7728    8.0337   23.7267 C   0  0  0  0  0  0  0  0  0  0  0  0
    7.1194    8.3344   24.6775 C   0  0  0  0  0  0  0  0  0  0  0  0
    8.4311    4.7963   22.0500 C   0  0  0  0  0  0  0  0  0  0  0  0
    8.7393   10.8706   24.1871 O   0  0  0  0  0  0  0  0  0  0  0  0
    9.3093    3.8166   21.6712 C   0  0  0  0  0  0  0  0  0  0  0  0
  1  5  1  0
  1 15  4  0
  1 22  4  0
  2 20  1  0
  2 24  1  0
  3  6  4  0
  3 27  4  0
  4 22  4  0
  4 26  4  0
  6  7  4  0
  6 13  1  0
  7 19  4  0
  8 18  1  0
  8 23  1  0
  8 28  2  0
  9 17  1  0
  9 24  1  0
 10 11  1  0
 10 24  1  0
 11 23  1  0
 12 14  4  0
 12 16  4  0
 14 19  4  0
 15 18  4  0
 16 20  4  0
 17 25  1  0
 18 26  4  0
 19 29  4  0
 20 29  4  0
 21 23  1  0
 21 25  1  0
 27 29  4  0
M  END
$$$$

 Created by Python create_sdf_string function

 29 32  0  0  0  0  0  0  0  0999 V2000
    5.4450    8.7154   22.6662 C   0  0  0  0  0  0  0  0  0  0  0  0
   10.9154    5.4574   20.5483 C   0  0  0  0  0  0  0  0  0  0  0  0
    7.2709    4.5089   22.7542 C   0  0  0  0  0  0  0  0  0  0  0  0
    5.9698    7.6329   24.6581 C   0  0  0  0  0  0  0  0  0  0  0  0
    4.5542    8.9057   21.7104 O   0  0  0  0  0  0  0  0  0  0  0  0
    6.9895    3.2085   23.0690 C   0  0  0  0  0  0  0  0  0  0  0  0
    7.8391    2.2253   22.7260 N   0  0  0  0  0  0  0  0  0  0  0  0
    8.6968    9.8373   23.6359 C   0  0  0  0  0  0  0  0  0  0  0  0
   12.5135    6.5957   21.8396 C   0  0  0  0  0  0  0  0  0  0  0  0
   10.9406    8.2330   21.1350 C   0  0  0  0  0  0  0  0  0  0  0  0
    9.6648    8.5956   21.7310 C   0  0  0  0  0  0  0  0  0  0  0  0
   10.8829    1.7153   20.9865 C   0  0  0  0  0  0  0  0  0  0  0  0
    5.7768    2.8533   23.7910 C   0  0  0  0  0  0  0  0  0  0  0  0
    9.7977    1.4791   21.6912 N   0  0  0  0  0  0  0  0  0  0  0  0
    6.5976    9.3401   22.6478 N   0  0  0  0  0  0  0  0  0  0  0  0
   11.2031    3.0042   20.6246 C   0  0  0  0  0  0  0  0  0  0  0  0
   12.8688    7.7370   22.7287 C   0  0  0  0  0  0  0  0  0  0  0  0
    7.4487    9.1361   23.6506 C   0  0  0  0  0  0  0  0  0  0  0  0
    8.9772    2.5025   22.0273 C   0  0  0  0  0  0  0  0  0  0  0  0
   10.4859    4.0901   20.9730 C   0  0  0  0  0  0  0  0  0  0  0  0
   11.0962    9.3293   23.5072 C   0  0  0  0  0  0  0  0  0  0  0  0
    5.1273    7.8529   23.6208 N   0  0  0  0  0  0  0  0  0  0  0  0
    9.7552    9.2338   23.0171 N   0  0  0  0  0  0  0  0  0  0  0  0
   11.1797    6.7591   21.3326 N   0  0  0  0  0  0  0  0  0  0  0  0
   11.7728    8.0337   23.7267 C   0  0  0  0  0  0  0  0  0  0  0  0
    7.1194    8.3344   24.6775 C   0  0  0  0  0  0  0  0  0  0  0  0
    8.4311    4.7963   22.0500 C   0  0  0  0  0  0  0  0  0  0  0  0
    8.7393   10.8706   24.1871 O   0  0  0  0  0  0  0  0  0  0  0  0
    9.3093    3.8166   21.6712 C   0  0  0  0  0  0  0  0  0  0  0  0
  1  5  1  0
  1 15  4  0
  1 22  4  0
  2 20  1  0
  2 24  1  0
  3  6  4  0
  3 27  4  0
  4 22  4  0
  4 26  4  0
  6  7  4  0
  6 13  1  0
  7 19  4  0
  8 18  1  0
  8 23  1  0
  8 28  2  0
  9 17  1  0
  9 24  1  0
 10 11  1  0
 10 24  1  0
 11 23  1  0
 12 14  4  0
 12 16  4  0
 14 19  4  0
 15 18  4  0
 16 20  4  0
 17 25  1  0
 18 26  4  0
 19 29  4  0
 20 29  4  0
 21 23  1  0
 21 25  1  0
 27 29  4  0
M  END
$$$$

 Created by Python create_sdf_string function

 29 32  0  0  0  0  0  0  0  0999 V2000
    5.4450    8.7154   22.6662 C   0  0  0  0  0  0  0  0  0  0  0  0
   10.9154    5.4574   20.5483 C   0  0  0  0  0  0  0  0  0  0  0  0
    7.2709    4.5089   22.7542 C   0  0  0  0  0  0  0  0  0  0  0  0
    5.9698    7.6329   24.6581 C   0  0  0  0  0  0  0  0  0  0  0  0
    4.5542    8.9057   21.7104 O   0  0  0  0  0  0  0  0  0  0  0  0
    6.9895    3.2085   23.0690 C   0  0  0  0  0  0  0  0  0  0  0  0
    7.8391    2.2253   22.7260 N   0  0  0  0  0  0  0  0  0  0  0  0
    8.6968    9.8373   23.6359 C   0  0  0  0  0  0  0  0  0  0  0  0
   12.5135    6.5957   21.8396 C   0  0  0  0  0  0  0  0  0  0  0  0
   10.9406    8.2330   21.1350 C   0  0  0  0  0  0  0  0  0  0  0  0
    9.6648    8.5956   21.7310 C   0  0  0  0  0  0  0  0  0  0  0  0
   10.8829    1.7153   20.9865 C   0  0  0  0  0  0  0  0  0  0  0  0
    5.7768    2.8533   23.7910 C   0  0  0  0  0  0  0  0  0  0  0  0
    9.7977    1.4791   21.6912 N   0  0  0  0  0  0  0  0  0  0  0  0
    6.5976    9.3401   22.6478 N   0  0  0  0  0  0  0  0  0  0  0  0
   11.2031    3.0042   20.6246 C   0  0  0  0  0  0  0  0  0  0  0  0
   12.8688    7.7370   22.7287 C   0  0  0  0  0  0  0  0  0  0  0  0
    7.4487    9.1361   23.6506 C   0  0  0  0  0  0  0  0  0  0  0  0
    8.9772    2.5025   22.0273 C   0  0  0  0  0  0  0  0  0  0  0  0
   10.4859    4.0901   20.9730 C   0  0  0  0  0  0  0  0  0  0  0  0
   11.0962    9.3293   23.5072 C   0  0  0  0  0  0  0  0  0  0  0  0
    5.1273    7.8529   23.6208 N   0  0  0  0  0  0  0  0  0  0  0  0
    9.7552    9.2338   23.0171 N   0  0  0  0  0  0  0  0  0  0  0  0
   11.1797    6.7591   21.3326 N   0  0  0  0  0  0  0  0  0  0  0  0
   11.7728    8.0337   23.7267 C   0  0  0  0  0  0  0  0  0  0  0  0
    7.1194    8.3344   24.6775 C   0  0  0  0  0  0  0  0  0  0  0  0
    8.4311    4.7963   22.0500 C   0  0  0  0  0  0  0  0  0  0  0  0
    8.7393   10.8706   24.1871 O   0  0  0  0  0  0  0  0  0  0  0  0
    9.3093    3.8166   21.6712 C   0  0  0  0  0  0  0  0  0  0  0  0
  1  5  1  0
  1 15  4  0
  1 22  4  0
  2 20  1  0
  2 24  1  0
  3  6  4  0
  3 27  4  0
  4 22  4  0
  4 26  4  0
  6  7  4  0
  6 13  1  0
  7 19  4  0
  8 18  1  0
  8 23  1  0
  8 28  2  0
  9 17  1  0
  9 24  1  0
 10 11  1  0
 10 24  1  0
 11 23  1  0
 12 14  4  0
 12 16  4  0
 14 19  4  0
 15 18  4  0
 16 20  4  0
 17 25  1  0
 18 26  4  0
 19 29  4  0
 20 29  4  0
 21 23  1  0
 21 25  1  0
 27 29  4  0
M  END
$$$$

 Created by Python create_sdf_string function

 29 32  0  0  0  0  0  0  0  0999 V2000
    5.4450    8.7154   22.6662 C   0  0  0  0  0  0  0  0  0  0  0  0
   10.9154    5.4574   20.5483 C   0  0  0  0  0  0  0  0  0  0  0  0
    7.2709    4.5089   22.7542 C   0  0  0  0  0  0  0  0  0  0  0  0
    5.9698    7.6329   24.6581 C   0  0  0  0  0  0  0  0  0  0  0  0
    4.5542    8.9057   21.7104 O   0  0  0  0  0  0  0  0  0  0  0  0
    6.9895    3.2085   23.0690 C   0  0  0  0  0  0  0  0  0  0  0  0
    7.8391    2.2253   22.7260 N   0  0  0  0  0  0  0  0  0  0  0  0
    8.6968    9.8373   23.6359 C   0  0  0  0  0  0  0  0  0  0  0  0
   12.5135    6.5957   21.8396 C   0  0  0  0  0  0  0  0  0  0  0  0
   10.9406    8.2330   21.1350 C   0  0  0  0  0  0  0  0  0  0  0  0
    9.6648    8.5956   21.7310 C   0  0  0  0  0  0  0  0  0  0  0  0
   10.8829    1.7153   20.9865 C   0  0  0  0  0  0  0  0  0  0  0  0
    5.7768    2.8533   23.7910 C   0  0  0  0  0  0  0  0  0  0  0  0
    9.7977    1.4791   21.6912 N   0  0  0  0  0  0  0  0  0  0  0  0
    6.5976    9.3401   22.6478 N   0  0  0  0  0  0  0  0  0  0  0  0
   11.2031    3.0042   20.6246 C   0  0  0  0  0  0  0  0  0  0  0  0
   12.8688    7.7370   22.7287 C   0  0  0  0  0  0  0  0  0  0  0  0
    7.4487    9.1361   23.6506 C   0  0  0  0  0  0  0  0  0  0  0  0
    8.9772    2.5025   22.0273 C   0  0  0  0  0  0  0  0  0  0  0  0
   10.4859    4.0901   20.9730 C   0  0  0  0  0  0  0  0  0  0  0  0
   11.0962    9.3293   23.5072 C   0  0  0  0  0  0  0  0  0  0  0  0
    5.1273    7.8529   23.6208 N   0  0  0  0  0  0  0  0  0  0  0  0
    9.7552    9.2338   23.0171 N   0  0  0  0  0  0  0  0  0  0  0  0
   11.1797    6.7591   21.3326 N   0  0  0  0  0  0  0  0  0  0  0  0
   11.7728    8.0337   23.7267 C   0  0  0  0  0  0  0  0  0  0  0  0
    7.1194    8.3344   24.6775 C   0  0  0  0  0  0  0  0  0  0  0  0
    8.4311    4.7963   22.0500 C   0  0  0  0  0  0  0  0  0  0  0  0
    8.7393   10.8706   24.1871 O   0  0  0  0  0  0  0  0  0  0  0  0
    9.3093    3.8166   21.6712 C   0  0  0  0  0  0  0  0  0  0  0  0
  1  5  1  0
  1 15  4  0
  1 22  4  0
  2 20  1  0
  2 24  1  0
  3  6  4  0
  3 27  4  0
  4 22  4  0
  4 26  4  0
  6  7  4  0
  6 13  1  0
  7 19  4  0
  8 18  1  0
  8 23  1  0
  8 28  2  0
  9 17  1  0
  9 24  1  0
 10 11  1  0
 10 24  1  0
 11 23  1  0
 12 14  4  0
 12 16  4  0
 14 19  4  0
 15 18  4  0
 16 20  4  0
 17 25  1  0
 18 26  4  0
 19 29  4  0
 20 29  4  0
 21 23  1  0
 21 25  1  0
 27 29  4  0
M  END
$$$$

 Created by Python create_sdf_string function

 29 32  0  0  0  0  0  0  0  0999 V2000
    5.4450    8.7154   22.6662 C   0  0  0  0  0  0  0  0  0  0  0  0
   10.9154    5.4574   20.5483 C   0  0  0  0  0  0  0  0  0  0  0  0
    7.2709    4.5089   22.7542 C   0  0  0  0  0  0  0  0  0  0  0  0
    5.9698    7.6329   24.6581 C   0  0  0  0  0  0  0  0  0  0  0  0
    4.5542    8.9057   21.7104 O   0  0  0  0  0  0  0  0  0  0  0  0
    6.9895    3.2085   23.0690 C   0  0  0  0  0  0  0  0  0  0  0  0
    7.8391    2.2253   22.7260 N   0  0  0  0  0  0  0  0  0  0  0  0
    8.6968    9.8373   23.6359 C   0  0  0  0  0  0  0  0  0  0  0  0
   12.5135    6.5957   21.8396 C   0  0  0  0  0  0  0  0  0  0  0  0
   10.9406    8.2330   21.1350 C   0  0  0  0  0  0  0  0  0  0  0  0
    9.6648    8.5956   21.7310 C   0  0  0  0  0  0  0  0  0  0  0  0
   10.8829    1.7153   20.9865 C   0  0  0  0  0  0  0  0  0  0  0  0
    5.7768    2.8533   23.7910 C   0  0  0  0  0  0  0  0  0  0  0  0
    9.7977    1.4791   21.6912 N   0  0  0  0  0  0  0  0  0  0  0  0
    6.5976    9.3401   22.6478 N   0  0  0  0  0  0  0  0  0  0  0  0
   11.2031    3.0042   20.6246 C   0  0  0  0  0  0  0  0  0  0  0  0
   12.8688    7.7370   22.7287 C   0  0  0  0  0  0  0  0  0  0  0  0
    7.4487    9.1361   23.6506 C   0  0  0  0  0  0  0  0  0  0  0  0
    8.9772    2.5025   22.0273 C   0  0  0  0  0  0  0  0  0  0  0  0
   10.4859    4.0901   20.9730 C   0  0  0  0  0  0  0  0  0  0  0  0
   11.0962    9.3293   23.5072 C   0  0  0  0  0  0  0  0  0  0  0  0
    5.1273    7.8529   23.6208 N   0  0  0  0  0  0  0  0  0  0  0  0
    9.7552    9.2338   23.0171 N   0  0  0  0  0  0  0  0  0  0  0  0
   11.1797    6.7591   21.3326 N   0  0  0  0  0  0  0  0  0  0  0  0
   11.7728    8.0337   23.7267 C   0  0  0  0  0  0  0  0  0  0  0  0
    7.1194    8.3344   24.6775 C   0  0  0  0  0  0  0  0  0  0  0  0
    8.4311    4.7963   22.0500 C   0  0  0  0  0  0  0  0  0  0  0  0
    8.7393   10.8706   24.1871 O   0  0  0  0  0  0  0  0  0  0  0  0
    9.3093    3.8166   21.6712 C   0  0  0  0  0  0  0  0  0  0  0  0
  1  5  1  0
  1 15  4  0
  1 22  4  0
  2 20  1  0
  2 24  1  0
  3  6  4  0
  3 27  4  0
  4 22  4  0
  4 26  4  0
  6  7  4  0
  6 13  1  0
  7 19  4  0
  8 18  1  0
  8 23  1  0
  8 28  2  0
  9 17  1  0
  9 24  1  0
 10 11  1  0
 10 24  1  0
 11 23  1  0
 12 14  4  0
 12 16  4  0
 14 19  4  0
 15 18  4  0
 16 20  4  0
 17 25  1  0
 18 26  4  0
 19 29  4  0
 20 29  4  0
 21 23  1  0
 21 25  1  0
 27 29  4  0
M  END
$$$$

 Created by Python create_sdf_string function

 29 32  0  0  0  0  0  0  0  0999 V2000
    5.4450    8.7154   22.6662 C   0  0  0  0  0  0  0  0  0  0  0  0
   10.9154    5.4574   20.5483 C   0  0  0  0  0  0  0  0  0  0  0  0
    7.2709    4.5089   22.7542 C   0  0  0  0  0  0  0  0  0  0  0  0
    5.9698    7.6329   24.6581 C   0  0  0  0  0  0  0  0  0  0  0  0
    4.5542    8.9057   21.7104 O   0  0  0  0  0  0  0  0  0  0  0  0
    6.9895    3.2085   23.0690 C   0  0  0  0  0  0  0  0  0  0  0  0
    7.8391    2.2253   22.7260 N   0  0  0  0  0  0  0  0  0  0  0  0
    8.6968    9.8373   23.6359 C   0  0  0  0  0  0  0  0  0  0  0  0
   12.5135    6.5957   21.8396 C   0  0  0  0  0  0  0  0  0  0  0  0
   10.9406    8.2330   21.1350 C   0  0  0  0  0  0  0  0  0  0  0  0
    9.6648    8.5956   21.7310 C   0  0  0  0  0  0  0  0  0  0  0  0
   10.8829    1.7153   20.9865 C   0  0  0  0  0  0  0  0  0  0  0  0
    5.7768    2.8533   23.7910 C   0  0  0  0  0  0  0  0  0  0  0  0
    9.7977    1.4791   21.6912 N   0  0  0  0  0  0  0  0  0  0  0  0
    6.5976    9.3401   22.6478 N   0  0  0  0  0  0  0  0  0  0  0  0
   11.2031    3.0042   20.6246 C   0  0  0  0  0  0  0  0  0  0  0  0
   12.8688    7.7370   22.7287 C   0  0  0  0  0  0  0  0  0  0  0  0
    7.4487    9.1361   23.6506 C   0  0  0  0  0  0  0  0  0  0  0  0
    8.9772    2.5025   22.0273 C   0  0  0  0  0  0  0  0  0  0  0  0
   10.4859    4.0901   20.9730 C   0  0  0  0  0  0  0  0  0  0  0  0
   11.0962    9.3293   23.5072 C   0  0  0  0  0  0  0  0  0  0  0  0
    5.1273    7.8529   23.6208 N   0  0  0  0  0  0  0  0  0  0  0  0
    9.7552    9.2338   23.0171 N   0  0  0  0  0  0  0  0  0  0  0  0
   11.1797    6.7591   21.3326 N   0  0  0  0  0  0  0  0  0  0  0  0
   11.7728    8.0337   23.7267 C   0  0  0  0  0  0  0  0  0  0  0  0
    7.1194    8.3344   24.6775 C   0  0  0  0  0  0  0  0  0  0  0  0
    8.4311    4.7963   22.0500 C   0  0  0  0  0  0  0  0  0  0  0  0
    8.7393   10.8706   24.1871 O   0  0  0  0  0  0  0  0  0  0  0  0
    9.3093    3.8166   21.6712 C   0  0  0  0  0  0  0  0  0  0  0  0
  1  5  1  0
  1 15  4  0
  1 22  4  0
  2 20  1  0
  2 24  1  0
  3  6  4  0
  3 27  4  0
  4 22  4  0
  4 26  4  0
  6  7  4  0
  6 13  1  0
  7 19  4  0
  8 18  1  0
  8 23  1  0
  8 28  2  0
  9 17  1  0
  9 24  1  0
 10 11  1  0
 10 24  1  0
 11 23  1  0
 12 14  4  0
 12 16  4  0
 14 19  4  0
 15 18  4  0
 16 20  4  0
 17 25  1  0
 18 26  4  0
 19 29  4  0
 20 29  4  0
 21 23  1  0
 21 25  1  0
 27 29  4  0
M  END
$$$$

 Created by Python create_sdf_string function

 29 32  0  0  0  0  0  0  0  0999 V2000
    5.4450    8.7154   22.6662 C   0  0  0  0  0  0  0  0  0  0  0  0
   10.9154    5.4574   20.5483 C   0  0  0  0  0  0  0  0  0  0  0  0
    7.2709    4.5089   22.7542 C   0  0  0  0  0  0  0  0  0  0  0  0
    5.9698    7.6329   24.6581 C   0  0  0  0  0  0  0  0  0  0  0  0
    4.5542    8.9057   21.7104 O   0  0  0  0  0  0  0  0  0  0  0  0
    6.9895    3.2085   23.0690 C   0  0  0  0  0  0  0  0  0  0  0  0
    7.8391    2.2253   22.7260 N   0  0  0  0  0  0  0  0  0  0  0  0
    8.6968    9.8373   23.6359 C   0  0  0  0  0  0  0  0  0  0  0  0
   12.5135    6.5957   21.8396 C   0  0  0  0  0  0  0  0  0  0  0  0
   10.9406    8.2330   21.1350 C   0  0  0  0  0  0  0  0  0  0  0  0
    9.6648    8.5956   21.7310 C   0  0  0  0  0  0  0  0  0  0  0  0
   10.8829    1.7153   20.9865 C   0  0  0  0  0  0  0  0  0  0  0  0
    5.7768    2.8533   23.7910 C   0  0  0  0  0  0  0  0  0  0  0  0
    9.7977    1.4791   21.6912 N   0  0  0  0  0  0  0  0  0  0  0  0
    6.5976    9.3401   22.6478 N   0  0  0  0  0  0  0  0  0  0  0  0
   11.2031    3.0042   20.6246 C   0  0  0  0  0  0  0  0  0  0  0  0
   12.8688    7.7370   22.7287 C   0  0  0  0  0  0  0  0  0  0  0  0
    7.4487    9.1361   23.6506 C   0  0  0  0  0  0  0  0  0  0  0  0
    8.9772    2.5025   22.0273 C   0  0  0  0  0  0  0  0  0  0  0  0
   10.4859    4.0901   20.9730 C   0  0  0  0  0  0  0  0  0  0  0  0
   11.0962    9.3293   23.5072 C   0  0  0  0  0  0  0  0  0  0  0  0
    5.1273    7.8529   23.6208 N   0  0  0  0  0  0  0  0  0  0  0  0
    9.7552    9.2338   23.0171 N   0  0  0  0  0  0  0  0  0  0  0  0
   11.1797    6.7591   21.3326 N   0  0  0  0  0  0  0  0  0  0  0  0
   11.7728    8.0337   23.7267 C   0  0  0  0  0  0  0  0  0  0  0  0
    7.1194    8.3344   24.6775 C   0  0  0  0  0  0  0  0  0  0  0  0
    8.4311    4.7963   22.0500 C   0  0  0  0  0  0  0  0  0  0  0  0
    8.7393   10.8706   24.1871 O   0  0  0  0  0  0  0  0  0  0  0  0
    9.3093    3.8166   21.6712 C   0  0  0  0  0  0  0  0  0  0  0  0
  1  5  1  0
  1 15  4  0
  1 22  4  0
  2 20  1  0
  2 24  1  0
  3  6  4  0
  3 27  4  0
  4 22  4  0
  4 26  4  0
  6  7  4  0
  6 13  1  0
  7 19  4  0
  8 18  1  0
  8 23  1  0
  8 28  2  0
  9 17  1  0
  9 24  1  0
 10 11  1  0
 10 24  1  0
 11 23  1  0
 12 14  4  0
 12 16  4  0
 14 19  4  0
 15 18  4  0
 16 20  4  0
 17 25  1  0
 18 26  4  0
 19 29  4  0
 20 29  4  0
 21 23  1  0
 21 25  1  0
 27 29  4  0
M  END
$$$$

 Created by Python create_sdf_string function

 29 32  0  0  0  0  0  0  0  0999 V2000
    5.4450    8.7154   22.6662 C   0  0  0  0  0  0  0  0  0  0  0  0
   10.9154    5.4574   20.5483 C   0  0  0  0  0  0  0  0  0  0  0  0
    7.2709    4.5089   22.7542 C   0  0  0  0  0  0  0  0  0  0  0  0
    5.9698    7.6329   24.6581 C   0  0  0  0  0  0  0  0  0  0  0  0
    4.5542    8.9057   21.7104 O   0  0  0  0  0  0  0  0  0  0  0  0
    6.9895    3.2085   23.0690 C   0  0  0  0  0  0  0  0  0  0  0  0
    7.8391    2.2253   22.7260 N   0  0  0  0  0  0  0  0  0  0  0  0
    8.6968    9.8373   23.6359 C   0  0  0  0  0  0  0  0  0  0  0  0
   12.5135    6.5957   21.8396 C   0  0  0  0  0  0  0  0  0  0  0  0
   10.9406    8.2330   21.1350 C   0  0  0  0  0  0  0  0  0  0  0  0
    9.6648    8.5956   21.7310 C   0  0  0  0  0  0  0  0  0  0  0  0
   10.8829    1.7153   20.9865 C   0  0  0  0  0  0  0  0  0  0  0  0
    5.7768    2.8533   23.7910 C   0  0  0  0  0  0  0  0  0  0  0  0
    9.7977    1.4791   21.6912 N   0  0  0  0  0  0  0  0  0  0  0  0
    6.5976    9.3401   22.6478 N   0  0  0  0  0  0  0  0  0  0  0  0
   11.2031    3.0042   20.6246 C   0  0  0  0  0  0  0  0  0  0  0  0
   12.8688    7.7370   22.7287 C   0  0  0  0  0  0  0  0  0  0  0  0
    7.4487    9.1361   23.6506 C   0  0  0  0  0  0  0  0  0  0  0  0
    8.9772    2.5025   22.0273 C   0  0  0  0  0  0  0  0  0  0  0  0
   10.4859    4.0901   20.9730 C   0  0  0  0  0  0  0  0  0  0  0  0
   11.0962    9.3293   23.5072 C   0  0  0  0  0  0  0  0  0  0  0  0
    5.1273    7.8529   23.6208 N   0  0  0  0  0  0  0  0  0  0  0  0
    9.7552    9.2338   23.0171 N   0  0  0  0  0  0  0  0  0  0  0  0
   11.1797    6.7591   21.3326 N   0  0  0  0  0  0  0  0  0  0  0  0
   11.7728    8.0337   23.7267 C   0  0  0  0  0  0  0  0  0  0  0  0
    7.1194    8.3344   24.6775 C   0  0  0  0  0  0  0  0  0  0  0  0
    8.4311    4.7963   22.0500 C   0  0  0  0  0  0  0  0  0  0  0  0
    8.7393   10.8706   24.1871 O   0  0  0  0  0  0  0  0  0  0  0  0
    9.3093    3.8166   21.6712 C   0  0  0  0  0  0  0  0  0  0  0  0
  1  5  1  0
  1 15  4  0
  1 22  4  0
  2 20  1  0
  2 24  1  0
  3  6  4  0
  3 27  4  0
  4 22  4  0
  4 26  4  0
  6  7  4  0
  6 13  1  0
  7 19  4  0
  8 18  1  0
  8 23  1  0
  8 28  2  0
  9 17  1  0
  9 24  1  0
 10 11  1  0
 10 24  1  0
 11 23  1  0
 12 14  4  0
 12 16  4  0
 14 19  4  0
 15 18  4  0
 16 20  4  0
 17 25  1  0
 18 26  4  0
 19 29  4  0
 20 29  4  0
 21 23  1  0
 21 25  1  0
 27 29  4  0
M  END
$$$$

 Created by Python create_sdf_string function

 29 32  0  0  0  0  0  0  0  0999 V2000
    5.4450    8.7154   22.6662 C   0  0  0  0  0  0  0  0  0  0  0  0
   10.9154    5.4574   20.5483 C   0  0  0  0  0  0  0  0  0  0  0  0
    7.2709    4.5089   22.7542 C   0  0  0  0  0  0  0  0  0  0  0  0
    5.9698    7.6329   24.6581 C   0  0  0  0  0  0  0  0  0  0  0  0
    4.5542    8.9057   21.7104 O   0  0  0  0  0  0  0  0  0  0  0  0
    6.9895    3.2085   23.0690 C   0  0  0  0  0  0  0  0  0  0  0  0
    7.8391    2.2253   22.7260 N   0  0  0  0  0  0  0  0  0  0  0  0
    8.6968    9.8373   23.6359 C   0  0  0  0  0  0  0  0  0  0  0  0
   12.5135    6.5957   21.8396 C   0  0  0  0  0  0  0  0  0  0  0  0
   10.9406    8.2330   21.1350 C   0  0  0  0  0  0  0  0  0  0  0  0
    9.6648    8.5956   21.7310 C   0  0  0  0  0  0  0  0  0  0  0  0
   10.8829    1.7153   20.9865 C   0  0  0  0  0  0  0  0  0  0  0  0
    5.7768    2.8533   23.7910 C   0  0  0  0  0  0  0  0  0  0  0  0
    9.7977    1.4791   21.6912 N   0  0  0  0  0  0  0  0  0  0  0  0
    6.5976    9.3401   22.6478 N   0  0  0  0  0  0  0  0  0  0  0  0
   11.2031    3.0042   20.6246 C   0  0  0  0  0  0  0  0  0  0  0  0
   12.8688    7.7370   22.7287 C   0  0  0  0  0  0  0  0  0  0  0  0
    7.4487    9.1361   23.6506 C   0  0  0  0  0  0  0  0  0  0  0  0
    8.9772    2.5025   22.0273 C   0  0  0  0  0  0  0  0  0  0  0  0
   10.4859    4.0901   20.9730 C   0  0  0  0  0  0  0  0  0  0  0  0
   11.0962    9.3293   23.5072 C   0  0  0  0  0  0  0  0  0  0  0  0
    5.1273    7.8529   23.6208 N   0  0  0  0  0  0  0  0  0  0  0  0
    9.7552    9.2338   23.0171 N   0  0  0  0  0  0  0  0  0  0  0  0
   11.1797    6.7591   21.3326 N   0  0  0  0  0  0  0  0  0  0  0  0
   11.7728    8.0337   23.7267 C   0  0  0  0  0  0  0  0  0  0  0  0
    7.1194    8.3344   24.6775 C   0  0  0  0  0  0  0  0  0  0  0  0
    8.4311    4.7963   22.0500 C   0  0  0  0  0  0  0  0  0  0  0  0
    8.7393   10.8706   24.1871 O   0  0  0  0  0  0  0  0  0  0  0  0
    9.3093    3.8166   21.6712 C   0  0  0  0  0  0  0  0  0  0  0  0
  1  5  1  0
  1 15  4  0
  1 22  4  0
  2 20  1  0
  2 24  1  0
  3  6  4  0
  3 27  4  0
  4 22  4  0
  4 26  4  0
  6  7  4  0
  6 13  1  0
  7 19  4  0
  8 18  1  0
  8 23  1  0
  8 28  2  0
  9 17  1  0
  9 24  1  0
 10 11  1  0
 10 24  1  0
 11 23  1  0
 12 14  4  0
 12 16  4  0
 14 19  4  0
 15 18  4  0
 16 20  4  0
 17 25  1  0
 18 26  4  0
 19 29  4  0
 20 29  4  0
 21 23  1  0
 21 25  1  0
 27 29  4  0
M  END
$$$$

 Created by Python create_sdf_string function

 29 32  0  0  0  0  0  0  0  0999 V2000
    5.4450    8.7154   22.6662 C   0  0  0  0  0  0  0  0  0  0  0  0
   10.9154    5.4574   20.5483 C   0  0  0  0  0  0  0  0  0  0  0  0
    7.2709    4.5089   22.7542 C   0  0  0  0  0  0  0  0  0  0  0  0
    5.9698    7.6329   24.6581 C   0  0  0  0  0  0  0  0  0  0  0  0
    4.5542    8.9057   21.7104 O   0  0  0  0  0  0  0  0  0  0  0  0
    6.9895    3.2085   23.0690 C   0  0  0  0  0  0  0  0  0  0  0  0
    7.8391    2.2253   22.7260 N   0  0  0  0  0  0  0  0  0  0  0  0
    8.6968    9.8373   23.6359 C   0  0  0  0  0  0  0  0  0  0  0  0
   12.5135    6.5957   21.8396 C   0  0  0  0  0  0  0  0  0  0  0  0
   10.9406    8.2330   21.1350 C   0  0  0  0  0  0  0  0  0  0  0  0
    9.6648    8.5956   21.7310 C   0  0  0  0  0  0  0  0  0  0  0  0
   10.8829    1.7153   20.9865 C   0  0  0  0  0  0  0  0  0  0  0  0
    5.7768    2.8533   23.7910 C   0  0  0  0  0  0  0  0  0  0  0  0
    9.7977    1.4791   21.6912 N   0  0  0  0  0  0  0  0  0  0  0  0
    6.5976    9.3401   22.6478 N   0  0  0  0  0  0  0  0  0  0  0  0
   11.2031    3.0042   20.6246 C   0  0  0  0  0  0  0  0  0  0  0  0
   12.8688    7.7370   22.7287 C   0  0  0  0  0  0  0  0  0  0  0  0
    7.4487    9.1361   23.6506 C   0  0  0  0  0  0  0  0  0  0  0  0
    8.9772    2.5025   22.0273 C   0  0  0  0  0  0  0  0  0  0  0  0
   10.4859    4.0901   20.9730 C   0  0  0  0  0  0  0  0  0  0  0  0
   11.0962    9.3293   23.5072 C   0  0  0  0  0  0  0  0  0  0  0  0
    5.1273    7.8529   23.6208 N   0  0  0  0  0  0  0  0  0  0  0  0
    9.7552    9.2338   23.0171 N   0  0  0  0  0  0  0  0  0  0  0  0
   11.1797    6.7591   21.3326 N   0  0  0  0  0  0  0  0  0  0  0  0
   11.7728    8.0337   23.7267 C   0  0  0  0  0  0  0  0  0  0  0  0
    7.1194    8.3344   24.6775 C   0  0  0  0  0  0  0  0  0  0  0  0
    8.4311    4.7963   22.0500 C   0  0  0  0  0  0  0  0  0  0  0  0
    8.7393   10.8706   24.1871 O   0  0  0  0  0  0  0  0  0  0  0  0
    9.3093    3.8166   21.6712 C   0  0  0  0  0  0  0  0  0  0  0  0
  1  5  1  0
  1 15  4  0
  1 22  4  0
  2 20  1  0
  2 24  1  0
  3  6  4  0
  3 27  4  0
  4 22  4  0
  4 26  4  0
  6  7  4  0
  6 13  1  0
  7 19  4  0
  8 18  1  0
  8 23  1  0
  8 28  2  0
  9 17  1  0
  9 24  1  0
 10 11  1  0
 10 24  1  0
 11 23  1  0
 12 14  4  0
 12 16  4  0
 14 19  4  0
 15 18  4  0
 16 20  4  0
 17 25  1  0
 18 26  4  0
 19 29  4  0
 20 29  4  0
 21 23  1  0
 21 25  1  0
 27 29  4  0
M  END
$$$$

 Created by Python create_sdf_string function

 29 32  0  0  0  0  0  0  0  0999 V2000
    5.4450    8.7154   22.6662 C   0  0  0  0  0  0  0  0  0  0  0  0
   10.9154    5.4574   20.5483 C   0  0  0  0  0  0  0  0  0  0  0  0
    7.2709    4.5089   22.7542 C   0  0  0  0  0  0  0  0  0  0  0  0
    5.9698    7.6329   24.6581 C   0  0  0  0  0  0  0  0  0  0  0  0
    4.5542    8.9057   21.7104 O   0  0  0  0  0  0  0  0  0  0  0  0
    6.9895    3.2085   23.0690 C   0  0  0  0  0  0  0  0  0  0  0  0
    7.8391    2.2253   22.7260 N   0  0  0  0  0  0  0  0  0  0  0  0
    8.6968    9.8373   23.6359 C   0  0  0  0  0  0  0  0  0  0  0  0
   12.5135    6.5957   21.8396 C   0  0  0  0  0  0  0  0  0  0  0  0
   10.9406    8.2330   21.1350 C   0  0  0  0  0  0  0  0  0  0  0  0
    9.6648    8.5956   21.7310 C   0  0  0  0  0  0  0  0  0  0  0  0
   10.8829    1.7153   20.9865 C   0  0  0  0  0  0  0  0  0  0  0  0
    5.7768    2.8533   23.7910 C   0  0  0  0  0  0  0  0  0  0  0  0
    9.7977    1.4791   21.6912 N   0  0  0  0  0  0  0  0  0  0  0  0
    6.5976    9.3401   22.6478 N   0  0  0  0  0  0  0  0  0  0  0  0
   11.2031    3.0042   20.6246 C   0  0  0  0  0  0  0  0  0  0  0  0
   12.8688    7.7370   22.7287 C   0  0  0  0  0  0  0  0  0  0  0  0
    7.4487    9.1361   23.6506 C   0  0  0  0  0  0  0  0  0  0  0  0
    8.9772    2.5025   22.0273 C   0  0  0  0  0  0  0  0  0  0  0  0
   10.4859    4.0901   20.9730 C   0  0  0  0  0  0  0  0  0  0  0  0
   11.0962    9.3293   23.5072 C   0  0  0  0  0  0  0  0  0  0  0  0
    5.1273    7.8529   23.6208 N   0  0  0  0  0  0  0  0  0  0  0  0
    9.7552    9.2338   23.0171 N   0  0  0  0  0  0  0  0  0  0  0  0
   11.1797    6.7591   21.3326 N   0  0  0  0  0  0  0  0  0  0  0  0
   11.7728    8.0337   23.7267 C   0  0  0  0  0  0  0  0  0  0  0  0
    7.1194    8.3344   24.6775 C   0  0  0  0  0  0  0  0  0  0  0  0
    8.4311    4.7963   22.0500 C   0  0  0  0  0  0  0  0  0  0  0  0
    8.7393   10.8706   24.1871 O   0  0  0  0  0  0  0  0  0  0  0  0
    9.3093    3.8166   21.6712 C   0  0  0  0  0  0  0  0  0  0  0  0
  1  5  1  0
  1 15  4  0
  1 22  4  0
  2 20  1  0
  2 24  1  0
  3  6  4  0
  3 27  4  0
  4 22  4  0
  4 26  4  0
  6  7  4  0
  6 13  1  0
  7 19  4  0
  8 18  1  0
  8 23  1  0
  8 28  2  0
  9 17  1  0
  9 24  1  0
 10 11  1  0
 10 24  1  0
 11 23  1  0
 12 14  4  0
 12 16  4  0
 14 19  4  0
 15 18  4  0
 16 20  4  0
 17 25  1  0
 18 26  4  0
 19 29  4  0
 20 29  4  0
 21 23  1  0
 21 25  1  0
 27 29  4  0
M  END
$$$$

 Created by Python create_sdf_string function

 29 32  0  0  0  0  0  0  0  0999 V2000
    5.4450    8.7154   22.6662 C   0  0  0  0  0  0  0  0  0  0  0  0
   10.9154    5.4574   20.5483 C   0  0  0  0  0  0  0  0  0  0  0  0
    7.2709    4.5089   22.7542 C   0  0  0  0  0  0  0  0  0  0  0  0
    5.9698    7.6329   24.6581 C   0  0  0  0  0  0  0  0  0  0  0  0
    4.5542    8.9057   21.7104 O   0  0  0  0  0  0  0  0  0  0  0  0
    6.9895    3.2085   23.0690 C   0  0  0  0  0  0  0  0  0  0  0  0
    7.8391    2.2253   22.7260 N   0  0  0  0  0  0  0  0  0  0  0  0
    8.6968    9.8373   23.6359 C   0  0  0  0  0  0  0  0  0  0  0  0
   12.5135    6.5957   21.8396 C   0  0  0  0  0  0  0  0  0  0  0  0
   10.9406    8.2330   21.1350 C   0  0  0  0  0  0  0  0  0  0  0  0
    9.6648    8.5956   21.7310 C   0  0  0  0  0  0  0  0  0  0  0  0
   10.8829    1.7153   20.9865 C   0  0  0  0  0  0  0  0  0  0  0  0
    5.7768    2.8533   23.7910 C   0  0  0  0  0  0  0  0  0  0  0  0
    9.7977    1.4791   21.6912 N   0  0  0  0  0  0  0  0  0  0  0  0
    6.5976    9.3401   22.6478 N   0  0  0  0  0  0  0  0  0  0  0  0
   11.2031    3.0042   20.6246 C   0  0  0  0  0  0  0  0  0  0  0  0
   12.8688    7.7370   22.7287 C   0  0  0  0  0  0  0  0  0  0  0  0
    7.4487    9.1361   23.6506 C   0  0  0  0  0  0  0  0  0  0  0  0
    8.9772    2.5025   22.0273 C   0  0  0  0  0  0  0  0  0  0  0  0
   10.4859    4.0901   20.9730 C   0  0  0  0  0  0  0  0  0  0  0  0
   11.0962    9.3293   23.5072 C   0  0  0  0  0  0  0  0  0  0  0  0
    5.1273    7.8529   23.6208 N   0  0  0  0  0  0  0  0  0  0  0  0
    9.7552    9.2338   23.0171 N   0  0  0  0  0  0  0  0  0  0  0  0
   11.1797    6.7591   21.3326 N   0  0  0  0  0  0  0  0  0  0  0  0
   11.7728    8.0337   23.7267 C   0  0  0  0  0  0  0  0  0  0  0  0
    7.1194    8.3344   24.6775 C   0  0  0  0  0  0  0  0  0  0  0  0
    8.4311    4.7963   22.0500 C   0  0  0  0  0  0  0  0  0  0  0  0
    8.7393   10.8706   24.1871 O   0  0  0  0  0  0  0  0  0  0  0  0
    9.3093    3.8166   21.6712 C   0  0  0  0  0  0  0  0  0  0  0  0
  1  5  1  0
  1 15  4  0
  1 22  4  0
  2 20  1  0
  2 24  1  0
  3  6  4  0
  3 27  4  0
  4 22  4  0
  4 26  4  0
  6  7  4  0
  6 13  1  0
  7 19  4  0
  8 18  1  0
  8 23  1  0
  8 28  2  0
  9 17  1  0
  9 24  1  0
 10 11  1  0
 10 24  1  0
 11 23  1  0
 12 14  4  0
 12 16  4  0
 14 19  4  0
 15 18  4  0
 16 20  4  0
 17 25  1  0
 18 26  4  0
 19 29  4  0
 20 29  4  0
 21 23  1  0
 21 25  1  0
 27 29  4  0
M  END
$$$$

 Created by Python create_sdf_string function

 29 32  0  0  0  0  0  0  0  0999 V2000
    5.4450    8.7154   22.6662 C   0  0  0  0  0  0  0  0  0  0  0  0
   10.9154    5.4574   20.5483 C   0  0  0  0  0  0  0  0  0  0  0  0
    7.2709    4.5089   22.7542 C   0  0  0  0  0  0  0  0  0  0  0  0
    5.9698    7.6329   24.6581 C   0  0  0  0  0  0  0  0  0  0  0  0
    4.5542    8.9057   21.7104 O   0  0  0  0  0  0  0  0  0  0  0  0
    6.9895    3.2085   23.0690 C   0  0  0  0  0  0  0  0  0  0  0  0
    7.8391    2.2253   22.7260 N   0  0  0  0  0  0  0  0  0  0  0  0
    8.6968    9.8373   23.6359 C   0  0  0  0  0  0  0  0  0  0  0  0
   12.5135    6.5957   21.8396 C   0  0  0  0  0  0  0  0  0  0  0  0
   10.9406    8.2330   21.1350 C   0  0  0  0  0  0  0  0  0  0  0  0
    9.6648    8.5956   21.7310 C   0  0  0  0  0  0  0  0  0  0  0  0
   10.8829    1.7153   20.9865 C   0  0  0  0  0  0  0  0  0  0  0  0
    5.7768    2.8533   23.7910 C   0  0  0  0  0  0  0  0  0  0  0  0
    9.7977    1.4791   21.6912 N   0  0  0  0  0  0  0  0  0  0  0  0
    6.5976    9.3401   22.6478 N   0  0  0  0  0  0  0  0  0  0  0  0
   11.2031    3.0042   20.6246 C   0  0  0  0  0  0  0  0  0  0  0  0
   12.8688    7.7370   22.7287 C   0  0  0  0  0  0  0  0  0  0  0  0
    7.4487    9.1361   23.6506 C   0  0  0  0  0  0  0  0  0  0  0  0
    8.9772    2.5025   22.0273 C   0  0  0  0  0  0  0  0  0  0  0  0
   10.4859    4.0901   20.9730 C   0  0  0  0  0  0  0  0  0  0  0  0
   11.0962    9.3293   23.5072 C   0  0  0  0  0  0  0  0  0  0  0  0
    5.1273    7.8529   23.6208 N   0  0  0  0  0  0  0  0  0  0  0  0
    9.7552    9.2338   23.0171 N   0  0  0  0  0  0  0  0  0  0  0  0
   11.1797    6.7591   21.3326 N   0  0  0  0  0  0  0  0  0  0  0  0
   11.7728    8.0337   23.7267 C   0  0  0  0  0  0  0  0  0  0  0  0
    7.1194    8.3344   24.6775 C   0  0  0  0  0  0  0  0  0  0  0  0
    8.4311    4.7963   22.0500 C   0  0  0  0  0  0  0  0  0  0  0  0
    8.7393   10.8706   24.1871 O   0  0  0  0  0  0  0  0  0  0  0  0
    9.3093    3.8166   21.6712 C   0  0  0  0  0  0  0  0  0  0  0  0
  1  5  1  0
  1 15  4  0
  1 22  4  0
  2 20  1  0
  2 24  1  0
  3  6  4  0
  3 27  4  0
  4 22  4  0
  4 26  4  0
  6  7  4  0
  6 13  1  0
  7 19  4  0
  8 18  1  0
  8 23  1  0
  8 28  2  0
  9 17  1  0
  9 24  1  0
 10 11  1  0
 10 24  1  0
 11 23  1  0
 12 14  4  0
 12 16  4  0
 14 19  4  0
 15 18  4  0
 16 20  4  0
 17 25  1  0
 18 26  4  0
 19 29  4  0
 20 29  4  0
 21 23  1  0
 21 25  1  0
 27 29  4  0
M  END
$$$$

 Created by Python create_sdf_string function

 29 32  0  0  0  0  0  0  0  0999 V2000
    5.4450    8.7154   22.6662 C   0  0  0  0  0  0  0  0  0  0  0  0
   10.9154    5.4574   20.5483 C   0  0  0  0  0  0  0  0  0  0  0  0
    7.2709    4.5089   22.7542 C   0  0  0  0  0  0  0  0  0  0  0  0
    5.9698    7.6329   24.6581 C   0  0  0  0  0  0  0  0  0  0  0  0
    4.5542    8.9057   21.7104 O   0  0  0  0  0  0  0  0  0  0  0  0
    6.9895    3.2085   23.0690 C   0  0  0  0  0  0  0  0  0  0  0  0
    7.8391    2.2253   22.7260 N   0  0  0  0  0  0  0  0  0  0  0  0
    8.6968    9.8373   23.6359 C   0  0  0  0  0  0  0  0  0  0  0  0
   12.5135    6.5957   21.8396 C   0  0  0  0  0  0  0  0  0  0  0  0
   10.9406    8.2330   21.1350 C   0  0  0  0  0  0  0  0  0  0  0  0
    9.6648    8.5956   21.7310 C   0  0  0  0  0  0  0  0  0  0  0  0
   10.8829    1.7153   20.9865 C   0  0  0  0  0  0  0  0  0  0  0  0
    5.7768    2.8533   23.7910 C   0  0  0  0  0  0  0  0  0  0  0  0
    9.7977    1.4791   21.6912 N   0  0  0  0  0  0  0  0  0  0  0  0
    6.5976    9.3401   22.6478 N   0  0  0  0  0  0  0  0  0  0  0  0
   11.2031    3.0042   20.6246 C   0  0  0  0  0  0  0  0  0  0  0  0
   12.8688    7.7370   22.7287 C   0  0  0  0  0  0  0  0  0  0  0  0
    7.4487    9.1361   23.6506 C   0  0  0  0  0  0  0  0  0  0  0  0
    8.9772    2.5025   22.0273 C   0  0  0  0  0  0  0  0  0  0  0  0
   10.4859    4.0901   20.9730 C   0  0  0  0  0  0  0  0  0  0  0  0
   11.0962    9.3293   23.5072 C   0  0  0  0  0  0  0  0  0  0  0  0
    5.1273    7.8529   23.6208 N   0  0  0  0  0  0  0  0  0  0  0  0
    9.7552    9.2338   23.0171 N   0  0  0  0  0  0  0  0  0  0  0  0
   11.1797    6.7591   21.3326 N   0  0  0  0  0  0  0  0  0  0  0  0
   11.7728    8.0337   23.7267 C   0  0  0  0  0  0  0  0  0  0  0  0
    7.1194    8.3344   24.6775 C   0  0  0  0  0  0  0  0  0  0  0  0
    8.4311    4.7963   22.0500 C   0  0  0  0  0  0  0  0  0  0  0  0
    8.7393   10.8706   24.1871 O   0  0  0  0  0  0  0  0  0  0  0  0
    9.3093    3.8166   21.6712 C   0  0  0  0  0  0  0  0  0  0  0  0
  1  5  1  0
  1 15  4  0
  1 22  4  0
  2 20  1  0
  2 24  1  0
  3  6  4  0
  3 27  4  0
  4 22  4  0
  4 26  4  0
  6  7  4  0
  6 13  1  0
  7 19  4  0
  8 18  1  0
  8 23  1  0
  8 28  2  0
  9 17  1  0
  9 24  1  0
 10 11  1  0
 10 24  1  0
 11 23  1  0
 12 14  4  0
 12 16  4  0
 14 19  4  0
 15 18  4  0
 16 20  4  0
 17 25  1  0
 18 26  4  0
 19 29  4  0
 20 29  4  0
 21 23  1  0
 21 25  1  0
 27 29  4  0
M  END
$$$$

 Created by Python create_sdf_string function

 29 32  0  0  0  0  0  0  0  0999 V2000
    5.4450    8.7154   22.6662 C   0  0  0  0  0  0  0  0  0  0  0  0
   10.9154    5.4574   20.5483 C   0  0  0  0  0  0  0  0  0  0  0  0
    7.2709    4.5089   22.7542 C   0  0  0  0  0  0  0  0  0  0  0  0
    5.9698    7.6329   24.6581 C   0  0  0  0  0  0  0  0  0  0  0  0
    4.5542    8.9057   21.7104 O   0  0  0  0  0  0  0  0  0  0  0  0
    6.9895    3.2085   23.0690 C   0  0  0  0  0  0  0  0  0  0  0  0
    7.8391    2.2253   22.7260 N   0  0  0  0  0  0  0  0  0  0  0  0
    8.6968    9.8373   23.6359 C   0  0  0  0  0  0  0  0  0  0  0  0
   12.5135    6.5957   21.8396 C   0  0  0  0  0  0  0  0  0  0  0  0
   10.9406    8.2330   21.1350 C   0  0  0  0  0  0  0  0  0  0  0  0
    9.6648    8.5956   21.7310 C   0  0  0  0  0  0  0  0  0  0  0  0
   10.8829    1.7153   20.9865 C   0  0  0  0  0  0  0  0  0  0  0  0
    5.7768    2.8533   23.7910 C   0  0  0  0  0  0  0  0  0  0  0  0
    9.7977    1.4791   21.6912 N   0  0  0  0  0  0  0  0  0  0  0  0
    6.5976    9.3401   22.6478 N   0  0  0  0  0  0  0  0  0  0  0  0
   11.2031    3.0042   20.6246 C   0  0  0  0  0  0  0  0  0  0  0  0
   12.8688    7.7370   22.7287 C   0  0  0  0  0  0  0  0  0  0  0  0
    7.4487    9.1361   23.6506 C   0  0  0  0  0  0  0  0  0  0  0  0
    8.9772    2.5025   22.0273 C   0  0  0  0  0  0  0  0  0  0  0  0
   10.4859    4.0901   20.9730 C   0  0  0  0  0  0  0  0  0  0  0  0
   11.0962    9.3293   23.5072 C   0  0  0  0  0  0  0  0  0  0  0  0
    5.1273    7.8529   23.6208 N   0  0  0  0  0  0  0  0  0  0  0  0
    9.7552    9.2338   23.0171 N   0  0  0  0  0  0  0  0  0  0  0  0
   11.1797    6.7591   21.3326 N   0  0  0  0  0  0  0  0  0  0  0  0
   11.7728    8.0337   23.7267 C   0  0  0  0  0  0  0  0  0  0  0  0
    7.1194    8.3344   24.6775 C   0  0  0  0  0  0  0  0  0  0  0  0
    8.4311    4.7963   22.0500 C   0  0  0  0  0  0  0  0  0  0  0  0
    8.7393   10.8706   24.1871 O   0  0  0  0  0  0  0  0  0  0  0  0
    9.3093    3.8166   21.6712 C   0  0  0  0  0  0  0  0  0  0  0  0
  1  5  1  0
  1 15  4  0
  1 22  4  0
  2 20  1  0
  2 24  1  0
  3  6  4  0
  3 27  4  0
  4 22  4  0
  4 26  4  0
  6  7  4  0
  6 13  1  0
  7 19  4  0
  8 18  1  0
  8 23  1  0
  8 28  2  0
  9 17  1  0
  9 24  1  0
 10 11  1  0
 10 24  1  0
 11 23  1  0
 12 14  4  0
 12 16  4  0
 14 19  4  0
 15 18  4  0
 16 20  4  0
 17 25  1  0
 18 26  4  0
 19 29  4  0
 20 29  4  0
 21 23  1  0
 21 25  1  0
 27 29  4  0
M  END
$$$$

 Created by Python create_sdf_string function

 29 32  0  0  0  0  0  0  0  0999 V2000
    5.4450    8.7154   22.6662 C   0  0  0  0  0  0  0  0  0  0  0  0
   10.9154    5.4574   20.5483 C   0  0  0  0  0  0  0  0  0  0  0  0
    7.2709    4.5089   22.7542 C   0  0  0  0  0  0  0  0  0  0  0  0
    5.9698    7.6329   24.6581 C   0  0  0  0  0  0  0  0  0  0  0  0
    4.5542    8.9057   21.7104 O   0  0  0  0  0  0  0  0  0  0  0  0
    6.9895    3.2085   23.0690 C   0  0  0  0  0  0  0  0  0  0  0  0
    7.8391    2.2253   22.7260 N   0  0  0  0  0  0  0  0  0  0  0  0
    8.6968    9.8373   23.6359 C   0  0  0  0  0  0  0  0  0  0  0  0
   12.5135    6.5957   21.8396 C   0  0  0  0  0  0  0  0  0  0  0  0
   10.9406    8.2330   21.1350 C   0  0  0  0  0  0  0  0  0  0  0  0
    9.6648    8.5956   21.7310 C   0  0  0  0  0  0  0  0  0  0  0  0
   10.8829    1.7153   20.9865 C   0  0  0  0  0  0  0  0  0  0  0  0
    5.7768    2.8533   23.7910 C   0  0  0  0  0  0  0  0  0  0  0  0
    9.7977    1.4791   21.6912 N   0  0  0  0  0  0  0  0  0  0  0  0
    6.5976    9.3401   22.6478 N   0  0  0  0  0  0  0  0  0  0  0  0
   11.2031    3.0042   20.6246 C   0  0  0  0  0  0  0  0  0  0  0  0
   12.8688    7.7370   22.7287 C   0  0  0  0  0  0  0  0  0  0  0  0
    7.4487    9.1361   23.6506 C   0  0  0  0  0  0  0  0  0  0  0  0
    8.9772    2.5025   22.0273 C   0  0  0  0  0  0  0  0  0  0  0  0
   10.4859    4.0901   20.9730 C   0  0  0  0  0  0  0  0  0  0  0  0
   11.0962    9.3293   23.5072 C   0  0  0  0  0  0  0  0  0  0  0  0
    5.1273    7.8529   23.6208 N   0  0  0  0  0  0  0  0  0  0  0  0
    9.7552    9.2338   23.0171 N   0  0  0  0  0  0  0  0  0  0  0  0
   11.1797    6.7591   21.3326 N   0  0  0  0  0  0  0  0  0  0  0  0
   11.7728    8.0337   23.7267 C   0  0  0  0  0  0  0  0  0  0  0  0
    7.1194    8.3344   24.6775 C   0  0  0  0  0  0  0  0  0  0  0  0
    8.4311    4.7963   22.0500 C   0  0  0  0  0  0  0  0  0  0  0  0
    8.7393   10.8706   24.1871 O   0  0  0  0  0  0  0  0  0  0  0  0
    9.3093    3.8166   21.6712 C   0  0  0  0  0  0  0  0  0  0  0  0
  1  5  1  0
  1 15  4  0
  1 22  4  0
  2 20  1  0
  2 24  1  0
  3  6  4  0
  3 27  4  0
  4 22  4  0
  4 26  4  0
  6  7  4  0
  6 13  1  0
  7 19  4  0
  8 18  1  0
  8 23  1  0
  8 28  2  0
  9 17  1  0
  9 24  1  0
 10 11  1  0
 10 24  1  0
 11 23  1  0
 12 14  4  0
 12 16  4  0
 14 19  4  0
 15 18  4  0
 16 20  4  0
 17 25  1  0
 18 26  4  0
 19 29  4  0
 20 29  4  0
 21 23  1  0
 21 25  1  0
 27 29  4  0
M  END
$$$$

 Created by Python create_sdf_string function

 29 32  0  0  0  0  0  0  0  0999 V2000
    5.4450    8.7154   22.6662 C   0  0  0  0  0  0  0  0  0  0  0  0
   10.9154    5.4574   20.5483 C   0  0  0  0  0  0  0  0  0  0  0  0
    7.2709    4.5089   22.7542 C   0  0  0  0  0  0  0  0  0  0  0  0
    5.9698    7.6329   24.6581 C   0  0  0  0  0  0  0  0  0  0  0  0
    4.5542    8.9057   21.7104 O   0  0  0  0  0  0  0  0  0  0  0  0
    6.9895    3.2085   23.0690 C   0  0  0  0  0  0  0  0  0  0  0  0
    7.8391    2.2253   22.7260 N   0  0  0  0  0  0  0  0  0  0  0  0
    8.6968    9.8373   23.6359 C   0  0  0  0  0  0  0  0  0  0  0  0
   12.5135    6.5957   21.8396 C   0  0  0  0  0  0  0  0  0  0  0  0
   10.9406    8.2330   21.1350 C   0  0  0  0  0  0  0  0  0  0  0  0
    9.6648    8.5956   21.7310 C   0  0  0  0  0  0  0  0  0  0  0  0
   10.8829    1.7153   20.9865 C   0  0  0  0  0  0  0  0  0  0  0  0
    5.7768    2.8533   23.7910 C   0  0  0  0  0  0  0  0  0  0  0  0
    9.7977    1.4791   21.6912 N   0  0  0  0  0  0  0  0  0  0  0  0
    6.5976    9.3401   22.6478 N   0  0  0  0  0  0  0  0  0  0  0  0
   11.2031    3.0042   20.6246 C   0  0  0  0  0  0  0  0  0  0  0  0
   12.8688    7.7370   22.7287 C   0  0  0  0  0  0  0  0  0  0  0  0
    7.4487    9.1361   23.6506 C   0  0  0  0  0  0  0  0  0  0  0  0
    8.9772    2.5025   22.0273 C   0  0  0  0  0  0  0  0  0  0  0  0
   10.4859    4.0901   20.9730 C   0  0  0  0  0  0  0  0  0  0  0  0
   11.0962    9.3293   23.5072 C   0  0  0  0  0  0  0  0  0  0  0  0
    5.1273    7.8529   23.6208 N   0  0  0  0  0  0  0  0  0  0  0  0
    9.7552    9.2338   23.0171 N   0  0  0  0  0  0  0  0  0  0  0  0
   11.1797    6.7591   21.3326 N   0  0  0  0  0  0  0  0  0  0  0  0
   11.7728    8.0337   23.7267 C   0  0  0  0  0  0  0  0  0  0  0  0
    7.1194    8.3344   24.6775 C   0  0  0  0  0  0  0  0  0  0  0  0
    8.4311    4.7963   22.0500 C   0  0  0  0  0  0  0  0  0  0  0  0
    8.7393   10.8706   24.1871 O   0  0  0  0  0  0  0  0  0  0  0  0
    9.3093    3.8166   21.6712 C   0  0  0  0  0  0  0  0  0  0  0  0
  1  5  1  0
  1 15  4  0
  1 22  4  0
  2 20  1  0
  2 24  1  0
  3  6  4  0
  3 27  4  0
  4 22  4  0
  4 26  4  0
  6  7  4  0
  6 13  1  0
  7 19  4  0
  8 18  1  0
  8 23  1  0
  8 28  2  0
  9 17  1  0
  9 24  1  0
 10 11  1  0
 10 24  1  0
 11 23  1  0
 12 14  4  0
 12 16  4  0
 14 19  4  0
 15 18  4  0
 16 20  4  0
 17 25  1  0
 18 26  4  0
 19 29  4  0
 20 29  4  0
 21 23  1  0
 21 25  1  0
 27 29  4  0
M  END
$$$$

 Created by Python create_sdf_string function

 29 32  0  0  0  0  0  0  0  0999 V2000
    5.4450    8.7154   22.6662 C   0  0  0  0  0  0  0  0  0  0  0  0
   10.9154    5.4574   20.5483 C   0  0  0  0  0  0  0  0  0  0  0  0
    7.2709    4.5089   22.7542 C   0  0  0  0  0  0  0  0  0  0  0  0
    5.9698    7.6329   24.6581 C   0  0  0  0  0  0  0  0  0  0  0  0
    4.5542    8.9057   21.7104 O   0  0  0  0  0  0  0  0  0  0  0  0
    6.9895    3.2085   23.0690 C   0  0  0  0  0  0  0  0  0  0  0  0
    7.8391    2.2253   22.7260 N   0  0  0  0  0  0  0  0  0  0  0  0
    8.6968    9.8373   23.6359 C   0  0  0  0  0  0  0  0  0  0  0  0
   12.5135    6.5957   21.8396 C   0  0  0  0  0  0  0  0  0  0  0  0
   10.9406    8.2330   21.1350 C   0  0  0  0  0  0  0  0  0  0  0  0
    9.6648    8.5956   21.7310 C   0  0  0  0  0  0  0  0  0  0  0  0
   10.8829    1.7153   20.9865 C   0  0  0  0  0  0  0  0  0  0  0  0
    5.7768    2.8533   23.7910 C   0  0  0  0  0  0  0  0  0  0  0  0
    9.7977    1.4791   21.6912 N   0  0  0  0  0  0  0  0  0  0  0  0
    6.5976    9.3401   22.6478 N   0  0  0  0  0  0  0  0  0  0  0  0
   11.2031    3.0042   20.6246 C   0  0  0  0  0  0  0  0  0  0  0  0
   12.8688    7.7370   22.7287 C   0  0  0  0  0  0  0  0  0  0  0  0
    7.4487    9.1361   23.6506 C   0  0  0  0  0  0  0  0  0  0  0  0
    8.9772    2.5025   22.0273 C   0  0  0  0  0  0  0  0  0  0  0  0
   10.4859    4.0901   20.9730 C   0  0  0  0  0  0  0  0  0  0  0  0
   11.0962    9.3293   23.5072 C   0  0  0  0  0  0  0  0  0  0  0  0
    5.1273    7.8529   23.6208 N   0  0  0  0  0  0  0  0  0  0  0  0
    9.7552    9.2338   23.0171 N   0  0  0  0  0  0  0  0  0  0  0  0
   11.1797    6.7591   21.3326 N   0  0  0  0  0  0  0  0  0  0  0  0
   11.7728    8.0337   23.7267 C   0  0  0  0  0  0  0  0  0  0  0  0
    7.1194    8.3344   24.6775 C   0  0  0  0  0  0  0  0  0  0  0  0
    8.4311    4.7963   22.0500 C   0  0  0  0  0  0  0  0  0  0  0  0
    8.7393   10.8706   24.1871 O   0  0  0  0  0  0  0  0  0  0  0  0
    9.3093    3.8166   21.6712 C   0  0  0  0  0  0  0  0  0  0  0  0
  1  5  1  0
  1 15  4  0
  1 22  4  0
  2 20  1  0
  2 24  1  0
  3  6  4  0
  3 27  4  0
  4 22  4  0
  4 26  4  0
  6  7  4  0
  6 13  1  0
  7 19  4  0
  8 18  1  0
  8 23  1  0
  8 28  2  0
  9 17  1  0
  9 24  1  0
 10 11  1  0
 10 24  1  0
 11 23  1  0
 12 14  4  0
 12 16  4  0
 14 19  4  0
 15 18  4  0
 16 20  4  0
 17 25  1  0
 18 26  4  0
 19 29  4  0
 20 29  4  0
 21 23  1  0
 21 25  1  0
 27 29  4  0
M  END
$$$$

 Created by Python create_sdf_string function

 29 32  0  0  0  0  0  0  0  0999 V2000
    5.4450    8.7154   22.6662 C   0  0  0  0  0  0  0  0  0  0  0  0
   10.9154    5.4574   20.5483 C   0  0  0  0  0  0  0  0  0  0  0  0
    7.2709    4.5089   22.7542 C   0  0  0  0  0  0  0  0  0  0  0  0
    5.9698    7.6329   24.6581 C   0  0  0  0  0  0  0  0  0  0  0  0
    4.5542    8.9057   21.7104 O   0  0  0  0  0  0  0  0  0  0  0  0
    6.9895    3.2085   23.0690 C   0  0  0  0  0  0  0  0  0  0  0  0
    7.8391    2.2253   22.7260 N   0  0  0  0  0  0  0  0  0  0  0  0
    8.6968    9.8373   23.6359 C   0  0  0  0  0  0  0  0  0  0  0  0
   12.5135    6.5957   21.8396 C   0  0  0  0  0  0  0  0  0  0  0  0
   10.9406    8.2330   21.1350 C   0  0  0  0  0  0  0  0  0  0  0  0
    9.6648    8.5956   21.7310 C   0  0  0  0  0  0  0  0  0  0  0  0
   10.8829    1.7153   20.9865 C   0  0  0  0  0  0  0  0  0  0  0  0
    5.7768    2.8533   23.7910 C   0  0  0  0  0  0  0  0  0  0  0  0
    9.7977    1.4791   21.6912 N   0  0  0  0  0  0  0  0  0  0  0  0
    6.5976    9.3401   22.6478 N   0  0  0  0  0  0  0  0  0  0  0  0
   11.2031    3.0042   20.6246 C   0  0  0  0  0  0  0  0  0  0  0  0
   12.8688    7.7370   22.7287 C   0  0  0  0  0  0  0  0  0  0  0  0
    7.4487    9.1361   23.6506 C   0  0  0  0  0  0  0  0  0  0  0  0
    8.9772    2.5025   22.0273 C   0  0  0  0  0  0  0  0  0  0  0  0
   10.4859    4.0901   20.9730 C   0  0  0  0  0  0  0  0  0  0  0  0
   11.0962    9.3293   23.5072 C   0  0  0  0  0  0  0  0  0  0  0  0
    5.1273    7.8529   23.6208 N   0  0  0  0  0  0  0  0  0  0  0  0
    9.7552    9.2338   23.0171 N   0  0  0  0  0  0  0  0  0  0  0  0
   11.1797    6.7591   21.3326 N   0  0  0  0  0  0  0  0  0  0  0  0
   11.7728    8.0337   23.7267 C   0  0  0  0  0  0  0  0  0  0  0  0
    7.1194    8.3344   24.6775 C   0  0  0  0  0  0  0  0  0  0  0  0
    8.4311    4.7963   22.0500 C   0  0  0  0  0  0  0  0  0  0  0  0
    8.7393   10.8706   24.1871 O   0  0  0  0  0  0  0  0  0  0  0  0
    9.3093    3.8166   21.6712 C   0  0  0  0  0  0  0  0  0  0  0  0
  1  5  1  0
  1 15  4  0
  1 22  4  0
  2 20  1  0
  2 24  1  0
  3  6  4  0
  3 27  4  0
  4 22  4  0
  4 26  4  0
  6  7  4  0
  6 13  1  0
  7 19  4  0
  8 18  1  0
  8 23  1  0
  8 28  2  0
  9 17  1  0
  9 24  1  0
 10 11  1  0
 10 24  1  0
 11 23  1  0
 12 14  4  0
 12 16  4  0
 14 19  4  0
 15 18  4  0
 16 20  4  0
 17 25  1  0
 18 26  4  0
 19 29  4  0
 20 29  4  0
 21 23  1  0
 21 25  1  0
 27 29  4  0
M  END
$$$$

 Created by Python create_sdf_string function

 29 32  0  0  0  0  0  0  0  0999 V2000
    5.4450    8.7154   22.6662 C   0  0  0  0  0  0  0  0  0  0  0  0
   10.9154    5.4574   20.5483 C   0  0  0  0  0  0  0  0  0  0  0  0
    7.2709    4.5089   22.7542 C   0  0  0  0  0  0  0  0  0  0  0  0
    5.9698    7.6329   24.6581 C   0  0  0  0  0  0  0  0  0  0  0  0
    4.5542    8.9057   21.7104 O   0  0  0  0  0  0  0  0  0  0  0  0
    6.9895    3.2085   23.0690 C   0  0  0  0  0  0  0  0  0  0  0  0
    7.8391    2.2253   22.7260 N   0  0  0  0  0  0  0  0  0  0  0  0
    8.6968    9.8373   23.6359 C   0  0  0  0  0  0  0  0  0  0  0  0
   12.5135    6.5957   21.8396 C   0  0  0  0  0  0  0  0  0  0  0  0
   10.9406    8.2330   21.1350 C   0  0  0  0  0  0  0  0  0  0  0  0
    9.6648    8.5956   21.7310 C   0  0  0  0  0  0  0  0  0  0  0  0
   10.8829    1.7153   20.9865 C   0  0  0  0  0  0  0  0  0  0  0  0
    5.7768    2.8533   23.7910 C   0  0  0  0  0  0  0  0  0  0  0  0
    9.7977    1.4791   21.6912 N   0  0  0  0  0  0  0  0  0  0  0  0
    6.5976    9.3401   22.6478 N   0  0  0  0  0  0  0  0  0  0  0  0
   11.2031    3.0042   20.6246 C   0  0  0  0  0  0  0  0  0  0  0  0
   12.8688    7.7370   22.7287 C   0  0  0  0  0  0  0  0  0  0  0  0
    7.4487    9.1361   23.6506 C   0  0  0  0  0  0  0  0  0  0  0  0
    8.9772    2.5025   22.0273 C   0  0  0  0  0  0  0  0  0  0  0  0
   10.4859    4.0901   20.9730 C   0  0  0  0  0  0  0  0  0  0  0  0
   11.0962    9.3293   23.5072 C   0  0  0  0  0  0  0  0  0  0  0  0
    5.1273    7.8529   23.6208 N   0  0  0  0  0  0  0  0  0  0  0  0
    9.7552    9.2338   23.0171 N   0  0  0  0  0  0  0  0  0  0  0  0
   11.1797    6.7591   21.3326 N   0  0  0  0  0  0  0  0  0  0  0  0
   11.7728    8.0337   23.7267 C   0  0  0  0  0  0  0  0  0  0  0  0
    7.1194    8.3344   24.6775 C   0  0  0  0  0  0  0  0  0  0  0  0
    8.4311    4.7963   22.0500 C   0  0  0  0  0  0  0  0  0  0  0  0
    8.7393   10.8706   24.1871 O   0  0  0  0  0  0  0  0  0  0  0  0
    9.3093    3.8166   21.6712 C   0  0  0  0  0  0  0  0  0  0  0  0
  1  5  1  0
  1 15  4  0
  1 22  4  0
  2 20  1  0
  2 24  1  0
  3  6  4  0
  3 27  4  0
  4 22  4  0
  4 26  4  0
  6  7  4  0
  6 13  1  0
  7 19  4  0
  8 18  1  0
  8 23  1  0
  8 28  2  0
  9 17  1  0
  9 24  1  0
 10 11  1  0
 10 24  1  0
 11 23  1  0
 12 14  4  0
 12 16  4  0
 14 19  4  0
 15 18  4  0
 16 20  4  0
 17 25  1  0
 18 26  4  0
 19 29  4  0
 20 29  4  0
 21 23  1  0
 21 25  1  0
 27 29  4  0
M  END
$$$$

 Created by Python create_sdf_string function

 29 32  0  0  0  0  0  0  0  0999 V2000
    5.4450    8.7154   22.6662 C   0  0  0  0  0  0  0  0  0  0  0  0
   10.9154    5.4574   20.5483 C   0  0  0  0  0  0  0  0  0  0  0  0
    7.2709    4.5089   22.7542 C   0  0  0  0  0  0  0  0  0  0  0  0
    5.9698    7.6329   24.6581 C   0  0  0  0  0  0  0  0  0  0  0  0
    4.5542    8.9057   21.7104 O   0  0  0  0  0  0  0  0  0  0  0  0
    6.9895    3.2085   23.0690 C   0  0  0  0  0  0  0  0  0  0  0  0
    7.8391    2.2253   22.7260 N   0  0  0  0  0  0  0  0  0  0  0  0
    8.6968    9.8373   23.6359 C   0  0  0  0  0  0  0  0  0  0  0  0
   12.5135    6.5957   21.8396 C   0  0  0  0  0  0  0  0  0  0  0  0
   10.9406    8.2330   21.1350 C   0  0  0  0  0  0  0  0  0  0  0  0
    9.6648    8.5956   21.7310 C   0  0  0  0  0  0  0  0  0  0  0  0
   10.8829    1.7153   20.9865 C   0  0  0  0  0  0  0  0  0  0  0  0
    5.7768    2.8533   23.7910 C   0  0  0  0  0  0  0  0  0  0  0  0
    9.7977    1.4791   21.6912 N   0  0  0  0  0  0  0  0  0  0  0  0
    6.5976    9.3401   22.6478 N   0  0  0  0  0  0  0  0  0  0  0  0
   11.2031    3.0042   20.6246 C   0  0  0  0  0  0  0  0  0  0  0  0
   12.8688    7.7370   22.7287 C   0  0  0  0  0  0  0  0  0  0  0  0
    7.4487    9.1361   23.6506 C   0  0  0  0  0  0  0  0  0  0  0  0
    8.9772    2.5025   22.0273 C   0  0  0  0  0  0  0  0  0  0  0  0
   10.4859    4.0901   20.9730 C   0  0  0  0  0  0  0  0  0  0  0  0
   11.0962    9.3293   23.5072 C   0  0  0  0  0  0  0  0  0  0  0  0
    5.1273    7.8529   23.6208 N   0  0  0  0  0  0  0  0  0  0  0  0
    9.7552    9.2338   23.0171 N   0  0  0  0  0  0  0  0  0  0  0  0
   11.1797    6.7591   21.3326 N   0  0  0  0  0  0  0  0  0  0  0  0
   11.7728    8.0337   23.7267 C   0  0  0  0  0  0  0  0  0  0  0  0
    7.1194    8.3344   24.6775 C   0  0  0  0  0  0  0  0  0  0  0  0
    8.4311    4.7963   22.0500 C   0  0  0  0  0  0  0  0  0  0  0  0
    8.7393   10.8706   24.1871 O   0  0  0  0  0  0  0  0  0  0  0  0
    9.3093    3.8166   21.6712 C   0  0  0  0  0  0  0  0  0  0  0  0
  1  5  1  0
  1 15  4  0
  1 22  4  0
  2 20  1  0
  2 24  1  0
  3  6  4  0
  3 27  4  0
  4 22  4  0
  4 26  4  0
  6  7  4  0
  6 13  1  0
  7 19  4  0
  8 18  1  0
  8 23  1  0
  8 28  2  0
  9 17  1  0
  9 24  1  0
 10 11  1  0
 10 24  1  0
 11 23  1  0
 12 14  4  0
 12 16  4  0
 14 19  4  0
 15 18  4  0
 16 20  4  0
 17 25  1  0
 18 26  4  0
 19 29  4  0
 20 29  4  0
 21 23  1  0
 21 25  1  0
 27 29  4  0
M  END
$$$$

 Created by Python create_sdf_string function

 29 32  0  0  0  0  0  0  0  0999 V2000
    5.4450    8.7154   22.6662 C   0  0  0  0  0  0  0  0  0  0  0  0
   10.9154    5.4574   20.5483 C   0  0  0  0  0  0  0  0  0  0  0  0
    7.2709    4.5089   22.7542 C   0  0  0  0  0  0  0  0  0  0  0  0
    5.9698    7.6329   24.6581 C   0  0  0  0  0  0  0  0  0  0  0  0
    4.5542    8.9057   21.7104 O   0  0  0  0  0  0  0  0  0  0  0  0
    6.9895    3.2085   23.0690 C   0  0  0  0  0  0  0  0  0  0  0  0
    7.8391    2.2253   22.7260 N   0  0  0  0  0  0  0  0  0  0  0  0
    8.6968    9.8373   23.6359 C   0  0  0  0  0  0  0  0  0  0  0  0
   12.5135    6.5957   21.8396 C   0  0  0  0  0  0  0  0  0  0  0  0
   10.9406    8.2330   21.1350 C   0  0  0  0  0  0  0  0  0  0  0  0
    9.6648    8.5956   21.7310 C   0  0  0  0  0  0  0  0  0  0  0  0
   10.8829    1.7153   20.9865 C   0  0  0  0  0  0  0  0  0  0  0  0
    5.7768    2.8533   23.7910 C   0  0  0  0  0  0  0  0  0  0  0  0
    9.7977    1.4791   21.6912 N   0  0  0  0  0  0  0  0  0  0  0  0
    6.5976    9.3401   22.6478 N   0  0  0  0  0  0  0  0  0  0  0  0
   11.2031    3.0042   20.6246 C   0  0  0  0  0  0  0  0  0  0  0  0
   12.8688    7.7370   22.7287 C   0  0  0  0  0  0  0  0  0  0  0  0
    7.4487    9.1361   23.6506 C   0  0  0  0  0  0  0  0  0  0  0  0
    8.9772    2.5025   22.0273 C   0  0  0  0  0  0  0  0  0  0  0  0
   10.4859    4.0901   20.9730 C   0  0  0  0  0  0  0  0  0  0  0  0
   11.0962    9.3293   23.5072 C   0  0  0  0  0  0  0  0  0  0  0  0
    5.1273    7.8529   23.6208 N   0  0  0  0  0  0  0  0  0  0  0  0
    9.7552    9.2338   23.0171 N   0  0  0  0  0  0  0  0  0  0  0  0
   11.1797    6.7591   21.3326 N   0  0  0  0  0  0  0  0  0  0  0  0
   11.7728    8.0337   23.7267 C   0  0  0  0  0  0  0  0  0  0  0  0
    7.1194    8.3344   24.6775 C   0  0  0  0  0  0  0  0  0  0  0  0
    8.4311    4.7963   22.0500 C   0  0  0  0  0  0  0  0  0  0  0  0
    8.7393   10.8706   24.1871 O   0  0  0  0  0  0  0  0  0  0  0  0
    9.3093    3.8166   21.6712 C   0  0  0  0  0  0  0  0  0  0  0  0
  1  5  1  0
  1 15  4  0
  1 22  4  0
  2 20  1  0
  2 24  1  0
  3  6  4  0
  3 27  4  0
  4 22  4  0
  4 26  4  0
  6  7  4  0
  6 13  1  0
  7 19  4  0
  8 18  1  0
  8 23  1  0
  8 28  2  0
  9 17  1  0
  9 24  1  0
 10 11  1  0
 10 24  1  0
 11 23  1  0
 12 14  4  0
 12 16  4  0
 14 19  4  0
 15 18  4  0
 16 20  4  0
 17 25  1  0
 18 26  4  0
 19 29  4  0
 20 29  4  0
 21 23  1  0
 21 25  1  0
 27 29  4  0
M  END
$$$$

 Created by Python create_sdf_string function

 29 32  0  0  0  0  0  0  0  0999 V2000
    5.4450    8.7154   22.6662 C   0  0  0  0  0  0  0  0  0  0  0  0
   10.9154    5.4574   20.5483 C   0  0  0  0  0  0  0  0  0  0  0  0
    7.2709    4.5089   22.7542 C   0  0  0  0  0  0  0  0  0  0  0  0
    5.9698    7.6329   24.6581 C   0  0  0  0  0  0  0  0  0  0  0  0
    4.5542    8.9057   21.7104 O   0  0  0  0  0  0  0  0  0  0  0  0
    6.9895    3.2085   23.0690 C   0  0  0  0  0  0  0  0  0  0  0  0
    7.8391    2.2253   22.7260 N   0  0  0  0  0  0  0  0  0  0  0  0
    8.6968    9.8373   23.6359 C   0  0  0  0  0  0  0  0  0  0  0  0
   12.5135    6.5957   21.8396 C   0  0  0  0  0  0  0  0  0  0  0  0
   10.9406    8.2330   21.1350 C   0  0  0  0  0  0  0  0  0  0  0  0
    9.6648    8.5956   21.7310 C   0  0  0  0  0  0  0  0  0  0  0  0
   10.8829    1.7153   20.9865 C   0  0  0  0  0  0  0  0  0  0  0  0
    5.7768    2.8533   23.7910 C   0  0  0  0  0  0  0  0  0  0  0  0
    9.7977    1.4791   21.6912 N   0  0  0  0  0  0  0  0  0  0  0  0
    6.5976    9.3401   22.6478 N   0  0  0  0  0  0  0  0  0  0  0  0
   11.2031    3.0042   20.6246 C   0  0  0  0  0  0  0  0  0  0  0  0
   12.8688    7.7370   22.7287 C   0  0  0  0  0  0  0  0  0  0  0  0
    7.4487    9.1361   23.6506 C   0  0  0  0  0  0  0  0  0  0  0  0
    8.9772    2.5025   22.0273 C   0  0  0  0  0  0  0  0  0  0  0  0
   10.4859    4.0901   20.9730 C   0  0  0  0  0  0  0  0  0  0  0  0
   11.0962    9.3293   23.5072 C   0  0  0  0  0  0  0  0  0  0  0  0
    5.1273    7.8529   23.6208 N   0  0  0  0  0  0  0  0  0  0  0  0
    9.7552    9.2338   23.0171 N   0  0  0  0  0  0  0  0  0  0  0  0
   11.1797    6.7591   21.3326 N   0  0  0  0  0  0  0  0  0  0  0  0
   11.7728    8.0337   23.7267 C   0  0  0  0  0  0  0  0  0  0  0  0
    7.1194    8.3344   24.6775 C   0  0  0  0  0  0  0  0  0  0  0  0
    8.4311    4.7963   22.0500 C   0  0  0  0  0  0  0  0  0  0  0  0
    8.7393   10.8706   24.1871 O   0  0  0  0  0  0  0  0  0  0  0  0
    9.3093    3.8166   21.6712 C   0  0  0  0  0  0  0  0  0  0  0  0
  1  5  1  0
  1 15  4  0
  1 22  4  0
  2 20  1  0
  2 24  1  0
  3  6  4  0
  3 27  4  0
  4 22  4  0
  4 26  4  0
  6  7  4  0
  6 13  1  0
  7 19  4  0
  8 18  1  0
  8 23  1  0
  8 28  2  0
  9 17  1  0
  9 24  1  0
 10 11  1  0
 10 24  1  0
 11 23  1  0
 12 14  4  0
 12 16  4  0
 14 19  4  0
 15 18  4  0
 16 20  4  0
 17 25  1  0
 18 26  4  0
 19 29  4  0
 20 29  4  0
 21 23  1  0
 21 25  1  0
 27 29  4  0
M  END
$$$$

 Created by Python create_sdf_string function

 29 32  0  0  0  0  0  0  0  0999 V2000
    5.4450    8.7154   22.6662 C   0  0  0  0  0  0  0  0  0  0  0  0
   10.9154    5.4574   20.5483 C   0  0  0  0  0  0  0  0  0  0  0  0
    7.2709    4.5089   22.7542 C   0  0  0  0  0  0  0  0  0  0  0  0
    5.9698    7.6329   24.6581 C   0  0  0  0  0  0  0  0  0  0  0  0
    4.5542    8.9057   21.7104 O   0  0  0  0  0  0  0  0  0  0  0  0
    6.9895    3.2085   23.0690 C   0  0  0  0  0  0  0  0  0  0  0  0
    7.8391    2.2253   22.7260 N   0  0  0  0  0  0  0  0  0  0  0  0
    8.6968    9.8373   23.6359 C   0  0  0  0  0  0  0  0  0  0  0  0
   12.5135    6.5957   21.8396 C   0  0  0  0  0  0  0  0  0  0  0  0
   10.9406    8.2330   21.1350 C   0  0  0  0  0  0  0  0  0  0  0  0
    9.6648    8.5956   21.7310 C   0  0  0  0  0  0  0  0  0  0  0  0
   10.8829    1.7153   20.9865 C   0  0  0  0  0  0  0  0  0  0  0  0
    5.7768    2.8533   23.7910 C   0  0  0  0  0  0  0  0  0  0  0  0
    9.7977    1.4791   21.6912 N   0  0  0  0  0  0  0  0  0  0  0  0
    6.5976    9.3401   22.6478 N   0  0  0  0  0  0  0  0  0  0  0  0
   11.2031    3.0042   20.6246 C   0  0  0  0  0  0  0  0  0  0  0  0
   12.8688    7.7370   22.7287 C   0  0  0  0  0  0  0  0  0  0  0  0
    7.4487    9.1361   23.6506 C   0  0  0  0  0  0  0  0  0  0  0  0
    8.9772    2.5025   22.0273 C   0  0  0  0  0  0  0  0  0  0  0  0
   10.4859    4.0901   20.9730 C   0  0  0  0  0  0  0  0  0  0  0  0
   11.0962    9.3293   23.5072 C   0  0  0  0  0  0  0  0  0  0  0  0
    5.1273    7.8529   23.6208 N   0  0  0  0  0  0  0  0  0  0  0  0
    9.7552    9.2338   23.0171 N   0  0  0  0  0  0  0  0  0  0  0  0
   11.1797    6.7591   21.3326 N   0  0  0  0  0  0  0  0  0  0  0  0
   11.7728    8.0337   23.7267 C   0  0  0  0  0  0  0  0  0  0  0  0
    7.1194    8.3344   24.6775 C   0  0  0  0  0  0  0  0  0  0  0  0
    8.4311    4.7963   22.0500 C   0  0  0  0  0  0  0  0  0  0  0  0
    8.7393   10.8706   24.1871 O   0  0  0  0  0  0  0  0  0  0  0  0
    9.3093    3.8166   21.6712 C   0  0  0  0  0  0  0  0  0  0  0  0
  1  5  1  0
  1 15  4  0
  1 22  4  0
  2 20  1  0
  2 24  1  0
  3  6  4  0
  3 27  4  0
  4 22  4  0
  4 26  4  0
  6  7  4  0
  6 13  1  0
  7 19  4  0
  8 18  1  0
  8 23  1  0
  8 28  2  0
  9 17  1  0
  9 24  1  0
 10 11  1  0
 10 24  1  0
 11 23  1  0
 12 14  4  0
 12 16  4  0
 14 19  4  0
 15 18  4  0
 16 20  4  0
 17 25  1  0
 18 26  4  0
 19 29  4  0
 20 29  4  0
 21 23  1  0
 21 25  1  0
 27 29  4  0
M  END
$$$$

 Created by Python create_sdf_string function

 29 32  0  0  0  0  0  0  0  0999 V2000
    5.4450    8.7154   22.6662 C   0  0  0  0  0  0  0  0  0  0  0  0
   10.9154    5.4574   20.5483 C   0  0  0  0  0  0  0  0  0  0  0  0
    7.2709    4.5089   22.7542 C   0  0  0  0  0  0  0  0  0  0  0  0
    5.9698    7.6329   24.6581 C   0  0  0  0  0  0  0  0  0  0  0  0
    4.5542    8.9057   21.7104 O   0  0  0  0  0  0  0  0  0  0  0  0
    6.9895    3.2085   23.0690 C   0  0  0  0  0  0  0  0  0  0  0  0
    7.8391    2.2253   22.7260 N   0  0  0  0  0  0  0  0  0  0  0  0
    8.6968    9.8373   23.6359 C   0  0  0  0  0  0  0  0  0  0  0  0
   12.5135    6.5957   21.8396 C   0  0  0  0  0  0  0  0  0  0  0  0
   10.9406    8.2330   21.1350 C   0  0  0  0  0  0  0  0  0  0  0  0
    9.6648    8.5956   21.7310 C   0  0  0  0  0  0  0  0  0  0  0  0
   10.8829    1.7153   20.9865 C   0  0  0  0  0  0  0  0  0  0  0  0
    5.7768    2.8533   23.7910 C   0  0  0  0  0  0  0  0  0  0  0  0
    9.7977    1.4791   21.6912 N   0  0  0  0  0  0  0  0  0  0  0  0
    6.5976    9.3401   22.6478 N   0  0  0  0  0  0  0  0  0  0  0  0
   11.2031    3.0042   20.6246 C   0  0  0  0  0  0  0  0  0  0  0  0
   12.8688    7.7370   22.7287 C   0  0  0  0  0  0  0  0  0  0  0  0
    7.4487    9.1361   23.6506 C   0  0  0  0  0  0  0  0  0  0  0  0
    8.9772    2.5025   22.0273 C   0  0  0  0  0  0  0  0  0  0  0  0
   10.4859    4.0901   20.9730 C   0  0  0  0  0  0  0  0  0  0  0  0
   11.0962    9.3293   23.5072 C   0  0  0  0  0  0  0  0  0  0  0  0
    5.1273    7.8529   23.6208 N   0  0  0  0  0  0  0  0  0  0  0  0
    9.7552    9.2338   23.0171 N   0  0  0  0  0  0  0  0  0  0  0  0
   11.1797    6.7591   21.3326 N   0  0  0  0  0  0  0  0  0  0  0  0
   11.7728    8.0337   23.7267 C   0  0  0  0  0  0  0  0  0  0  0  0
    7.1194    8.3344   24.6775 C   0  0  0  0  0  0  0  0  0  0  0  0
    8.4311    4.7963   22.0500 C   0  0  0  0  0  0  0  0  0  0  0  0
    8.7393   10.8706   24.1871 O   0  0  0  0  0  0  0  0  0  0  0  0
    9.3093    3.8166   21.6712 C   0  0  0  0  0  0  0  0  0  0  0  0
  1  5  1  0
  1 15  4  0
  1 22  4  0
  2 20  1  0
  2 24  1  0
  3  6  4  0
  3 27  4  0
  4 22  4  0
  4 26  4  0
  6  7  4  0
  6 13  1  0
  7 19  4  0
  8 18  1  0
  8 23  1  0
  8 28  2  0
  9 17  1  0
  9 24  1  0
 10 11  1  0
 10 24  1  0
 11 23  1  0
 12 14  4  0
 12 16  4  0
 14 19  4  0
 15 18  4  0
 16 20  4  0
 17 25  1  0
 18 26  4  0
 19 29  4  0
 20 29  4  0
 21 23  1  0
 21 25  1  0
 27 29  4  0
M  END
$$$$

 Created by Python create_sdf_string function

 29 32  0  0  0  0  0  0  0  0999 V2000
    5.4450    8.7154   22.6662 C   0  0  0  0  0  0  0  0  0  0  0  0
   10.9154    5.4574   20.5483 C   0  0  0  0  0  0  0  0  0  0  0  0
    7.2709    4.5089   22.7542 C   0  0  0  0  0  0  0  0  0  0  0  0
    5.9698    7.6329   24.6581 C   0  0  0  0  0  0  0  0  0  0  0  0
    4.5542    8.9057   21.7104 O   0  0  0  0  0  0  0  0  0  0  0  0
    6.9895    3.2085   23.0690 C   0  0  0  0  0  0  0  0  0  0  0  0
    7.8391    2.2253   22.7260 N   0  0  0  0  0  0  0  0  0  0  0  0
    8.6968    9.8373   23.6359 C   0  0  0  0  0  0  0  0  0  0  0  0
   12.5135    6.5957   21.8396 C   0  0  0  0  0  0  0  0  0  0  0  0
   10.9406    8.2330   21.1350 C   0  0  0  0  0  0  0  0  0  0  0  0
    9.6648    8.5956   21.7310 C   0  0  0  0  0  0  0  0  0  0  0  0
   10.8829    1.7153   20.9865 C   0  0  0  0  0  0  0  0  0  0  0  0
    5.7768    2.8533   23.7910 C   0  0  0  0  0  0  0  0  0  0  0  0
    9.7977    1.4791   21.6912 N   0  0  0  0  0  0  0  0  0  0  0  0
    6.5976    9.3401   22.6478 N   0  0  0  0  0  0  0  0  0  0  0  0
   11.2031    3.0042   20.6246 C   0  0  0  0  0  0  0  0  0  0  0  0
   12.8688    7.7370   22.7287 C   0  0  0  0  0  0  0  0  0  0  0  0
    7.4487    9.1361   23.6506 C   0  0  0  0  0  0  0  0  0  0  0  0
    8.9772    2.5025   22.0273 C   0  0  0  0  0  0  0  0  0  0  0  0
   10.4859    4.0901   20.9730 C   0  0  0  0  0  0  0  0  0  0  0  0
   11.0962    9.3293   23.5072 C   0  0  0  0  0  0  0  0  0  0  0  0
    5.1273    7.8529   23.6208 N   0  0  0  0  0  0  0  0  0  0  0  0
    9.7552    9.2338   23.0171 N   0  0  0  0  0  0  0  0  0  0  0  0
   11.1797    6.7591   21.3326 N   0  0  0  0  0  0  0  0  0  0  0  0
   11.7728    8.0337   23.7267 C   0  0  0  0  0  0  0  0  0  0  0  0
    7.1194    8.3344   24.6775 C   0  0  0  0  0  0  0  0  0  0  0  0
    8.4311    4.7963   22.0500 C   0  0  0  0  0  0  0  0  0  0  0  0
    8.7393   10.8706   24.1871 O   0  0  0  0  0  0  0  0  0  0  0  0
    9.3093    3.8166   21.6712 C   0  0  0  0  0  0  0  0  0  0  0  0
  1  5  1  0
  1 15  4  0
  1 22  4  0
  2 20  1  0
  2 24  1  0
  3  6  4  0
  3 27  4  0
  4 22  4  0
  4 26  4  0
  6  7  4  0
  6 13  1  0
  7 19  4  0
  8 18  1  0
  8 23  1  0
  8 28  2  0
  9 17  1  0
  9 24  1  0
 10 11  1  0
 10 24  1  0
 11 23  1  0
 12 14  4  0
 12 16  4  0
 14 19  4  0
 15 18  4  0
 16 20  4  0
 17 25  1  0
 18 26  4  0
 19 29  4  0
 20 29  4  0
 21 23  1  0
 21 25  1  0
 27 29  4  0
M  END
$$$$

 Created by Python create_sdf_string function

 29 32  0  0  0  0  0  0  0  0999 V2000
    5.4450    8.7154   22.6662 C   0  0  0  0  0  0  0  0  0  0  0  0
   10.9154    5.4574   20.5483 C   0  0  0  0  0  0  0  0  0  0  0  0
    7.2709    4.5089   22.7542 C   0  0  0  0  0  0  0  0  0  0  0  0
    5.9698    7.6329   24.6581 C   0  0  0  0  0  0  0  0  0  0  0  0
    4.5542    8.9057   21.7104 O   0  0  0  0  0  0  0  0  0  0  0  0
    6.9895    3.2085   23.0690 C   0  0  0  0  0  0  0  0  0  0  0  0
    7.8391    2.2253   22.7260 N   0  0  0  0  0  0  0  0  0  0  0  0
    8.6968    9.8373   23.6359 C   0  0  0  0  0  0  0  0  0  0  0  0
   12.5135    6.5957   21.8396 C   0  0  0  0  0  0  0  0  0  0  0  0
   10.9406    8.2330   21.1350 C   0  0  0  0  0  0  0  0  0  0  0  0
    9.6648    8.5956   21.7310 C   0  0  0  0  0  0  0  0  0  0  0  0
   10.8829    1.7153   20.9865 C   0  0  0  0  0  0  0  0  0  0  0  0
    5.7768    2.8533   23.7910 C   0  0  0  0  0  0  0  0  0  0  0  0
    9.7977    1.4791   21.6912 N   0  0  0  0  0  0  0  0  0  0  0  0
    6.5976    9.3401   22.6478 N   0  0  0  0  0  0  0  0  0  0  0  0
   11.2031    3.0042   20.6246 C   0  0  0  0  0  0  0  0  0  0  0  0
   12.8688    7.7370   22.7287 C   0  0  0  0  0  0  0  0  0  0  0  0
    7.4487    9.1361   23.6506 C   0  0  0  0  0  0  0  0  0  0  0  0
    8.9772    2.5025   22.0273 C   0  0  0  0  0  0  0  0  0  0  0  0
   10.4859    4.0901   20.9730 C   0  0  0  0  0  0  0  0  0  0  0  0
   11.0962    9.3293   23.5072 C   0  0  0  0  0  0  0  0  0  0  0  0
    5.1273    7.8529   23.6208 N   0  0  0  0  0  0  0  0  0  0  0  0
    9.7552    9.2338   23.0171 N   0  0  0  0  0  0  0  0  0  0  0  0
   11.1797    6.7591   21.3326 N   0  0  0  0  0  0  0  0  0  0  0  0
   11.7728    8.0337   23.7267 C   0  0  0  0  0  0  0  0  0  0  0  0
    7.1194    8.3344   24.6775 C   0  0  0  0  0  0  0  0  0  0  0  0
    8.4311    4.7963   22.0500 C   0  0  0  0  0  0  0  0  0  0  0  0
    8.7393   10.8706   24.1871 O   0  0  0  0  0  0  0  0  0  0  0  0
    9.3093    3.8166   21.6712 C   0  0  0  0  0  0  0  0  0  0  0  0
  1  5  1  0
  1 15  4  0
  1 22  4  0
  2 20  1  0
  2 24  1  0
  3  6  4  0
  3 27  4  0
  4 22  4  0
  4 26  4  0
  6  7  4  0
  6 13  1  0
  7 19  4  0
  8 18  1  0
  8 23  1  0
  8 28  2  0
  9 17  1  0
  9 24  1  0
 10 11  1  0
 10 24  1  0
 11 23  1  0
 12 14  4  0
 12 16  4  0
 14 19  4  0
 15 18  4  0
 16 20  4  0
 17 25  1  0
 18 26  4  0
 19 29  4  0
 20 29  4  0
 21 23  1  0
 21 25  1  0
 27 29  4  0
M  END
$$$$

 Created by Python create_sdf_string function

 29 32  0  0  0  0  0  0  0  0999 V2000
    5.4450    8.7154   22.6662 C   0  0  0  0  0  0  0  0  0  0  0  0
   10.9154    5.4574   20.5483 C   0  0  0  0  0  0  0  0  0  0  0  0
    7.2709    4.5089   22.7542 C   0  0  0  0  0  0  0  0  0  0  0  0
    5.9698    7.6329   24.6581 C   0  0  0  0  0  0  0  0  0  0  0  0
    4.5542    8.9057   21.7104 O   0  0  0  0  0  0  0  0  0  0  0  0
    6.9895    3.2085   23.0690 C   0  0  0  0  0  0  0  0  0  0  0  0
    7.8391    2.2253   22.7260 N   0  0  0  0  0  0  0  0  0  0  0  0
    8.6968    9.8373   23.6359 C   0  0  0  0  0  0  0  0  0  0  0  0
   12.5135    6.5957   21.8396 C   0  0  0  0  0  0  0  0  0  0  0  0
   10.9406    8.2330   21.1350 C   0  0  0  0  0  0  0  0  0  0  0  0
    9.6648    8.5956   21.7310 C   0  0  0  0  0  0  0  0  0  0  0  0
   10.8829    1.7153   20.9865 C   0  0  0  0  0  0  0  0  0  0  0  0
    5.7768    2.8533   23.7910 C   0  0  0  0  0  0  0  0  0  0  0  0
    9.7977    1.4791   21.6912 N   0  0  0  0  0  0  0  0  0  0  0  0
    6.5976    9.3401   22.6478 N   0  0  0  0  0  0  0  0  0  0  0  0
   11.2031    3.0042   20.6246 C   0  0  0  0  0  0  0  0  0  0  0  0
   12.8688    7.7370   22.7287 C   0  0  0  0  0  0  0  0  0  0  0  0
    7.4487    9.1361   23.6506 C   0  0  0  0  0  0  0  0  0  0  0  0
    8.9772    2.5025   22.0273 C   0  0  0  0  0  0  0  0  0  0  0  0
   10.4859    4.0901   20.9730 C   0  0  0  0  0  0  0  0  0  0  0  0
   11.0962    9.3293   23.5072 C   0  0  0  0  0  0  0  0  0  0  0  0
    5.1273    7.8529   23.6208 N   0  0  0  0  0  0  0  0  0  0  0  0
    9.7552    9.2338   23.0171 N   0  0  0  0  0  0  0  0  0  0  0  0
   11.1797    6.7591   21.3326 N   0  0  0  0  0  0  0  0  0  0  0  0
   11.7728    8.0337   23.7267 C   0  0  0  0  0  0  0  0  0  0  0  0
    7.1194    8.3344   24.6775 C   0  0  0  0  0  0  0  0  0  0  0  0
    8.4311    4.7963   22.0500 C   0  0  0  0  0  0  0  0  0  0  0  0
    8.7393   10.8706   24.1871 O   0  0  0  0  0  0  0  0  0  0  0  0
    9.3093    3.8166   21.6712 C   0  0  0  0  0  0  0  0  0  0  0  0
  1  5  1  0
  1 15  4  0
  1 22  4  0
  2 20  1  0
  2 24  1  0
  3  6  4  0
  3 27  4  0
  4 22  4  0
  4 26  4  0
  6  7  4  0
  6 13  1  0
  7 19  4  0
  8 18  1  0
  8 23  1  0
  8 28  2  0
  9 17  1  0
  9 24  1  0
 10 11  1  0
 10 24  1  0
 11 23  1  0
 12 14  4  0
 12 16  4  0
 14 19  4  0
 15 18  4  0
 16 20  4  0
 17 25  1  0
 18 26  4  0
 19 29  4  0
 20 29  4  0
 21 23  1  0
 21 25  1  0
 27 29  4  0
M  END
$$$$

 Created by Python create_sdf_string function

 29 32  0  0  0  0  0  0  0  0999 V2000
    5.4450    8.7154   22.6662 C   0  0  0  0  0  0  0  0  0  0  0  0
   10.9154    5.4574   20.5483 C   0  0  0  0  0  0  0  0  0  0  0  0
    7.2709    4.5089   22.7542 C   0  0  0  0  0  0  0  0  0  0  0  0
    5.9698    7.6329   24.6581 C   0  0  0  0  0  0  0  0  0  0  0  0
    4.5542    8.9057   21.7104 O   0  0  0  0  0  0  0  0  0  0  0  0
    6.9895    3.2085   23.0690 C   0  0  0  0  0  0  0  0  0  0  0  0
    7.8391    2.2253   22.7260 N   0  0  0  0  0  0  0  0  0  0  0  0
    8.6968    9.8373   23.6359 C   0  0  0  0  0  0  0  0  0  0  0  0
   12.5135    6.5957   21.8396 C   0  0  0  0  0  0  0  0  0  0  0  0
   10.9406    8.2330   21.1350 C   0  0  0  0  0  0  0  0  0  0  0  0
    9.6648    8.5956   21.7310 C   0  0  0  0  0  0  0  0  0  0  0  0
   10.8829    1.7153   20.9865 C   0  0  0  0  0  0  0  0  0  0  0  0
    5.7768    2.8533   23.7910 C   0  0  0  0  0  0  0  0  0  0  0  0
    9.7977    1.4791   21.6912 N   0  0  0  0  0  0  0  0  0  0  0  0
    6.5976    9.3401   22.6478 N   0  0  0  0  0  0  0  0  0  0  0  0
   11.2031    3.0042   20.6246 C   0  0  0  0  0  0  0  0  0  0  0  0
   12.8688    7.7370   22.7287 C   0  0  0  0  0  0  0  0  0  0  0  0
    7.4487    9.1361   23.6506 C   0  0  0  0  0  0  0  0  0  0  0  0
    8.9772    2.5025   22.0273 C   0  0  0  0  0  0  0  0  0  0  0  0
   10.4859    4.0901   20.9730 C   0  0  0  0  0  0  0  0  0  0  0  0
   11.0962    9.3293   23.5072 C   0  0  0  0  0  0  0  0  0  0  0  0
    5.1273    7.8529   23.6208 N   0  0  0  0  0  0  0  0  0  0  0  0
    9.7552    9.2338   23.0171 N   0  0  0  0  0  0  0  0  0  0  0  0
   11.1797    6.7591   21.3326 N   0  0  0  0  0  0  0  0  0  0  0  0
   11.7728    8.0337   23.7267 C   0  0  0  0  0  0  0  0  0  0  0  0
    7.1194    8.3344   24.6775 C   0  0  0  0  0  0  0  0  0  0  0  0
    8.4311    4.7963   22.0500 C   0  0  0  0  0  0  0  0  0  0  0  0
    8.7393   10.8706   24.1871 O   0  0  0  0  0  0  0  0  0  0  0  0
    9.3093    3.8166   21.6712 C   0  0  0  0  0  0  0  0  0  0  0  0
  1  5  1  0
  1 15  4  0
  1 22  4  0
  2 20  1  0
  2 24  1  0
  3  6  4  0
  3 27  4  0
  4 22  4  0
  4 26  4  0
  6  7  4  0
  6 13  1  0
  7 19  4  0
  8 18  1  0
  8 23  1  0
  8 28  2  0
  9 17  1  0
  9 24  1  0
 10 11  1  0
 10 24  1  0
 11 23  1  0
 12 14  4  0
 12 16  4  0
 14 19  4  0
 15 18  4  0
 16 20  4  0
 17 25  1  0
 18 26  4  0
 19 29  4  0
 20 29  4  0
 21 23  1  0
 21 25  1  0
 27 29  4  0
M  END
$$$$

 Created by Python create_sdf_string function

 29 32  0  0  0  0  0  0  0  0999 V2000
    5.4450    8.7154   22.6662 C   0  0  0  0  0  0  0  0  0  0  0  0
   10.9154    5.4574   20.5483 C   0  0  0  0  0  0  0  0  0  0  0  0
    7.2709    4.5089   22.7542 C   0  0  0  0  0  0  0  0  0  0  0  0
    5.9698    7.6329   24.6581 C   0  0  0  0  0  0  0  0  0  0  0  0
    4.5542    8.9057   21.7104 O   0  0  0  0  0  0  0  0  0  0  0  0
    6.9895    3.2085   23.0690 C   0  0  0  0  0  0  0  0  0  0  0  0
    7.8391    2.2253   22.7260 N   0  0  0  0  0  0  0  0  0  0  0  0
    8.6968    9.8373   23.6359 C   0  0  0  0  0  0  0  0  0  0  0  0
   12.5135    6.5957   21.8396 C   0  0  0  0  0  0  0  0  0  0  0  0
   10.9406    8.2330   21.1350 C   0  0  0  0  0  0  0  0  0  0  0  0
    9.6648    8.5956   21.7310 C   0  0  0  0  0  0  0  0  0  0  0  0
   10.8829    1.7153   20.9865 C   0  0  0  0  0  0  0  0  0  0  0  0
    5.7768    2.8533   23.7910 C   0  0  0  0  0  0  0  0  0  0  0  0
    9.7977    1.4791   21.6912 N   0  0  0  0  0  0  0  0  0  0  0  0
    6.5976    9.3401   22.6478 N   0  0  0  0  0  0  0  0  0  0  0  0
   11.2031    3.0042   20.6246 C   0  0  0  0  0  0  0  0  0  0  0  0
   12.8688    7.7370   22.7287 C   0  0  0  0  0  0  0  0  0  0  0  0
    7.4487    9.1361   23.6506 C   0  0  0  0  0  0  0  0  0  0  0  0
    8.9772    2.5025   22.0273 C   0  0  0  0  0  0  0  0  0  0  0  0
   10.4859    4.0901   20.9730 C   0  0  0  0  0  0  0  0  0  0  0  0
   11.0962    9.3293   23.5072 C   0  0  0  0  0  0  0  0  0  0  0  0
    5.1273    7.8529   23.6208 N   0  0  0  0  0  0  0  0  0  0  0  0
    9.7552    9.2338   23.0171 N   0  0  0  0  0  0  0  0  0  0  0  0
   11.1797    6.7591   21.3326 N   0  0  0  0  0  0  0  0  0  0  0  0
   11.7728    8.0337   23.7267 C   0  0  0  0  0  0  0  0  0  0  0  0
    7.1194    8.3344   24.6775 C   0  0  0  0  0  0  0  0  0  0  0  0
    8.4311    4.7963   22.0500 C   0  0  0  0  0  0  0  0  0  0  0  0
    8.7393   10.8706   24.1871 O   0  0  0  0  0  0  0  0  0  0  0  0
    9.3093    3.8166   21.6712 C   0  0  0  0  0  0  0  0  0  0  0  0
  1  5  1  0
  1 15  4  0
  1 22  4  0
  2 20  1  0
  2 24  1  0
  3  6  4  0
  3 27  4  0
  4 22  4  0
  4 26  4  0
  6  7  4  0
  6 13  1  0
  7 19  4  0
  8 18  1  0
  8 23  1  0
  8 28  2  0
  9 17  1  0
  9 24  1  0
 10 11  1  0
 10 24  1  0
 11 23  1  0
 12 14  4  0
 12 16  4  0
 14 19  4  0
 15 18  4  0
 16 20  4  0
 17 25  1  0
 18 26  4  0
 19 29  4  0
 20 29  4  0
 21 23  1  0
 21 25  1  0
 27 29  4  0
M  END
$$$$

 Created by Python create_sdf_string function

 29 32  0  0  0  0  0  0  0  0999 V2000
    5.4450    8.7154   22.6662 C   0  0  0  0  0  0  0  0  0  0  0  0
   10.9154    5.4574   20.5483 C   0  0  0  0  0  0  0  0  0  0  0  0
    7.2709    4.5089   22.7542 C   0  0  0  0  0  0  0  0  0  0  0  0
    5.9698    7.6329   24.6581 C   0  0  0  0  0  0  0  0  0  0  0  0
    4.5542    8.9057   21.7104 O   0  0  0  0  0  0  0  0  0  0  0  0
    6.9895    3.2085   23.0690 C   0  0  0  0  0  0  0  0  0  0  0  0
    7.8391    2.2253   22.7260 N   0  0  0  0  0  0  0  0  0  0  0  0
    8.6968    9.8373   23.6359 C   0  0  0  0  0  0  0  0  0  0  0  0
   12.5135    6.5957   21.8396 C   0  0  0  0  0  0  0  0  0  0  0  0
   10.9406    8.2330   21.1350 C   0  0  0  0  0  0  0  0  0  0  0  0
    9.6648    8.5956   21.7310 C   0  0  0  0  0  0  0  0  0  0  0  0
   10.8829    1.7153   20.9865 C   0  0  0  0  0  0  0  0  0  0  0  0
    5.7768    2.8533   23.7910 C   0  0  0  0  0  0  0  0  0  0  0  0
    9.7977    1.4791   21.6912 N   0  0  0  0  0  0  0  0  0  0  0  0
    6.5976    9.3401   22.6478 N   0  0  0  0  0  0  0  0  0  0  0  0
   11.2031    3.0042   20.6246 C   0  0  0  0  0  0  0  0  0  0  0  0
   12.8688    7.7370   22.7287 C   0  0  0  0  0  0  0  0  0  0  0  0
    7.4487    9.1361   23.6506 C   0  0  0  0  0  0  0  0  0  0  0  0
    8.9772    2.5025   22.0273 C   0  0  0  0  0  0  0  0  0  0  0  0
   10.4859    4.0901   20.9730 C   0  0  0  0  0  0  0  0  0  0  0  0
   11.0962    9.3293   23.5072 C   0  0  0  0  0  0  0  0  0  0  0  0
    5.1273    7.8529   23.6208 N   0  0  0  0  0  0  0  0  0  0  0  0
    9.7552    9.2338   23.0171 N   0  0  0  0  0  0  0  0  0  0  0  0
   11.1797    6.7591   21.3326 N   0  0  0  0  0  0  0  0  0  0  0  0
   11.7728    8.0337   23.7267 C   0  0  0  0  0  0  0  0  0  0  0  0
    7.1194    8.3344   24.6775 C   0  0  0  0  0  0  0  0  0  0  0  0
    8.4311    4.7963   22.0500 C   0  0  0  0  0  0  0  0  0  0  0  0
    8.7393   10.8706   24.1871 O   0  0  0  0  0  0  0  0  0  0  0  0
    9.3093    3.8166   21.6712 C   0  0  0  0  0  0  0  0  0  0  0  0
  1  5  1  0
  1 15  4  0
  1 22  4  0
  2 20  1  0
  2 24  1  0
  3  6  4  0
  3 27  4  0
  4 22  4  0
  4 26  4  0
  6  7  4  0
  6 13  1  0
  7 19  4  0
  8 18  1  0
  8 23  1  0
  8 28  2  0
  9 17  1  0
  9 24  1  0
 10 11  1  0
 10 24  1  0
 11 23  1  0
 12 14  4  0
 12 16  4  0
 14 19  4  0
 15 18  4  0
 16 20  4  0
 17 25  1  0
 18 26  4  0
 19 29  4  0
 20 29  4  0
 21 23  1  0
 21 25  1  0
 27 29  4  0
M  END
$$$$

 Created by Python create_sdf_string function

 29 32  0  0  0  0  0  0  0  0999 V2000
    5.4450    8.7154   22.6662 C   0  0  0  0  0  0  0  0  0  0  0  0
   10.9154    5.4574   20.5483 C   0  0  0  0  0  0  0  0  0  0  0  0
    7.2709    4.5089   22.7542 C   0  0  0  0  0  0  0  0  0  0  0  0
    5.9698    7.6329   24.6581 C   0  0  0  0  0  0  0  0  0  0  0  0
    4.5542    8.9057   21.7104 O   0  0  0  0  0  0  0  0  0  0  0  0
    6.9895    3.2085   23.0690 C   0  0  0  0  0  0  0  0  0  0  0  0
    7.8391    2.2253   22.7260 N   0  0  0  0  0  0  0  0  0  0  0  0
    8.6968    9.8373   23.6359 C   0  0  0  0  0  0  0  0  0  0  0  0
   12.5135    6.5957   21.8396 C   0  0  0  0  0  0  0  0  0  0  0  0
   10.9406    8.2330   21.1350 C   0  0  0  0  0  0  0  0  0  0  0  0
    9.6648    8.5956   21.7310 C   0  0  0  0  0  0  0  0  0  0  0  0
   10.8829    1.7153   20.9865 C   0  0  0  0  0  0  0  0  0  0  0  0
    5.7768    2.8533   23.7910 C   0  0  0  0  0  0  0  0  0  0  0  0
    9.7977    1.4791   21.6912 N   0  0  0  0  0  0  0  0  0  0  0  0
    6.5976    9.3401   22.6478 N   0  0  0  0  0  0  0  0  0  0  0  0
   11.2031    3.0042   20.6246 C   0  0  0  0  0  0  0  0  0  0  0  0
   12.8688    7.7370   22.7287 C   0  0  0  0  0  0  0  0  0  0  0  0
    7.4487    9.1361   23.6506 C   0  0  0  0  0  0  0  0  0  0  0  0
    8.9772    2.5025   22.0273 C   0  0  0  0  0  0  0  0  0  0  0  0
   10.4859    4.0901   20.9730 C   0  0  0  0  0  0  0  0  0  0  0  0
   11.0962    9.3293   23.5072 C   0  0  0  0  0  0  0  0  0  0  0  0
    5.1273    7.8529   23.6208 N   0  0  0  0  0  0  0  0  0  0  0  0
    9.7552    9.2338   23.0171 N   0  0  0  0  0  0  0  0  0  0  0  0
   11.1797    6.7591   21.3326 N   0  0  0  0  0  0  0  0  0  0  0  0
   11.7728    8.0337   23.7267 C   0  0  0  0  0  0  0  0  0  0  0  0
    7.1194    8.3344   24.6775 C   0  0  0  0  0  0  0  0  0  0  0  0
    8.4311    4.7963   22.0500 C   0  0  0  0  0  0  0  0  0  0  0  0
    8.7393   10.8706   24.1871 O   0  0  0  0  0  0  0  0  0  0  0  0
    9.3093    3.8166   21.6712 C   0  0  0  0  0  0  0  0  0  0  0  0
  1  5  1  0
  1 15  4  0
  1 22  4  0
  2 20  1  0
  2 24  1  0
  3  6  4  0
  3 27  4  0
  4 22  4  0
  4 26  4  0
  6  7  4  0
  6 13  1  0
  7 19  4  0
  8 18  1  0
  8 23  1  0
  8 28  2  0
  9 17  1  0
  9 24  1  0
 10 11  1  0
 10 24  1  0
 11 23  1  0
 12 14  4  0
 12 16  4  0
 14 19  4  0
 15 18  4  0
 16 20  4  0
 17 25  1  0
 18 26  4  0
 19 29  4  0
 20 29  4  0
 21 23  1  0
 21 25  1  0
 27 29  4  0
M  END
$$$$

 Created by Python create_sdf_string function

 29 32  0  0  0  0  0  0  0  0999 V2000
    5.4450    8.7154   22.6662 C   0  0  0  0  0  0  0  0  0  0  0  0
   10.9154    5.4574   20.5483 C   0  0  0  0  0  0  0  0  0  0  0  0
    7.2709    4.5089   22.7542 C   0  0  0  0  0  0  0  0  0  0  0  0
    5.9698    7.6329   24.6581 C   0  0  0  0  0  0  0  0  0  0  0  0
    4.5542    8.9057   21.7104 O   0  0  0  0  0  0  0  0  0  0  0  0
    6.9895    3.2085   23.0690 C   0  0  0  0  0  0  0  0  0  0  0  0
    7.8391    2.2253   22.7260 N   0  0  0  0  0  0  0  0  0  0  0  0
    8.6968    9.8373   23.6359 C   0  0  0  0  0  0  0  0  0  0  0  0
   12.5135    6.5957   21.8396 C   0  0  0  0  0  0  0  0  0  0  0  0
   10.9406    8.2330   21.1350 C   0  0  0  0  0  0  0  0  0  0  0  0
    9.6648    8.5956   21.7310 C   0  0  0  0  0  0  0  0  0  0  0  0
   10.8829    1.7153   20.9865 C   0  0  0  0  0  0  0  0  0  0  0  0
    5.7768    2.8533   23.7910 C   0  0  0  0  0  0  0  0  0  0  0  0
    9.7977    1.4791   21.6912 N   0  0  0  0  0  0  0  0  0  0  0  0
    6.5976    9.3401   22.6478 N   0  0  0  0  0  0  0  0  0  0  0  0
   11.2031    3.0042   20.6246 C   0  0  0  0  0  0  0  0  0  0  0  0
   12.8688    7.7370   22.7287 C   0  0  0  0  0  0  0  0  0  0  0  0
    7.4487    9.1361   23.6506 C   0  0  0  0  0  0  0  0  0  0  0  0
    8.9772    2.5025   22.0273 C   0  0  0  0  0  0  0  0  0  0  0  0
   10.4859    4.0901   20.9730 C   0  0  0  0  0  0  0  0  0  0  0  0
   11.0962    9.3293   23.5072 C   0  0  0  0  0  0  0  0  0  0  0  0
    5.1273    7.8529   23.6208 N   0  0  0  0  0  0  0  0  0  0  0  0
    9.7552    9.2338   23.0171 N   0  0  0  0  0  0  0  0  0  0  0  0
   11.1797    6.7591   21.3326 N   0  0  0  0  0  0  0  0  0  0  0  0
   11.7728    8.0337   23.7267 C   0  0  0  0  0  0  0  0  0  0  0  0
    7.1194    8.3344   24.6775 C   0  0  0  0  0  0  0  0  0  0  0  0
    8.4311    4.7963   22.0500 C   0  0  0  0  0  0  0  0  0  0  0  0
    8.7393   10.8706   24.1871 O   0  0  0  0  0  0  0  0  0  0  0  0
    9.3093    3.8166   21.6712 C   0  0  0  0  0  0  0  0  0  0  0  0
  1  5  1  0
  1 15  4  0
  1 22  4  0
  2 20  1  0
  2 24  1  0
  3  6  4  0
  3 27  4  0
  4 22  4  0
  4 26  4  0
  6  7  4  0
  6 13  1  0
  7 19  4  0
  8 18  1  0
  8 23  1  0
  8 28  2  0
  9 17  1  0
  9 24  1  0
 10 11  1  0
 10 24  1  0
 11 23  1  0
 12 14  4  0
 12 16  4  0
 14 19  4  0
 15 18  4  0
 16 20  4  0
 17 25  1  0
 18 26  4  0
 19 29  4  0
 20 29  4  0
 21 23  1  0
 21 25  1  0
 27 29  4  0
M  END
$$$$

 Created by Python create_sdf_string function

 29 32  0  0  0  0  0  0  0  0999 V2000
    5.4450    8.7154   22.6662 C   0  0  0  0  0  0  0  0  0  0  0  0
   10.9154    5.4574   20.5483 C   0  0  0  0  0  0  0  0  0  0  0  0
    7.2709    4.5089   22.7542 C   0  0  0  0  0  0  0  0  0  0  0  0
    5.9698    7.6329   24.6581 C   0  0  0  0  0  0  0  0  0  0  0  0
    4.5542    8.9057   21.7104 O   0  0  0  0  0  0  0  0  0  0  0  0
    6.9895    3.2085   23.0690 C   0  0  0  0  0  0  0  0  0  0  0  0
    7.8391    2.2253   22.7260 N   0  0  0  0  0  0  0  0  0  0  0  0
    8.6968    9.8373   23.6359 C   0  0  0  0  0  0  0  0  0  0  0  0
   12.5135    6.5957   21.8396 C   0  0  0  0  0  0  0  0  0  0  0  0
   10.9406    8.2330   21.1350 C   0  0  0  0  0  0  0  0  0  0  0  0
    9.6648    8.5956   21.7310 C   0  0  0  0  0  0  0  0  0  0  0  0
   10.8829    1.7153   20.9865 C   0  0  0  0  0  0  0  0  0  0  0  0
    5.7768    2.8533   23.7910 C   0  0  0  0  0  0  0  0  0  0  0  0
    9.7977    1.4791   21.6912 N   0  0  0  0  0  0  0  0  0  0  0  0
    6.5976    9.3401   22.6478 N   0  0  0  0  0  0  0  0  0  0  0  0
   11.2031    3.0042   20.6246 C   0  0  0  0  0  0  0  0  0  0  0  0
   12.8688    7.7370   22.7287 C   0  0  0  0  0  0  0  0  0  0  0  0
    7.4487    9.1361   23.6506 C   0  0  0  0  0  0  0  0  0  0  0  0
    8.9772    2.5025   22.0273 C   0  0  0  0  0  0  0  0  0  0  0  0
   10.4859    4.0901   20.9730 C   0  0  0  0  0  0  0  0  0  0  0  0
   11.0962    9.3293   23.5072 C   0  0  0  0  0  0  0  0  0  0  0  0
    5.1273    7.8529   23.6208 N   0  0  0  0  0  0  0  0  0  0  0  0
    9.7552    9.2338   23.0171 N   0  0  0  0  0  0  0  0  0  0  0  0
   11.1797    6.7591   21.3326 N   0  0  0  0  0  0  0  0  0  0  0  0
   11.7728    8.0337   23.7267 C   0  0  0  0  0  0  0  0  0  0  0  0
    7.1194    8.3344   24.6775 C   0  0  0  0  0  0  0  0  0  0  0  0
    8.4311    4.7963   22.0500 C   0  0  0  0  0  0  0  0  0  0  0  0
    8.7393   10.8706   24.1871 O   0  0  0  0  0  0  0  0  0  0  0  0
    9.3093    3.8166   21.6712 C   0  0  0  0  0  0  0  0  0  0  0  0
  1  5  1  0
  1 15  4  0
  1 22  4  0
  2 20  1  0
  2 24  1  0
  3  6  4  0
  3 27  4  0
  4 22  4  0
  4 26  4  0
  6  7  4  0
  6 13  1  0
  7 19  4  0
  8 18  1  0
  8 23  1  0
  8 28  2  0
  9 17  1  0
  9 24  1  0
 10 11  1  0
 10 24  1  0
 11 23  1  0
 12 14  4  0
 12 16  4  0
 14 19  4  0
 15 18  4  0
 16 20  4  0
 17 25  1  0
 18 26  4  0
 19 29  4  0
 20 29  4  0
 21 23  1  0
 21 25  1  0
 27 29  4  0
M  END
$$$$

 Created by Python create_sdf_string function

 29 32  0  0  0  0  0  0  0  0999 V2000
    5.4450    8.7154   22.6662 C   0  0  0  0  0  0  0  0  0  0  0  0
   10.9154    5.4574   20.5483 C   0  0  0  0  0  0  0  0  0  0  0  0
    7.2709    4.5089   22.7542 C   0  0  0  0  0  0  0  0  0  0  0  0
    5.9698    7.6329   24.6581 C   0  0  0  0  0  0  0  0  0  0  0  0
    4.5542    8.9057   21.7104 O   0  0  0  0  0  0  0  0  0  0  0  0
    6.9895    3.2085   23.0690 C   0  0  0  0  0  0  0  0  0  0  0  0
    7.8391    2.2253   22.7260 N   0  0  0  0  0  0  0  0  0  0  0  0
    8.6968    9.8373   23.6359 C   0  0  0  0  0  0  0  0  0  0  0  0
   12.5135    6.5957   21.8396 C   0  0  0  0  0  0  0  0  0  0  0  0
   10.9406    8.2330   21.1350 C   0  0  0  0  0  0  0  0  0  0  0  0
    9.6648    8.5956   21.7310 C   0  0  0  0  0  0  0  0  0  0  0  0
   10.8829    1.7153   20.9865 C   0  0  0  0  0  0  0  0  0  0  0  0
    5.7768    2.8533   23.7910 C   0  0  0  0  0  0  0  0  0  0  0  0
    9.7977    1.4791   21.6912 N   0  0  0  0  0  0  0  0  0  0  0  0
    6.5976    9.3401   22.6478 N   0  0  0  0  0  0  0  0  0  0  0  0
   11.2031    3.0042   20.6246 C   0  0  0  0  0  0  0  0  0  0  0  0
   12.8688    7.7370   22.7287 C   0  0  0  0  0  0  0  0  0  0  0  0
    7.4487    9.1361   23.6506 C   0  0  0  0  0  0  0  0  0  0  0  0
    8.9772    2.5025   22.0273 C   0  0  0  0  0  0  0  0  0  0  0  0
   10.4859    4.0901   20.9730 C   0  0  0  0  0  0  0  0  0  0  0  0
   11.0962    9.3293   23.5072 C   0  0  0  0  0  0  0  0  0  0  0  0
    5.1273    7.8529   23.6208 N   0  0  0  0  0  0  0  0  0  0  0  0
    9.7552    9.2338   23.0171 N   0  0  0  0  0  0  0  0  0  0  0  0
   11.1797    6.7591   21.3326 N   0  0  0  0  0  0  0  0  0  0  0  0
   11.7728    8.0337   23.7267 C   0  0  0  0  0  0  0  0  0  0  0  0
    7.1194    8.3344   24.6775 C   0  0  0  0  0  0  0  0  0  0  0  0
    8.4311    4.7963   22.0500 C   0  0  0  0  0  0  0  0  0  0  0  0
    8.7393   10.8706   24.1871 O   0  0  0  0  0  0  0  0  0  0  0  0
    9.3093    3.8166   21.6712 C   0  0  0  0  0  0  0  0  0  0  0  0
  1  5  1  0
  1 15  4  0
  1 22  4  0
  2 20  1  0
  2 24  1  0
  3  6  4  0
  3 27  4  0
  4 22  4  0
  4 26  4  0
  6  7  4  0
  6 13  1  0
  7 19  4  0
  8 18  1  0
  8 23  1  0
  8 28  2  0
  9 17  1  0
  9 24  1  0
 10 11  1  0
 10 24  1  0
 11 23  1  0
 12 14  4  0
 12 16  4  0
 14 19  4  0
 15 18  4  0
 16 20  4  0
 17 25  1  0
 18 26  4  0
 19 29  4  0
 20 29  4  0
 21 23  1  0
 21 25  1  0
 27 29  4  0
M  END
$$$$

 Created by Python create_sdf_string function

 29 32  0  0  0  0  0  0  0  0999 V2000
    5.4450    8.7154   22.6662 C   0  0  0  0  0  0  0  0  0  0  0  0
   10.9154    5.4574   20.5483 C   0  0  0  0  0  0  0  0  0  0  0  0
    7.2709    4.5089   22.7542 C   0  0  0  0  0  0  0  0  0  0  0  0
    5.9698    7.6329   24.6581 C   0  0  0  0  0  0  0  0  0  0  0  0
    4.5542    8.9057   21.7104 O   0  0  0  0  0  0  0  0  0  0  0  0
    6.9895    3.2085   23.0690 C   0  0  0  0  0  0  0  0  0  0  0  0
    7.8391    2.2253   22.7260 N   0  0  0  0  0  0  0  0  0  0  0  0
    8.6968    9.8373   23.6359 C   0  0  0  0  0  0  0  0  0  0  0  0
   12.5135    6.5957   21.8396 C   0  0  0  0  0  0  0  0  0  0  0  0
   10.9406    8.2330   21.1350 C   0  0  0  0  0  0  0  0  0  0  0  0
    9.6648    8.5956   21.7310 C   0  0  0  0  0  0  0  0  0  0  0  0
   10.8829    1.7153   20.9865 C   0  0  0  0  0  0  0  0  0  0  0  0
    5.7768    2.8533   23.7910 C   0  0  0  0  0  0  0  0  0  0  0  0
    9.7977    1.4791   21.6912 N   0  0  0  0  0  0  0  0  0  0  0  0
    6.5976    9.3401   22.6478 N   0  0  0  0  0  0  0  0  0  0  0  0
   11.2031    3.0042   20.6246 C   0  0  0  0  0  0  0  0  0  0  0  0
   12.8688    7.7370   22.7287 C   0  0  0  0  0  0  0  0  0  0  0  0
    7.4487    9.1361   23.6506 C   0  0  0  0  0  0  0  0  0  0  0  0
    8.9772    2.5025   22.0273 C   0  0  0  0  0  0  0  0  0  0  0  0
   10.4859    4.0901   20.9730 C   0  0  0  0  0  0  0  0  0  0  0  0
   11.0962    9.3293   23.5072 C   0  0  0  0  0  0  0  0  0  0  0  0
    5.1273    7.8529   23.6208 N   0  0  0  0  0  0  0  0  0  0  0  0
    9.7552    9.2338   23.0171 N   0  0  0  0  0  0  0  0  0  0  0  0
   11.1797    6.7591   21.3326 N   0  0  0  0  0  0  0  0  0  0  0  0
   11.7728    8.0337   23.7267 C   0  0  0  0  0  0  0  0  0  0  0  0
    7.1194    8.3344   24.6775 C   0  0  0  0  0  0  0  0  0  0  0  0
    8.4311    4.7963   22.0500 C   0  0  0  0  0  0  0  0  0  0  0  0
    8.7393   10.8706   24.1871 O   0  0  0  0  0  0  0  0  0  0  0  0
    9.3093    3.8166   21.6712 C   0  0  0  0  0  0  0  0  0  0  0  0
  1  5  1  0
  1 15  4  0
  1 22  4  0
  2 20  1  0
  2 24  1  0
  3  6  4  0
  3 27  4  0
  4 22  4  0
  4 26  4  0
  6  7  4  0
  6 13  1  0
  7 19  4  0
  8 18  1  0
  8 23  1  0
  8 28  2  0
  9 17  1  0
  9 24  1  0
 10 11  1  0
 10 24  1  0
 11 23  1  0
 12 14  4  0
 12 16  4  0
 14 19  4  0
 15 18  4  0
 16 20  4  0
 17 25  1  0
 18 26  4  0
 19 29  4  0
 20 29  4  0
 21 23  1  0
 21 25  1  0
 27 29  4  0
M  END
$$$$

 Created by Python create_sdf_string function

 29 32  0  0  0  0  0  0  0  0999 V2000
    5.4450    8.7154   22.6662 C   0  0  0  0  0  0  0  0  0  0  0  0
   10.9154    5.4574   20.5483 C   0  0  0  0  0  0  0  0  0  0  0  0
    7.2709    4.5089   22.7542 C   0  0  0  0  0  0  0  0  0  0  0  0
    5.9698    7.6329   24.6581 C   0  0  0  0  0  0  0  0  0  0  0  0
    4.5542    8.9057   21.7104 O   0  0  0  0  0  0  0  0  0  0  0  0
    6.9895    3.2085   23.0690 C   0  0  0  0  0  0  0  0  0  0  0  0
    7.8391    2.2253   22.7260 N   0  0  0  0  0  0  0  0  0  0  0  0
    8.6968    9.8373   23.6359 C   0  0  0  0  0  0  0  0  0  0  0  0
   12.5135    6.5957   21.8396 C   0  0  0  0  0  0  0  0  0  0  0  0
   10.9406    8.2330   21.1350 C   0  0  0  0  0  0  0  0  0  0  0  0
    9.6648    8.5956   21.7310 C   0  0  0  0  0  0  0  0  0  0  0  0
   10.8829    1.7153   20.9865 C   0  0  0  0  0  0  0  0  0  0  0  0
    5.7768    2.8533   23.7910 C   0  0  0  0  0  0  0  0  0  0  0  0
    9.7977    1.4791   21.6912 N   0  0  0  0  0  0  0  0  0  0  0  0
    6.5976    9.3401   22.6478 N   0  0  0  0  0  0  0  0  0  0  0  0
   11.2031    3.0042   20.6246 C   0  0  0  0  0  0  0  0  0  0  0  0
   12.8688    7.7370   22.7287 C   0  0  0  0  0  0  0  0  0  0  0  0
    7.4487    9.1361   23.6506 C   0  0  0  0  0  0  0  0  0  0  0  0
    8.9772    2.5025   22.0273 C   0  0  0  0  0  0  0  0  0  0  0  0
   10.4859    4.0901   20.9730 C   0  0  0  0  0  0  0  0  0  0  0  0
   11.0962    9.3293   23.5072 C   0  0  0  0  0  0  0  0  0  0  0  0
    5.1273    7.8529   23.6208 N   0  0  0  0  0  0  0  0  0  0  0  0
    9.7552    9.2338   23.0171 N   0  0  0  0  0  0  0  0  0  0  0  0
   11.1797    6.7591   21.3326 N   0  0  0  0  0  0  0  0  0  0  0  0
   11.7728    8.0337   23.7267 C   0  0  0  0  0  0  0  0  0  0  0  0
    7.1194    8.3344   24.6775 C   0  0  0  0  0  0  0  0  0  0  0  0
    8.4311    4.7963   22.0500 C   0  0  0  0  0  0  0  0  0  0  0  0
    8.7393   10.8706   24.1871 O   0  0  0  0  0  0  0  0  0  0  0  0
    9.3093    3.8166   21.6712 C   0  0  0  0  0  0  0  0  0  0  0  0
  1  5  1  0
  1 15  4  0
  1 22  4  0
  2 20  1  0
  2 24  1  0
  3  6  4  0
  3 27  4  0
  4 22  4  0
  4 26  4  0
  6  7  4  0
  6 13  1  0
  7 19  4  0
  8 18  1  0
  8 23  1  0
  8 28  2  0
  9 17  1  0
  9 24  1  0
 10 11  1  0
 10 24  1  0
 11 23  1  0
 12 14  4  0
 12 16  4  0
 14 19  4  0
 15 18  4  0
 16 20  4  0
 17 25  1  0
 18 26  4  0
 19 29  4  0
 20 29  4  0
 21 23  1  0
 21 25  1  0
 27 29  4  0
M  END
$$$$

 Created by Python create_sdf_string function

 29 32  0  0  0  0  0  0  0  0999 V2000
    5.4450    8.7154   22.6662 C   0  0  0  0  0  0  0  0  0  0  0  0
   10.9154    5.4574   20.5483 C   0  0  0  0  0  0  0  0  0  0  0  0
    7.2709    4.5089   22.7542 C   0  0  0  0  0  0  0  0  0  0  0  0
    5.9698    7.6329   24.6581 C   0  0  0  0  0  0  0  0  0  0  0  0
    4.5542    8.9057   21.7104 O   0  0  0  0  0  0  0  0  0  0  0  0
    6.9895    3.2085   23.0690 C   0  0  0  0  0  0  0  0  0  0  0  0
    7.8391    2.2253   22.7260 N   0  0  0  0  0  0  0  0  0  0  0  0
    8.6968    9.8373   23.6359 C   0  0  0  0  0  0  0  0  0  0  0  0
   12.5135    6.5957   21.8396 C   0  0  0  0  0  0  0  0  0  0  0  0
   10.9406    8.2330   21.1350 C   0  0  0  0  0  0  0  0  0  0  0  0
    9.6648    8.5956   21.7310 C   0  0  0  0  0  0  0  0  0  0  0  0
   10.8829    1.7153   20.9865 C   0  0  0  0  0  0  0  0  0  0  0  0
    5.7768    2.8533   23.7910 C   0  0  0  0  0  0  0  0  0  0  0  0
    9.7977    1.4791   21.6912 N   0  0  0  0  0  0  0  0  0  0  0  0
    6.5976    9.3401   22.6478 N   0  0  0  0  0  0  0  0  0  0  0  0
   11.2031    3.0042   20.6246 C   0  0  0  0  0  0  0  0  0  0  0  0
   12.8688    7.7370   22.7287 C   0  0  0  0  0  0  0  0  0  0  0  0
    7.4487    9.1361   23.6506 C   0  0  0  0  0  0  0  0  0  0  0  0
    8.9772    2.5025   22.0273 C   0  0  0  0  0  0  0  0  0  0  0  0
   10.4859    4.0901   20.9730 C   0  0  0  0  0  0  0  0  0  0  0  0
   11.0962    9.3293   23.5072 C   0  0  0  0  0  0  0  0  0  0  0  0
    5.1273    7.8529   23.6208 N   0  0  0  0  0  0  0  0  0  0  0  0
    9.7552    9.2338   23.0171 N   0  0  0  0  0  0  0  0  0  0  0  0
   11.1797    6.7591   21.3326 N   0  0  0  0  0  0  0  0  0  0  0  0
   11.7728    8.0337   23.7267 C   0  0  0  0  0  0  0  0  0  0  0  0
    7.1194    8.3344   24.6775 C   0  0  0  0  0  0  0  0  0  0  0  0
    8.4311    4.7963   22.0500 C   0  0  0  0  0  0  0  0  0  0  0  0
    8.7393   10.8706   24.1871 O   0  0  0  0  0  0  0  0  0  0  0  0
    9.3093    3.8166   21.6712 C   0  0  0  0  0  0  0  0  0  0  0  0
  1  5  1  0
  1 15  4  0
  1 22  4  0
  2 20  1  0
  2 24  1  0
  3  6  4  0
  3 27  4  0
  4 22  4  0
  4 26  4  0
  6  7  4  0
  6 13  1  0
  7 19  4  0
  8 18  1  0
  8 23  1  0
  8 28  2  0
  9 17  1  0
  9 24  1  0
 10 11  1  0
 10 24  1  0
 11 23  1  0
 12 14  4  0
 12 16  4  0
 14 19  4  0
 15 18  4  0
 16 20  4  0
 17 25  1  0
 18 26  4  0
 19 29  4  0
 20 29  4  0
 21 23  1  0
 21 25  1  0
 27 29  4  0
M  END
$$$$

 Created by Python create_sdf_string function

 29 32  0  0  0  0  0  0  0  0999 V2000
    5.4450    8.7154   22.6662 C   0  0  0  0  0  0  0  0  0  0  0  0
   10.9154    5.4574   20.5483 C   0  0  0  0  0  0  0  0  0  0  0  0
    7.2709    4.5089   22.7542 C   0  0  0  0  0  0  0  0  0  0  0  0
    5.9698    7.6329   24.6581 C   0  0  0  0  0  0  0  0  0  0  0  0
    4.5542    8.9057   21.7104 O   0  0  0  0  0  0  0  0  0  0  0  0
    6.9895    3.2085   23.0690 C   0  0  0  0  0  0  0  0  0  0  0  0
    7.8391    2.2253   22.7260 N   0  0  0  0  0  0  0  0  0  0  0  0
    8.6968    9.8373   23.6359 C   0  0  0  0  0  0  0  0  0  0  0  0
   12.5135    6.5957   21.8396 C   0  0  0  0  0  0  0  0  0  0  0  0
   10.9406    8.2330   21.1350 C   0  0  0  0  0  0  0  0  0  0  0  0
    9.6648    8.5956   21.7310 C   0  0  0  0  0  0  0  0  0  0  0  0
   10.8829    1.7153   20.9865 C   0  0  0  0  0  0  0  0  0  0  0  0
    5.7768    2.8533   23.7910 C   0  0  0  0  0  0  0  0  0  0  0  0
    9.7977    1.4791   21.6912 N   0  0  0  0  0  0  0  0  0  0  0  0
    6.5976    9.3401   22.6478 N   0  0  0  0  0  0  0  0  0  0  0  0
   11.2031    3.0042   20.6246 C   0  0  0  0  0  0  0  0  0  0  0  0
   12.8688    7.7370   22.7287 C   0  0  0  0  0  0  0  0  0  0  0  0
    7.4487    9.1361   23.6506 C   0  0  0  0  0  0  0  0  0  0  0  0
    8.9772    2.5025   22.0273 C   0  0  0  0  0  0  0  0  0  0  0  0
   10.4859    4.0901   20.9730 C   0  0  0  0  0  0  0  0  0  0  0  0
   11.0962    9.3293   23.5072 C   0  0  0  0  0  0  0  0  0  0  0  0
    5.1273    7.8529   23.6208 N   0  0  0  0  0  0  0  0  0  0  0  0
    9.7552    9.2338   23.0171 N   0  0  0  0  0  0  0  0  0  0  0  0
   11.1797    6.7591   21.3326 N   0  0  0  0  0  0  0  0  0  0  0  0
   11.7728    8.0337   23.7267 C   0  0  0  0  0  0  0  0  0  0  0  0
    7.1194    8.3344   24.6775 C   0  0  0  0  0  0  0  0  0  0  0  0
    8.4311    4.7963   22.0500 C   0  0  0  0  0  0  0  0  0  0  0  0
    8.7393   10.8706   24.1871 O   0  0  0  0  0  0  0  0  0  0  0  0
    9.3093    3.8166   21.6712 C   0  0  0  0  0  0  0  0  0  0  0  0
  1  5  1  0
  1 15  4  0
  1 22  4  0
  2 20  1  0
  2 24  1  0
  3  6  4  0
  3 27  4  0
  4 22  4  0
  4 26  4  0
  6  7  4  0
  6 13  1  0
  7 19  4  0
  8 18  1  0
  8 23  1  0
  8 28  2  0
  9 17  1  0
  9 24  1  0
 10 11  1  0
 10 24  1  0
 11 23  1  0
 12 14  4  0
 12 16  4  0
 14 19  4  0
 15 18  4  0
 16 20  4  0
 17 25  1  0
 18 26  4  0
 19 29  4  0
 20 29  4  0
 21 23  1  0
 21 25  1  0
 27 29  4  0
M  END
$$$$

 Created by Python create_sdf_string function

 29 32  0  0  0  0  0  0  0  0999 V2000
    5.4450    8.7154   22.6662 C   0  0  0  0  0  0  0  0  0  0  0  0
   10.9154    5.4574   20.5483 C   0  0  0  0  0  0  0  0  0  0  0  0
    7.2709    4.5089   22.7542 C   0  0  0  0  0  0  0  0  0  0  0  0
    5.9698    7.6329   24.6581 C   0  0  0  0  0  0  0  0  0  0  0  0
    4.5542    8.9057   21.7104 O   0  0  0  0  0  0  0  0  0  0  0  0
    6.9895    3.2085   23.0690 C   0  0  0  0  0  0  0  0  0  0  0  0
    7.8391    2.2253   22.7260 N   0  0  0  0  0  0  0  0  0  0  0  0
    8.6968    9.8373   23.6359 C   0  0  0  0  0  0  0  0  0  0  0  0
   12.5135    6.5957   21.8396 C   0  0  0  0  0  0  0  0  0  0  0  0
   10.9406    8.2330   21.1350 C   0  0  0  0  0  0  0  0  0  0  0  0
    9.6648    8.5956   21.7310 C   0  0  0  0  0  0  0  0  0  0  0  0
   10.8829    1.7153   20.9865 C   0  0  0  0  0  0  0  0  0  0  0  0
    5.7768    2.8533   23.7910 C   0  0  0  0  0  0  0  0  0  0  0  0
    9.7977    1.4791   21.6912 N   0  0  0  0  0  0  0  0  0  0  0  0
    6.5976    9.3401   22.6478 N   0  0  0  0  0  0  0  0  0  0  0  0
   11.2031    3.0042   20.6246 C   0  0  0  0  0  0  0  0  0  0  0  0
   12.8688    7.7370   22.7287 C   0  0  0  0  0  0  0  0  0  0  0  0
    7.4487    9.1361   23.6506 C   0  0  0  0  0  0  0  0  0  0  0  0
    8.9772    2.5025   22.0273 C   0  0  0  0  0  0  0  0  0  0  0  0
   10.4859    4.0901   20.9730 C   0  0  0  0  0  0  0  0  0  0  0  0
   11.0962    9.3293   23.5072 C   0  0  0  0  0  0  0  0  0  0  0  0
    5.1273    7.8529   23.6208 N   0  0  0  0  0  0  0  0  0  0  0  0
    9.7552    9.2338   23.0171 N   0  0  0  0  0  0  0  0  0  0  0  0
   11.1797    6.7591   21.3326 N   0  0  0  0  0  0  0  0  0  0  0  0
   11.7728    8.0337   23.7267 C   0  0  0  0  0  0  0  0  0  0  0  0
    7.1194    8.3344   24.6775 C   0  0  0  0  0  0  0  0  0  0  0  0
    8.4311    4.7963   22.0500 C   0  0  0  0  0  0  0  0  0  0  0  0
    8.7393   10.8706   24.1871 O   0  0  0  0  0  0  0  0  0  0  0  0
    9.3093    3.8166   21.6712 C   0  0  0  0  0  0  0  0  0  0  0  0
  1  5  1  0
  1 15  4  0
  1 22  4  0
  2 20  1  0
  2 24  1  0
  3  6  4  0
  3 27  4  0
  4 22  4  0
  4 26  4  0
  6  7  4  0
  6 13  1  0
  7 19  4  0
  8 18  1  0
  8 23  1  0
  8 28  2  0
  9 17  1  0
  9 24  1  0
 10 11  1  0
 10 24  1  0
 11 23  1  0
 12 14  4  0
 12 16  4  0
 14 19  4  0
 15 18  4  0
 16 20  4  0
 17 25  1  0
 18 26  4  0
 19 29  4  0
 20 29  4  0
 21 23  1  0
 21 25  1  0
 27 29  4  0
M  END
$$$$

 Created by Python create_sdf_string function

 29 32  0  0  0  0  0  0  0  0999 V2000
    5.4450    8.7154   22.6662 C   0  0  0  0  0  0  0  0  0  0  0  0
   10.9154    5.4574   20.5483 C   0  0  0  0  0  0  0  0  0  0  0  0
    7.2709    4.5089   22.7542 C   0  0  0  0  0  0  0  0  0  0  0  0
    5.9698    7.6329   24.6581 C   0  0  0  0  0  0  0  0  0  0  0  0
    4.5542    8.9057   21.7104 O   0  0  0  0  0  0  0  0  0  0  0  0
    6.9895    3.2085   23.0690 C   0  0  0  0  0  0  0  0  0  0  0  0
    7.8391    2.2253   22.7260 N   0  0  0  0  0  0  0  0  0  0  0  0
    8.6968    9.8373   23.6359 C   0  0  0  0  0  0  0  0  0  0  0  0
   12.5135    6.5957   21.8396 C   0  0  0  0  0  0  0  0  0  0  0  0
   10.9406    8.2330   21.1350 C   0  0  0  0  0  0  0  0  0  0  0  0
    9.6648    8.5956   21.7310 C   0  0  0  0  0  0  0  0  0  0  0  0
   10.8829    1.7153   20.9865 C   0  0  0  0  0  0  0  0  0  0  0  0
    5.7768    2.8533   23.7910 C   0  0  0  0  0  0  0  0  0  0  0  0
    9.7977    1.4791   21.6912 N   0  0  0  0  0  0  0  0  0  0  0  0
    6.5976    9.3401   22.6478 N   0  0  0  0  0  0  0  0  0  0  0  0
   11.2031    3.0042   20.6246 C   0  0  0  0  0  0  0  0  0  0  0  0
   12.8688    7.7370   22.7287 C   0  0  0  0  0  0  0  0  0  0  0  0
    7.4487    9.1361   23.6506 C   0  0  0  0  0  0  0  0  0  0  0  0
    8.9772    2.5025   22.0273 C   0  0  0  0  0  0  0  0  0  0  0  0
   10.4859    4.0901   20.9730 C   0  0  0  0  0  0  0  0  0  0  0  0
   11.0962    9.3293   23.5072 C   0  0  0  0  0  0  0  0  0  0  0  0
    5.1273    7.8529   23.6208 N   0  0  0  0  0  0  0  0  0  0  0  0
    9.7552    9.2338   23.0171 N   0  0  0  0  0  0  0  0  0  0  0  0
   11.1797    6.7591   21.3326 N   0  0  0  0  0  0  0  0  0  0  0  0
   11.7728    8.0337   23.7267 C   0  0  0  0  0  0  0  0  0  0  0  0
    7.1194    8.3344   24.6775 C   0  0  0  0  0  0  0  0  0  0  0  0
    8.4311    4.7963   22.0500 C   0  0  0  0  0  0  0  0  0  0  0  0
    8.7393   10.8706   24.1871 O   0  0  0  0  0  0  0  0  0  0  0  0
    9.3093    3.8166   21.6712 C   0  0  0  0  0  0  0  0  0  0  0  0
  1  5  1  0
  1 15  4  0
  1 22  4  0
  2 20  1  0
  2 24  1  0
  3  6  4  0
  3 27  4  0
  4 22  4  0
  4 26  4  0
  6  7  4  0
  6 13  1  0
  7 19  4  0
  8 18  1  0
  8 23  1  0
  8 28  2  0
  9 17  1  0
  9 24  1  0
 10 11  1  0
 10 24  1  0
 11 23  1  0
 12 14  4  0
 12 16  4  0
 14 19  4  0
 15 18  4  0
 16 20  4  0
 17 25  1  0
 18 26  4  0
 19 29  4  0
 20 29  4  0
 21 23  1  0
 21 25  1  0
 27 29  4  0
M  END
$$$$

 Created by Python create_sdf_string function

 29 32  0  0  0  0  0  0  0  0999 V2000
    5.4450    8.7154   22.6662 C   0  0  0  0  0  0  0  0  0  0  0  0
   10.9154    5.4574   20.5483 C   0  0  0  0  0  0  0  0  0  0  0  0
    7.2709    4.5089   22.7542 C   0  0  0  0  0  0  0  0  0  0  0  0
    5.9698    7.6329   24.6581 C   0  0  0  0  0  0  0  0  0  0  0  0
    4.5542    8.9057   21.7104 O   0  0  0  0  0  0  0  0  0  0  0  0
    6.9895    3.2085   23.0690 C   0  0  0  0  0  0  0  0  0  0  0  0
    7.8391    2.2253   22.7260 N   0  0  0  0  0  0  0  0  0  0  0  0
    8.6968    9.8373   23.6359 C   0  0  0  0  0  0  0  0  0  0  0  0
   12.5135    6.5957   21.8396 C   0  0  0  0  0  0  0  0  0  0  0  0
   10.9406    8.2330   21.1350 C   0  0  0  0  0  0  0  0  0  0  0  0
    9.6648    8.5956   21.7310 C   0  0  0  0  0  0  0  0  0  0  0  0
   10.8829    1.7153   20.9865 C   0  0  0  0  0  0  0  0  0  0  0  0
    5.7768    2.8533   23.7910 C   0  0  0  0  0  0  0  0  0  0  0  0
    9.7977    1.4791   21.6912 N   0  0  0  0  0  0  0  0  0  0  0  0
    6.5976    9.3401   22.6478 N   0  0  0  0  0  0  0  0  0  0  0  0
   11.2031    3.0042   20.6246 C   0  0  0  0  0  0  0  0  0  0  0  0
   12.8688    7.7370   22.7287 C   0  0  0  0  0  0  0  0  0  0  0  0
    7.4487    9.1361   23.6506 C   0  0  0  0  0  0  0  0  0  0  0  0
    8.9772    2.5025   22.0273 C   0  0  0  0  0  0  0  0  0  0  0  0
   10.4859    4.0901   20.9730 C   0  0  0  0  0  0  0  0  0  0  0  0
   11.0962    9.3293   23.5072 C   0  0  0  0  0  0  0  0  0  0  0  0
    5.1273    7.8529   23.6208 N   0  0  0  0  0  0  0  0  0  0  0  0
    9.7552    9.2338   23.0171 N   0  0  0  0  0  0  0  0  0  0  0  0
   11.1797    6.7591   21.3326 N   0  0  0  0  0  0  0  0  0  0  0  0
   11.7728    8.0337   23.7267 C   0  0  0  0  0  0  0  0  0  0  0  0
    7.1194    8.3344   24.6775 C   0  0  0  0  0  0  0  0  0  0  0  0
    8.4311    4.7963   22.0500 C   0  0  0  0  0  0  0  0  0  0  0  0
    8.7393   10.8706   24.1871 O   0  0  0  0  0  0  0  0  0  0  0  0
    9.3093    3.8166   21.6712 C   0  0  0  0  0  0  0  0  0  0  0  0
  1  5  1  0
  1 15  4  0
  1 22  4  0
  2 20  1  0
  2 24  1  0
  3  6  4  0
  3 27  4  0
  4 22  4  0
  4 26  4  0
  6  7  4  0
  6 13  1  0
  7 19  4  0
  8 18  1  0
  8 23  1  0
  8 28  2  0
  9 17  1  0
  9 24  1  0
 10 11  1  0
 10 24  1  0
 11 23  1  0
 12 14  4  0
 12 16  4  0
 14 19  4  0
 15 18  4  0
 16 20  4  0
 17 25  1  0
 18 26  4  0
 19 29  4  0
 20 29  4  0
 21 23  1  0
 21 25  1  0
 27 29  4  0
M  END
$$$$

 Created by Python create_sdf_string function

 29 32  0  0  0  0  0  0  0  0999 V2000
    5.4450    8.7154   22.6662 C   0  0  0  0  0  0  0  0  0  0  0  0
   10.9154    5.4574   20.5483 C   0  0  0  0  0  0  0  0  0  0  0  0
    7.2709    4.5089   22.7542 C   0  0  0  0  0  0  0  0  0  0  0  0
    5.9698    7.6329   24.6581 C   0  0  0  0  0  0  0  0  0  0  0  0
    4.5542    8.9057   21.7104 O   0  0  0  0  0  0  0  0  0  0  0  0
    6.9895    3.2085   23.0690 C   0  0  0  0  0  0  0  0  0  0  0  0
    7.8391    2.2253   22.7260 N   0  0  0  0  0  0  0  0  0  0  0  0
    8.6968    9.8373   23.6359 C   0  0  0  0  0  0  0  0  0  0  0  0
   12.5135    6.5957   21.8396 C   0  0  0  0  0  0  0  0  0  0  0  0
   10.9406    8.2330   21.1350 C   0  0  0  0  0  0  0  0  0  0  0  0
    9.6648    8.5956   21.7310 C   0  0  0  0  0  0  0  0  0  0  0  0
   10.8829    1.7153   20.9865 C   0  0  0  0  0  0  0  0  0  0  0  0
    5.7768    2.8533   23.7910 C   0  0  0  0  0  0  0  0  0  0  0  0
    9.7977    1.4791   21.6912 N   0  0  0  0  0  0  0  0  0  0  0  0
    6.5976    9.3401   22.6478 N   0  0  0  0  0  0  0  0  0  0  0  0
   11.2031    3.0042   20.6246 C   0  0  0  0  0  0  0  0  0  0  0  0
   12.8688    7.7370   22.7287 C   0  0  0  0  0  0  0  0  0  0  0  0
    7.4487    9.1361   23.6506 C   0  0  0  0  0  0  0  0  0  0  0  0
    8.9772    2.5025   22.0273 C   0  0  0  0  0  0  0  0  0  0  0  0
   10.4859    4.0901   20.9730 C   0  0  0  0  0  0  0  0  0  0  0  0
   11.0962    9.3293   23.5072 C   0  0  0  0  0  0  0  0  0  0  0  0
    5.1273    7.8529   23.6208 N   0  0  0  0  0  0  0  0  0  0  0  0
    9.7552    9.2338   23.0171 N   0  0  0  0  0  0  0  0  0  0  0  0
   11.1797    6.7591   21.3326 N   0  0  0  0  0  0  0  0  0  0  0  0
   11.7728    8.0337   23.7267 C   0  0  0  0  0  0  0  0  0  0  0  0
    7.1194    8.3344   24.6775 C   0  0  0  0  0  0  0  0  0  0  0  0
    8.4311    4.7963   22.0500 C   0  0  0  0  0  0  0  0  0  0  0  0
    8.7393   10.8706   24.1871 O   0  0  0  0  0  0  0  0  0  0  0  0
    9.3093    3.8166   21.6712 C   0  0  0  0  0  0  0  0  0  0  0  0
  1  5  1  0
  1 15  4  0
  1 22  4  0
  2 20  1  0
  2 24  1  0
  3  6  4  0
  3 27  4  0
  4 22  4  0
  4 26  4  0
  6  7  4  0
  6 13  1  0
  7 19  4  0
  8 18  1  0
  8 23  1  0
  8 28  2  0
  9 17  1  0
  9 24  1  0
 10 11  1  0
 10 24  1  0
 11 23  1  0
 12 14  4  0
 12 16  4  0
 14 19  4  0
 15 18  4  0
 16 20  4  0
 17 25  1  0
 18 26  4  0
 19 29  4  0
 20 29  4  0
 21 23  1  0
 21 25  1  0
 27 29  4  0
M  END
$$$$

 Created by Python create_sdf_string function

 29 32  0  0  0  0  0  0  0  0999 V2000
    5.4450    8.7154   22.6662 C   0  0  0  0  0  0  0  0  0  0  0  0
   10.9154    5.4574   20.5483 C   0  0  0  0  0  0  0  0  0  0  0  0
    7.2709    4.5089   22.7542 C   0  0  0  0  0  0  0  0  0  0  0  0
    5.9698    7.6329   24.6581 C   0  0  0  0  0  0  0  0  0  0  0  0
    4.5542    8.9057   21.7104 O   0  0  0  0  0  0  0  0  0  0  0  0
    6.9895    3.2085   23.0690 C   0  0  0  0  0  0  0  0  0  0  0  0
    7.8391    2.2253   22.7260 N   0  0  0  0  0  0  0  0  0  0  0  0
    8.6968    9.8373   23.6359 C   0  0  0  0  0  0  0  0  0  0  0  0
   12.5135    6.5957   21.8396 C   0  0  0  0  0  0  0  0  0  0  0  0
   10.9406    8.2330   21.1350 C   0  0  0  0  0  0  0  0  0  0  0  0
    9.6648    8.5956   21.7310 C   0  0  0  0  0  0  0  0  0  0  0  0
   10.8829    1.7153   20.9865 C   0  0  0  0  0  0  0  0  0  0  0  0
    5.7768    2.8533   23.7910 C   0  0  0  0  0  0  0  0  0  0  0  0
    9.7977    1.4791   21.6912 N   0  0  0  0  0  0  0  0  0  0  0  0
    6.5976    9.3401   22.6478 N   0  0  0  0  0  0  0  0  0  0  0  0
   11.2031    3.0042   20.6246 C   0  0  0  0  0  0  0  0  0  0  0  0
   12.8688    7.7370   22.7287 C   0  0  0  0  0  0  0  0  0  0  0  0
    7.4487    9.1361   23.6506 C   0  0  0  0  0  0  0  0  0  0  0  0
    8.9772    2.5025   22.0273 C   0  0  0  0  0  0  0  0  0  0  0  0
   10.4859    4.0901   20.9730 C   0  0  0  0  0  0  0  0  0  0  0  0
   11.0962    9.3293   23.5072 C   0  0  0  0  0  0  0  0  0  0  0  0
    5.1273    7.8529   23.6208 N   0  0  0  0  0  0  0  0  0  0  0  0
    9.7552    9.2338   23.0171 N   0  0  0  0  0  0  0  0  0  0  0  0
   11.1797    6.7591   21.3326 N   0  0  0  0  0  0  0  0  0  0  0  0
   11.7728    8.0337   23.7267 C   0  0  0  0  0  0  0  0  0  0  0  0
    7.1194    8.3344   24.6775 C   0  0  0  0  0  0  0  0  0  0  0  0
    8.4311    4.7963   22.0500 C   0  0  0  0  0  0  0  0  0  0  0  0
    8.7393   10.8706   24.1871 O   0  0  0  0  0  0  0  0  0  0  0  0
    9.3093    3.8166   21.6712 C   0  0  0  0  0  0  0  0  0  0  0  0
  1  5  1  0
  1 15  4  0
  1 22  4  0
  2 20  1  0
  2 24  1  0
  3  6  4  0
  3 27  4  0
  4 22  4  0
  4 26  4  0
  6  7  4  0
  6 13  1  0
  7 19  4  0
  8 18  1  0
  8 23  1  0
  8 28  2  0
  9 17  1  0
  9 24  1  0
 10 11  1  0
 10 24  1  0
 11 23  1  0
 12 14  4  0
 12 16  4  0
 14 19  4  0
 15 18  4  0
 16 20  4  0
 17 25  1  0
 18 26  4  0
 19 29  4  0
 20 29  4  0
 21 23  1  0
 21 25  1  0
 27 29  4  0
M  END
$$$$

 Created by Python create_sdf_string function

 29 32  0  0  0  0  0  0  0  0999 V2000
    5.4450    8.7154   22.6662 C   0  0  0  0  0  0  0  0  0  0  0  0
   10.9154    5.4574   20.5483 C   0  0  0  0  0  0  0  0  0  0  0  0
    7.2709    4.5089   22.7542 C   0  0  0  0  0  0  0  0  0  0  0  0
    5.9698    7.6329   24.6581 C   0  0  0  0  0  0  0  0  0  0  0  0
    4.5542    8.9057   21.7104 O   0  0  0  0  0  0  0  0  0  0  0  0
    6.9895    3.2085   23.0690 C   0  0  0  0  0  0  0  0  0  0  0  0
    7.8391    2.2253   22.7260 N   0  0  0  0  0  0  0  0  0  0  0  0
    8.6968    9.8373   23.6359 C   0  0  0  0  0  0  0  0  0  0  0  0
   12.5135    6.5957   21.8396 C   0  0  0  0  0  0  0  0  0  0  0  0
   10.9406    8.2330   21.1350 C   0  0  0  0  0  0  0  0  0  0  0  0
    9.6648    8.5956   21.7310 C   0  0  0  0  0  0  0  0  0  0  0  0
   10.8829    1.7153   20.9865 C   0  0  0  0  0  0  0  0  0  0  0  0
    5.7768    2.8533   23.7910 C   0  0  0  0  0  0  0  0  0  0  0  0
    9.7977    1.4791   21.6912 N   0  0  0  0  0  0  0  0  0  0  0  0
    6.5976    9.3401   22.6478 N   0  0  0  0  0  0  0  0  0  0  0  0
   11.2031    3.0042   20.6246 C   0  0  0  0  0  0  0  0  0  0  0  0
   12.8688    7.7370   22.7287 C   0  0  0  0  0  0  0  0  0  0  0  0
    7.4487    9.1361   23.6506 C   0  0  0  0  0  0  0  0  0  0  0  0
    8.9772    2.5025   22.0273 C   0  0  0  0  0  0  0  0  0  0  0  0
   10.4859    4.0901   20.9730 C   0  0  0  0  0  0  0  0  0  0  0  0
   11.0962    9.3293   23.5072 C   0  0  0  0  0  0  0  0  0  0  0  0
    5.1273    7.8529   23.6208 N   0  0  0  0  0  0  0  0  0  0  0  0
    9.7552    9.2338   23.0171 N   0  0  0  0  0  0  0  0  0  0  0  0
   11.1797    6.7591   21.3326 N   0  0  0  0  0  0  0  0  0  0  0  0
   11.7728    8.0337   23.7267 C   0  0  0  0  0  0  0  0  0  0  0  0
    7.1194    8.3344   24.6775 C   0  0  0  0  0  0  0  0  0  0  0  0
    8.4311    4.7963   22.0500 C   0  0  0  0  0  0  0  0  0  0  0  0
    8.7393   10.8706   24.1871 O   0  0  0  0  0  0  0  0  0  0  0  0
    9.3093    3.8166   21.6712 C   0  0  0  0  0  0  0  0  0  0  0  0
  1  5  1  0
  1 15  4  0
  1 22  4  0
  2 20  1  0
  2 24  1  0
  3  6  4  0
  3 27  4  0
  4 22  4  0
  4 26  4  0
  6  7  4  0
  6 13  1  0
  7 19  4  0
  8 18  1  0
  8 23  1  0
  8 28  2  0
  9 17  1  0
  9 24  1  0
 10 11  1  0
 10 24  1  0
 11 23  1  0
 12 14  4  0
 12 16  4  0
 14 19  4  0
 15 18  4  0
 16 20  4  0
 17 25  1  0
 18 26  4  0
 19 29  4  0
 20 29  4  0
 21 23  1  0
 21 25  1  0
 27 29  4  0
M  END
$$$$

 Created by Python create_sdf_string function

 29 32  0  0  0  0  0  0  0  0999 V2000
    5.4450    8.7154   22.6662 C   0  0  0  0  0  0  0  0  0  0  0  0
   10.9154    5.4574   20.5483 C   0  0  0  0  0  0  0  0  0  0  0  0
    7.2709    4.5089   22.7542 C   0  0  0  0  0  0  0  0  0  0  0  0
    5.9698    7.6329   24.6581 C   0  0  0  0  0  0  0  0  0  0  0  0
    4.5542    8.9057   21.7104 O   0  0  0  0  0  0  0  0  0  0  0  0
    6.9895    3.2085   23.0690 C   0  0  0  0  0  0  0  0  0  0  0  0
    7.8391    2.2253   22.7260 N   0  0  0  0  0  0  0  0  0  0  0  0
    8.6968    9.8373   23.6359 C   0  0  0  0  0  0  0  0  0  0  0  0
   12.5135    6.5957   21.8396 C   0  0  0  0  0  0  0  0  0  0  0  0
   10.9406    8.2330   21.1350 C   0  0  0  0  0  0  0  0  0  0  0  0
    9.6648    8.5956   21.7310 C   0  0  0  0  0  0  0  0  0  0  0  0
   10.8829    1.7153   20.9865 C   0  0  0  0  0  0  0  0  0  0  0  0
    5.7768    2.8533   23.7910 C   0  0  0  0  0  0  0  0  0  0  0  0
    9.7977    1.4791   21.6912 N   0  0  0  0  0  0  0  0  0  0  0  0
    6.5976    9.3401   22.6478 N   0  0  0  0  0  0  0  0  0  0  0  0
   11.2031    3.0042   20.6246 C   0  0  0  0  0  0  0  0  0  0  0  0
   12.8688    7.7370   22.7287 C   0  0  0  0  0  0  0  0  0  0  0  0
    7.4487    9.1361   23.6506 C   0  0  0  0  0  0  0  0  0  0  0  0
    8.9772    2.5025   22.0273 C   0  0  0  0  0  0  0  0  0  0  0  0
   10.4859    4.0901   20.9730 C   0  0  0  0  0  0  0  0  0  0  0  0
   11.0962    9.3293   23.5072 C   0  0  0  0  0  0  0  0  0  0  0  0
    5.1273    7.8529   23.6208 N   0  0  0  0  0  0  0  0  0  0  0  0
    9.7552    9.2338   23.0171 N   0  0  0  0  0  0  0  0  0  0  0  0
   11.1797    6.7591   21.3326 N   0  0  0  0  0  0  0  0  0  0  0  0
   11.7728    8.0337   23.7267 C   0  0  0  0  0  0  0  0  0  0  0  0
    7.1194    8.3344   24.6775 C   0  0  0  0  0  0  0  0  0  0  0  0
    8.4311    4.7963   22.0500 C   0  0  0  0  0  0  0  0  0  0  0  0
    8.7393   10.8706   24.1871 O   0  0  0  0  0  0  0  0  0  0  0  0
    9.3093    3.8166   21.6712 C   0  0  0  0  0  0  0  0  0  0  0  0
  1  5  1  0
  1 15  4  0
  1 22  4  0
  2 20  1  0
  2 24  1  0
  3  6  4  0
  3 27  4  0
  4 22  4  0
  4 26  4  0
  6  7  4  0
  6 13  1  0
  7 19  4  0
  8 18  1  0
  8 23  1  0
  8 28  2  0
  9 17  1  0
  9 24  1  0
 10 11  1  0
 10 24  1  0
 11 23  1  0
 12 14  4  0
 12 16  4  0
 14 19  4  0
 15 18  4  0
 16 20  4  0
 17 25  1  0
 18 26  4  0
 19 29  4  0
 20 29  4  0
 21 23  1  0
 21 25  1  0
 27 29  4  0
M  END
$$$$

 Created by Python create_sdf_string function

 29 32  0  0  0  0  0  0  0  0999 V2000
    5.4450    8.7154   22.6662 C   0  0  0  0  0  0  0  0  0  0  0  0
   10.9154    5.4574   20.5483 C   0  0  0  0  0  0  0  0  0  0  0  0
    7.2709    4.5089   22.7542 C   0  0  0  0  0  0  0  0  0  0  0  0
    5.9698    7.6329   24.6581 C   0  0  0  0  0  0  0  0  0  0  0  0
    4.5542    8.9057   21.7104 O   0  0  0  0  0  0  0  0  0  0  0  0
    6.9895    3.2085   23.0690 C   0  0  0  0  0  0  0  0  0  0  0  0
    7.8391    2.2253   22.7260 N   0  0  0  0  0  0  0  0  0  0  0  0
    8.6968    9.8373   23.6359 C   0  0  0  0  0  0  0  0  0  0  0  0
   12.5135    6.5957   21.8396 C   0  0  0  0  0  0  0  0  0  0  0  0
   10.9406    8.2330   21.1350 C   0  0  0  0  0  0  0  0  0  0  0  0
    9.6648    8.5956   21.7310 C   0  0  0  0  0  0  0  0  0  0  0  0
   10.8829    1.7153   20.9865 C   0  0  0  0  0  0  0  0  0  0  0  0
    5.7768    2.8533   23.7910 C   0  0  0  0  0  0  0  0  0  0  0  0
    9.7977    1.4791   21.6912 N   0  0  0  0  0  0  0  0  0  0  0  0
    6.5976    9.3401   22.6478 N   0  0  0  0  0  0  0  0  0  0  0  0
   11.2031    3.0042   20.6246 C   0  0  0  0  0  0  0  0  0  0  0  0
   12.8688    7.7370   22.7287 C   0  0  0  0  0  0  0  0  0  0  0  0
    7.4487    9.1361   23.6506 C   0  0  0  0  0  0  0  0  0  0  0  0
    8.9772    2.5025   22.0273 C   0  0  0  0  0  0  0  0  0  0  0  0
   10.4859    4.0901   20.9730 C   0  0  0  0  0  0  0  0  0  0  0  0
   11.0962    9.3293   23.5072 C   0  0  0  0  0  0  0  0  0  0  0  0
    5.1273    7.8529   23.6208 N   0  0  0  0  0  0  0  0  0  0  0  0
    9.7552    9.2338   23.0171 N   0  0  0  0  0  0  0  0  0  0  0  0
   11.1797    6.7591   21.3326 N   0  0  0  0  0  0  0  0  0  0  0  0
   11.7728    8.0337   23.7267 C   0  0  0  0  0  0  0  0  0  0  0  0
    7.1194    8.3344   24.6775 C   0  0  0  0  0  0  0  0  0  0  0  0
    8.4311    4.7963   22.0500 C   0  0  0  0  0  0  0  0  0  0  0  0
    8.7393   10.8706   24.1871 O   0  0  0  0  0  0  0  0  0  0  0  0
    9.3093    3.8166   21.6712 C   0  0  0  0  0  0  0  0  0  0  0  0
  1  5  1  0
  1 15  4  0
  1 22  4  0
  2 20  1  0
  2 24  1  0
  3  6  4  0
  3 27  4  0
  4 22  4  0
  4 26  4  0
  6  7  4  0
  6 13  1  0
  7 19  4  0
  8 18  1  0
  8 23  1  0
  8 28  2  0
  9 17  1  0
  9 24  1  0
 10 11  1  0
 10 24  1  0
 11 23  1  0
 12 14  4  0
 12 16  4  0
 14 19  4  0
 15 18  4  0
 16 20  4  0
 17 25  1  0
 18 26  4  0
 19 29  4  0
 20 29  4  0
 21 23  1  0
 21 25  1  0
 27 29  4  0
M  END
$$$$

 Created by Python create_sdf_string function

 29 32  0  0  0  0  0  0  0  0999 V2000
    5.4450    8.7154   22.6662 C   0  0  0  0  0  0  0  0  0  0  0  0
   10.9154    5.4574   20.5483 C   0  0  0  0  0  0  0  0  0  0  0  0
    7.2709    4.5089   22.7542 C   0  0  0  0  0  0  0  0  0  0  0  0
    5.9698    7.6329   24.6581 C   0  0  0  0  0  0  0  0  0  0  0  0
    4.5542    8.9057   21.7104 O   0  0  0  0  0  0  0  0  0  0  0  0
    6.9895    3.2085   23.0690 C   0  0  0  0  0  0  0  0  0  0  0  0
    7.8391    2.2253   22.7260 N   0  0  0  0  0  0  0  0  0  0  0  0
    8.6968    9.8373   23.6359 C   0  0  0  0  0  0  0  0  0  0  0  0
   12.5135    6.5957   21.8396 C   0  0  0  0  0  0  0  0  0  0  0  0
   10.9406    8.2330   21.1350 C   0  0  0  0  0  0  0  0  0  0  0  0
    9.6648    8.5956   21.7310 C   0  0  0  0  0  0  0  0  0  0  0  0
   10.8829    1.7153   20.9865 C   0  0  0  0  0  0  0  0  0  0  0  0
    5.7768    2.8533   23.7910 C   0  0  0  0  0  0  0  0  0  0  0  0
    9.7977    1.4791   21.6912 N   0  0  0  0  0  0  0  0  0  0  0  0
    6.5976    9.3401   22.6478 N   0  0  0  0  0  0  0  0  0  0  0  0
   11.2031    3.0042   20.6246 C   0  0  0  0  0  0  0  0  0  0  0  0
   12.8688    7.7370   22.7287 C   0  0  0  0  0  0  0  0  0  0  0  0
    7.4487    9.1361   23.6506 C   0  0  0  0  0  0  0  0  0  0  0  0
    8.9772    2.5025   22.0273 C   0  0  0  0  0  0  0  0  0  0  0  0
   10.4859    4.0901   20.9730 C   0  0  0  0  0  0  0  0  0  0  0  0
   11.0962    9.3293   23.5072 C   0  0  0  0  0  0  0  0  0  0  0  0
    5.1273    7.8529   23.6208 N   0  0  0  0  0  0  0  0  0  0  0  0
    9.7552    9.2338   23.0171 N   0  0  0  0  0  0  0  0  0  0  0  0
   11.1797    6.7591   21.3326 N   0  0  0  0  0  0  0  0  0  0  0  0
   11.7728    8.0337   23.7267 C   0  0  0  0  0  0  0  0  0  0  0  0
    7.1194    8.3344   24.6775 C   0  0  0  0  0  0  0  0  0  0  0  0
    8.4311    4.7963   22.0500 C   0  0  0  0  0  0  0  0  0  0  0  0
    8.7393   10.8706   24.1871 O   0  0  0  0  0  0  0  0  0  0  0  0
    9.3093    3.8166   21.6712 C   0  0  0  0  0  0  0  0  0  0  0  0
  1  5  1  0
  1 15  4  0
  1 22  4  0
  2 20  1  0
  2 24  1  0
  3  6  4  0
  3 27  4  0
  4 22  4  0
  4 26  4  0
  6  7  4  0
  6 13  1  0
  7 19  4  0
  8 18  1  0
  8 23  1  0
  8 28  2  0
  9 17  1  0
  9 24  1  0
 10 11  1  0
 10 24  1  0
 11 23  1  0
 12 14  4  0
 12 16  4  0
 14 19  4  0
 15 18  4  0
 16 20  4  0
 17 25  1  0
 18 26  4  0
 19 29  4  0
 20 29  4  0
 21 23  1  0
 21 25  1  0
 27 29  4  0
M  END
$$$$

 Created by Python create_sdf_string function

 29 32  0  0  0  0  0  0  0  0999 V2000
    5.4450    8.7154   22.6662 C   0  0  0  0  0  0  0  0  0  0  0  0
   10.9154    5.4574   20.5483 C   0  0  0  0  0  0  0  0  0  0  0  0
    7.2709    4.5089   22.7542 C   0  0  0  0  0  0  0  0  0  0  0  0
    5.9698    7.6329   24.6581 C   0  0  0  0  0  0  0  0  0  0  0  0
    4.5542    8.9057   21.7104 O   0  0  0  0  0  0  0  0  0  0  0  0
    6.9895    3.2085   23.0690 C   0  0  0  0  0  0  0  0  0  0  0  0
    7.8391    2.2253   22.7260 N   0  0  0  0  0  0  0  0  0  0  0  0
    8.6968    9.8373   23.6359 C   0  0  0  0  0  0  0  0  0  0  0  0
   12.5135    6.5957   21.8396 C   0  0  0  0  0  0  0  0  0  0  0  0
   10.9406    8.2330   21.1350 C   0  0  0  0  0  0  0  0  0  0  0  0
    9.6648    8.5956   21.7310 C   0  0  0  0  0  0  0  0  0  0  0  0
   10.8829    1.7153   20.9865 C   0  0  0  0  0  0  0  0  0  0  0  0
    5.7768    2.8533   23.7910 C   0  0  0  0  0  0  0  0  0  0  0  0
    9.7977    1.4791   21.6912 N   0  0  0  0  0  0  0  0  0  0  0  0
    6.5976    9.3401   22.6478 N   0  0  0  0  0  0  0  0  0  0  0  0
   11.2031    3.0042   20.6246 C   0  0  0  0  0  0  0  0  0  0  0  0
   12.8688    7.7370   22.7287 C   0  0  0  0  0  0  0  0  0  0  0  0
    7.4487    9.1361   23.6506 C   0  0  0  0  0  0  0  0  0  0  0  0
    8.9772    2.5025   22.0273 C   0  0  0  0  0  0  0  0  0  0  0  0
   10.4859    4.0901   20.9730 C   0  0  0  0  0  0  0  0  0  0  0  0
   11.0962    9.3293   23.5072 C   0  0  0  0  0  0  0  0  0  0  0  0
    5.1273    7.8529   23.6208 N   0  0  0  0  0  0  0  0  0  0  0  0
    9.7552    9.2338   23.0171 N   0  0  0  0  0  0  0  0  0  0  0  0
   11.1797    6.7591   21.3326 N   0  0  0  0  0  0  0  0  0  0  0  0
   11.7728    8.0337   23.7267 C   0  0  0  0  0  0  0  0  0  0  0  0
    7.1194    8.3344   24.6775 C   0  0  0  0  0  0  0  0  0  0  0  0
    8.4311    4.7963   22.0500 C   0  0  0  0  0  0  0  0  0  0  0  0
    8.7393   10.8706   24.1871 O   0  0  0  0  0  0  0  0  0  0  0  0
    9.3093    3.8166   21.6712 C   0  0  0  0  0  0  0  0  0  0  0  0
  1  5  1  0
  1 15  4  0
  1 22  4  0
  2 20  1  0
  2 24  1  0
  3  6  4  0
  3 27  4  0
  4 22  4  0
  4 26  4  0
  6  7  4  0
  6 13  1  0
  7 19  4  0
  8 18  1  0
  8 23  1  0
  8 28  2  0
  9 17  1  0
  9 24  1  0
 10 11  1  0
 10 24  1  0
 11 23  1  0
 12 14  4  0
 12 16  4  0
 14 19  4  0
 15 18  4  0
 16 20  4  0
 17 25  1  0
 18 26  4  0
 19 29  4  0
 20 29  4  0
 21 23  1  0
 21 25  1  0
 27 29  4  0
M  END
$$$$

 Created by Python create_sdf_string function

 29 32  0  0  0  0  0  0  0  0999 V2000
    5.4450    8.7154   22.6662 C   0  0  0  0  0  0  0  0  0  0  0  0
   10.9154    5.4574   20.5483 C   0  0  0  0  0  0  0  0  0  0  0  0
    7.2709    4.5089   22.7542 C   0  0  0  0  0  0  0  0  0  0  0  0
    5.9698    7.6329   24.6581 C   0  0  0  0  0  0  0  0  0  0  0  0
    4.5542    8.9057   21.7104 O   0  0  0  0  0  0  0  0  0  0  0  0
    6.9895    3.2085   23.0690 C   0  0  0  0  0  0  0  0  0  0  0  0
    7.8391    2.2253   22.7260 N   0  0  0  0  0  0  0  0  0  0  0  0
    8.6968    9.8373   23.6359 C   0  0  0  0  0  0  0  0  0  0  0  0
   12.5135    6.5957   21.8396 C   0  0  0  0  0  0  0  0  0  0  0  0
   10.9406    8.2330   21.1350 C   0  0  0  0  0  0  0  0  0  0  0  0
    9.6648    8.5956   21.7310 C   0  0  0  0  0  0  0  0  0  0  0  0
   10.8829    1.7153   20.9865 C   0  0  0  0  0  0  0  0  0  0  0  0
    5.7768    2.8533   23.7910 C   0  0  0  0  0  0  0  0  0  0  0  0
    9.7977    1.4791   21.6912 N   0  0  0  0  0  0  0  0  0  0  0  0
    6.5976    9.3401   22.6478 N   0  0  0  0  0  0  0  0  0  0  0  0
   11.2031    3.0042   20.6246 C   0  0  0  0  0  0  0  0  0  0  0  0
   12.8688    7.7370   22.7287 C   0  0  0  0  0  0  0  0  0  0  0  0
    7.4487    9.1361   23.6506 C   0  0  0  0  0  0  0  0  0  0  0  0
    8.9772    2.5025   22.0273 C   0  0  0  0  0  0  0  0  0  0  0  0
   10.4859    4.0901   20.9730 C   0  0  0  0  0  0  0  0  0  0  0  0
   11.0962    9.3293   23.5072 C   0  0  0  0  0  0  0  0  0  0  0  0
    5.1273    7.8529   23.6208 N   0  0  0  0  0  0  0  0  0  0  0  0
    9.7552    9.2338   23.0171 N   0  0  0  0  0  0  0  0  0  0  0  0
   11.1797    6.7591   21.3326 N   0  0  0  0  0  0  0  0  0  0  0  0
   11.7728    8.0337   23.7267 C   0  0  0  0  0  0  0  0  0  0  0  0
    7.1194    8.3344   24.6775 C   0  0  0  0  0  0  0  0  0  0  0  0
    8.4311    4.7963   22.0500 C   0  0  0  0  0  0  0  0  0  0  0  0
    8.7393   10.8706   24.1871 O   0  0  0  0  0  0  0  0  0  0  0  0
    9.3093    3.8166   21.6712 C   0  0  0  0  0  0  0  0  0  0  0  0
  1  5  1  0
  1 15  4  0
  1 22  4  0
  2 20  1  0
  2 24  1  0
  3  6  4  0
  3 27  4  0
  4 22  4  0
  4 26  4  0
  6  7  4  0
  6 13  1  0
  7 19  4  0
  8 18  1  0
  8 23  1  0
  8 28  2  0
  9 17  1  0
  9 24  1  0
 10 11  1  0
 10 24  1  0
 11 23  1  0
 12 14  4  0
 12 16  4  0
 14 19  4  0
 15 18  4  0
 16 20  4  0
 17 25  1  0
 18 26  4  0
 19 29  4  0
 20 29  4  0
 21 23  1  0
 21 25  1  0
 27 29  4  0
M  END
$$$$

 Created by Python create_sdf_string function

 29 32  0  0  0  0  0  0  0  0999 V2000
    5.4450    8.7154   22.6662 C   0  0  0  0  0  0  0  0  0  0  0  0
   10.9154    5.4574   20.5483 C   0  0  0  0  0  0  0  0  0  0  0  0
    7.2709    4.5089   22.7542 C   0  0  0  0  0  0  0  0  0  0  0  0
    5.9698    7.6329   24.6581 C   0  0  0  0  0  0  0  0  0  0  0  0
    4.5542    8.9057   21.7104 O   0  0  0  0  0  0  0  0  0  0  0  0
    6.9895    3.2085   23.0690 C   0  0  0  0  0  0  0  0  0  0  0  0
    7.8391    2.2253   22.7260 N   0  0  0  0  0  0  0  0  0  0  0  0
    8.6968    9.8373   23.6359 C   0  0  0  0  0  0  0  0  0  0  0  0
   12.5135    6.5957   21.8396 C   0  0  0  0  0  0  0  0  0  0  0  0
   10.9406    8.2330   21.1350 C   0  0  0  0  0  0  0  0  0  0  0  0
    9.6648    8.5956   21.7310 C   0  0  0  0  0  0  0  0  0  0  0  0
   10.8829    1.7153   20.9865 C   0  0  0  0  0  0  0  0  0  0  0  0
    5.7768    2.8533   23.7910 C   0  0  0  0  0  0  0  0  0  0  0  0
    9.7977    1.4791   21.6912 N   0  0  0  0  0  0  0  0  0  0  0  0
    6.5976    9.3401   22.6478 N   0  0  0  0  0  0  0  0  0  0  0  0
   11.2031    3.0042   20.6246 C   0  0  0  0  0  0  0  0  0  0  0  0
   12.8688    7.7370   22.7287 C   0  0  0  0  0  0  0  0  0  0  0  0
    7.4487    9.1361   23.6506 C   0  0  0  0  0  0  0  0  0  0  0  0
    8.9772    2.5025   22.0273 C   0  0  0  0  0  0  0  0  0  0  0  0
   10.4859    4.0901   20.9730 C   0  0  0  0  0  0  0  0  0  0  0  0
   11.0962    9.3293   23.5072 C   0  0  0  0  0  0  0  0  0  0  0  0
    5.1273    7.8529   23.6208 N   0  0  0  0  0  0  0  0  0  0  0  0
    9.7552    9.2338   23.0171 N   0  0  0  0  0  0  0  0  0  0  0  0
   11.1797    6.7591   21.3326 N   0  0  0  0  0  0  0  0  0  0  0  0
   11.7728    8.0337   23.7267 C   0  0  0  0  0  0  0  0  0  0  0  0
    7.1194    8.3344   24.6775 C   0  0  0  0  0  0  0  0  0  0  0  0
    8.4311    4.7963   22.0500 C   0  0  0  0  0  0  0  0  0  0  0  0
    8.7393   10.8706   24.1871 O   0  0  0  0  0  0  0  0  0  0  0  0
    9.3093    3.8166   21.6712 C   0  0  0  0  0  0  0  0  0  0  0  0
  1  5  1  0
  1 15  4  0
  1 22  4  0
  2 20  1  0
  2 24  1  0
  3  6  4  0
  3 27  4  0
  4 22  4  0
  4 26  4  0
  6  7  4  0
  6 13  1  0
  7 19  4  0
  8 18  1  0
  8 23  1  0
  8 28  2  0
  9 17  1  0
  9 24  1  0
 10 11  1  0
 10 24  1  0
 11 23  1  0
 12 14  4  0
 12 16  4  0
 14 19  4  0
 15 18  4  0
 16 20  4  0
 17 25  1  0
 18 26  4  0
 19 29  4  0
 20 29  4  0
 21 23  1  0
 21 25  1  0
 27 29  4  0
M  END
$$$$

 Created by Python create_sdf_string function

 29 32  0  0  0  0  0  0  0  0999 V2000
    5.4450    8.7154   22.6662 C   0  0  0  0  0  0  0  0  0  0  0  0
   10.9154    5.4574   20.5483 C   0  0  0  0  0  0  0  0  0  0  0  0
    7.2709    4.5089   22.7542 C   0  0  0  0  0  0  0  0  0  0  0  0
    5.9698    7.6329   24.6581 C   0  0  0  0  0  0  0  0  0  0  0  0
    4.5542    8.9057   21.7104 O   0  0  0  0  0  0  0  0  0  0  0  0
    6.9895    3.2085   23.0690 C   0  0  0  0  0  0  0  0  0  0  0  0
    7.8391    2.2253   22.7260 N   0  0  0  0  0  0  0  0  0  0  0  0
    8.6968    9.8373   23.6359 C   0  0  0  0  0  0  0  0  0  0  0  0
   12.5135    6.5957   21.8396 C   0  0  0  0  0  0  0  0  0  0  0  0
   10.9406    8.2330   21.1350 C   0  0  0  0  0  0  0  0  0  0  0  0
    9.6648    8.5956   21.7310 C   0  0  0  0  0  0  0  0  0  0  0  0
   10.8829    1.7153   20.9865 C   0  0  0  0  0  0  0  0  0  0  0  0
    5.7768    2.8533   23.7910 C   0  0  0  0  0  0  0  0  0  0  0  0
    9.7977    1.4791   21.6912 N   0  0  0  0  0  0  0  0  0  0  0  0
    6.5976    9.3401   22.6478 N   0  0  0  0  0  0  0  0  0  0  0  0
   11.2031    3.0042   20.6246 C   0  0  0  0  0  0  0  0  0  0  0  0
   12.8688    7.7370   22.7287 C   0  0  0  0  0  0  0  0  0  0  0  0
    7.4487    9.1361   23.6506 C   0  0  0  0  0  0  0  0  0  0  0  0
    8.9772    2.5025   22.0273 C   0  0  0  0  0  0  0  0  0  0  0  0
   10.4859    4.0901   20.9730 C   0  0  0  0  0  0  0  0  0  0  0  0
   11.0962    9.3293   23.5072 C   0  0  0  0  0  0  0  0  0  0  0  0
    5.1273    7.8529   23.6208 N   0  0  0  0  0  0  0  0  0  0  0  0
    9.7552    9.2338   23.0171 N   0  0  0  0  0  0  0  0  0  0  0  0
   11.1797    6.7591   21.3326 N   0  0  0  0  0  0  0  0  0  0  0  0
   11.7728    8.0337   23.7267 C   0  0  0  0  0  0  0  0  0  0  0  0
    7.1194    8.3344   24.6775 C   0  0  0  0  0  0  0  0  0  0  0  0
    8.4311    4.7963   22.0500 C   0  0  0  0  0  0  0  0  0  0  0  0
    8.7393   10.8706   24.1871 O   0  0  0  0  0  0  0  0  0  0  0  0
    9.3093    3.8166   21.6712 C   0  0  0  0  0  0  0  0  0  0  0  0
  1  5  1  0
  1 15  4  0
  1 22  4  0
  2 20  1  0
  2 24  1  0
  3  6  4  0
  3 27  4  0
  4 22  4  0
  4 26  4  0
  6  7  4  0
  6 13  1  0
  7 19  4  0
  8 18  1  0
  8 23  1  0
  8 28  2  0
  9 17  1  0
  9 24  1  0
 10 11  1  0
 10 24  1  0
 11 23  1  0
 12 14  4  0
 12 16  4  0
 14 19  4  0
 15 18  4  0
 16 20  4  0
 17 25  1  0
 18 26  4  0
 19 29  4  0
 20 29  4  0
 21 23  1  0
 21 25  1  0
 27 29  4  0
M  END
$$$$

 Created by Python create_sdf_string function

 29 32  0  0  0  0  0  0  0  0999 V2000
    5.4450    8.7154   22.6662 C   0  0  0  0  0  0  0  0  0  0  0  0
   10.9154    5.4574   20.5483 C   0  0  0  0  0  0  0  0  0  0  0  0
    7.2709    4.5089   22.7542 C   0  0  0  0  0  0  0  0  0  0  0  0
    5.9698    7.6329   24.6581 C   0  0  0  0  0  0  0  0  0  0  0  0
    4.5542    8.9057   21.7104 O   0  0  0  0  0  0  0  0  0  0  0  0
    6.9895    3.2085   23.0690 C   0  0  0  0  0  0  0  0  0  0  0  0
    7.8391    2.2253   22.7260 N   0  0  0  0  0  0  0  0  0  0  0  0
    8.6968    9.8373   23.6359 C   0  0  0  0  0  0  0  0  0  0  0  0
   12.5135    6.5957   21.8396 C   0  0  0  0  0  0  0  0  0  0  0  0
   10.9406    8.2330   21.1350 C   0  0  0  0  0  0  0  0  0  0  0  0
    9.6648    8.5956   21.7310 C   0  0  0  0  0  0  0  0  0  0  0  0
   10.8829    1.7153   20.9865 C   0  0  0  0  0  0  0  0  0  0  0  0
    5.7768    2.8533   23.7910 C   0  0  0  0  0  0  0  0  0  0  0  0
    9.7977    1.4791   21.6912 N   0  0  0  0  0  0  0  0  0  0  0  0
    6.5976    9.3401   22.6478 N   0  0  0  0  0  0  0  0  0  0  0  0
   11.2031    3.0042   20.6246 C   0  0  0  0  0  0  0  0  0  0  0  0
   12.8688    7.7370   22.7287 C   0  0  0  0  0  0  0  0  0  0  0  0
    7.4487    9.1361   23.6506 C   0  0  0  0  0  0  0  0  0  0  0  0
    8.9772    2.5025   22.0273 C   0  0  0  0  0  0  0  0  0  0  0  0
   10.4859    4.0901   20.9730 C   0  0  0  0  0  0  0  0  0  0  0  0
   11.0962    9.3293   23.5072 C   0  0  0  0  0  0  0  0  0  0  0  0
    5.1273    7.8529   23.6208 N   0  0  0  0  0  0  0  0  0  0  0  0
    9.7552    9.2338   23.0171 N   0  0  0  0  0  0  0  0  0  0  0  0
   11.1797    6.7591   21.3326 N   0  0  0  0  0  0  0  0  0  0  0  0
   11.7728    8.0337   23.7267 C   0  0  0  0  0  0  0  0  0  0  0  0
    7.1194    8.3344   24.6775 C   0  0  0  0  0  0  0  0  0  0  0  0
    8.4311    4.7963   22.0500 C   0  0  0  0  0  0  0  0  0  0  0  0
    8.7393   10.8706   24.1871 O   0  0  0  0  0  0  0  0  0  0  0  0
    9.3093    3.8166   21.6712 C   0  0  0  0  0  0  0  0  0  0  0  0
  1  5  1  0
  1 15  4  0
  1 22  4  0
  2 20  1  0
  2 24  1  0
  3  6  4  0
  3 27  4  0
  4 22  4  0
  4 26  4  0
  6  7  4  0
  6 13  1  0
  7 19  4  0
  8 18  1  0
  8 23  1  0
  8 28  2  0
  9 17  1  0
  9 24  1  0
 10 11  1  0
 10 24  1  0
 11 23  1  0
 12 14  4  0
 12 16  4  0
 14 19  4  0
 15 18  4  0
 16 20  4  0
 17 25  1  0
 18 26  4  0
 19 29  4  0
 20 29  4  0
 21 23  1  0
 21 25  1  0
 27 29  4  0
M  END
$$$$

 Created by Python create_sdf_string function

 29 32  0  0  0  0  0  0  0  0999 V2000
    5.4450    8.7154   22.6662 C   0  0  0  0  0  0  0  0  0  0  0  0
   10.9154    5.4574   20.5483 C   0  0  0  0  0  0  0  0  0  0  0  0
    7.2709    4.5089   22.7542 C   0  0  0  0  0  0  0  0  0  0  0  0
    5.9698    7.6329   24.6581 C   0  0  0  0  0  0  0  0  0  0  0  0
    4.5542    8.9057   21.7104 O   0  0  0  0  0  0  0  0  0  0  0  0
    6.9895    3.2085   23.0690 C   0  0  0  0  0  0  0  0  0  0  0  0
    7.8391    2.2253   22.7260 N   0  0  0  0  0  0  0  0  0  0  0  0
    8.6968    9.8373   23.6359 C   0  0  0  0  0  0  0  0  0  0  0  0
   12.5135    6.5957   21.8396 C   0  0  0  0  0  0  0  0  0  0  0  0
   10.9406    8.2330   21.1350 C   0  0  0  0  0  0  0  0  0  0  0  0
    9.6648    8.5956   21.7310 C   0  0  0  0  0  0  0  0  0  0  0  0
   10.8829    1.7153   20.9865 C   0  0  0  0  0  0  0  0  0  0  0  0
    5.7768    2.8533   23.7910 C   0  0  0  0  0  0  0  0  0  0  0  0
    9.7977    1.4791   21.6912 N   0  0  0  0  0  0  0  0  0  0  0  0
    6.5976    9.3401   22.6478 N   0  0  0  0  0  0  0  0  0  0  0  0
   11.2031    3.0042   20.6246 C   0  0  0  0  0  0  0  0  0  0  0  0
   12.8688    7.7370   22.7287 C   0  0  0  0  0  0  0  0  0  0  0  0
    7.4487    9.1361   23.6506 C   0  0  0  0  0  0  0  0  0  0  0  0
    8.9772    2.5025   22.0273 C   0  0  0  0  0  0  0  0  0  0  0  0
   10.4859    4.0901   20.9730 C   0  0  0  0  0  0  0  0  0  0  0  0
   11.0962    9.3293   23.5072 C   0  0  0  0  0  0  0  0  0  0  0  0
    5.1273    7.8529   23.6208 N   0  0  0  0  0  0  0  0  0  0  0  0
    9.7552    9.2338   23.0171 N   0  0  0  0  0  0  0  0  0  0  0  0
   11.1797    6.7591   21.3326 N   0  0  0  0  0  0  0  0  0  0  0  0
   11.7728    8.0337   23.7267 C   0  0  0  0  0  0  0  0  0  0  0  0
    7.1194    8.3344   24.6775 C   0  0  0  0  0  0  0  0  0  0  0  0
    8.4311    4.7963   22.0500 C   0  0  0  0  0  0  0  0  0  0  0  0
    8.7393   10.8706   24.1871 O   0  0  0  0  0  0  0  0  0  0  0  0
    9.3093    3.8166   21.6712 C   0  0  0  0  0  0  0  0  0  0  0  0
  1  5  1  0
  1 15  4  0
  1 22  4  0
  2 20  1  0
  2 24  1  0
  3  6  4  0
  3 27  4  0
  4 22  4  0
  4 26  4  0
  6  7  4  0
  6 13  1  0
  7 19  4  0
  8 18  1  0
  8 23  1  0
  8 28  2  0
  9 17  1  0
  9 24  1  0
 10 11  1  0
 10 24  1  0
 11 23  1  0
 12 14  4  0
 12 16  4  0
 14 19  4  0
 15 18  4  0
 16 20  4  0
 17 25  1  0
 18 26  4  0
 19 29  4  0
 20 29  4  0
 21 23  1  0
 21 25  1  0
 27 29  4  0
M  END
$$$$

 Created by Python create_sdf_string function

 29 32  0  0  0  0  0  0  0  0999 V2000
    5.4450    8.7154   22.6662 C   0  0  0  0  0  0  0  0  0  0  0  0
   10.9154    5.4574   20.5483 C   0  0  0  0  0  0  0  0  0  0  0  0
    7.2709    4.5089   22.7542 C   0  0  0  0  0  0  0  0  0  0  0  0
    5.9698    7.6329   24.6581 C   0  0  0  0  0  0  0  0  0  0  0  0
    4.5542    8.9057   21.7104 O   0  0  0  0  0  0  0  0  0  0  0  0
    6.9895    3.2085   23.0690 C   0  0  0  0  0  0  0  0  0  0  0  0
    7.8391    2.2253   22.7260 N   0  0  0  0  0  0  0  0  0  0  0  0
    8.6968    9.8373   23.6359 C   0  0  0  0  0  0  0  0  0  0  0  0
   12.5135    6.5957   21.8396 C   0  0  0  0  0  0  0  0  0  0  0  0
   10.9406    8.2330   21.1350 C   0  0  0  0  0  0  0  0  0  0  0  0
    9.6648    8.5956   21.7310 C   0  0  0  0  0  0  0  0  0  0  0  0
   10.8829    1.7153   20.9865 C   0  0  0  0  0  0  0  0  0  0  0  0
    5.7768    2.8533   23.7910 C   0  0  0  0  0  0  0  0  0  0  0  0
    9.7977    1.4791   21.6912 N   0  0  0  0  0  0  0  0  0  0  0  0
    6.5976    9.3401   22.6478 N   0  0  0  0  0  0  0  0  0  0  0  0
   11.2031    3.0042   20.6246 C   0  0  0  0  0  0  0  0  0  0  0  0
   12.8688    7.7370   22.7287 C   0  0  0  0  0  0  0  0  0  0  0  0
    7.4487    9.1361   23.6506 C   0  0  0  0  0  0  0  0  0  0  0  0
    8.9772    2.5025   22.0273 C   0  0  0  0  0  0  0  0  0  0  0  0
   10.4859    4.0901   20.9730 C   0  0  0  0  0  0  0  0  0  0  0  0
   11.0962    9.3293   23.5072 C   0  0  0  0  0  0  0  0  0  0  0  0
    5.1273    7.8529   23.6208 N   0  0  0  0  0  0  0  0  0  0  0  0
    9.7552    9.2338   23.0171 N   0  0  0  0  0  0  0  0  0  0  0  0
   11.1797    6.7591   21.3326 N   0  0  0  0  0  0  0  0  0  0  0  0
   11.7728    8.0337   23.7267 C   0  0  0  0  0  0  0  0  0  0  0  0
    7.1194    8.3344   24.6775 C   0  0  0  0  0  0  0  0  0  0  0  0
    8.4311    4.7963   22.0500 C   0  0  0  0  0  0  0  0  0  0  0  0
    8.7393   10.8706   24.1871 O   0  0  0  0  0  0  0  0  0  0  0  0
    9.3093    3.8166   21.6712 C   0  0  0  0  0  0  0  0  0  0  0  0
  1  5  1  0
  1 15  4  0
  1 22  4  0
  2 20  1  0
  2 24  1  0
  3  6  4  0
  3 27  4  0
  4 22  4  0
  4 26  4  0
  6  7  4  0
  6 13  1  0
  7 19  4  0
  8 18  1  0
  8 23  1  0
  8 28  2  0
  9 17  1  0
  9 24  1  0
 10 11  1  0
 10 24  1  0
 11 23  1  0
 12 14  4  0
 12 16  4  0
 14 19  4  0
 15 18  4  0
 16 20  4  0
 17 25  1  0
 18 26  4  0
 19 29  4  0
 20 29  4  0
 21 23  1  0
 21 25  1  0
 27 29  4  0
M  END
$$$$

 Created by Python create_sdf_string function

 29 32  0  0  0  0  0  0  0  0999 V2000
    5.4450    8.7154   22.6662 C   0  0  0  0  0  0  0  0  0  0  0  0
   10.9154    5.4574   20.5483 C   0  0  0  0  0  0  0  0  0  0  0  0
    7.2709    4.5089   22.7542 C   0  0  0  0  0  0  0  0  0  0  0  0
    5.9698    7.6329   24.6581 C   0  0  0  0  0  0  0  0  0  0  0  0
    4.5542    8.9057   21.7104 O   0  0  0  0  0  0  0  0  0  0  0  0
    6.9895    3.2085   23.0690 C   0  0  0  0  0  0  0  0  0  0  0  0
    7.8391    2.2253   22.7260 N   0  0  0  0  0  0  0  0  0  0  0  0
    8.6968    9.8373   23.6359 C   0  0  0  0  0  0  0  0  0  0  0  0
   12.5135    6.5957   21.8396 C   0  0  0  0  0  0  0  0  0  0  0  0
   10.9406    8.2330   21.1350 C   0  0  0  0  0  0  0  0  0  0  0  0
    9.6648    8.5956   21.7310 C   0  0  0  0  0  0  0  0  0  0  0  0
   10.8829    1.7153   20.9865 C   0  0  0  0  0  0  0  0  0  0  0  0
    5.7768    2.8533   23.7910 C   0  0  0  0  0  0  0  0  0  0  0  0
    9.7977    1.4791   21.6912 N   0  0  0  0  0  0  0  0  0  0  0  0
    6.5976    9.3401   22.6478 N   0  0  0  0  0  0  0  0  0  0  0  0
   11.2031    3.0042   20.6246 C   0  0  0  0  0  0  0  0  0  0  0  0
   12.8688    7.7370   22.7287 C   0  0  0  0  0  0  0  0  0  0  0  0
    7.4487    9.1361   23.6506 C   0  0  0  0  0  0  0  0  0  0  0  0
    8.9772    2.5025   22.0273 C   0  0  0  0  0  0  0  0  0  0  0  0
   10.4859    4.0901   20.9730 C   0  0  0  0  0  0  0  0  0  0  0  0
   11.0962    9.3293   23.5072 C   0  0  0  0  0  0  0  0  0  0  0  0
    5.1273    7.8529   23.6208 N   0  0  0  0  0  0  0  0  0  0  0  0
    9.7552    9.2338   23.0171 N   0  0  0  0  0  0  0  0  0  0  0  0
   11.1797    6.7591   21.3326 N   0  0  0  0  0  0  0  0  0  0  0  0
   11.7728    8.0337   23.7267 C   0  0  0  0  0  0  0  0  0  0  0  0
    7.1194    8.3344   24.6775 C   0  0  0  0  0  0  0  0  0  0  0  0
    8.4311    4.7963   22.0500 C   0  0  0  0  0  0  0  0  0  0  0  0
    8.7393   10.8706   24.1871 O   0  0  0  0  0  0  0  0  0  0  0  0
    9.3093    3.8166   21.6712 C   0  0  0  0  0  0  0  0  0  0  0  0
  1  5  1  0
  1 15  4  0
  1 22  4  0
  2 20  1  0
  2 24  1  0
  3  6  4  0
  3 27  4  0
  4 22  4  0
  4 26  4  0
  6  7  4  0
  6 13  1  0
  7 19  4  0
  8 18  1  0
  8 23  1  0
  8 28  2  0
  9 17  1  0
  9 24  1  0
 10 11  1  0
 10 24  1  0
 11 23  1  0
 12 14  4  0
 12 16  4  0
 14 19  4  0
 15 18  4  0
 16 20  4  0
 17 25  1  0
 18 26  4  0
 19 29  4  0
 20 29  4  0
 21 23  1  0
 21 25  1  0
 27 29  4  0
M  END
$$$$

 Created by Python create_sdf_string function

 29 32  0  0  0  0  0  0  0  0999 V2000
    5.4450    8.7154   22.6662 C   0  0  0  0  0  0  0  0  0  0  0  0
   10.9154    5.4574   20.5483 C   0  0  0  0  0  0  0  0  0  0  0  0
    7.2709    4.5089   22.7542 C   0  0  0  0  0  0  0  0  0  0  0  0
    5.9698    7.6329   24.6581 C   0  0  0  0  0  0  0  0  0  0  0  0
    4.5542    8.9057   21.7104 O   0  0  0  0  0  0  0  0  0  0  0  0
    6.9895    3.2085   23.0690 C   0  0  0  0  0  0  0  0  0  0  0  0
    7.8391    2.2253   22.7260 N   0  0  0  0  0  0  0  0  0  0  0  0
    8.6968    9.8373   23.6359 C   0  0  0  0  0  0  0  0  0  0  0  0
   12.5135    6.5957   21.8396 C   0  0  0  0  0  0  0  0  0  0  0  0
   10.9406    8.2330   21.1350 C   0  0  0  0  0  0  0  0  0  0  0  0
    9.6648    8.5956   21.7310 C   0  0  0  0  0  0  0  0  0  0  0  0
   10.8829    1.7153   20.9865 C   0  0  0  0  0  0  0  0  0  0  0  0
    5.7768    2.8533   23.7910 C   0  0  0  0  0  0  0  0  0  0  0  0
    9.7977    1.4791   21.6912 N   0  0  0  0  0  0  0  0  0  0  0  0
    6.5976    9.3401   22.6478 N   0  0  0  0  0  0  0  0  0  0  0  0
   11.2031    3.0042   20.6246 C   0  0  0  0  0  0  0  0  0  0  0  0
   12.8688    7.7370   22.7287 C   0  0  0  0  0  0  0  0  0  0  0  0
    7.4487    9.1361   23.6506 C   0  0  0  0  0  0  0  0  0  0  0  0
    8.9772    2.5025   22.0273 C   0  0  0  0  0  0  0  0  0  0  0  0
   10.4859    4.0901   20.9730 C   0  0  0  0  0  0  0  0  0  0  0  0
   11.0962    9.3293   23.5072 C   0  0  0  0  0  0  0  0  0  0  0  0
    5.1273    7.8529   23.6208 N   0  0  0  0  0  0  0  0  0  0  0  0
    9.7552    9.2338   23.0171 N   0  0  0  0  0  0  0  0  0  0  0  0
   11.1797    6.7591   21.3326 N   0  0  0  0  0  0  0  0  0  0  0  0
   11.7728    8.0337   23.7267 C   0  0  0  0  0  0  0  0  0  0  0  0
    7.1194    8.3344   24.6775 C   0  0  0  0  0  0  0  0  0  0  0  0
    8.4311    4.7963   22.0500 C   0  0  0  0  0  0  0  0  0  0  0  0
    8.7393   10.8706   24.1871 O   0  0  0  0  0  0  0  0  0  0  0  0
    9.3093    3.8166   21.6712 C   0  0  0  0  0  0  0  0  0  0  0  0
  1  5  1  0
  1 15  4  0
  1 22  4  0
  2 20  1  0
  2 24  1  0
  3  6  4  0
  3 27  4  0
  4 22  4  0
  4 26  4  0
  6  7  4  0
  6 13  1  0
  7 19  4  0
  8 18  1  0
  8 23  1  0
  8 28  2  0
  9 17  1  0
  9 24  1  0
 10 11  1  0
 10 24  1  0
 11 23  1  0
 12 14  4  0
 12 16  4  0
 14 19  4  0
 15 18  4  0
 16 20  4  0
 17 25  1  0
 18 26  4  0
 19 29  4  0
 20 29  4  0
 21 23  1  0
 21 25  1  0
 27 29  4  0
M  END
$$$$

 Created by Python create_sdf_string function

 29 32  0  0  0  0  0  0  0  0999 V2000
    5.4450    8.7154   22.6662 C   0  0  0  0  0  0  0  0  0  0  0  0
   10.9154    5.4574   20.5483 C   0  0  0  0  0  0  0  0  0  0  0  0
    7.2709    4.5089   22.7542 C   0  0  0  0  0  0  0  0  0  0  0  0
    5.9698    7.6329   24.6581 C   0  0  0  0  0  0  0  0  0  0  0  0
    4.5542    8.9057   21.7104 O   0  0  0  0  0  0  0  0  0  0  0  0
    6.9895    3.2085   23.0690 C   0  0  0  0  0  0  0  0  0  0  0  0
    7.8391    2.2253   22.7260 N   0  0  0  0  0  0  0  0  0  0  0  0
    8.6968    9.8373   23.6359 C   0  0  0  0  0  0  0  0  0  0  0  0
   12.5135    6.5957   21.8396 C   0  0  0  0  0  0  0  0  0  0  0  0
   10.9406    8.2330   21.1350 C   0  0  0  0  0  0  0  0  0  0  0  0
    9.6648    8.5956   21.7310 C   0  0  0  0  0  0  0  0  0  0  0  0
   10.8829    1.7153   20.9865 C   0  0  0  0  0  0  0  0  0  0  0  0
    5.7768    2.8533   23.7910 C   0  0  0  0  0  0  0  0  0  0  0  0
    9.7977    1.4791   21.6912 N   0  0  0  0  0  0  0  0  0  0  0  0
    6.5976    9.3401   22.6478 N   0  0  0  0  0  0  0  0  0  0  0  0
   11.2031    3.0042   20.6246 C   0  0  0  0  0  0  0  0  0  0  0  0
   12.8688    7.7370   22.7287 C   0  0  0  0  0  0  0  0  0  0  0  0
    7.4487    9.1361   23.6506 C   0  0  0  0  0  0  0  0  0  0  0  0
    8.9772    2.5025   22.0273 C   0  0  0  0  0  0  0  0  0  0  0  0
   10.4859    4.0901   20.9730 C   0  0  0  0  0  0  0  0  0  0  0  0
   11.0962    9.3293   23.5072 C   0  0  0  0  0  0  0  0  0  0  0  0
    5.1273    7.8529   23.6208 N   0  0  0  0  0  0  0  0  0  0  0  0
    9.7552    9.2338   23.0171 N   0  0  0  0  0  0  0  0  0  0  0  0
   11.1797    6.7591   21.3326 N   0  0  0  0  0  0  0  0  0  0  0  0
   11.7728    8.0337   23.7267 C   0  0  0  0  0  0  0  0  0  0  0  0
    7.1194    8.3344   24.6775 C   0  0  0  0  0  0  0  0  0  0  0  0
    8.4311    4.7963   22.0500 C   0  0  0  0  0  0  0  0  0  0  0  0
    8.7393   10.8706   24.1871 O   0  0  0  0  0  0  0  0  0  0  0  0
    9.3093    3.8166   21.6712 C   0  0  0  0  0  0  0  0  0  0  0  0
  1  5  1  0
  1 15  4  0
  1 22  4  0
  2 20  1  0
  2 24  1  0
  3  6  4  0
  3 27  4  0
  4 22  4  0
  4 26  4  0
  6  7  4  0
  6 13  1  0
  7 19  4  0
  8 18  1  0
  8 23  1  0
  8 28  2  0
  9 17  1  0
  9 24  1  0
 10 11  1  0
 10 24  1  0
 11 23  1  0
 12 14  4  0
 12 16  4  0
 14 19  4  0
 15 18  4  0
 16 20  4  0
 17 25  1  0
 18 26  4  0
 19 29  4  0
 20 29  4  0
 21 23  1  0
 21 25  1  0
 27 29  4  0
M  END
$$$$

 Created by Python create_sdf_string function

 29 32  0  0  0  0  0  0  0  0999 V2000
    5.4450    8.7154   22.6662 C   0  0  0  0  0  0  0  0  0  0  0  0
   10.9154    5.4574   20.5483 C   0  0  0  0  0  0  0  0  0  0  0  0
    7.2709    4.5089   22.7542 C   0  0  0  0  0  0  0  0  0  0  0  0
    5.9698    7.6329   24.6581 C   0  0  0  0  0  0  0  0  0  0  0  0
    4.5542    8.9057   21.7104 O   0  0  0  0  0  0  0  0  0  0  0  0
    6.9895    3.2085   23.0690 C   0  0  0  0  0  0  0  0  0  0  0  0
    7.8391    2.2253   22.7260 N   0  0  0  0  0  0  0  0  0  0  0  0
    8.6968    9.8373   23.6359 C   0  0  0  0  0  0  0  0  0  0  0  0
   12.5135    6.5957   21.8396 C   0  0  0  0  0  0  0  0  0  0  0  0
   10.9406    8.2330   21.1350 C   0  0  0  0  0  0  0  0  0  0  0  0
    9.6648    8.5956   21.7310 C   0  0  0  0  0  0  0  0  0  0  0  0
   10.8829    1.7153   20.9865 C   0  0  0  0  0  0  0  0  0  0  0  0
    5.7768    2.8533   23.7910 C   0  0  0  0  0  0  0  0  0  0  0  0
    9.7977    1.4791   21.6912 N   0  0  0  0  0  0  0  0  0  0  0  0
    6.5976    9.3401   22.6478 N   0  0  0  0  0  0  0  0  0  0  0  0
   11.2031    3.0042   20.6246 C   0  0  0  0  0  0  0  0  0  0  0  0
   12.8688    7.7370   22.7287 C   0  0  0  0  0  0  0  0  0  0  0  0
    7.4487    9.1361   23.6506 C   0  0  0  0  0  0  0  0  0  0  0  0
    8.9772    2.5025   22.0273 C   0  0  0  0  0  0  0  0  0  0  0  0
   10.4859    4.0901   20.9730 C   0  0  0  0  0  0  0  0  0  0  0  0
   11.0962    9.3293   23.5072 C   0  0  0  0  0  0  0  0  0  0  0  0
    5.1273    7.8529   23.6208 N   0  0  0  0  0  0  0  0  0  0  0  0
    9.7552    9.2338   23.0171 N   0  0  0  0  0  0  0  0  0  0  0  0
   11.1797    6.7591   21.3326 N   0  0  0  0  0  0  0  0  0  0  0  0
   11.7728    8.0337   23.7267 C   0  0  0  0  0  0  0  0  0  0  0  0
    7.1194    8.3344   24.6775 C   0  0  0  0  0  0  0  0  0  0  0  0
    8.4311    4.7963   22.0500 C   0  0  0  0  0  0  0  0  0  0  0  0
    8.7393   10.8706   24.1871 O   0  0  0  0  0  0  0  0  0  0  0  0
    9.3093    3.8166   21.6712 C   0  0  0  0  0  0  0  0  0  0  0  0
  1  5  1  0
  1 15  4  0
  1 22  4  0
  2 20  1  0
  2 24  1  0
  3  6  4  0
  3 27  4  0
  4 22  4  0
  4 26  4  0
  6  7  4  0
  6 13  1  0
  7 19  4  0
  8 18  1  0
  8 23  1  0
  8 28  2  0
  9 17  1  0
  9 24  1  0
 10 11  1  0
 10 24  1  0
 11 23  1  0
 12 14  4  0
 12 16  4  0
 14 19  4  0
 15 18  4  0
 16 20  4  0
 17 25  1  0
 18 26  4  0
 19 29  4  0
 20 29  4  0
 21 23  1  0
 21 25  1  0
 27 29  4  0
M  END
$$$$

 Created by Python create_sdf_string function

 29 32  0  0  0  0  0  0  0  0999 V2000
    5.4450    8.7154   22.6662 C   0  0  0  0  0  0  0  0  0  0  0  0
   10.9154    5.4574   20.5483 C   0  0  0  0  0  0  0  0  0  0  0  0
    7.2709    4.5089   22.7542 C   0  0  0  0  0  0  0  0  0  0  0  0
    5.9698    7.6329   24.6581 C   0  0  0  0  0  0  0  0  0  0  0  0
    4.5542    8.9057   21.7104 O   0  0  0  0  0  0  0  0  0  0  0  0
    6.9895    3.2085   23.0690 C   0  0  0  0  0  0  0  0  0  0  0  0
    7.8391    2.2253   22.7260 N   0  0  0  0  0  0  0  0  0  0  0  0
    8.6968    9.8373   23.6359 C   0  0  0  0  0  0  0  0  0  0  0  0
   12.5135    6.5957   21.8396 C   0  0  0  0  0  0  0  0  0  0  0  0
   10.9406    8.2330   21.1350 C   0  0  0  0  0  0  0  0  0  0  0  0
    9.6648    8.5956   21.7310 C   0  0  0  0  0  0  0  0  0  0  0  0
   10.8829    1.7153   20.9865 C   0  0  0  0  0  0  0  0  0  0  0  0
    5.7768    2.8533   23.7910 C   0  0  0  0  0  0  0  0  0  0  0  0
    9.7977    1.4791   21.6912 N   0  0  0  0  0  0  0  0  0  0  0  0
    6.5976    9.3401   22.6478 N   0  0  0  0  0  0  0  0  0  0  0  0
   11.2031    3.0042   20.6246 C   0  0  0  0  0  0  0  0  0  0  0  0
   12.8688    7.7370   22.7287 C   0  0  0  0  0  0  0  0  0  0  0  0
    7.4487    9.1361   23.6506 C   0  0  0  0  0  0  0  0  0  0  0  0
    8.9772    2.5025   22.0273 C   0  0  0  0  0  0  0  0  0  0  0  0
   10.4859    4.0901   20.9730 C   0  0  0  0  0  0  0  0  0  0  0  0
   11.0962    9.3293   23.5072 C   0  0  0  0  0  0  0  0  0  0  0  0
    5.1273    7.8529   23.6208 N   0  0  0  0  0  0  0  0  0  0  0  0
    9.7552    9.2338   23.0171 N   0  0  0  0  0  0  0  0  0  0  0  0
   11.1797    6.7591   21.3326 N   0  0  0  0  0  0  0  0  0  0  0  0
   11.7728    8.0337   23.7267 C   0  0  0  0  0  0  0  0  0  0  0  0
    7.1194    8.3344   24.6775 C   0  0  0  0  0  0  0  0  0  0  0  0
    8.4311    4.7963   22.0500 C   0  0  0  0  0  0  0  0  0  0  0  0
    8.7393   10.8706   24.1871 O   0  0  0  0  0  0  0  0  0  0  0  0
    9.3093    3.8166   21.6712 C   0  0  0  0  0  0  0  0  0  0  0  0
  1  5  1  0
  1 15  4  0
  1 22  4  0
  2 20  1  0
  2 24  1  0
  3  6  4  0
  3 27  4  0
  4 22  4  0
  4 26  4  0
  6  7  4  0
  6 13  1  0
  7 19  4  0
  8 18  1  0
  8 23  1  0
  8 28  2  0
  9 17  1  0
  9 24  1  0
 10 11  1  0
 10 24  1  0
 11 23  1  0
 12 14  4  0
 12 16  4  0
 14 19  4  0
 15 18  4  0
 16 20  4  0
 17 25  1  0
 18 26  4  0
 19 29  4  0
 20 29  4  0
 21 23  1  0
 21 25  1  0
 27 29  4  0
M  END
$$$$

 Created by Python create_sdf_string function

 29 32  0  0  0  0  0  0  0  0999 V2000
    5.4450    8.7154   22.6662 C   0  0  0  0  0  0  0  0  0  0  0  0
   10.9154    5.4574   20.5483 C   0  0  0  0  0  0  0  0  0  0  0  0
    7.2709    4.5089   22.7542 C   0  0  0  0  0  0  0  0  0  0  0  0
    5.9698    7.6329   24.6581 C   0  0  0  0  0  0  0  0  0  0  0  0
    4.5542    8.9057   21.7104 O   0  0  0  0  0  0  0  0  0  0  0  0
    6.9895    3.2085   23.0690 C   0  0  0  0  0  0  0  0  0  0  0  0
    7.8391    2.2253   22.7260 N   0  0  0  0  0  0  0  0  0  0  0  0
    8.6968    9.8373   23.6359 C   0  0  0  0  0  0  0  0  0  0  0  0
   12.5135    6.5957   21.8396 C   0  0  0  0  0  0  0  0  0  0  0  0
   10.9406    8.2330   21.1350 C   0  0  0  0  0  0  0  0  0  0  0  0
    9.6648    8.5956   21.7310 C   0  0  0  0  0  0  0  0  0  0  0  0
   10.8829    1.7153   20.9865 C   0  0  0  0  0  0  0  0  0  0  0  0
    5.7768    2.8533   23.7910 C   0  0  0  0  0  0  0  0  0  0  0  0
    9.7977    1.4791   21.6912 N   0  0  0  0  0  0  0  0  0  0  0  0
    6.5976    9.3401   22.6478 N   0  0  0  0  0  0  0  0  0  0  0  0
   11.2031    3.0042   20.6246 C   0  0  0  0  0  0  0  0  0  0  0  0
   12.8688    7.7370   22.7287 C   0  0  0  0  0  0  0  0  0  0  0  0
    7.4487    9.1361   23.6506 C   0  0  0  0  0  0  0  0  0  0  0  0
    8.9772    2.5025   22.0273 C   0  0  0  0  0  0  0  0  0  0  0  0
   10.4859    4.0901   20.9730 C   0  0  0  0  0  0  0  0  0  0  0  0
   11.0962    9.3293   23.5072 C   0  0  0  0  0  0  0  0  0  0  0  0
    5.1273    7.8529   23.6208 N   0  0  0  0  0  0  0  0  0  0  0  0
    9.7552    9.2338   23.0171 N   0  0  0  0  0  0  0  0  0  0  0  0
   11.1797    6.7591   21.3326 N   0  0  0  0  0  0  0  0  0  0  0  0
   11.7728    8.0337   23.7267 C   0  0  0  0  0  0  0  0  0  0  0  0
    7.1194    8.3344   24.6775 C   0  0  0  0  0  0  0  0  0  0  0  0
    8.4311    4.7963   22.0500 C   0  0  0  0  0  0  0  0  0  0  0  0
    8.7393   10.8706   24.1871 O   0  0  0  0  0  0  0  0  0  0  0  0
    9.3093    3.8166   21.6712 C   0  0  0  0  0  0  0  0  0  0  0  0
  1  5  1  0
  1 15  4  0
  1 22  4  0
  2 20  1  0
  2 24  1  0
  3  6  4  0
  3 27  4  0
  4 22  4  0
  4 26  4  0
  6  7  4  0
  6 13  1  0
  7 19  4  0
  8 18  1  0
  8 23  1  0
  8 28  2  0
  9 17  1  0
  9 24  1  0
 10 11  1  0
 10 24  1  0
 11 23  1  0
 12 14  4  0
 12 16  4  0
 14 19  4  0
 15 18  4  0
 16 20  4  0
 17 25  1  0
 18 26  4  0
 19 29  4  0
 20 29  4  0
 21 23  1  0
 21 25  1  0
 27 29  4  0
M  END
$$$$

 Created by Python create_sdf_string function

 29 32  0  0  0  0  0  0  0  0999 V2000
    5.4450    8.7154   22.6662 C   0  0  0  0  0  0  0  0  0  0  0  0
   10.9154    5.4574   20.5483 C   0  0  0  0  0  0  0  0  0  0  0  0
    7.2709    4.5089   22.7542 C   0  0  0  0  0  0  0  0  0  0  0  0
    5.9698    7.6329   24.6581 C   0  0  0  0  0  0  0  0  0  0  0  0
    4.5542    8.9057   21.7104 O   0  0  0  0  0  0  0  0  0  0  0  0
    6.9895    3.2085   23.0690 C   0  0  0  0  0  0  0  0  0  0  0  0
    7.8391    2.2253   22.7260 N   0  0  0  0  0  0  0  0  0  0  0  0
    8.6968    9.8373   23.6359 C   0  0  0  0  0  0  0  0  0  0  0  0
   12.5135    6.5957   21.8396 C   0  0  0  0  0  0  0  0  0  0  0  0
   10.9406    8.2330   21.1350 C   0  0  0  0  0  0  0  0  0  0  0  0
    9.6648    8.5956   21.7310 C   0  0  0  0  0  0  0  0  0  0  0  0
   10.8829    1.7153   20.9865 C   0  0  0  0  0  0  0  0  0  0  0  0
    5.7768    2.8533   23.7910 C   0  0  0  0  0  0  0  0  0  0  0  0
    9.7977    1.4791   21.6912 N   0  0  0  0  0  0  0  0  0  0  0  0
    6.5976    9.3401   22.6478 N   0  0  0  0  0  0  0  0  0  0  0  0
   11.2031    3.0042   20.6246 C   0  0  0  0  0  0  0  0  0  0  0  0
   12.8688    7.7370   22.7287 C   0  0  0  0  0  0  0  0  0  0  0  0
    7.4487    9.1361   23.6506 C   0  0  0  0  0  0  0  0  0  0  0  0
    8.9772    2.5025   22.0273 C   0  0  0  0  0  0  0  0  0  0  0  0
   10.4859    4.0901   20.9730 C   0  0  0  0  0  0  0  0  0  0  0  0
   11.0962    9.3293   23.5072 C   0  0  0  0  0  0  0  0  0  0  0  0
    5.1273    7.8529   23.6208 N   0  0  0  0  0  0  0  0  0  0  0  0
    9.7552    9.2338   23.0171 N   0  0  0  0  0  0  0  0  0  0  0  0
   11.1797    6.7591   21.3326 N   0  0  0  0  0  0  0  0  0  0  0  0
   11.7728    8.0337   23.7267 C   0  0  0  0  0  0  0  0  0  0  0  0
    7.1194    8.3344   24.6775 C   0  0  0  0  0  0  0  0  0  0  0  0
    8.4311    4.7963   22.0500 C   0  0  0  0  0  0  0  0  0  0  0  0
    8.7393   10.8706   24.1871 O   0  0  0  0  0  0  0  0  0  0  0  0
    9.3093    3.8166   21.6712 C   0  0  0  0  0  0  0  0  0  0  0  0
  1  5  1  0
  1 15  4  0
  1 22  4  0
  2 20  1  0
  2 24  1  0
  3  6  4  0
  3 27  4  0
  4 22  4  0
  4 26  4  0
  6  7  4  0
  6 13  1  0
  7 19  4  0
  8 18  1  0
  8 23  1  0
  8 28  2  0
  9 17  1  0
  9 24  1  0
 10 11  1  0
 10 24  1  0
 11 23  1  0
 12 14  4  0
 12 16  4  0
 14 19  4  0
 15 18  4  0
 16 20  4  0
 17 25  1  0
 18 26  4  0
 19 29  4  0
 20 29  4  0
 21 23  1  0
 21 25  1  0
 27 29  4  0
M  END
$$$$

 Created by Python create_sdf_string function

 29 32  0  0  0  0  0  0  0  0999 V2000
    5.4450    8.7154   22.6662 C   0  0  0  0  0  0  0  0  0  0  0  0
   10.9154    5.4574   20.5483 C   0  0  0  0  0  0  0  0  0  0  0  0
    7.2709    4.5089   22.7542 C   0  0  0  0  0  0  0  0  0  0  0  0
    5.9698    7.6329   24.6581 C   0  0  0  0  0  0  0  0  0  0  0  0
    4.5542    8.9057   21.7104 O   0  0  0  0  0  0  0  0  0  0  0  0
    6.9895    3.2085   23.0690 C   0  0  0  0  0  0  0  0  0  0  0  0
    7.8391    2.2253   22.7260 N   0  0  0  0  0  0  0  0  0  0  0  0
    8.6968    9.8373   23.6359 C   0  0  0  0  0  0  0  0  0  0  0  0
   12.5135    6.5957   21.8396 C   0  0  0  0  0  0  0  0  0  0  0  0
   10.9406    8.2330   21.1350 C   0  0  0  0  0  0  0  0  0  0  0  0
    9.6648    8.5956   21.7310 C   0  0  0  0  0  0  0  0  0  0  0  0
   10.8829    1.7153   20.9865 C   0  0  0  0  0  0  0  0  0  0  0  0
    5.7768    2.8533   23.7910 C   0  0  0  0  0  0  0  0  0  0  0  0
    9.7977    1.4791   21.6912 N   0  0  0  0  0  0  0  0  0  0  0  0
    6.5976    9.3401   22.6478 N   0  0  0  0  0  0  0  0  0  0  0  0
   11.2031    3.0042   20.6246 C   0  0  0  0  0  0  0  0  0  0  0  0
   12.8688    7.7370   22.7287 C   0  0  0  0  0  0  0  0  0  0  0  0
    7.4487    9.1361   23.6506 C   0  0  0  0  0  0  0  0  0  0  0  0
    8.9772    2.5025   22.0273 C   0  0  0  0  0  0  0  0  0  0  0  0
   10.4859    4.0901   20.9730 C   0  0  0  0  0  0  0  0  0  0  0  0
   11.0962    9.3293   23.5072 C   0  0  0  0  0  0  0  0  0  0  0  0
    5.1273    7.8529   23.6208 N   0  0  0  0  0  0  0  0  0  0  0  0
    9.7552    9.2338   23.0171 N   0  0  0  0  0  0  0  0  0  0  0  0
   11.1797    6.7591   21.3326 N   0  0  0  0  0  0  0  0  0  0  0  0
   11.7728    8.0337   23.7267 C   0  0  0  0  0  0  0  0  0  0  0  0
    7.1194    8.3344   24.6775 C   0  0  0  0  0  0  0  0  0  0  0  0
    8.4311    4.7963   22.0500 C   0  0  0  0  0  0  0  0  0  0  0  0
    8.7393   10.8706   24.1871 O   0  0  0  0  0  0  0  0  0  0  0  0
    9.3093    3.8166   21.6712 C   0  0  0  0  0  0  0  0  0  0  0  0
  1  5  1  0
  1 15  4  0
  1 22  4  0
  2 20  1  0
  2 24  1  0
  3  6  4  0
  3 27  4  0
  4 22  4  0
  4 26  4  0
  6  7  4  0
  6 13  1  0
  7 19  4  0
  8 18  1  0
  8 23  1  0
  8 28  2  0
  9 17  1  0
  9 24  1  0
 10 11  1  0
 10 24  1  0
 11 23  1  0
 12 14  4  0
 12 16  4  0
 14 19  4  0
 15 18  4  0
 16 20  4  0
 17 25  1  0
 18 26  4  0
 19 29  4  0
 20 29  4  0
 21 23  1  0
 21 25  1  0
 27 29  4  0
M  END
$$$$

 Created by Python create_sdf_string function

 29 32  0  0  0  0  0  0  0  0999 V2000
    5.4450    8.7154   22.6662 C   0  0  0  0  0  0  0  0  0  0  0  0
   10.9154    5.4574   20.5483 C   0  0  0  0  0  0  0  0  0  0  0  0
    7.2709    4.5089   22.7542 C   0  0  0  0  0  0  0  0  0  0  0  0
    5.9698    7.6329   24.6581 C   0  0  0  0  0  0  0  0  0  0  0  0
    4.5542    8.9057   21.7104 O   0  0  0  0  0  0  0  0  0  0  0  0
    6.9895    3.2085   23.0690 C   0  0  0  0  0  0  0  0  0  0  0  0
    7.8391    2.2253   22.7260 N   0  0  0  0  0  0  0  0  0  0  0  0
    8.6968    9.8373   23.6359 C   0  0  0  0  0  0  0  0  0  0  0  0
   12.5135    6.5957   21.8396 C   0  0  0  0  0  0  0  0  0  0  0  0
   10.9406    8.2330   21.1350 C   0  0  0  0  0  0  0  0  0  0  0  0
    9.6648    8.5956   21.7310 C   0  0  0  0  0  0  0  0  0  0  0  0
   10.8829    1.7153   20.9865 C   0  0  0  0  0  0  0  0  0  0  0  0
    5.7768    2.8533   23.7910 C   0  0  0  0  0  0  0  0  0  0  0  0
    9.7977    1.4791   21.6912 N   0  0  0  0  0  0  0  0  0  0  0  0
    6.5976    9.3401   22.6478 N   0  0  0  0  0  0  0  0  0  0  0  0
   11.2031    3.0042   20.6246 C   0  0  0  0  0  0  0  0  0  0  0  0
   12.8688    7.7370   22.7287 C   0  0  0  0  0  0  0  0  0  0  0  0
    7.4487    9.1361   23.6506 C   0  0  0  0  0  0  0  0  0  0  0  0
    8.9772    2.5025   22.0273 C   0  0  0  0  0  0  0  0  0  0  0  0
   10.4859    4.0901   20.9730 C   0  0  0  0  0  0  0  0  0  0  0  0
   11.0962    9.3293   23.5072 C   0  0  0  0  0  0  0  0  0  0  0  0
    5.1273    7.8529   23.6208 N   0  0  0  0  0  0  0  0  0  0  0  0
    9.7552    9.2338   23.0171 N   0  0  0  0  0  0  0  0  0  0  0  0
   11.1797    6.7591   21.3326 N   0  0  0  0  0  0  0  0  0  0  0  0
   11.7728    8.0337   23.7267 C   0  0  0  0  0  0  0  0  0  0  0  0
    7.1194    8.3344   24.6775 C   0  0  0  0  0  0  0  0  0  0  0  0
    8.4311    4.7963   22.0500 C   0  0  0  0  0  0  0  0  0  0  0  0
    8.7393   10.8706   24.1871 O   0  0  0  0  0  0  0  0  0  0  0  0
    9.3093    3.8166   21.6712 C   0  0  0  0  0  0  0  0  0  0  0  0
  1  5  1  0
  1 15  4  0
  1 22  4  0
  2 20  1  0
  2 24  1  0
  3  6  4  0
  3 27  4  0
  4 22  4  0
  4 26  4  0
  6  7  4  0
  6 13  1  0
  7 19  4  0
  8 18  1  0
  8 23  1  0
  8 28  2  0
  9 17  1  0
  9 24  1  0
 10 11  1  0
 10 24  1  0
 11 23  1  0
 12 14  4  0
 12 16  4  0
 14 19  4  0
 15 18  4  0
 16 20  4  0
 17 25  1  0
 18 26  4  0
 19 29  4  0
 20 29  4  0
 21 23  1  0
 21 25  1  0
 27 29  4  0
M  END
$$$$

 Created by Python create_sdf_string function

 29 32  0  0  0  0  0  0  0  0999 V2000
    5.4450    8.7154   22.6662 C   0  0  0  0  0  0  0  0  0  0  0  0
   10.9154    5.4574   20.5483 C   0  0  0  0  0  0  0  0  0  0  0  0
    7.2709    4.5089   22.7542 C   0  0  0  0  0  0  0  0  0  0  0  0
    5.9698    7.6329   24.6581 C   0  0  0  0  0  0  0  0  0  0  0  0
    4.5542    8.9057   21.7104 O   0  0  0  0  0  0  0  0  0  0  0  0
    6.9895    3.2085   23.0690 C   0  0  0  0  0  0  0  0  0  0  0  0
    7.8391    2.2253   22.7260 N   0  0  0  0  0  0  0  0  0  0  0  0
    8.6968    9.8373   23.6359 C   0  0  0  0  0  0  0  0  0  0  0  0
   12.5135    6.5957   21.8396 C   0  0  0  0  0  0  0  0  0  0  0  0
   10.9406    8.2330   21.1350 C   0  0  0  0  0  0  0  0  0  0  0  0
    9.6648    8.5956   21.7310 C   0  0  0  0  0  0  0  0  0  0  0  0
   10.8829    1.7153   20.9865 C   0  0  0  0  0  0  0  0  0  0  0  0
    5.7768    2.8533   23.7910 C   0  0  0  0  0  0  0  0  0  0  0  0
    9.7977    1.4791   21.6912 N   0  0  0  0  0  0  0  0  0  0  0  0
    6.5976    9.3401   22.6478 N   0  0  0  0  0  0  0  0  0  0  0  0
   11.2031    3.0042   20.6246 C   0  0  0  0  0  0  0  0  0  0  0  0
   12.8688    7.7370   22.7287 C   0  0  0  0  0  0  0  0  0  0  0  0
    7.4487    9.1361   23.6506 C   0  0  0  0  0  0  0  0  0  0  0  0
    8.9772    2.5025   22.0273 C   0  0  0  0  0  0  0  0  0  0  0  0
   10.4859    4.0901   20.9730 C   0  0  0  0  0  0  0  0  0  0  0  0
   11.0962    9.3293   23.5072 C   0  0  0  0  0  0  0  0  0  0  0  0
    5.1273    7.8529   23.6208 N   0  0  0  0  0  0  0  0  0  0  0  0
    9.7552    9.2338   23.0171 N   0  0  0  0  0  0  0  0  0  0  0  0
   11.1797    6.7591   21.3326 N   0  0  0  0  0  0  0  0  0  0  0  0
   11.7728    8.0337   23.7267 C   0  0  0  0  0  0  0  0  0  0  0  0
    7.1194    8.3344   24.6775 C   0  0  0  0  0  0  0  0  0  0  0  0
    8.4311    4.7963   22.0500 C   0  0  0  0  0  0  0  0  0  0  0  0
    8.7393   10.8706   24.1871 O   0  0  0  0  0  0  0  0  0  0  0  0
    9.3093    3.8166   21.6712 C   0  0  0  0  0  0  0  0  0  0  0  0
  1  5  1  0
  1 15  4  0
  1 22  4  0
  2 20  1  0
  2 24  1  0
  3  6  4  0
  3 27  4  0
  4 22  4  0
  4 26  4  0
  6  7  4  0
  6 13  1  0
  7 19  4  0
  8 18  1  0
  8 23  1  0
  8 28  2  0
  9 17  1  0
  9 24  1  0
 10 11  1  0
 10 24  1  0
 11 23  1  0
 12 14  4  0
 12 16  4  0
 14 19  4  0
 15 18  4  0
 16 20  4  0
 17 25  1  0
 18 26  4  0
 19 29  4  0
 20 29  4  0
 21 23  1  0
 21 25  1  0
 27 29  4  0
M  END
$$$$

 Created by Python create_sdf_string function

 29 32  0  0  0  0  0  0  0  0999 V2000
    5.4450    8.7154   22.6662 C   0  0  0  0  0  0  0  0  0  0  0  0
   10.9154    5.4574   20.5483 C   0  0  0  0  0  0  0  0  0  0  0  0
    7.2709    4.5089   22.7542 C   0  0  0  0  0  0  0  0  0  0  0  0
    5.9698    7.6329   24.6581 C   0  0  0  0  0  0  0  0  0  0  0  0
    4.5542    8.9057   21.7104 O   0  0  0  0  0  0  0  0  0  0  0  0
    6.9895    3.2085   23.0690 C   0  0  0  0  0  0  0  0  0  0  0  0
    7.8391    2.2253   22.7260 N   0  0  0  0  0  0  0  0  0  0  0  0
    8.6968    9.8373   23.6359 C   0  0  0  0  0  0  0  0  0  0  0  0
   12.5135    6.5957   21.8396 C   0  0  0  0  0  0  0  0  0  0  0  0
   10.9406    8.2330   21.1350 C   0  0  0  0  0  0  0  0  0  0  0  0
    9.6648    8.5956   21.7310 C   0  0  0  0  0  0  0  0  0  0  0  0
   10.8829    1.7153   20.9865 C   0  0  0  0  0  0  0  0  0  0  0  0
    5.7768    2.8533   23.7910 C   0  0  0  0  0  0  0  0  0  0  0  0
    9.7977    1.4791   21.6912 N   0  0  0  0  0  0  0  0  0  0  0  0
    6.5976    9.3401   22.6478 N   0  0  0  0  0  0  0  0  0  0  0  0
   11.2031    3.0042   20.6246 C   0  0  0  0  0  0  0  0  0  0  0  0
   12.8688    7.7370   22.7287 C   0  0  0  0  0  0  0  0  0  0  0  0
    7.4487    9.1361   23.6506 C   0  0  0  0  0  0  0  0  0  0  0  0
    8.9772    2.5025   22.0273 C   0  0  0  0  0  0  0  0  0  0  0  0
   10.4859    4.0901   20.9730 C   0  0  0  0  0  0  0  0  0  0  0  0
   11.0962    9.3293   23.5072 C   0  0  0  0  0  0  0  0  0  0  0  0
    5.1273    7.8529   23.6208 N   0  0  0  0  0  0  0  0  0  0  0  0
    9.7552    9.2338   23.0171 N   0  0  0  0  0  0  0  0  0  0  0  0
   11.1797    6.7591   21.3326 N   0  0  0  0  0  0  0  0  0  0  0  0
   11.7728    8.0337   23.7267 C   0  0  0  0  0  0  0  0  0  0  0  0
    7.1194    8.3344   24.6775 C   0  0  0  0  0  0  0  0  0  0  0  0
    8.4311    4.7963   22.0500 C   0  0  0  0  0  0  0  0  0  0  0  0
    8.7393   10.8706   24.1871 O   0  0  0  0  0  0  0  0  0  0  0  0
    9.3093    3.8166   21.6712 C   0  0  0  0  0  0  0  0  0  0  0  0
  1  5  1  0
  1 15  4  0
  1 22  4  0
  2 20  1  0
  2 24  1  0
  3  6  4  0
  3 27  4  0
  4 22  4  0
  4 26  4  0
  6  7  4  0
  6 13  1  0
  7 19  4  0
  8 18  1  0
  8 23  1  0
  8 28  2  0
  9 17  1  0
  9 24  1  0
 10 11  1  0
 10 24  1  0
 11 23  1  0
 12 14  4  0
 12 16  4  0
 14 19  4  0
 15 18  4  0
 16 20  4  0
 17 25  1  0
 18 26  4  0
 19 29  4  0
 20 29  4  0
 21 23  1  0
 21 25  1  0
 27 29  4  0
M  END
$$$$

 Created by Python create_sdf_string function

 29 32  0  0  0  0  0  0  0  0999 V2000
    5.4450    8.7154   22.6662 C   0  0  0  0  0  0  0  0  0  0  0  0
   10.9154    5.4574   20.5483 C   0  0  0  0  0  0  0  0  0  0  0  0
    7.2709    4.5089   22.7542 C   0  0  0  0  0  0  0  0  0  0  0  0
    5.9698    7.6329   24.6581 C   0  0  0  0  0  0  0  0  0  0  0  0
    4.5542    8.9057   21.7104 O   0  0  0  0  0  0  0  0  0  0  0  0
    6.9895    3.2085   23.0690 C   0  0  0  0  0  0  0  0  0  0  0  0
    7.8391    2.2253   22.7260 N   0  0  0  0  0  0  0  0  0  0  0  0
    8.6968    9.8373   23.6359 C   0  0  0  0  0  0  0  0  0  0  0  0
   12.5135    6.5957   21.8396 C   0  0  0  0  0  0  0  0  0  0  0  0
   10.9406    8.2330   21.1350 C   0  0  0  0  0  0  0  0  0  0  0  0
    9.6648    8.5956   21.7310 C   0  0  0  0  0  0  0  0  0  0  0  0
   10.8829    1.7153   20.9865 C   0  0  0  0  0  0  0  0  0  0  0  0
    5.7768    2.8533   23.7910 C   0  0  0  0  0  0  0  0  0  0  0  0
    9.7977    1.4791   21.6912 N   0  0  0  0  0  0  0  0  0  0  0  0
    6.5976    9.3401   22.6478 N   0  0  0  0  0  0  0  0  0  0  0  0
   11.2031    3.0042   20.6246 C   0  0  0  0  0  0  0  0  0  0  0  0
   12.8688    7.7370   22.7287 C   0  0  0  0  0  0  0  0  0  0  0  0
    7.4487    9.1361   23.6506 C   0  0  0  0  0  0  0  0  0  0  0  0
    8.9772    2.5025   22.0273 C   0  0  0  0  0  0  0  0  0  0  0  0
   10.4859    4.0901   20.9730 C   0  0  0  0  0  0  0  0  0  0  0  0
   11.0962    9.3293   23.5072 C   0  0  0  0  0  0  0  0  0  0  0  0
    5.1273    7.8529   23.6208 N   0  0  0  0  0  0  0  0  0  0  0  0
    9.7552    9.2338   23.0171 N   0  0  0  0  0  0  0  0  0  0  0  0
   11.1797    6.7591   21.3326 N   0  0  0  0  0  0  0  0  0  0  0  0
   11.7728    8.0337   23.7267 C   0  0  0  0  0  0  0  0  0  0  0  0
    7.1194    8.3344   24.6775 C   0  0  0  0  0  0  0  0  0  0  0  0
    8.4311    4.7963   22.0500 C   0  0  0  0  0  0  0  0  0  0  0  0
    8.7393   10.8706   24.1871 O   0  0  0  0  0  0  0  0  0  0  0  0
    9.3093    3.8166   21.6712 C   0  0  0  0  0  0  0  0  0  0  0  0
  1  5  1  0
  1 15  4  0
  1 22  4  0
  2 20  1  0
  2 24  1  0
  3  6  4  0
  3 27  4  0
  4 22  4  0
  4 26  4  0
  6  7  4  0
  6 13  1  0
  7 19  4  0
  8 18  1  0
  8 23  1  0
  8 28  2  0
  9 17  1  0
  9 24  1  0
 10 11  1  0
 10 24  1  0
 11 23  1  0
 12 14  4  0
 12 16  4  0
 14 19  4  0
 15 18  4  0
 16 20  4  0
 17 25  1  0
 18 26  4  0
 19 29  4  0
 20 29  4  0
 21 23  1  0
 21 25  1  0
 27 29  4  0
M  END
$$$$

 Created by Python create_sdf_string function

 29 32  0  0  0  0  0  0  0  0999 V2000
    5.4450    8.7154   22.6662 C   0  0  0  0  0  0  0  0  0  0  0  0
   10.9154    5.4574   20.5483 C   0  0  0  0  0  0  0  0  0  0  0  0
    7.2709    4.5089   22.7542 C   0  0  0  0  0  0  0  0  0  0  0  0
    5.9698    7.6329   24.6581 C   0  0  0  0  0  0  0  0  0  0  0  0
    4.5542    8.9057   21.7104 O   0  0  0  0  0  0  0  0  0  0  0  0
    6.9895    3.2085   23.0690 C   0  0  0  0  0  0  0  0  0  0  0  0
    7.8391    2.2253   22.7260 N   0  0  0  0  0  0  0  0  0  0  0  0
    8.6968    9.8373   23.6359 C   0  0  0  0  0  0  0  0  0  0  0  0
   12.5135    6.5957   21.8396 C   0  0  0  0  0  0  0  0  0  0  0  0
   10.9406    8.2330   21.1350 C   0  0  0  0  0  0  0  0  0  0  0  0
    9.6648    8.5956   21.7310 C   0  0  0  0  0  0  0  0  0  0  0  0
   10.8829    1.7153   20.9865 C   0  0  0  0  0  0  0  0  0  0  0  0
    5.7768    2.8533   23.7910 C   0  0  0  0  0  0  0  0  0  0  0  0
    9.7977    1.4791   21.6912 N   0  0  0  0  0  0  0  0  0  0  0  0
    6.5976    9.3401   22.6478 N   0  0  0  0  0  0  0  0  0  0  0  0
   11.2031    3.0042   20.6246 C   0  0  0  0  0  0  0  0  0  0  0  0
   12.8688    7.7370   22.7287 C   0  0  0  0  0  0  0  0  0  0  0  0
    7.4487    9.1361   23.6506 C   0  0  0  0  0  0  0  0  0  0  0  0
    8.9772    2.5025   22.0273 C   0  0  0  0  0  0  0  0  0  0  0  0
   10.4859    4.0901   20.9730 C   0  0  0  0  0  0  0  0  0  0  0  0
   11.0962    9.3293   23.5072 C   0  0  0  0  0  0  0  0  0  0  0  0
    5.1273    7.8529   23.6208 N   0  0  0  0  0  0  0  0  0  0  0  0
    9.7552    9.2338   23.0171 N   0  0  0  0  0  0  0  0  0  0  0  0
   11.1797    6.7591   21.3326 N   0  0  0  0  0  0  0  0  0  0  0  0
   11.7728    8.0337   23.7267 C   0  0  0  0  0  0  0  0  0  0  0  0
    7.1194    8.3344   24.6775 C   0  0  0  0  0  0  0  0  0  0  0  0
    8.4311    4.7963   22.0500 C   0  0  0  0  0  0  0  0  0  0  0  0
    8.7393   10.8706   24.1871 O   0  0  0  0  0  0  0  0  0  0  0  0
    9.3093    3.8166   21.6712 C   0  0  0  0  0  0  0  0  0  0  0  0
  1  5  1  0
  1 15  4  0
  1 22  4  0
  2 20  1  0
  2 24  1  0
  3  6  4  0
  3 27  4  0
  4 22  4  0
  4 26  4  0
  6  7  4  0
  6 13  1  0
  7 19  4  0
  8 18  1  0
  8 23  1  0
  8 28  2  0
  9 17  1  0
  9 24  1  0
 10 11  1  0
 10 24  1  0
 11 23  1  0
 12 14  4  0
 12 16  4  0
 14 19  4  0
 15 18  4  0
 16 20  4  0
 17 25  1  0
 18 26  4  0
 19 29  4  0
 20 29  4  0
 21 23  1  0
 21 25  1  0
 27 29  4  0
M  END
$$$$

 Created by Python create_sdf_string function

 29 32  0  0  0  0  0  0  0  0999 V2000
    5.4450    8.7154   22.6662 C   0  0  0  0  0  0  0  0  0  0  0  0
   10.9154    5.4574   20.5483 C   0  0  0  0  0  0  0  0  0  0  0  0
    7.2709    4.5089   22.7542 C   0  0  0  0  0  0  0  0  0  0  0  0
    5.9698    7.6329   24.6581 C   0  0  0  0  0  0  0  0  0  0  0  0
    4.5542    8.9057   21.7104 O   0  0  0  0  0  0  0  0  0  0  0  0
    6.9895    3.2085   23.0690 C   0  0  0  0  0  0  0  0  0  0  0  0
    7.8391    2.2253   22.7260 N   0  0  0  0  0  0  0  0  0  0  0  0
    8.6968    9.8373   23.6359 C   0  0  0  0  0  0  0  0  0  0  0  0
   12.5135    6.5957   21.8396 C   0  0  0  0  0  0  0  0  0  0  0  0
   10.9406    8.2330   21.1350 C   0  0  0  0  0  0  0  0  0  0  0  0
    9.6648    8.5956   21.7310 C   0  0  0  0  0  0  0  0  0  0  0  0
   10.8829    1.7153   20.9865 C   0  0  0  0  0  0  0  0  0  0  0  0
    5.7768    2.8533   23.7910 C   0  0  0  0  0  0  0  0  0  0  0  0
    9.7977    1.4791   21.6912 N   0  0  0  0  0  0  0  0  0  0  0  0
    6.5976    9.3401   22.6478 N   0  0  0  0  0  0  0  0  0  0  0  0
   11.2031    3.0042   20.6246 C   0  0  0  0  0  0  0  0  0  0  0  0
   12.8688    7.7370   22.7287 C   0  0  0  0  0  0  0  0  0  0  0  0
    7.4487    9.1361   23.6506 C   0  0  0  0  0  0  0  0  0  0  0  0
    8.9772    2.5025   22.0273 C   0  0  0  0  0  0  0  0  0  0  0  0
   10.4859    4.0901   20.9730 C   0  0  0  0  0  0  0  0  0  0  0  0
   11.0962    9.3293   23.5072 C   0  0  0  0  0  0  0  0  0  0  0  0
    5.1273    7.8529   23.6208 N   0  0  0  0  0  0  0  0  0  0  0  0
    9.7552    9.2338   23.0171 N   0  0  0  0  0  0  0  0  0  0  0  0
   11.1797    6.7591   21.3326 N   0  0  0  0  0  0  0  0  0  0  0  0
   11.7728    8.0337   23.7267 C   0  0  0  0  0  0  0  0  0  0  0  0
    7.1194    8.3344   24.6775 C   0  0  0  0  0  0  0  0  0  0  0  0
    8.4311    4.7963   22.0500 C   0  0  0  0  0  0  0  0  0  0  0  0
    8.7393   10.8706   24.1871 O   0  0  0  0  0  0  0  0  0  0  0  0
    9.3093    3.8166   21.6712 C   0  0  0  0  0  0  0  0  0  0  0  0
  1  5  1  0
  1 15  4  0
  1 22  4  0
  2 20  1  0
  2 24  1  0
  3  6  4  0
  3 27  4  0
  4 22  4  0
  4 26  4  0
  6  7  4  0
  6 13  1  0
  7 19  4  0
  8 18  1  0
  8 23  1  0
  8 28  2  0
  9 17  1  0
  9 24  1  0
 10 11  1  0
 10 24  1  0
 11 23  1  0
 12 14  4  0
 12 16  4  0
 14 19  4  0
 15 18  4  0
 16 20  4  0
 17 25  1  0
 18 26  4  0
 19 29  4  0
 20 29  4  0
 21 23  1  0
 21 25  1  0
 27 29  4  0
M  END
$$$$

 Created by Python create_sdf_string function

 29 32  0  0  0  0  0  0  0  0999 V2000
    5.4450    8.7154   22.6662 C   0  0  0  0  0  0  0  0  0  0  0  0
   10.9154    5.4574   20.5483 C   0  0  0  0  0  0  0  0  0  0  0  0
    7.2709    4.5089   22.7542 C   0  0  0  0  0  0  0  0  0  0  0  0
    5.9698    7.6329   24.6581 C   0  0  0  0  0  0  0  0  0  0  0  0
    4.5542    8.9057   21.7104 O   0  0  0  0  0  0  0  0  0  0  0  0
    6.9895    3.2085   23.0690 C   0  0  0  0  0  0  0  0  0  0  0  0
    7.8391    2.2253   22.7260 N   0  0  0  0  0  0  0  0  0  0  0  0
    8.6968    9.8373   23.6359 C   0  0  0  0  0  0  0  0  0  0  0  0
   12.5135    6.5957   21.8396 C   0  0  0  0  0  0  0  0  0  0  0  0
   10.9406    8.2330   21.1350 C   0  0  0  0  0  0  0  0  0  0  0  0
    9.6648    8.5956   21.7310 C   0  0  0  0  0  0  0  0  0  0  0  0
   10.8829    1.7153   20.9865 C   0  0  0  0  0  0  0  0  0  0  0  0
    5.7768    2.8533   23.7910 C   0  0  0  0  0  0  0  0  0  0  0  0
    9.7977    1.4791   21.6912 N   0  0  0  0  0  0  0  0  0  0  0  0
    6.5976    9.3401   22.6478 N   0  0  0  0  0  0  0  0  0  0  0  0
   11.2031    3.0042   20.6246 C   0  0  0  0  0  0  0  0  0  0  0  0
   12.8688    7.7370   22.7287 C   0  0  0  0  0  0  0  0  0  0  0  0
    7.4487    9.1361   23.6506 C   0  0  0  0  0  0  0  0  0  0  0  0
    8.9772    2.5025   22.0273 C   0  0  0  0  0  0  0  0  0  0  0  0
   10.4859    4.0901   20.9730 C   0  0  0  0  0  0  0  0  0  0  0  0
   11.0962    9.3293   23.5072 C   0  0  0  0  0  0  0  0  0  0  0  0
    5.1273    7.8529   23.6208 N   0  0  0  0  0  0  0  0  0  0  0  0
    9.7552    9.2338   23.0171 N   0  0  0  0  0  0  0  0  0  0  0  0
   11.1797    6.7591   21.3326 N   0  0  0  0  0  0  0  0  0  0  0  0
   11.7728    8.0337   23.7267 C   0  0  0  0  0  0  0  0  0  0  0  0
    7.1194    8.3344   24.6775 C   0  0  0  0  0  0  0  0  0  0  0  0
    8.4311    4.7963   22.0500 C   0  0  0  0  0  0  0  0  0  0  0  0
    8.7393   10.8706   24.1871 O   0  0  0  0  0  0  0  0  0  0  0  0
    9.3093    3.8166   21.6712 C   0  0  0  0  0  0  0  0  0  0  0  0
  1  5  1  0
  1 15  4  0
  1 22  4  0
  2 20  1  0
  2 24  1  0
  3  6  4  0
  3 27  4  0
  4 22  4  0
  4 26  4  0
  6  7  4  0
  6 13  1  0
  7 19  4  0
  8 18  1  0
  8 23  1  0
  8 28  2  0
  9 17  1  0
  9 24  1  0
 10 11  1  0
 10 24  1  0
 11 23  1  0
 12 14  4  0
 12 16  4  0
 14 19  4  0
 15 18  4  0
 16 20  4  0
 17 25  1  0
 18 26  4  0
 19 29  4  0
 20 29  4  0
 21 23  1  0
 21 25  1  0
 27 29  4  0
M  END
$$$$

 Created by Python create_sdf_string function

 29 32  0  0  0  0  0  0  0  0999 V2000
    5.4450    8.7154   22.6662 C   0  0  0  0  0  0  0  0  0  0  0  0
   10.9154    5.4574   20.5483 C   0  0  0  0  0  0  0  0  0  0  0  0
    7.2709    4.5089   22.7542 C   0  0  0  0  0  0  0  0  0  0  0  0
    5.9698    7.6329   24.6581 C   0  0  0  0  0  0  0  0  0  0  0  0
    4.5542    8.9057   21.7104 O   0  0  0  0  0  0  0  0  0  0  0  0
    6.9895    3.2085   23.0690 C   0  0  0  0  0  0  0  0  0  0  0  0
    7.8391    2.2253   22.7260 N   0  0  0  0  0  0  0  0  0  0  0  0
    8.6968    9.8373   23.6359 C   0  0  0  0  0  0  0  0  0  0  0  0
   12.5135    6.5957   21.8396 C   0  0  0  0  0  0  0  0  0  0  0  0
   10.9406    8.2330   21.1350 C   0  0  0  0  0  0  0  0  0  0  0  0
    9.6648    8.5956   21.7310 C   0  0  0  0  0  0  0  0  0  0  0  0
   10.8829    1.7153   20.9865 C   0  0  0  0  0  0  0  0  0  0  0  0
    5.7768    2.8533   23.7910 C   0  0  0  0  0  0  0  0  0  0  0  0
    9.7977    1.4791   21.6912 N   0  0  0  0  0  0  0  0  0  0  0  0
    6.5976    9.3401   22.6478 N   0  0  0  0  0  0  0  0  0  0  0  0
   11.2031    3.0042   20.6246 C   0  0  0  0  0  0  0  0  0  0  0  0
   12.8688    7.7370   22.7287 C   0  0  0  0  0  0  0  0  0  0  0  0
    7.4487    9.1361   23.6506 C   0  0  0  0  0  0  0  0  0  0  0  0
    8.9772    2.5025   22.0273 C   0  0  0  0  0  0  0  0  0  0  0  0
   10.4859    4.0901   20.9730 C   0  0  0  0  0  0  0  0  0  0  0  0
   11.0962    9.3293   23.5072 C   0  0  0  0  0  0  0  0  0  0  0  0
    5.1273    7.8529   23.6208 N   0  0  0  0  0  0  0  0  0  0  0  0
    9.7552    9.2338   23.0171 N   0  0  0  0  0  0  0  0  0  0  0  0
   11.1797    6.7591   21.3326 N   0  0  0  0  0  0  0  0  0  0  0  0
   11.7728    8.0337   23.7267 C   0  0  0  0  0  0  0  0  0  0  0  0
    7.1194    8.3344   24.6775 C   0  0  0  0  0  0  0  0  0  0  0  0
    8.4311    4.7963   22.0500 C   0  0  0  0  0  0  0  0  0  0  0  0
    8.7393   10.8706   24.1871 O   0  0  0  0  0  0  0  0  0  0  0  0
    9.3093    3.8166   21.6712 C   0  0  0  0  0  0  0  0  0  0  0  0
  1  5  1  0
  1 15  4  0
  1 22  4  0
  2 20  1  0
  2 24  1  0
  3  6  4  0
  3 27  4  0
  4 22  4  0
  4 26  4  0
  6  7  4  0
  6 13  1  0
  7 19  4  0
  8 18  1  0
  8 23  1  0
  8 28  2  0
  9 17  1  0
  9 24  1  0
 10 11  1  0
 10 24  1  0
 11 23  1  0
 12 14  4  0
 12 16  4  0
 14 19  4  0
 15 18  4  0
 16 20  4  0
 17 25  1  0
 18 26  4  0
 19 29  4  0
 20 29  4  0
 21 23  1  0
 21 25  1  0
 27 29  4  0
M  END
$$$$

 Created by Python create_sdf_string function

 29 32  0  0  0  0  0  0  0  0999 V2000
    5.4450    8.7154   22.6662 C   0  0  0  0  0  0  0  0  0  0  0  0
   10.9154    5.4574   20.5483 C   0  0  0  0  0  0  0  0  0  0  0  0
    7.2709    4.5089   22.7542 C   0  0  0  0  0  0  0  0  0  0  0  0
    5.9698    7.6329   24.6581 C   0  0  0  0  0  0  0  0  0  0  0  0
    4.5542    8.9057   21.7104 O   0  0  0  0  0  0  0  0  0  0  0  0
    6.9895    3.2085   23.0690 C   0  0  0  0  0  0  0  0  0  0  0  0
    7.8391    2.2253   22.7260 N   0  0  0  0  0  0  0  0  0  0  0  0
    8.6968    9.8373   23.6359 C   0  0  0  0  0  0  0  0  0  0  0  0
   12.5135    6.5957   21.8396 C   0  0  0  0  0  0  0  0  0  0  0  0
   10.9406    8.2330   21.1350 C   0  0  0  0  0  0  0  0  0  0  0  0
    9.6648    8.5956   21.7310 C   0  0  0  0  0  0  0  0  0  0  0  0
   10.8829    1.7153   20.9865 C   0  0  0  0  0  0  0  0  0  0  0  0
    5.7768    2.8533   23.7910 C   0  0  0  0  0  0  0  0  0  0  0  0
    9.7977    1.4791   21.6912 N   0  0  0  0  0  0  0  0  0  0  0  0
    6.5976    9.3401   22.6478 N   0  0  0  0  0  0  0  0  0  0  0  0
   11.2031    3.0042   20.6246 C   0  0  0  0  0  0  0  0  0  0  0  0
   12.8688    7.7370   22.7287 C   0  0  0  0  0  0  0  0  0  0  0  0
    7.4487    9.1361   23.6506 C   0  0  0  0  0  0  0  0  0  0  0  0
    8.9772    2.5025   22.0273 C   0  0  0  0  0  0  0  0  0  0  0  0
   10.4859    4.0901   20.9730 C   0  0  0  0  0  0  0  0  0  0  0  0
   11.0962    9.3293   23.5072 C   0  0  0  0  0  0  0  0  0  0  0  0
    5.1273    7.8529   23.6208 N   0  0  0  0  0  0  0  0  0  0  0  0
    9.7552    9.2338   23.0171 N   0  0  0  0  0  0  0  0  0  0  0  0
   11.1797    6.7591   21.3326 N   0  0  0  0  0  0  0  0  0  0  0  0
   11.7728    8.0337   23.7267 C   0  0  0  0  0  0  0  0  0  0  0  0
    7.1194    8.3344   24.6775 C   0  0  0  0  0  0  0  0  0  0  0  0
    8.4311    4.7963   22.0500 C   0  0  0  0  0  0  0  0  0  0  0  0
    8.7393   10.8706   24.1871 O   0  0  0  0  0  0  0  0  0  0  0  0
    9.3093    3.8166   21.6712 C   0  0  0  0  0  0  0  0  0  0  0  0
  1  5  1  0
  1 15  4  0
  1 22  4  0
  2 20  1  0
  2 24  1  0
  3  6  4  0
  3 27  4  0
  4 22  4  0
  4 26  4  0
  6  7  4  0
  6 13  1  0
  7 19  4  0
  8 18  1  0
  8 23  1  0
  8 28  2  0
  9 17  1  0
  9 24  1  0
 10 11  1  0
 10 24  1  0
 11 23  1  0
 12 14  4  0
 12 16  4  0
 14 19  4  0
 15 18  4  0
 16 20  4  0
 17 25  1  0
 18 26  4  0
 19 29  4  0
 20 29  4  0
 21 23  1  0
 21 25  1  0
 27 29  4  0
M  END
$$$$

 Created by Python create_sdf_string function

 29 32  0  0  0  0  0  0  0  0999 V2000
    5.4450    8.7154   22.6662 C   0  0  0  0  0  0  0  0  0  0  0  0
   10.9154    5.4574   20.5483 C   0  0  0  0  0  0  0  0  0  0  0  0
    7.2709    4.5089   22.7542 C   0  0  0  0  0  0  0  0  0  0  0  0
    5.9698    7.6329   24.6581 C   0  0  0  0  0  0  0  0  0  0  0  0
    4.5542    8.9057   21.7104 O   0  0  0  0  0  0  0  0  0  0  0  0
    6.9895    3.2085   23.0690 C   0  0  0  0  0  0  0  0  0  0  0  0
    7.8391    2.2253   22.7260 N   0  0  0  0  0  0  0  0  0  0  0  0
    8.6968    9.8373   23.6359 C   0  0  0  0  0  0  0  0  0  0  0  0
   12.5135    6.5957   21.8396 C   0  0  0  0  0  0  0  0  0  0  0  0
   10.9406    8.2330   21.1350 C   0  0  0  0  0  0  0  0  0  0  0  0
    9.6648    8.5956   21.7310 C   0  0  0  0  0  0  0  0  0  0  0  0
   10.8829    1.7153   20.9865 C   0  0  0  0  0  0  0  0  0  0  0  0
    5.7768    2.8533   23.7910 C   0  0  0  0  0  0  0  0  0  0  0  0
    9.7977    1.4791   21.6912 N   0  0  0  0  0  0  0  0  0  0  0  0
    6.5976    9.3401   22.6478 N   0  0  0  0  0  0  0  0  0  0  0  0
   11.2031    3.0042   20.6246 C   0  0  0  0  0  0  0  0  0  0  0  0
   12.8688    7.7370   22.7287 C   0  0  0  0  0  0  0  0  0  0  0  0
    7.4487    9.1361   23.6506 C   0  0  0  0  0  0  0  0  0  0  0  0
    8.9772    2.5025   22.0273 C   0  0  0  0  0  0  0  0  0  0  0  0
   10.4859    4.0901   20.9730 C   0  0  0  0  0  0  0  0  0  0  0  0
   11.0962    9.3293   23.5072 C   0  0  0  0  0  0  0  0  0  0  0  0
    5.1273    7.8529   23.6208 N   0  0  0  0  0  0  0  0  0  0  0  0
    9.7552    9.2338   23.0171 N   0  0  0  0  0  0  0  0  0  0  0  0
   11.1797    6.7591   21.3326 N   0  0  0  0  0  0  0  0  0  0  0  0
   11.7728    8.0337   23.7267 C   0  0  0  0  0  0  0  0  0  0  0  0
    7.1194    8.3344   24.6775 C   0  0  0  0  0  0  0  0  0  0  0  0
    8.4311    4.7963   22.0500 C   0  0  0  0  0  0  0  0  0  0  0  0
    8.7393   10.8706   24.1871 O   0  0  0  0  0  0  0  0  0  0  0  0
    9.3093    3.8166   21.6712 C   0  0  0  0  0  0  0  0  0  0  0  0
  1  5  1  0
  1 15  4  0
  1 22  4  0
  2 20  1  0
  2 24  1  0
  3  6  4  0
  3 27  4  0
  4 22  4  0
  4 26  4  0
  6  7  4  0
  6 13  1  0
  7 19  4  0
  8 18  1  0
  8 23  1  0
  8 28  2  0
  9 17  1  0
  9 24  1  0
 10 11  1  0
 10 24  1  0
 11 23  1  0
 12 14  4  0
 12 16  4  0
 14 19  4  0
 15 18  4  0
 16 20  4  0
 17 25  1  0
 18 26  4  0
 19 29  4  0
 20 29  4  0
 21 23  1  0
 21 25  1  0
 27 29  4  0
M  END
$$$$

 Created by Python create_sdf_string function

 29 32  0  0  0  0  0  0  0  0999 V2000
    5.4450    8.7154   22.6662 C   0  0  0  0  0  0  0  0  0  0  0  0
   10.9154    5.4574   20.5483 C   0  0  0  0  0  0  0  0  0  0  0  0
    7.2709    4.5089   22.7542 C   0  0  0  0  0  0  0  0  0  0  0  0
    5.9698    7.6329   24.6581 C   0  0  0  0  0  0  0  0  0  0  0  0
    4.5542    8.9057   21.7104 O   0  0  0  0  0  0  0  0  0  0  0  0
    6.9895    3.2085   23.0690 C   0  0  0  0  0  0  0  0  0  0  0  0
    7.8391    2.2253   22.7260 N   0  0  0  0  0  0  0  0  0  0  0  0
    8.6968    9.8373   23.6359 C   0  0  0  0  0  0  0  0  0  0  0  0
   12.5135    6.5957   21.8396 C   0  0  0  0  0  0  0  0  0  0  0  0
   10.9406    8.2330   21.1350 C   0  0  0  0  0  0  0  0  0  0  0  0
    9.6648    8.5956   21.7310 C   0  0  0  0  0  0  0  0  0  0  0  0
   10.8829    1.7153   20.9865 C   0  0  0  0  0  0  0  0  0  0  0  0
    5.7768    2.8533   23.7910 C   0  0  0  0  0  0  0  0  0  0  0  0
    9.7977    1.4791   21.6912 N   0  0  0  0  0  0  0  0  0  0  0  0
    6.5976    9.3401   22.6478 N   0  0  0  0  0  0  0  0  0  0  0  0
   11.2031    3.0042   20.6246 C   0  0  0  0  0  0  0  0  0  0  0  0
   12.8688    7.7370   22.7287 C   0  0  0  0  0  0  0  0  0  0  0  0
    7.4487    9.1361   23.6506 C   0  0  0  0  0  0  0  0  0  0  0  0
    8.9772    2.5025   22.0273 C   0  0  0  0  0  0  0  0  0  0  0  0
   10.4859    4.0901   20.9730 C   0  0  0  0  0  0  0  0  0  0  0  0
   11.0962    9.3293   23.5072 C   0  0  0  0  0  0  0  0  0  0  0  0
    5.1273    7.8529   23.6208 N   0  0  0  0  0  0  0  0  0  0  0  0
    9.7552    9.2338   23.0171 N   0  0  0  0  0  0  0  0  0  0  0  0
   11.1797    6.7591   21.3326 N   0  0  0  0  0  0  0  0  0  0  0  0
   11.7728    8.0337   23.7267 C   0  0  0  0  0  0  0  0  0  0  0  0
    7.1194    8.3344   24.6775 C   0  0  0  0  0  0  0  0  0  0  0  0
    8.4311    4.7963   22.0500 C   0  0  0  0  0  0  0  0  0  0  0  0
    8.7393   10.8706   24.1871 O   0  0  0  0  0  0  0  0  0  0  0  0
    9.3093    3.8166   21.6712 C   0  0  0  0  0  0  0  0  0  0  0  0
  1  5  1  0
  1 15  4  0
  1 22  4  0
  2 20  1  0
  2 24  1  0
  3  6  4  0
  3 27  4  0
  4 22  4  0
  4 26  4  0
  6  7  4  0
  6 13  1  0
  7 19  4  0
  8 18  1  0
  8 23  1  0
  8 28  2  0
  9 17  1  0
  9 24  1  0
 10 11  1  0
 10 24  1  0
 11 23  1  0
 12 14  4  0
 12 16  4  0
 14 19  4  0
 15 18  4  0
 16 20  4  0
 17 25  1  0
 18 26  4  0
 19 29  4  0
 20 29  4  0
 21 23  1  0
 21 25  1  0
 27 29  4  0
M  END
$$$$

 Created by Python create_sdf_string function

 29 32  0  0  0  0  0  0  0  0999 V2000
    5.4450    8.7154   22.6662 C   0  0  0  0  0  0  0  0  0  0  0  0
   10.9154    5.4574   20.5483 C   0  0  0  0  0  0  0  0  0  0  0  0
    7.2709    4.5089   22.7542 C   0  0  0  0  0  0  0  0  0  0  0  0
    5.9698    7.6329   24.6581 C   0  0  0  0  0  0  0  0  0  0  0  0
    4.5542    8.9057   21.7104 O   0  0  0  0  0  0  0  0  0  0  0  0
    6.9895    3.2085   23.0690 C   0  0  0  0  0  0  0  0  0  0  0  0
    7.8391    2.2253   22.7260 N   0  0  0  0  0  0  0  0  0  0  0  0
    8.6968    9.8373   23.6359 C   0  0  0  0  0  0  0  0  0  0  0  0
   12.5135    6.5957   21.8396 C   0  0  0  0  0  0  0  0  0  0  0  0
   10.9406    8.2330   21.1350 C   0  0  0  0  0  0  0  0  0  0  0  0
    9.6648    8.5956   21.7310 C   0  0  0  0  0  0  0  0  0  0  0  0
   10.8829    1.7153   20.9865 C   0  0  0  0  0  0  0  0  0  0  0  0
    5.7768    2.8533   23.7910 C   0  0  0  0  0  0  0  0  0  0  0  0
    9.7977    1.4791   21.6912 N   0  0  0  0  0  0  0  0  0  0  0  0
    6.5976    9.3401   22.6478 N   0  0  0  0  0  0  0  0  0  0  0  0
   11.2031    3.0042   20.6246 C   0  0  0  0  0  0  0  0  0  0  0  0
   12.8688    7.7370   22.7287 C   0  0  0  0  0  0  0  0  0  0  0  0
    7.4487    9.1361   23.6506 C   0  0  0  0  0  0  0  0  0  0  0  0
    8.9772    2.5025   22.0273 C   0  0  0  0  0  0  0  0  0  0  0  0
   10.4859    4.0901   20.9730 C   0  0  0  0  0  0  0  0  0  0  0  0
   11.0962    9.3293   23.5072 C   0  0  0  0  0  0  0  0  0  0  0  0
    5.1273    7.8529   23.6208 N   0  0  0  0  0  0  0  0  0  0  0  0
    9.7552    9.2338   23.0171 N   0  0  0  0  0  0  0  0  0  0  0  0
   11.1797    6.7591   21.3326 N   0  0  0  0  0  0  0  0  0  0  0  0
   11.7728    8.0337   23.7267 C   0  0  0  0  0  0  0  0  0  0  0  0
    7.1194    8.3344   24.6775 C   0  0  0  0  0  0  0  0  0  0  0  0
    8.4311    4.7963   22.0500 C   0  0  0  0  0  0  0  0  0  0  0  0
    8.7393   10.8706   24.1871 O   0  0  0  0  0  0  0  0  0  0  0  0
    9.3093    3.8166   21.6712 C   0  0  0  0  0  0  0  0  0  0  0  0
  1  5  1  0
  1 15  4  0
  1 22  4  0
  2 20  1  0
  2 24  1  0
  3  6  4  0
  3 27  4  0
  4 22  4  0
  4 26  4  0
  6  7  4  0
  6 13  1  0
  7 19  4  0
  8 18  1  0
  8 23  1  0
  8 28  2  0
  9 17  1  0
  9 24  1  0
 10 11  1  0
 10 24  1  0
 11 23  1  0
 12 14  4  0
 12 16  4  0
 14 19  4  0
 15 18  4  0
 16 20  4  0
 17 25  1  0
 18 26  4  0
 19 29  4  0
 20 29  4  0
 21 23  1  0
 21 25  1  0
 27 29  4  0
M  END
$$$$

 Created by Python create_sdf_string function

 29 32  0  0  0  0  0  0  0  0999 V2000
    5.4450    8.7154   22.6662 C   0  0  0  0  0  0  0  0  0  0  0  0
   10.9154    5.4574   20.5483 C   0  0  0  0  0  0  0  0  0  0  0  0
    7.2709    4.5089   22.7542 C   0  0  0  0  0  0  0  0  0  0  0  0
    5.9698    7.6329   24.6581 C   0  0  0  0  0  0  0  0  0  0  0  0
    4.5542    8.9057   21.7104 O   0  0  0  0  0  0  0  0  0  0  0  0
    6.9895    3.2085   23.0690 C   0  0  0  0  0  0  0  0  0  0  0  0
    7.8391    2.2253   22.7260 N   0  0  0  0  0  0  0  0  0  0  0  0
    8.6968    9.8373   23.6359 C   0  0  0  0  0  0  0  0  0  0  0  0
   12.5135    6.5957   21.8396 C   0  0  0  0  0  0  0  0  0  0  0  0
   10.9406    8.2330   21.1350 C   0  0  0  0  0  0  0  0  0  0  0  0
    9.6648    8.5956   21.7310 C   0  0  0  0  0  0  0  0  0  0  0  0
   10.8829    1.7153   20.9865 C   0  0  0  0  0  0  0  0  0  0  0  0
    5.7768    2.8533   23.7910 C   0  0  0  0  0  0  0  0  0  0  0  0
    9.7977    1.4791   21.6912 N   0  0  0  0  0  0  0  0  0  0  0  0
    6.5976    9.3401   22.6478 N   0  0  0  0  0  0  0  0  0  0  0  0
   11.2031    3.0042   20.6246 C   0  0  0  0  0  0  0  0  0  0  0  0
   12.8688    7.7370   22.7287 C   0  0  0  0  0  0  0  0  0  0  0  0
    7.4487    9.1361   23.6506 C   0  0  0  0  0  0  0  0  0  0  0  0
    8.9772    2.5025   22.0273 C   0  0  0  0  0  0  0  0  0  0  0  0
   10.4859    4.0901   20.9730 C   0  0  0  0  0  0  0  0  0  0  0  0
   11.0962    9.3293   23.5072 C   0  0  0  0  0  0  0  0  0  0  0  0
    5.1273    7.8529   23.6208 N   0  0  0  0  0  0  0  0  0  0  0  0
    9.7552    9.2338   23.0171 N   0  0  0  0  0  0  0  0  0  0  0  0
   11.1797    6.7591   21.3326 N   0  0  0  0  0  0  0  0  0  0  0  0
   11.7728    8.0337   23.7267 C   0  0  0  0  0  0  0  0  0  0  0  0
    7.1194    8.3344   24.6775 C   0  0  0  0  0  0  0  0  0  0  0  0
    8.4311    4.7963   22.0500 C   0  0  0  0  0  0  0  0  0  0  0  0
    8.7393   10.8706   24.1871 O   0  0  0  0  0  0  0  0  0  0  0  0
    9.3093    3.8166   21.6712 C   0  0  0  0  0  0  0  0  0  0  0  0
  1  5  1  0
  1 15  4  0
  1 22  4  0
  2 20  1  0
  2 24  1  0
  3  6  4  0
  3 27  4  0
  4 22  4  0
  4 26  4  0
  6  7  4  0
  6 13  1  0
  7 19  4  0
  8 18  1  0
  8 23  1  0
  8 28  2  0
  9 17  1  0
  9 24  1  0
 10 11  1  0
 10 24  1  0
 11 23  1  0
 12 14  4  0
 12 16  4  0
 14 19  4  0
 15 18  4  0
 16 20  4  0
 17 25  1  0
 18 26  4  0
 19 29  4  0
 20 29  4  0
 21 23  1  0
 21 25  1  0
 27 29  4  0
M  END
$$$$

 Created by Python create_sdf_string function

 29 32  0  0  0  0  0  0  0  0999 V2000
    5.4450    8.7154   22.6662 C   0  0  0  0  0  0  0  0  0  0  0  0
   10.9154    5.4574   20.5483 C   0  0  0  0  0  0  0  0  0  0  0  0
    7.2709    4.5089   22.7542 C   0  0  0  0  0  0  0  0  0  0  0  0
    5.9698    7.6329   24.6581 C   0  0  0  0  0  0  0  0  0  0  0  0
    4.5542    8.9057   21.7104 O   0  0  0  0  0  0  0  0  0  0  0  0
    6.9895    3.2085   23.0690 C   0  0  0  0  0  0  0  0  0  0  0  0
    7.8391    2.2253   22.7260 N   0  0  0  0  0  0  0  0  0  0  0  0
    8.6968    9.8373   23.6359 C   0  0  0  0  0  0  0  0  0  0  0  0
   12.5135    6.5957   21.8396 C   0  0  0  0  0  0  0  0  0  0  0  0
   10.9406    8.2330   21.1350 C   0  0  0  0  0  0  0  0  0  0  0  0
    9.6648    8.5956   21.7310 C   0  0  0  0  0  0  0  0  0  0  0  0
   10.8829    1.7153   20.9865 C   0  0  0  0  0  0  0  0  0  0  0  0
    5.7768    2.8533   23.7910 C   0  0  0  0  0  0  0  0  0  0  0  0
    9.7977    1.4791   21.6912 N   0  0  0  0  0  0  0  0  0  0  0  0
    6.5976    9.3401   22.6478 N   0  0  0  0  0  0  0  0  0  0  0  0
   11.2031    3.0042   20.6246 C   0  0  0  0  0  0  0  0  0  0  0  0
   12.8688    7.7370   22.7287 C   0  0  0  0  0  0  0  0  0  0  0  0
    7.4487    9.1361   23.6506 C   0  0  0  0  0  0  0  0  0  0  0  0
    8.9772    2.5025   22.0273 C   0  0  0  0  0  0  0  0  0  0  0  0
   10.4859    4.0901   20.9730 C   0  0  0  0  0  0  0  0  0  0  0  0
   11.0962    9.3293   23.5072 C   0  0  0  0  0  0  0  0  0  0  0  0
    5.1273    7.8529   23.6208 N   0  0  0  0  0  0  0  0  0  0  0  0
    9.7552    9.2338   23.0171 N   0  0  0  0  0  0  0  0  0  0  0  0
   11.1797    6.7591   21.3326 N   0  0  0  0  0  0  0  0  0  0  0  0
   11.7728    8.0337   23.7267 C   0  0  0  0  0  0  0  0  0  0  0  0
    7.1194    8.3344   24.6775 C   0  0  0  0  0  0  0  0  0  0  0  0
    8.4311    4.7963   22.0500 C   0  0  0  0  0  0  0  0  0  0  0  0
    8.7393   10.8706   24.1871 O   0  0  0  0  0  0  0  0  0  0  0  0
    9.3093    3.8166   21.6712 C   0  0  0  0  0  0  0  0  0  0  0  0
  1  5  1  0
  1 15  4  0
  1 22  4  0
  2 20  1  0
  2 24  1  0
  3  6  4  0
  3 27  4  0
  4 22  4  0
  4 26  4  0
  6  7  4  0
  6 13  1  0
  7 19  4  0
  8 18  1  0
  8 23  1  0
  8 28  2  0
  9 17  1  0
  9 24  1  0
 10 11  1  0
 10 24  1  0
 11 23  1  0
 12 14  4  0
 12 16  4  0
 14 19  4  0
 15 18  4  0
 16 20  4  0
 17 25  1  0
 18 26  4  0
 19 29  4  0
 20 29  4  0
 21 23  1  0
 21 25  1  0
 27 29  4  0
M  END
$$$$

 Created by Python create_sdf_string function

 29 32  0  0  0  0  0  0  0  0999 V2000
    5.4450    8.7154   22.6662 C   0  0  0  0  0  0  0  0  0  0  0  0
   10.9154    5.4574   20.5483 C   0  0  0  0  0  0  0  0  0  0  0  0
    7.2709    4.5089   22.7542 C   0  0  0  0  0  0  0  0  0  0  0  0
    5.9698    7.6329   24.6581 C   0  0  0  0  0  0  0  0  0  0  0  0
    4.5542    8.9057   21.7104 O   0  0  0  0  0  0  0  0  0  0  0  0
    6.9895    3.2085   23.0690 C   0  0  0  0  0  0  0  0  0  0  0  0
    7.8391    2.2253   22.7260 N   0  0  0  0  0  0  0  0  0  0  0  0
    8.6968    9.8373   23.6359 C   0  0  0  0  0  0  0  0  0  0  0  0
   12.5135    6.5957   21.8396 C   0  0  0  0  0  0  0  0  0  0  0  0
   10.9406    8.2330   21.1350 C   0  0  0  0  0  0  0  0  0  0  0  0
    9.6648    8.5956   21.7310 C   0  0  0  0  0  0  0  0  0  0  0  0
   10.8829    1.7153   20.9865 C   0  0  0  0  0  0  0  0  0  0  0  0
    5.7768    2.8533   23.7910 C   0  0  0  0  0  0  0  0  0  0  0  0
    9.7977    1.4791   21.6912 N   0  0  0  0  0  0  0  0  0  0  0  0
    6.5976    9.3401   22.6478 N   0  0  0  0  0  0  0  0  0  0  0  0
   11.2031    3.0042   20.6246 C   0  0  0  0  0  0  0  0  0  0  0  0
   12.8688    7.7370   22.7287 C   0  0  0  0  0  0  0  0  0  0  0  0
    7.4487    9.1361   23.6506 C   0  0  0  0  0  0  0  0  0  0  0  0
    8.9772    2.5025   22.0273 C   0  0  0  0  0  0  0  0  0  0  0  0
   10.4859    4.0901   20.9730 C   0  0  0  0  0  0  0  0  0  0  0  0
   11.0962    9.3293   23.5072 C   0  0  0  0  0  0  0  0  0  0  0  0
    5.1273    7.8529   23.6208 N   0  0  0  0  0  0  0  0  0  0  0  0
    9.7552    9.2338   23.0171 N   0  0  0  0  0  0  0  0  0  0  0  0
   11.1797    6.7591   21.3326 N   0  0  0  0  0  0  0  0  0  0  0  0
   11.7728    8.0337   23.7267 C   0  0  0  0  0  0  0  0  0  0  0  0
    7.1194    8.3344   24.6775 C   0  0  0  0  0  0  0  0  0  0  0  0
    8.4311    4.7963   22.0500 C   0  0  0  0  0  0  0  0  0  0  0  0
    8.7393   10.8706   24.1871 O   0  0  0  0  0  0  0  0  0  0  0  0
    9.3093    3.8166   21.6712 C   0  0  0  0  0  0  0  0  0  0  0  0
  1  5  1  0
  1 15  4  0
  1 22  4  0
  2 20  1  0
  2 24  1  0
  3  6  4  0
  3 27  4  0
  4 22  4  0
  4 26  4  0
  6  7  4  0
  6 13  1  0
  7 19  4  0
  8 18  1  0
  8 23  1  0
  8 28  2  0
  9 17  1  0
  9 24  1  0
 10 11  1  0
 10 24  1  0
 11 23  1  0
 12 14  4  0
 12 16  4  0
 14 19  4  0
 15 18  4  0
 16 20  4  0
 17 25  1  0
 18 26  4  0
 19 29  4  0
 20 29  4  0
 21 23  1  0
 21 25  1  0
 27 29  4  0
M  END
$$$$

 Created by Python create_sdf_string function

 29 32  0  0  0  0  0  0  0  0999 V2000
    5.4450    8.7154   22.6662 C   0  0  0  0  0  0  0  0  0  0  0  0
   10.9154    5.4574   20.5483 C   0  0  0  0  0  0  0  0  0  0  0  0
    7.2709    4.5089   22.7542 C   0  0  0  0  0  0  0  0  0  0  0  0
    5.9698    7.6329   24.6581 C   0  0  0  0  0  0  0  0  0  0  0  0
    4.5542    8.9057   21.7104 O   0  0  0  0  0  0  0  0  0  0  0  0
    6.9895    3.2085   23.0690 C   0  0  0  0  0  0  0  0  0  0  0  0
    7.8391    2.2253   22.7260 N   0  0  0  0  0  0  0  0  0  0  0  0
    8.6968    9.8373   23.6359 C   0  0  0  0  0  0  0  0  0  0  0  0
   12.5135    6.5957   21.8396 C   0  0  0  0  0  0  0  0  0  0  0  0
   10.9406    8.2330   21.1350 C   0  0  0  0  0  0  0  0  0  0  0  0
    9.6648    8.5956   21.7310 C   0  0  0  0  0  0  0  0  0  0  0  0
   10.8829    1.7153   20.9865 C   0  0  0  0  0  0  0  0  0  0  0  0
    5.7768    2.8533   23.7910 C   0  0  0  0  0  0  0  0  0  0  0  0
    9.7977    1.4791   21.6912 N   0  0  0  0  0  0  0  0  0  0  0  0
    6.5976    9.3401   22.6478 N   0  0  0  0  0  0  0  0  0  0  0  0
   11.2031    3.0042   20.6246 C   0  0  0  0  0  0  0  0  0  0  0  0
   12.8688    7.7370   22.7287 C   0  0  0  0  0  0  0  0  0  0  0  0
    7.4487    9.1361   23.6506 C   0  0  0  0  0  0  0  0  0  0  0  0
    8.9772    2.5025   22.0273 C   0  0  0  0  0  0  0  0  0  0  0  0
   10.4859    4.0901   20.9730 C   0  0  0  0  0  0  0  0  0  0  0  0
   11.0962    9.3293   23.5072 C   0  0  0  0  0  0  0  0  0  0  0  0
    5.1273    7.8529   23.6208 N   0  0  0  0  0  0  0  0  0  0  0  0
    9.7552    9.2338   23.0171 N   0  0  0  0  0  0  0  0  0  0  0  0
   11.1797    6.7591   21.3326 N   0  0  0  0  0  0  0  0  0  0  0  0
   11.7728    8.0337   23.7267 C   0  0  0  0  0  0  0  0  0  0  0  0
    7.1194    8.3344   24.6775 C   0  0  0  0  0  0  0  0  0  0  0  0
    8.4311    4.7963   22.0500 C   0  0  0  0  0  0  0  0  0  0  0  0
    8.7393   10.8706   24.1871 O   0  0  0  0  0  0  0  0  0  0  0  0
    9.3093    3.8166   21.6712 C   0  0  0  0  0  0  0  0  0  0  0  0
  1  5  1  0
  1 15  4  0
  1 22  4  0
  2 20  1  0
  2 24  1  0
  3  6  4  0
  3 27  4  0
  4 22  4  0
  4 26  4  0
  6  7  4  0
  6 13  1  0
  7 19  4  0
  8 18  1  0
  8 23  1  0
  8 28  2  0
  9 17  1  0
  9 24  1  0
 10 11  1  0
 10 24  1  0
 11 23  1  0
 12 14  4  0
 12 16  4  0
 14 19  4  0
 15 18  4  0
 16 20  4  0
 17 25  1  0
 18 26  4  0
 19 29  4  0
 20 29  4  0
 21 23  1  0
 21 25  1  0
 27 29  4  0
M  END
$$$$

 Created by Python create_sdf_string function

 29 32  0  0  0  0  0  0  0  0999 V2000
    5.4450    8.7154   22.6662 C   0  0  0  0  0  0  0  0  0  0  0  0
   10.9154    5.4574   20.5483 C   0  0  0  0  0  0  0  0  0  0  0  0
    7.2709    4.5089   22.7542 C   0  0  0  0  0  0  0  0  0  0  0  0
    5.9698    7.6329   24.6581 C   0  0  0  0  0  0  0  0  0  0  0  0
    4.5542    8.9057   21.7104 O   0  0  0  0  0  0  0  0  0  0  0  0
    6.9895    3.2085   23.0690 C   0  0  0  0  0  0  0  0  0  0  0  0
    7.8391    2.2253   22.7260 N   0  0  0  0  0  0  0  0  0  0  0  0
    8.6968    9.8373   23.6359 C   0  0  0  0  0  0  0  0  0  0  0  0
   12.5135    6.5957   21.8396 C   0  0  0  0  0  0  0  0  0  0  0  0
   10.9406    8.2330   21.1350 C   0  0  0  0  0  0  0  0  0  0  0  0
    9.6648    8.5956   21.7310 C   0  0  0  0  0  0  0  0  0  0  0  0
   10.8829    1.7153   20.9865 C   0  0  0  0  0  0  0  0  0  0  0  0
    5.7768    2.8533   23.7910 C   0  0  0  0  0  0  0  0  0  0  0  0
    9.7977    1.4791   21.6912 N   0  0  0  0  0  0  0  0  0  0  0  0
    6.5976    9.3401   22.6478 N   0  0  0  0  0  0  0  0  0  0  0  0
   11.2031    3.0042   20.6246 C   0  0  0  0  0  0  0  0  0  0  0  0
   12.8688    7.7370   22.7287 C   0  0  0  0  0  0  0  0  0  0  0  0
    7.4487    9.1361   23.6506 C   0  0  0  0  0  0  0  0  0  0  0  0
    8.9772    2.5025   22.0273 C   0  0  0  0  0  0  0  0  0  0  0  0
   10.4859    4.0901   20.9730 C   0  0  0  0  0  0  0  0  0  0  0  0
   11.0962    9.3293   23.5072 C   0  0  0  0  0  0  0  0  0  0  0  0
    5.1273    7.8529   23.6208 N   0  0  0  0  0  0  0  0  0  0  0  0
    9.7552    9.2338   23.0171 N   0  0  0  0  0  0  0  0  0  0  0  0
   11.1797    6.7591   21.3326 N   0  0  0  0  0  0  0  0  0  0  0  0
   11.7728    8.0337   23.7267 C   0  0  0  0  0  0  0  0  0  0  0  0
    7.1194    8.3344   24.6775 C   0  0  0  0  0  0  0  0  0  0  0  0
    8.4311    4.7963   22.0500 C   0  0  0  0  0  0  0  0  0  0  0  0
    8.7393   10.8706   24.1871 O   0  0  0  0  0  0  0  0  0  0  0  0
    9.3093    3.8166   21.6712 C   0  0  0  0  0  0  0  0  0  0  0  0
  1  5  1  0
  1 15  4  0
  1 22  4  0
  2 20  1  0
  2 24  1  0
  3  6  4  0
  3 27  4  0
  4 22  4  0
  4 26  4  0
  6  7  4  0
  6 13  1  0
  7 19  4  0
  8 18  1  0
  8 23  1  0
  8 28  2  0
  9 17  1  0
  9 24  1  0
 10 11  1  0
 10 24  1  0
 11 23  1  0
 12 14  4  0
 12 16  4  0
 14 19  4  0
 15 18  4  0
 16 20  4  0
 17 25  1  0
 18 26  4  0
 19 29  4  0
 20 29  4  0
 21 23  1  0
 21 25  1  0
 27 29  4  0
M  END
$$$$

 Created by Python create_sdf_string function

 29 32  0  0  0  0  0  0  0  0999 V2000
    5.4450    8.7154   22.6662 C   0  0  0  0  0  0  0  0  0  0  0  0
   10.9154    5.4574   20.5483 C   0  0  0  0  0  0  0  0  0  0  0  0
    7.2709    4.5089   22.7542 C   0  0  0  0  0  0  0  0  0  0  0  0
    5.9698    7.6329   24.6581 C   0  0  0  0  0  0  0  0  0  0  0  0
    4.5542    8.9057   21.7104 O   0  0  0  0  0  0  0  0  0  0  0  0
    6.9895    3.2085   23.0690 C   0  0  0  0  0  0  0  0  0  0  0  0
    7.8391    2.2253   22.7260 N   0  0  0  0  0  0  0  0  0  0  0  0
    8.6968    9.8373   23.6359 C   0  0  0  0  0  0  0  0  0  0  0  0
   12.5135    6.5957   21.8396 C   0  0  0  0  0  0  0  0  0  0  0  0
   10.9406    8.2330   21.1350 C   0  0  0  0  0  0  0  0  0  0  0  0
    9.6648    8.5956   21.7310 C   0  0  0  0  0  0  0  0  0  0  0  0
   10.8829    1.7153   20.9865 C   0  0  0  0  0  0  0  0  0  0  0  0
    5.7768    2.8533   23.7910 C   0  0  0  0  0  0  0  0  0  0  0  0
    9.7977    1.4791   21.6912 N   0  0  0  0  0  0  0  0  0  0  0  0
    6.5976    9.3401   22.6478 N   0  0  0  0  0  0  0  0  0  0  0  0
   11.2031    3.0042   20.6246 C   0  0  0  0  0  0  0  0  0  0  0  0
   12.8688    7.7370   22.7287 C   0  0  0  0  0  0  0  0  0  0  0  0
    7.4487    9.1361   23.6506 C   0  0  0  0  0  0  0  0  0  0  0  0
    8.9772    2.5025   22.0273 C   0  0  0  0  0  0  0  0  0  0  0  0
   10.4859    4.0901   20.9730 C   0  0  0  0  0  0  0  0  0  0  0  0
   11.0962    9.3293   23.5072 C   0  0  0  0  0  0  0  0  0  0  0  0
    5.1273    7.8529   23.6208 N   0  0  0  0  0  0  0  0  0  0  0  0
    9.7552    9.2338   23.0171 N   0  0  0  0  0  0  0  0  0  0  0  0
   11.1797    6.7591   21.3326 N   0  0  0  0  0  0  0  0  0  0  0  0
   11.7728    8.0337   23.7267 C   0  0  0  0  0  0  0  0  0  0  0  0
    7.1194    8.3344   24.6775 C   0  0  0  0  0  0  0  0  0  0  0  0
    8.4311    4.7963   22.0500 C   0  0  0  0  0  0  0  0  0  0  0  0
    8.7393   10.8706   24.1871 O   0  0  0  0  0  0  0  0  0  0  0  0
    9.3093    3.8166   21.6712 C   0  0  0  0  0  0  0  0  0  0  0  0
  1  5  1  0
  1 15  4  0
  1 22  4  0
  2 20  1  0
  2 24  1  0
  3  6  4  0
  3 27  4  0
  4 22  4  0
  4 26  4  0
  6  7  4  0
  6 13  1  0
  7 19  4  0
  8 18  1  0
  8 23  1  0
  8 28  2  0
  9 17  1  0
  9 24  1  0
 10 11  1  0
 10 24  1  0
 11 23  1  0
 12 14  4  0
 12 16  4  0
 14 19  4  0
 15 18  4  0
 16 20  4  0
 17 25  1  0
 18 26  4  0
 19 29  4  0
 20 29  4  0
 21 23  1  0
 21 25  1  0
 27 29  4  0
M  END
$$$$

 Created by Python create_sdf_string function

 29 32  0  0  0  0  0  0  0  0999 V2000
    5.4450    8.7154   22.6662 C   0  0  0  0  0  0  0  0  0  0  0  0
   10.9154    5.4574   20.5483 C   0  0  0  0  0  0  0  0  0  0  0  0
    7.2709    4.5089   22.7542 C   0  0  0  0  0  0  0  0  0  0  0  0
    5.9698    7.6329   24.6581 C   0  0  0  0  0  0  0  0  0  0  0  0
    4.5542    8.9057   21.7104 O   0  0  0  0  0  0  0  0  0  0  0  0
    6.9895    3.2085   23.0690 C   0  0  0  0  0  0  0  0  0  0  0  0
    7.8391    2.2253   22.7260 N   0  0  0  0  0  0  0  0  0  0  0  0
    8.6968    9.8373   23.6359 C   0  0  0  0  0  0  0  0  0  0  0  0
   12.5135    6.5957   21.8396 C   0  0  0  0  0  0  0  0  0  0  0  0
   10.9406    8.2330   21.1350 C   0  0  0  0  0  0  0  0  0  0  0  0
    9.6648    8.5956   21.7310 C   0  0  0  0  0  0  0  0  0  0  0  0
   10.8829    1.7153   20.9865 C   0  0  0  0  0  0  0  0  0  0  0  0
    5.7768    2.8533   23.7910 C   0  0  0  0  0  0  0  0  0  0  0  0
    9.7977    1.4791   21.6912 N   0  0  0  0  0  0  0  0  0  0  0  0
    6.5976    9.3401   22.6478 N   0  0  0  0  0  0  0  0  0  0  0  0
   11.2031    3.0042   20.6246 C   0  0  0  0  0  0  0  0  0  0  0  0
   12.8688    7.7370   22.7287 C   0  0  0  0  0  0  0  0  0  0  0  0
    7.4487    9.1361   23.6506 C   0  0  0  0  0  0  0  0  0  0  0  0
    8.9772    2.5025   22.0273 C   0  0  0  0  0  0  0  0  0  0  0  0
   10.4859    4.0901   20.9730 C   0  0  0  0  0  0  0  0  0  0  0  0
   11.0962    9.3293   23.5072 C   0  0  0  0  0  0  0  0  0  0  0  0
    5.1273    7.8529   23.6208 N   0  0  0  0  0  0  0  0  0  0  0  0
    9.7552    9.2338   23.0171 N   0  0  0  0  0  0  0  0  0  0  0  0
   11.1797    6.7591   21.3326 N   0  0  0  0  0  0  0  0  0  0  0  0
   11.7728    8.0337   23.7267 C   0  0  0  0  0  0  0  0  0  0  0  0
    7.1194    8.3344   24.6775 C   0  0  0  0  0  0  0  0  0  0  0  0
    8.4311    4.7963   22.0500 C   0  0  0  0  0  0  0  0  0  0  0  0
    8.7393   10.8706   24.1871 O   0  0  0  0  0  0  0  0  0  0  0  0
    9.3093    3.8166   21.6712 C   0  0  0  0  0  0  0  0  0  0  0  0
  1  5  1  0
  1 15  4  0
  1 22  4  0
  2 20  1  0
  2 24  1  0
  3  6  4  0
  3 27  4  0
  4 22  4  0
  4 26  4  0
  6  7  4  0
  6 13  1  0
  7 19  4  0
  8 18  1  0
  8 23  1  0
  8 28  2  0
  9 17  1  0
  9 24  1  0
 10 11  1  0
 10 24  1  0
 11 23  1  0
 12 14  4  0
 12 16  4  0
 14 19  4  0
 15 18  4  0
 16 20  4  0
 17 25  1  0
 18 26  4  0
 19 29  4  0
 20 29  4  0
 21 23  1  0
 21 25  1  0
 27 29  4  0
M  END
$$$$

 Created by Python create_sdf_string function

 29 32  0  0  0  0  0  0  0  0999 V2000
    5.4450    8.7154   22.6662 C   0  0  0  0  0  0  0  0  0  0  0  0
   10.9154    5.4574   20.5483 C   0  0  0  0  0  0  0  0  0  0  0  0
    7.2709    4.5089   22.7542 C   0  0  0  0  0  0  0  0  0  0  0  0
    5.9698    7.6329   24.6581 C   0  0  0  0  0  0  0  0  0  0  0  0
    4.5542    8.9057   21.7104 O   0  0  0  0  0  0  0  0  0  0  0  0
    6.9895    3.2085   23.0690 C   0  0  0  0  0  0  0  0  0  0  0  0
    7.8391    2.2253   22.7260 N   0  0  0  0  0  0  0  0  0  0  0  0
    8.6968    9.8373   23.6359 C   0  0  0  0  0  0  0  0  0  0  0  0
   12.5135    6.5957   21.8396 C   0  0  0  0  0  0  0  0  0  0  0  0
   10.9406    8.2330   21.1350 C   0  0  0  0  0  0  0  0  0  0  0  0
    9.6648    8.5956   21.7310 C   0  0  0  0  0  0  0  0  0  0  0  0
   10.8829    1.7153   20.9865 C   0  0  0  0  0  0  0  0  0  0  0  0
    5.7768    2.8533   23.7910 C   0  0  0  0  0  0  0  0  0  0  0  0
    9.7977    1.4791   21.6912 N   0  0  0  0  0  0  0  0  0  0  0  0
    6.5976    9.3401   22.6478 N   0  0  0  0  0  0  0  0  0  0  0  0
   11.2031    3.0042   20.6246 C   0  0  0  0  0  0  0  0  0  0  0  0
   12.8688    7.7370   22.7287 C   0  0  0  0  0  0  0  0  0  0  0  0
    7.4487    9.1361   23.6506 C   0  0  0  0  0  0  0  0  0  0  0  0
    8.9772    2.5025   22.0273 C   0  0  0  0  0  0  0  0  0  0  0  0
   10.4859    4.0901   20.9730 C   0  0  0  0  0  0  0  0  0  0  0  0
   11.0962    9.3293   23.5072 C   0  0  0  0  0  0  0  0  0  0  0  0
    5.1273    7.8529   23.6208 N   0  0  0  0  0  0  0  0  0  0  0  0
    9.7552    9.2338   23.0171 N   0  0  0  0  0  0  0  0  0  0  0  0
   11.1797    6.7591   21.3326 N   0  0  0  0  0  0  0  0  0  0  0  0
   11.7728    8.0337   23.7267 C   0  0  0  0  0  0  0  0  0  0  0  0
    7.1194    8.3344   24.6775 C   0  0  0  0  0  0  0  0  0  0  0  0
    8.4311    4.7963   22.0500 C   0  0  0  0  0  0  0  0  0  0  0  0
    8.7393   10.8706   24.1871 O   0  0  0  0  0  0  0  0  0  0  0  0
    9.3093    3.8166   21.6712 C   0  0  0  0  0  0  0  0  0  0  0  0
  1  5  1  0
  1 15  4  0
  1 22  4  0
  2 20  1  0
  2 24  1  0
  3  6  4  0
  3 27  4  0
  4 22  4  0
  4 26  4  0
  6  7  4  0
  6 13  1  0
  7 19  4  0
  8 18  1  0
  8 23  1  0
  8 28  2  0
  9 17  1  0
  9 24  1  0
 10 11  1  0
 10 24  1  0
 11 23  1  0
 12 14  4  0
 12 16  4  0
 14 19  4  0
 15 18  4  0
 16 20  4  0
 17 25  1  0
 18 26  4  0
 19 29  4  0
 20 29  4  0
 21 23  1  0
 21 25  1  0
 27 29  4  0
M  END
$$$$

 Created by Python create_sdf_string function

 29 32  0  0  0  0  0  0  0  0999 V2000
    5.4450    8.7154   22.6662 C   0  0  0  0  0  0  0  0  0  0  0  0
   10.9154    5.4574   20.5483 C   0  0  0  0  0  0  0  0  0  0  0  0
    7.2709    4.5089   22.7542 C   0  0  0  0  0  0  0  0  0  0  0  0
    5.9698    7.6329   24.6581 C   0  0  0  0  0  0  0  0  0  0  0  0
    4.5542    8.9057   21.7104 O   0  0  0  0  0  0  0  0  0  0  0  0
    6.9895    3.2085   23.0690 C   0  0  0  0  0  0  0  0  0  0  0  0
    7.8391    2.2253   22.7260 N   0  0  0  0  0  0  0  0  0  0  0  0
    8.6968    9.8373   23.6359 C   0  0  0  0  0  0  0  0  0  0  0  0
   12.5135    6.5957   21.8396 C   0  0  0  0  0  0  0  0  0  0  0  0
   10.9406    8.2330   21.1350 C   0  0  0  0  0  0  0  0  0  0  0  0
    9.6648    8.5956   21.7310 C   0  0  0  0  0  0  0  0  0  0  0  0
   10.8829    1.7153   20.9865 C   0  0  0  0  0  0  0  0  0  0  0  0
    5.7768    2.8533   23.7910 C   0  0  0  0  0  0  0  0  0  0  0  0
    9.7977    1.4791   21.6912 N   0  0  0  0  0  0  0  0  0  0  0  0
    6.5976    9.3401   22.6478 N   0  0  0  0  0  0  0  0  0  0  0  0
   11.2031    3.0042   20.6246 C   0  0  0  0  0  0  0  0  0  0  0  0
   12.8688    7.7370   22.7287 C   0  0  0  0  0  0  0  0  0  0  0  0
    7.4487    9.1361   23.6506 C   0  0  0  0  0  0  0  0  0  0  0  0
    8.9772    2.5025   22.0273 C   0  0  0  0  0  0  0  0  0  0  0  0
   10.4859    4.0901   20.9730 C   0  0  0  0  0  0  0  0  0  0  0  0
   11.0962    9.3293   23.5072 C   0  0  0  0  0  0  0  0  0  0  0  0
    5.1273    7.8529   23.6208 N   0  0  0  0  0  0  0  0  0  0  0  0
    9.7552    9.2338   23.0171 N   0  0  0  0  0  0  0  0  0  0  0  0
   11.1797    6.7591   21.3326 N   0  0  0  0  0  0  0  0  0  0  0  0
   11.7728    8.0337   23.7267 C   0  0  0  0  0  0  0  0  0  0  0  0
    7.1194    8.3344   24.6775 C   0  0  0  0  0  0  0  0  0  0  0  0
    8.4311    4.7963   22.0500 C   0  0  0  0  0  0  0  0  0  0  0  0
    8.7393   10.8706   24.1871 O   0  0  0  0  0  0  0  0  0  0  0  0
    9.3093    3.8166   21.6712 C   0  0  0  0  0  0  0  0  0  0  0  0
  1  5  1  0
  1 15  4  0
  1 22  4  0
  2 20  1  0
  2 24  1  0
  3  6  4  0
  3 27  4  0
  4 22  4  0
  4 26  4  0
  6  7  4  0
  6 13  1  0
  7 19  4  0
  8 18  1  0
  8 23  1  0
  8 28  2  0
  9 17  1  0
  9 24  1  0
 10 11  1  0
 10 24  1  0
 11 23  1  0
 12 14  4  0
 12 16  4  0
 14 19  4  0
 15 18  4  0
 16 20  4  0
 17 25  1  0
 18 26  4  0
 19 29  4  0
 20 29  4  0
 21 23  1  0
 21 25  1  0
 27 29  4  0
M  END
$$$$

 Created by Python create_sdf_string function

 29 32  0  0  0  0  0  0  0  0999 V2000
    5.4450    8.7154   22.6662 C   0  0  0  0  0  0  0  0  0  0  0  0
   10.9154    5.4574   20.5483 C   0  0  0  0  0  0  0  0  0  0  0  0
    7.2709    4.5089   22.7542 C   0  0  0  0  0  0  0  0  0  0  0  0
    5.9698    7.6329   24.6581 C   0  0  0  0  0  0  0  0  0  0  0  0
    4.5542    8.9057   21.7104 O   0  0  0  0  0  0  0  0  0  0  0  0
    6.9895    3.2085   23.0690 C   0  0  0  0  0  0  0  0  0  0  0  0
    7.8391    2.2253   22.7260 N   0  0  0  0  0  0  0  0  0  0  0  0
    8.6968    9.8373   23.6359 C   0  0  0  0  0  0  0  0  0  0  0  0
   12.5135    6.5957   21.8396 C   0  0  0  0  0  0  0  0  0  0  0  0
   10.9406    8.2330   21.1350 C   0  0  0  0  0  0  0  0  0  0  0  0
    9.6648    8.5956   21.7310 C   0  0  0  0  0  0  0  0  0  0  0  0
   10.8829    1.7153   20.9865 C   0  0  0  0  0  0  0  0  0  0  0  0
    5.7768    2.8533   23.7910 C   0  0  0  0  0  0  0  0  0  0  0  0
    9.7977    1.4791   21.6912 N   0  0  0  0  0  0  0  0  0  0  0  0
    6.5976    9.3401   22.6478 N   0  0  0  0  0  0  0  0  0  0  0  0
   11.2031    3.0042   20.6246 C   0  0  0  0  0  0  0  0  0  0  0  0
   12.8688    7.7370   22.7287 C   0  0  0  0  0  0  0  0  0  0  0  0
    7.4487    9.1361   23.6506 C   0  0  0  0  0  0  0  0  0  0  0  0
    8.9772    2.5025   22.0273 C   0  0  0  0  0  0  0  0  0  0  0  0
   10.4859    4.0901   20.9730 C   0  0  0  0  0  0  0  0  0  0  0  0
   11.0962    9.3293   23.5072 C   0  0  0  0  0  0  0  0  0  0  0  0
    5.1273    7.8529   23.6208 N   0  0  0  0  0  0  0  0  0  0  0  0
    9.7552    9.2338   23.0171 N   0  0  0  0  0  0  0  0  0  0  0  0
   11.1797    6.7591   21.3326 N   0  0  0  0  0  0  0  0  0  0  0  0
   11.7728    8.0337   23.7267 C   0  0  0  0  0  0  0  0  0  0  0  0
    7.1194    8.3344   24.6775 C   0  0  0  0  0  0  0  0  0  0  0  0
    8.4311    4.7963   22.0500 C   0  0  0  0  0  0  0  0  0  0  0  0
    8.7393   10.8706   24.1871 O   0  0  0  0  0  0  0  0  0  0  0  0
    9.3093    3.8166   21.6712 C   0  0  0  0  0  0  0  0  0  0  0  0
  1  5  1  0
  1 15  4  0
  1 22  4  0
  2 20  1  0
  2 24  1  0
  3  6  4  0
  3 27  4  0
  4 22  4  0
  4 26  4  0
  6  7  4  0
  6 13  1  0
  7 19  4  0
  8 18  1  0
  8 23  1  0
  8 28  2  0
  9 17  1  0
  9 24  1  0
 10 11  1  0
 10 24  1  0
 11 23  1  0
 12 14  4  0
 12 16  4  0
 14 19  4  0
 15 18  4  0
 16 20  4  0
 17 25  1  0
 18 26  4  0
 19 29  4  0
 20 29  4  0
 21 23  1  0
 21 25  1  0
 27 29  4  0
M  END
$$$$

 Created by Python create_sdf_string function

 29 32  0  0  0  0  0  0  0  0999 V2000
    5.4450    8.7154   22.6662 C   0  0  0  0  0  0  0  0  0  0  0  0
   10.9154    5.4574   20.5483 C   0  0  0  0  0  0  0  0  0  0  0  0
    7.2709    4.5089   22.7542 C   0  0  0  0  0  0  0  0  0  0  0  0
    5.9698    7.6329   24.6581 C   0  0  0  0  0  0  0  0  0  0  0  0
    4.5542    8.9057   21.7104 O   0  0  0  0  0  0  0  0  0  0  0  0
    6.9895    3.2085   23.0690 C   0  0  0  0  0  0  0  0  0  0  0  0
    7.8391    2.2253   22.7260 N   0  0  0  0  0  0  0  0  0  0  0  0
    8.6968    9.8373   23.6359 C   0  0  0  0  0  0  0  0  0  0  0  0
   12.5135    6.5957   21.8396 C   0  0  0  0  0  0  0  0  0  0  0  0
   10.9406    8.2330   21.1350 C   0  0  0  0  0  0  0  0  0  0  0  0
    9.6648    8.5956   21.7310 C   0  0  0  0  0  0  0  0  0  0  0  0
   10.8829    1.7153   20.9865 C   0  0  0  0  0  0  0  0  0  0  0  0
    5.7768    2.8533   23.7910 C   0  0  0  0  0  0  0  0  0  0  0  0
    9.7977    1.4791   21.6912 N   0  0  0  0  0  0  0  0  0  0  0  0
    6.5976    9.3401   22.6478 N   0  0  0  0  0  0  0  0  0  0  0  0
   11.2031    3.0042   20.6246 C   0  0  0  0  0  0  0  0  0  0  0  0
   12.8688    7.7370   22.7287 C   0  0  0  0  0  0  0  0  0  0  0  0
    7.4487    9.1361   23.6506 C   0  0  0  0  0  0  0  0  0  0  0  0
    8.9772    2.5025   22.0273 C   0  0  0  0  0  0  0  0  0  0  0  0
   10.4859    4.0901   20.9730 C   0  0  0  0  0  0  0  0  0  0  0  0
   11.0962    9.3293   23.5072 C   0  0  0  0  0  0  0  0  0  0  0  0
    5.1273    7.8529   23.6208 N   0  0  0  0  0  0  0  0  0  0  0  0
    9.7552    9.2338   23.0171 N   0  0  0  0  0  0  0  0  0  0  0  0
   11.1797    6.7591   21.3326 N   0  0  0  0  0  0  0  0  0  0  0  0
   11.7728    8.0337   23.7267 C   0  0  0  0  0  0  0  0  0  0  0  0
    7.1194    8.3344   24.6775 C   0  0  0  0  0  0  0  0  0  0  0  0
    8.4311    4.7963   22.0500 C   0  0  0  0  0  0  0  0  0  0  0  0
    8.7393   10.8706   24.1871 O   0  0  0  0  0  0  0  0  0  0  0  0
    9.3093    3.8166   21.6712 C   0  0  0  0  0  0  0  0  0  0  0  0
  1  5  1  0
  1 15  4  0
  1 22  4  0
  2 20  1  0
  2 24  1  0
  3  6  4  0
  3 27  4  0
  4 22  4  0
  4 26  4  0
  6  7  4  0
  6 13  1  0
  7 19  4  0
  8 18  1  0
  8 23  1  0
  8 28  2  0
  9 17  1  0
  9 24  1  0
 10 11  1  0
 10 24  1  0
 11 23  1  0
 12 14  4  0
 12 16  4  0
 14 19  4  0
 15 18  4  0
 16 20  4  0
 17 25  1  0
 18 26  4  0
 19 29  4  0
 20 29  4  0
 21 23  1  0
 21 25  1  0
 27 29  4  0
M  END
$$$$

 Created by Python create_sdf_string function

 29 32  0  0  0  0  0  0  0  0999 V2000
    5.4450    8.7154   22.6662 C   0  0  0  0  0  0  0  0  0  0  0  0
   10.9154    5.4574   20.5483 C   0  0  0  0  0  0  0  0  0  0  0  0
    7.2709    4.5089   22.7542 C   0  0  0  0  0  0  0  0  0  0  0  0
    5.9698    7.6329   24.6581 C   0  0  0  0  0  0  0  0  0  0  0  0
    4.5542    8.9057   21.7104 O   0  0  0  0  0  0  0  0  0  0  0  0
    6.9895    3.2085   23.0690 C   0  0  0  0  0  0  0  0  0  0  0  0
    7.8391    2.2253   22.7260 N   0  0  0  0  0  0  0  0  0  0  0  0
    8.6968    9.8373   23.6359 C   0  0  0  0  0  0  0  0  0  0  0  0
   12.5135    6.5957   21.8396 C   0  0  0  0  0  0  0  0  0  0  0  0
   10.9406    8.2330   21.1350 C   0  0  0  0  0  0  0  0  0  0  0  0
    9.6648    8.5956   21.7310 C   0  0  0  0  0  0  0  0  0  0  0  0
   10.8829    1.7153   20.9865 C   0  0  0  0  0  0  0  0  0  0  0  0
    5.7768    2.8533   23.7910 C   0  0  0  0  0  0  0  0  0  0  0  0
    9.7977    1.4791   21.6912 N   0  0  0  0  0  0  0  0  0  0  0  0
    6.5976    9.3401   22.6478 N   0  0  0  0  0  0  0  0  0  0  0  0
   11.2031    3.0042   20.6246 C   0  0  0  0  0  0  0  0  0  0  0  0
   12.8688    7.7370   22.7287 C   0  0  0  0  0  0  0  0  0  0  0  0
    7.4487    9.1361   23.6506 C   0  0  0  0  0  0  0  0  0  0  0  0
    8.9772    2.5025   22.0273 C   0  0  0  0  0  0  0  0  0  0  0  0
   10.4859    4.0901   20.9730 C   0  0  0  0  0  0  0  0  0  0  0  0
   11.0962    9.3293   23.5072 C   0  0  0  0  0  0  0  0  0  0  0  0
    5.1273    7.8529   23.6208 N   0  0  0  0  0  0  0  0  0  0  0  0
    9.7552    9.2338   23.0171 N   0  0  0  0  0  0  0  0  0  0  0  0
   11.1797    6.7591   21.3326 N   0  0  0  0  0  0  0  0  0  0  0  0
   11.7728    8.0337   23.7267 C   0  0  0  0  0  0  0  0  0  0  0  0
    7.1194    8.3344   24.6775 C   0  0  0  0  0  0  0  0  0  0  0  0
    8.4311    4.7963   22.0500 C   0  0  0  0  0  0  0  0  0  0  0  0
    8.7393   10.8706   24.1871 O   0  0  0  0  0  0  0  0  0  0  0  0
    9.3093    3.8166   21.6712 C   0  0  0  0  0  0  0  0  0  0  0  0
  1  5  1  0
  1 15  4  0
  1 22  4  0
  2 20  1  0
  2 24  1  0
  3  6  4  0
  3 27  4  0
  4 22  4  0
  4 26  4  0
  6  7  4  0
  6 13  1  0
  7 19  4  0
  8 18  1  0
  8 23  1  0
  8 28  2  0
  9 17  1  0
  9 24  1  0
 10 11  1  0
 10 24  1  0
 11 23  1  0
 12 14  4  0
 12 16  4  0
 14 19  4  0
 15 18  4  0
 16 20  4  0
 17 25  1  0
 18 26  4  0
 19 29  4  0
 20 29  4  0
 21 23  1  0
 21 25  1  0
 27 29  4  0
M  END
$$$$

 Created by Python create_sdf_string function

 29 32  0  0  0  0  0  0  0  0999 V2000
    5.4450    8.7154   22.6662 C   0  0  0  0  0  0  0  0  0  0  0  0
   10.9154    5.4574   20.5483 C   0  0  0  0  0  0  0  0  0  0  0  0
    7.2709    4.5089   22.7542 C   0  0  0  0  0  0  0  0  0  0  0  0
    5.9698    7.6329   24.6581 C   0  0  0  0  0  0  0  0  0  0  0  0
    4.5542    8.9057   21.7104 O   0  0  0  0  0  0  0  0  0  0  0  0
    6.9895    3.2085   23.0690 C   0  0  0  0  0  0  0  0  0  0  0  0
    7.8391    2.2253   22.7260 N   0  0  0  0  0  0  0  0  0  0  0  0
    8.6968    9.8373   23.6359 C   0  0  0  0  0  0  0  0  0  0  0  0
   12.5135    6.5957   21.8396 C   0  0  0  0  0  0  0  0  0  0  0  0
   10.9406    8.2330   21.1350 C   0  0  0  0  0  0  0  0  0  0  0  0
    9.6648    8.5956   21.7310 C   0  0  0  0  0  0  0  0  0  0  0  0
   10.8829    1.7153   20.9865 C   0  0  0  0  0  0  0  0  0  0  0  0
    5.7768    2.8533   23.7910 C   0  0  0  0  0  0  0  0  0  0  0  0
    9.7977    1.4791   21.6912 N   0  0  0  0  0  0  0  0  0  0  0  0
    6.5976    9.3401   22.6478 N   0  0  0  0  0  0  0  0  0  0  0  0
   11.2031    3.0042   20.6246 C   0  0  0  0  0  0  0  0  0  0  0  0
   12.8688    7.7370   22.7287 C   0  0  0  0  0  0  0  0  0  0  0  0
    7.4487    9.1361   23.6506 C   0  0  0  0  0  0  0  0  0  0  0  0
    8.9772    2.5025   22.0273 C   0  0  0  0  0  0  0  0  0  0  0  0
   10.4859    4.0901   20.9730 C   0  0  0  0  0  0  0  0  0  0  0  0
   11.0962    9.3293   23.5072 C   0  0  0  0  0  0  0  0  0  0  0  0
    5.1273    7.8529   23.6208 N   0  0  0  0  0  0  0  0  0  0  0  0
    9.7552    9.2338   23.0171 N   0  0  0  0  0  0  0  0  0  0  0  0
   11.1797    6.7591   21.3326 N   0  0  0  0  0  0  0  0  0  0  0  0
   11.7728    8.0337   23.7267 C   0  0  0  0  0  0  0  0  0  0  0  0
    7.1194    8.3344   24.6775 C   0  0  0  0  0  0  0  0  0  0  0  0
    8.4311    4.7963   22.0500 C   0  0  0  0  0  0  0  0  0  0  0  0
    8.7393   10.8706   24.1871 O   0  0  0  0  0  0  0  0  0  0  0  0
    9.3093    3.8166   21.6712 C   0  0  0  0  0  0  0  0  0  0  0  0
  1  5  1  0
  1 15  4  0
  1 22  4  0
  2 20  1  0
  2 24  1  0
  3  6  4  0
  3 27  4  0
  4 22  4  0
  4 26  4  0
  6  7  4  0
  6 13  1  0
  7 19  4  0
  8 18  1  0
  8 23  1  0
  8 28  2  0
  9 17  1  0
  9 24  1  0
 10 11  1  0
 10 24  1  0
 11 23  1  0
 12 14  4  0
 12 16  4  0
 14 19  4  0
 15 18  4  0
 16 20  4  0
 17 25  1  0
 18 26  4  0
 19 29  4  0
 20 29  4  0
 21 23  1  0
 21 25  1  0
 27 29  4  0
M  END
$$$$

 Created by Python create_sdf_string function

 29 32  0  0  0  0  0  0  0  0999 V2000
    5.4450    8.7154   22.6662 C   0  0  0  0  0  0  0  0  0  0  0  0
   10.9154    5.4574   20.5483 C   0  0  0  0  0  0  0  0  0  0  0  0
    7.2709    4.5089   22.7542 C   0  0  0  0  0  0  0  0  0  0  0  0
    5.9698    7.6329   24.6581 C   0  0  0  0  0  0  0  0  0  0  0  0
    4.5542    8.9057   21.7104 O   0  0  0  0  0  0  0  0  0  0  0  0
    6.9895    3.2085   23.0690 C   0  0  0  0  0  0  0  0  0  0  0  0
    7.8391    2.2253   22.7260 N   0  0  0  0  0  0  0  0  0  0  0  0
    8.6968    9.8373   23.6359 C   0  0  0  0  0  0  0  0  0  0  0  0
   12.5135    6.5957   21.8396 C   0  0  0  0  0  0  0  0  0  0  0  0
   10.9406    8.2330   21.1350 C   0  0  0  0  0  0  0  0  0  0  0  0
    9.6648    8.5956   21.7310 C   0  0  0  0  0  0  0  0  0  0  0  0
   10.8829    1.7153   20.9865 C   0  0  0  0  0  0  0  0  0  0  0  0
    5.7768    2.8533   23.7910 C   0  0  0  0  0  0  0  0  0  0  0  0
    9.7977    1.4791   21.6912 N   0  0  0  0  0  0  0  0  0  0  0  0
    6.5976    9.3401   22.6478 N   0  0  0  0  0  0  0  0  0  0  0  0
   11.2031    3.0042   20.6246 C   0  0  0  0  0  0  0  0  0  0  0  0
   12.8688    7.7370   22.7287 C   0  0  0  0  0  0  0  0  0  0  0  0
    7.4487    9.1361   23.6506 C   0  0  0  0  0  0  0  0  0  0  0  0
    8.9772    2.5025   22.0273 C   0  0  0  0  0  0  0  0  0  0  0  0
   10.4859    4.0901   20.9730 C   0  0  0  0  0  0  0  0  0  0  0  0
   11.0962    9.3293   23.5072 C   0  0  0  0  0  0  0  0  0  0  0  0
    5.1273    7.8529   23.6208 N   0  0  0  0  0  0  0  0  0  0  0  0
    9.7552    9.2338   23.0171 N   0  0  0  0  0  0  0  0  0  0  0  0
   11.1797    6.7591   21.3326 N   0  0  0  0  0  0  0  0  0  0  0  0
   11.7728    8.0337   23.7267 C   0  0  0  0  0  0  0  0  0  0  0  0
    7.1194    8.3344   24.6775 C   0  0  0  0  0  0  0  0  0  0  0  0
    8.4311    4.7963   22.0500 C   0  0  0  0  0  0  0  0  0  0  0  0
    8.7393   10.8706   24.1871 O   0  0  0  0  0  0  0  0  0  0  0  0
    9.3093    3.8166   21.6712 C   0  0  0  0  0  0  0  0  0  0  0  0
  1  5  1  0
  1 15  4  0
  1 22  4  0
  2 20  1  0
  2 24  1  0
  3  6  4  0
  3 27  4  0
  4 22  4  0
  4 26  4  0
  6  7  4  0
  6 13  1  0
  7 19  4  0
  8 18  1  0
  8 23  1  0
  8 28  2  0
  9 17  1  0
  9 24  1  0
 10 11  1  0
 10 24  1  0
 11 23  1  0
 12 14  4  0
 12 16  4  0
 14 19  4  0
 15 18  4  0
 16 20  4  0
 17 25  1  0
 18 26  4  0
 19 29  4  0
 20 29  4  0
 21 23  1  0
 21 25  1  0
 27 29  4  0
M  END
$$$$

 Created by Python create_sdf_string function

 29 32  0  0  0  0  0  0  0  0999 V2000
    5.4450    8.7154   22.6662 C   0  0  0  0  0  0  0  0  0  0  0  0
   10.9154    5.4574   20.5483 C   0  0  0  0  0  0  0  0  0  0  0  0
    7.2709    4.5089   22.7542 C   0  0  0  0  0  0  0  0  0  0  0  0
    5.9698    7.6329   24.6581 C   0  0  0  0  0  0  0  0  0  0  0  0
    4.5542    8.9057   21.7104 O   0  0  0  0  0  0  0  0  0  0  0  0
    6.9895    3.2085   23.0690 C   0  0  0  0  0  0  0  0  0  0  0  0
    7.8391    2.2253   22.7260 N   0  0  0  0  0  0  0  0  0  0  0  0
    8.6968    9.8373   23.6359 C   0  0  0  0  0  0  0  0  0  0  0  0
   12.5135    6.5957   21.8396 C   0  0  0  0  0  0  0  0  0  0  0  0
   10.9406    8.2330   21.1350 C   0  0  0  0  0  0  0  0  0  0  0  0
    9.6648    8.5956   21.7310 C   0  0  0  0  0  0  0  0  0  0  0  0
   10.8829    1.7153   20.9865 C   0  0  0  0  0  0  0  0  0  0  0  0
    5.7768    2.8533   23.7910 C   0  0  0  0  0  0  0  0  0  0  0  0
    9.7977    1.4791   21.6912 N   0  0  0  0  0  0  0  0  0  0  0  0
    6.5976    9.3401   22.6478 N   0  0  0  0  0  0  0  0  0  0  0  0
   11.2031    3.0042   20.6246 C   0  0  0  0  0  0  0  0  0  0  0  0
   12.8688    7.7370   22.7287 C   0  0  0  0  0  0  0  0  0  0  0  0
    7.4487    9.1361   23.6506 C   0  0  0  0  0  0  0  0  0  0  0  0
    8.9772    2.5025   22.0273 C   0  0  0  0  0  0  0  0  0  0  0  0
   10.4859    4.0901   20.9730 C   0  0  0  0  0  0  0  0  0  0  0  0
   11.0962    9.3293   23.5072 C   0  0  0  0  0  0  0  0  0  0  0  0
    5.1273    7.8529   23.6208 N   0  0  0  0  0  0  0  0  0  0  0  0
    9.7552    9.2338   23.0171 N   0  0  0  0  0  0  0  0  0  0  0  0
   11.1797    6.7591   21.3326 N   0  0  0  0  0  0  0  0  0  0  0  0
   11.7728    8.0337   23.7267 C   0  0  0  0  0  0  0  0  0  0  0  0
    7.1194    8.3344   24.6775 C   0  0  0  0  0  0  0  0  0  0  0  0
    8.4311    4.7963   22.0500 C   0  0  0  0  0  0  0  0  0  0  0  0
    8.7393   10.8706   24.1871 O   0  0  0  0  0  0  0  0  0  0  0  0
    9.3093    3.8166   21.6712 C   0  0  0  0  0  0  0  0  0  0  0  0
  1  5  1  0
  1 15  4  0
  1 22  4  0
  2 20  1  0
  2 24  1  0
  3  6  4  0
  3 27  4  0
  4 22  4  0
  4 26  4  0
  6  7  4  0
  6 13  1  0
  7 19  4  0
  8 18  1  0
  8 23  1  0
  8 28  2  0
  9 17  1  0
  9 24  1  0
 10 11  1  0
 10 24  1  0
 11 23  1  0
 12 14  4  0
 12 16  4  0
 14 19  4  0
 15 18  4  0
 16 20  4  0
 17 25  1  0
 18 26  4  0
 19 29  4  0
 20 29  4  0
 21 23  1  0
 21 25  1  0
 27 29  4  0
M  END
$$$$

 Created by Python create_sdf_string function

 29 32  0  0  0  0  0  0  0  0999 V2000
    5.4450    8.7154   22.6662 C   0  0  0  0  0  0  0  0  0  0  0  0
   10.9154    5.4574   20.5483 C   0  0  0  0  0  0  0  0  0  0  0  0
    7.2709    4.5089   22.7542 C   0  0  0  0  0  0  0  0  0  0  0  0
    5.9698    7.6329   24.6581 C   0  0  0  0  0  0  0  0  0  0  0  0
    4.5542    8.9057   21.7104 O   0  0  0  0  0  0  0  0  0  0  0  0
    6.9895    3.2085   23.0690 C   0  0  0  0  0  0  0  0  0  0  0  0
    7.8391    2.2253   22.7260 N   0  0  0  0  0  0  0  0  0  0  0  0
    8.6968    9.8373   23.6359 C   0  0  0  0  0  0  0  0  0  0  0  0
   12.5135    6.5957   21.8396 C   0  0  0  0  0  0  0  0  0  0  0  0
   10.9406    8.2330   21.1350 C   0  0  0  0  0  0  0  0  0  0  0  0
    9.6648    8.5956   21.7310 C   0  0  0  0  0  0  0  0  0  0  0  0
   10.8829    1.7153   20.9865 C   0  0  0  0  0  0  0  0  0  0  0  0
    5.7768    2.8533   23.7910 C   0  0  0  0  0  0  0  0  0  0  0  0
    9.7977    1.4791   21.6912 N   0  0  0  0  0  0  0  0  0  0  0  0
    6.5976    9.3401   22.6478 N   0  0  0  0  0  0  0  0  0  0  0  0
   11.2031    3.0042   20.6246 C   0  0  0  0  0  0  0  0  0  0  0  0
   12.8688    7.7370   22.7287 C   0  0  0  0  0  0  0  0  0  0  0  0
    7.4487    9.1361   23.6506 C   0  0  0  0  0  0  0  0  0  0  0  0
    8.9772    2.5025   22.0273 C   0  0  0  0  0  0  0  0  0  0  0  0
   10.4859    4.0901   20.9730 C   0  0  0  0  0  0  0  0  0  0  0  0
   11.0962    9.3293   23.5072 C   0  0  0  0  0  0  0  0  0  0  0  0
    5.1273    7.8529   23.6208 N   0  0  0  0  0  0  0  0  0  0  0  0
    9.7552    9.2338   23.0171 N   0  0  0  0  0  0  0  0  0  0  0  0
   11.1797    6.7591   21.3326 N   0  0  0  0  0  0  0  0  0  0  0  0
   11.7728    8.0337   23.7267 C   0  0  0  0  0  0  0  0  0  0  0  0
    7.1194    8.3344   24.6775 C   0  0  0  0  0  0  0  0  0  0  0  0
    8.4311    4.7963   22.0500 C   0  0  0  0  0  0  0  0  0  0  0  0
    8.7393   10.8706   24.1871 O   0  0  0  0  0  0  0  0  0  0  0  0
    9.3093    3.8166   21.6712 C   0  0  0  0  0  0  0  0  0  0  0  0
  1  5  1  0
  1 15  4  0
  1 22  4  0
  2 20  1  0
  2 24  1  0
  3  6  4  0
  3 27  4  0
  4 22  4  0
  4 26  4  0
  6  7  4  0
  6 13  1  0
  7 19  4  0
  8 18  1  0
  8 23  1  0
  8 28  2  0
  9 17  1  0
  9 24  1  0
 10 11  1  0
 10 24  1  0
 11 23  1  0
 12 14  4  0
 12 16  4  0
 14 19  4  0
 15 18  4  0
 16 20  4  0
 17 25  1  0
 18 26  4  0
 19 29  4  0
 20 29  4  0
 21 23  1  0
 21 25  1  0
 27 29  4  0
M  END
$$$$

 Created by Python create_sdf_string function

 29 32  0  0  0  0  0  0  0  0999 V2000
    5.4450    8.7154   22.6662 C   0  0  0  0  0  0  0  0  0  0  0  0
   10.9154    5.4574   20.5483 C   0  0  0  0  0  0  0  0  0  0  0  0
    7.2709    4.5089   22.7542 C   0  0  0  0  0  0  0  0  0  0  0  0
    5.9698    7.6329   24.6581 C   0  0  0  0  0  0  0  0  0  0  0  0
    4.5542    8.9057   21.7104 O   0  0  0  0  0  0  0  0  0  0  0  0
    6.9895    3.2085   23.0690 C   0  0  0  0  0  0  0  0  0  0  0  0
    7.8391    2.2253   22.7260 N   0  0  0  0  0  0  0  0  0  0  0  0
    8.6968    9.8373   23.6359 C   0  0  0  0  0  0  0  0  0  0  0  0
   12.5135    6.5957   21.8396 C   0  0  0  0  0  0  0  0  0  0  0  0
   10.9406    8.2330   21.1350 C   0  0  0  0  0  0  0  0  0  0  0  0
    9.6648    8.5956   21.7310 C   0  0  0  0  0  0  0  0  0  0  0  0
   10.8829    1.7153   20.9865 C   0  0  0  0  0  0  0  0  0  0  0  0
    5.7768    2.8533   23.7910 C   0  0  0  0  0  0  0  0  0  0  0  0
    9.7977    1.4791   21.6912 N   0  0  0  0  0  0  0  0  0  0  0  0
    6.5976    9.3401   22.6478 N   0  0  0  0  0  0  0  0  0  0  0  0
   11.2031    3.0042   20.6246 C   0  0  0  0  0  0  0  0  0  0  0  0
   12.8688    7.7370   22.7287 C   0  0  0  0  0  0  0  0  0  0  0  0
    7.4487    9.1361   23.6506 C   0  0  0  0  0  0  0  0  0  0  0  0
    8.9772    2.5025   22.0273 C   0  0  0  0  0  0  0  0  0  0  0  0
   10.4859    4.0901   20.9730 C   0  0  0  0  0  0  0  0  0  0  0  0
   11.0962    9.3293   23.5072 C   0  0  0  0  0  0  0  0  0  0  0  0
    5.1273    7.8529   23.6208 N   0  0  0  0  0  0  0  0  0  0  0  0
    9.7552    9.2338   23.0171 N   0  0  0  0  0  0  0  0  0  0  0  0
   11.1797    6.7591   21.3326 N   0  0  0  0  0  0  0  0  0  0  0  0
   11.7728    8.0337   23.7267 C   0  0  0  0  0  0  0  0  0  0  0  0
    7.1194    8.3344   24.6775 C   0  0  0  0  0  0  0  0  0  0  0  0
    8.4311    4.7963   22.0500 C   0  0  0  0  0  0  0  0  0  0  0  0
    8.7393   10.8706   24.1871 O   0  0  0  0  0  0  0  0  0  0  0  0
    9.3093    3.8166   21.6712 C   0  0  0  0  0  0  0  0  0  0  0  0
  1  5  1  0
  1 15  4  0
  1 22  4  0
  2 20  1  0
  2 24  1  0
  3  6  4  0
  3 27  4  0
  4 22  4  0
  4 26  4  0
  6  7  4  0
  6 13  1  0
  7 19  4  0
  8 18  1  0
  8 23  1  0
  8 28  2  0
  9 17  1  0
  9 24  1  0
 10 11  1  0
 10 24  1  0
 11 23  1  0
 12 14  4  0
 12 16  4  0
 14 19  4  0
 15 18  4  0
 16 20  4  0
 17 25  1  0
 18 26  4  0
 19 29  4  0
 20 29  4  0
 21 23  1  0
 21 25  1  0
 27 29  4  0
M  END
$$$$

 Created by Python create_sdf_string function

 29 32  0  0  0  0  0  0  0  0999 V2000
    5.4450    8.7154   22.6662 C   0  0  0  0  0  0  0  0  0  0  0  0
   10.9154    5.4574   20.5483 C   0  0  0  0  0  0  0  0  0  0  0  0
    7.2709    4.5089   22.7542 C   0  0  0  0  0  0  0  0  0  0  0  0
    5.9698    7.6329   24.6581 C   0  0  0  0  0  0  0  0  0  0  0  0
    4.5542    8.9057   21.7104 O   0  0  0  0  0  0  0  0  0  0  0  0
    6.9895    3.2085   23.0690 C   0  0  0  0  0  0  0  0  0  0  0  0
    7.8391    2.2253   22.7260 N   0  0  0  0  0  0  0  0  0  0  0  0
    8.6968    9.8373   23.6359 C   0  0  0  0  0  0  0  0  0  0  0  0
   12.5135    6.5957   21.8396 C   0  0  0  0  0  0  0  0  0  0  0  0
   10.9406    8.2330   21.1350 C   0  0  0  0  0  0  0  0  0  0  0  0
    9.6648    8.5956   21.7310 C   0  0  0  0  0  0  0  0  0  0  0  0
   10.8829    1.7153   20.9865 C   0  0  0  0  0  0  0  0  0  0  0  0
    5.7768    2.8533   23.7910 C   0  0  0  0  0  0  0  0  0  0  0  0
    9.7977    1.4791   21.6912 N   0  0  0  0  0  0  0  0  0  0  0  0
    6.5976    9.3401   22.6478 N   0  0  0  0  0  0  0  0  0  0  0  0
   11.2031    3.0042   20.6246 C   0  0  0  0  0  0  0  0  0  0  0  0
   12.8688    7.7370   22.7287 C   0  0  0  0  0  0  0  0  0  0  0  0
    7.4487    9.1361   23.6506 C   0  0  0  0  0  0  0  0  0  0  0  0
    8.9772    2.5025   22.0273 C   0  0  0  0  0  0  0  0  0  0  0  0
   10.4859    4.0901   20.9730 C   0  0  0  0  0  0  0  0  0  0  0  0
   11.0962    9.3293   23.5072 C   0  0  0  0  0  0  0  0  0  0  0  0
    5.1273    7.8529   23.6208 N   0  0  0  0  0  0  0  0  0  0  0  0
    9.7552    9.2338   23.0171 N   0  0  0  0  0  0  0  0  0  0  0  0
   11.1797    6.7591   21.3326 N   0  0  0  0  0  0  0  0  0  0  0  0
   11.7728    8.0337   23.7267 C   0  0  0  0  0  0  0  0  0  0  0  0
    7.1194    8.3344   24.6775 C   0  0  0  0  0  0  0  0  0  0  0  0
    8.4311    4.7963   22.0500 C   0  0  0  0  0  0  0  0  0  0  0  0
    8.7393   10.8706   24.1871 O   0  0  0  0  0  0  0  0  0  0  0  0
    9.3093    3.8166   21.6712 C   0  0  0  0  0  0  0  0  0  0  0  0
  1  5  1  0
  1 15  4  0
  1 22  4  0
  2 20  1  0
  2 24  1  0
  3  6  4  0
  3 27  4  0
  4 22  4  0
  4 26  4  0
  6  7  4  0
  6 13  1  0
  7 19  4  0
  8 18  1  0
  8 23  1  0
  8 28  2  0
  9 17  1  0
  9 24  1  0
 10 11  1  0
 10 24  1  0
 11 23  1  0
 12 14  4  0
 12 16  4  0
 14 19  4  0
 15 18  4  0
 16 20  4  0
 17 25  1  0
 18 26  4  0
 19 29  4  0
 20 29  4  0
 21 23  1  0
 21 25  1  0
 27 29  4  0
M  END
$$$$

 Created by Python create_sdf_string function

 29 32  0  0  0  0  0  0  0  0999 V2000
    5.4450    8.7154   22.6662 C   0  0  0  0  0  0  0  0  0  0  0  0
   10.9154    5.4574   20.5483 C   0  0  0  0  0  0  0  0  0  0  0  0
    7.2709    4.5089   22.7542 C   0  0  0  0  0  0  0  0  0  0  0  0
    5.9698    7.6329   24.6581 C   0  0  0  0  0  0  0  0  0  0  0  0
    4.5542    8.9057   21.7104 O   0  0  0  0  0  0  0  0  0  0  0  0
    6.9895    3.2085   23.0690 C   0  0  0  0  0  0  0  0  0  0  0  0
    7.8391    2.2253   22.7260 N   0  0  0  0  0  0  0  0  0  0  0  0
    8.6968    9.8373   23.6359 C   0  0  0  0  0  0  0  0  0  0  0  0
   12.5135    6.5957   21.8396 C   0  0  0  0  0  0  0  0  0  0  0  0
   10.9406    8.2330   21.1350 C   0  0  0  0  0  0  0  0  0  0  0  0
    9.6648    8.5956   21.7310 C   0  0  0  0  0  0  0  0  0  0  0  0
   10.8829    1.7153   20.9865 C   0  0  0  0  0  0  0  0  0  0  0  0
    5.7768    2.8533   23.7910 C   0  0  0  0  0  0  0  0  0  0  0  0
    9.7977    1.4791   21.6912 N   0  0  0  0  0  0  0  0  0  0  0  0
    6.5976    9.3401   22.6478 N   0  0  0  0  0  0  0  0  0  0  0  0
   11.2031    3.0042   20.6246 C   0  0  0  0  0  0  0  0  0  0  0  0
   12.8688    7.7370   22.7287 C   0  0  0  0  0  0  0  0  0  0  0  0
    7.4487    9.1361   23.6506 C   0  0  0  0  0  0  0  0  0  0  0  0
    8.9772    2.5025   22.0273 C   0  0  0  0  0  0  0  0  0  0  0  0
   10.4859    4.0901   20.9730 C   0  0  0  0  0  0  0  0  0  0  0  0
   11.0962    9.3293   23.5072 C   0  0  0  0  0  0  0  0  0  0  0  0
    5.1273    7.8529   23.6208 N   0  0  0  0  0  0  0  0  0  0  0  0
    9.7552    9.2338   23.0171 N   0  0  0  0  0  0  0  0  0  0  0  0
   11.1797    6.7591   21.3326 N   0  0  0  0  0  0  0  0  0  0  0  0
   11.7728    8.0337   23.7267 C   0  0  0  0  0  0  0  0  0  0  0  0
    7.1194    8.3344   24.6775 C   0  0  0  0  0  0  0  0  0  0  0  0
    8.4311    4.7963   22.0500 C   0  0  0  0  0  0  0  0  0  0  0  0
    8.7393   10.8706   24.1871 O   0  0  0  0  0  0  0  0  0  0  0  0
    9.3093    3.8166   21.6712 C   0  0  0  0  0  0  0  0  0  0  0  0
  1  5  1  0
  1 15  4  0
  1 22  4  0
  2 20  1  0
  2 24  1  0
  3  6  4  0
  3 27  4  0
  4 22  4  0
  4 26  4  0
  6  7  4  0
  6 13  1  0
  7 19  4  0
  8 18  1  0
  8 23  1  0
  8 28  2  0
  9 17  1  0
  9 24  1  0
 10 11  1  0
 10 24  1  0
 11 23  1  0
 12 14  4  0
 12 16  4  0
 14 19  4  0
 15 18  4  0
 16 20  4  0
 17 25  1  0
 18 26  4  0
 19 29  4  0
 20 29  4  0
 21 23  1  0
 21 25  1  0
 27 29  4  0
M  END
$$$$

 Created by Python create_sdf_string function

 29 32  0  0  0  0  0  0  0  0999 V2000
    5.4450    8.7154   22.6662 C   0  0  0  0  0  0  0  0  0  0  0  0
   10.9154    5.4574   20.5483 C   0  0  0  0  0  0  0  0  0  0  0  0
    7.2709    4.5089   22.7542 C   0  0  0  0  0  0  0  0  0  0  0  0
    5.9698    7.6329   24.6581 C   0  0  0  0  0  0  0  0  0  0  0  0
    4.5542    8.9057   21.7104 O   0  0  0  0  0  0  0  0  0  0  0  0
    6.9895    3.2085   23.0690 C   0  0  0  0  0  0  0  0  0  0  0  0
    7.8391    2.2253   22.7260 N   0  0  0  0  0  0  0  0  0  0  0  0
    8.6968    9.8373   23.6359 C   0  0  0  0  0  0  0  0  0  0  0  0
   12.5135    6.5957   21.8396 C   0  0  0  0  0  0  0  0  0  0  0  0
   10.9406    8.2330   21.1350 C   0  0  0  0  0  0  0  0  0  0  0  0
    9.6648    8.5956   21.7310 C   0  0  0  0  0  0  0  0  0  0  0  0
   10.8829    1.7153   20.9865 C   0  0  0  0  0  0  0  0  0  0  0  0
    5.7768    2.8533   23.7910 C   0  0  0  0  0  0  0  0  0  0  0  0
    9.7977    1.4791   21.6912 N   0  0  0  0  0  0  0  0  0  0  0  0
    6.5976    9.3401   22.6478 N   0  0  0  0  0  0  0  0  0  0  0  0
   11.2031    3.0042   20.6246 C   0  0  0  0  0  0  0  0  0  0  0  0
   12.8688    7.7370   22.7287 C   0  0  0  0  0  0  0  0  0  0  0  0
    7.4487    9.1361   23.6506 C   0  0  0  0  0  0  0  0  0  0  0  0
    8.9772    2.5025   22.0273 C   0  0  0  0  0  0  0  0  0  0  0  0
   10.4859    4.0901   20.9730 C   0  0  0  0  0  0  0  0  0  0  0  0
   11.0962    9.3293   23.5072 C   0  0  0  0  0  0  0  0  0  0  0  0
    5.1273    7.8529   23.6208 N   0  0  0  0  0  0  0  0  0  0  0  0
    9.7552    9.2338   23.0171 N   0  0  0  0  0  0  0  0  0  0  0  0
   11.1797    6.7591   21.3326 N   0  0  0  0  0  0  0  0  0  0  0  0
   11.7728    8.0337   23.7267 C   0  0  0  0  0  0  0  0  0  0  0  0
    7.1194    8.3344   24.6775 C   0  0  0  0  0  0  0  0  0  0  0  0
    8.4311    4.7963   22.0500 C   0  0  0  0  0  0  0  0  0  0  0  0
    8.7393   10.8706   24.1871 O   0  0  0  0  0  0  0  0  0  0  0  0
    9.3093    3.8166   21.6712 C   0  0  0  0  0  0  0  0  0  0  0  0
  1  5  1  0
  1 15  4  0
  1 22  4  0
  2 20  1  0
  2 24  1  0
  3  6  4  0
  3 27  4  0
  4 22  4  0
  4 26  4  0
  6  7  4  0
  6 13  1  0
  7 19  4  0
  8 18  1  0
  8 23  1  0
  8 28  2  0
  9 17  1  0
  9 24  1  0
 10 11  1  0
 10 24  1  0
 11 23  1  0
 12 14  4  0
 12 16  4  0
 14 19  4  0
 15 18  4  0
 16 20  4  0
 17 25  1  0
 18 26  4  0
 19 29  4  0
 20 29  4  0
 21 23  1  0
 21 25  1  0
 27 29  4  0
M  END
$$$$

 Created by Python create_sdf_string function

 29 32  0  0  0  0  0  0  0  0999 V2000
    5.4450    8.7154   22.6662 C   0  0  0  0  0  0  0  0  0  0  0  0
   10.9154    5.4574   20.5483 C   0  0  0  0  0  0  0  0  0  0  0  0
    7.2709    4.5089   22.7542 C   0  0  0  0  0  0  0  0  0  0  0  0
    5.9698    7.6329   24.6581 C   0  0  0  0  0  0  0  0  0  0  0  0
    4.5542    8.9057   21.7104 O   0  0  0  0  0  0  0  0  0  0  0  0
    6.9895    3.2085   23.0690 C   0  0  0  0  0  0  0  0  0  0  0  0
    7.8391    2.2253   22.7260 N   0  0  0  0  0  0  0  0  0  0  0  0
    8.6968    9.8373   23.6359 C   0  0  0  0  0  0  0  0  0  0  0  0
   12.5135    6.5957   21.8396 C   0  0  0  0  0  0  0  0  0  0  0  0
   10.9406    8.2330   21.1350 C   0  0  0  0  0  0  0  0  0  0  0  0
    9.6648    8.5956   21.7310 C   0  0  0  0  0  0  0  0  0  0  0  0
   10.8829    1.7153   20.9865 C   0  0  0  0  0  0  0  0  0  0  0  0
    5.7768    2.8533   23.7910 C   0  0  0  0  0  0  0  0  0  0  0  0
    9.7977    1.4791   21.6912 N   0  0  0  0  0  0  0  0  0  0  0  0
    6.5976    9.3401   22.6478 N   0  0  0  0  0  0  0  0  0  0  0  0
   11.2031    3.0042   20.6246 C   0  0  0  0  0  0  0  0  0  0  0  0
   12.8688    7.7370   22.7287 C   0  0  0  0  0  0  0  0  0  0  0  0
    7.4487    9.1361   23.6506 C   0  0  0  0  0  0  0  0  0  0  0  0
    8.9772    2.5025   22.0273 C   0  0  0  0  0  0  0  0  0  0  0  0
   10.4859    4.0901   20.9730 C   0  0  0  0  0  0  0  0  0  0  0  0
   11.0962    9.3293   23.5072 C   0  0  0  0  0  0  0  0  0  0  0  0
    5.1273    7.8529   23.6208 N   0  0  0  0  0  0  0  0  0  0  0  0
    9.7552    9.2338   23.0171 N   0  0  0  0  0  0  0  0  0  0  0  0
   11.1797    6.7591   21.3326 N   0  0  0  0  0  0  0  0  0  0  0  0
   11.7728    8.0337   23.7267 C   0  0  0  0  0  0  0  0  0  0  0  0
    7.1194    8.3344   24.6775 C   0  0  0  0  0  0  0  0  0  0  0  0
    8.4311    4.7963   22.0500 C   0  0  0  0  0  0  0  0  0  0  0  0
    8.7393   10.8706   24.1871 O   0  0  0  0  0  0  0  0  0  0  0  0
    9.3093    3.8166   21.6712 C   0  0  0  0  0  0  0  0  0  0  0  0
  1  5  1  0
  1 15  4  0
  1 22  4  0
  2 20  1  0
  2 24  1  0
  3  6  4  0
  3 27  4  0
  4 22  4  0
  4 26  4  0
  6  7  4  0
  6 13  1  0
  7 19  4  0
  8 18  1  0
  8 23  1  0
  8 28  2  0
  9 17  1  0
  9 24  1  0
 10 11  1  0
 10 24  1  0
 11 23  1  0
 12 14  4  0
 12 16  4  0
 14 19  4  0
 15 18  4  0
 16 20  4  0
 17 25  1  0
 18 26  4  0
 19 29  4  0
 20 29  4  0
 21 23  1  0
 21 25  1  0
 27 29  4  0
M  END
$$$$

 Created by Python create_sdf_string function

 29 32  0  0  0  0  0  0  0  0999 V2000
    5.4450    8.7154   22.6662 C   0  0  0  0  0  0  0  0  0  0  0  0
   10.9154    5.4574   20.5483 C   0  0  0  0  0  0  0  0  0  0  0  0
    7.2709    4.5089   22.7542 C   0  0  0  0  0  0  0  0  0  0  0  0
    5.9698    7.6329   24.6581 C   0  0  0  0  0  0  0  0  0  0  0  0
    4.5542    8.9057   21.7104 O   0  0  0  0  0  0  0  0  0  0  0  0
    6.9895    3.2085   23.0690 C   0  0  0  0  0  0  0  0  0  0  0  0
    7.8391    2.2253   22.7260 N   0  0  0  0  0  0  0  0  0  0  0  0
    8.6968    9.8373   23.6359 C   0  0  0  0  0  0  0  0  0  0  0  0
   12.5135    6.5957   21.8396 C   0  0  0  0  0  0  0  0  0  0  0  0
   10.9406    8.2330   21.1350 C   0  0  0  0  0  0  0  0  0  0  0  0
    9.6648    8.5956   21.7310 C   0  0  0  0  0  0  0  0  0  0  0  0
   10.8829    1.7153   20.9865 C   0  0  0  0  0  0  0  0  0  0  0  0
    5.7768    2.8533   23.7910 C   0  0  0  0  0  0  0  0  0  0  0  0
    9.7977    1.4791   21.6912 N   0  0  0  0  0  0  0  0  0  0  0  0
    6.5976    9.3401   22.6478 N   0  0  0  0  0  0  0  0  0  0  0  0
   11.2031    3.0042   20.6246 C   0  0  0  0  0  0  0  0  0  0  0  0
   12.8688    7.7370   22.7287 C   0  0  0  0  0  0  0  0  0  0  0  0
    7.4487    9.1361   23.6506 C   0  0  0  0  0  0  0  0  0  0  0  0
    8.9772    2.5025   22.0273 C   0  0  0  0  0  0  0  0  0  0  0  0
   10.4859    4.0901   20.9730 C   0  0  0  0  0  0  0  0  0  0  0  0
   11.0962    9.3293   23.5072 C   0  0  0  0  0  0  0  0  0  0  0  0
    5.1273    7.8529   23.6208 N   0  0  0  0  0  0  0  0  0  0  0  0
    9.7552    9.2338   23.0171 N   0  0  0  0  0  0  0  0  0  0  0  0
   11.1797    6.7591   21.3326 N   0  0  0  0  0  0  0  0  0  0  0  0
   11.7728    8.0337   23.7267 C   0  0  0  0  0  0  0  0  0  0  0  0
    7.1194    8.3344   24.6775 C   0  0  0  0  0  0  0  0  0  0  0  0
    8.4311    4.7963   22.0500 C   0  0  0  0  0  0  0  0  0  0  0  0
    8.7393   10.8706   24.1871 O   0  0  0  0  0  0  0  0  0  0  0  0
    9.3093    3.8166   21.6712 C   0  0  0  0  0  0  0  0  0  0  0  0
  1  5  1  0
  1 15  4  0
  1 22  4  0
  2 20  1  0
  2 24  1  0
  3  6  4  0
  3 27  4  0
  4 22  4  0
  4 26  4  0
  6  7  4  0
  6 13  1  0
  7 19  4  0
  8 18  1  0
  8 23  1  0
  8 28  2  0
  9 17  1  0
  9 24  1  0
 10 11  1  0
 10 24  1  0
 11 23  1  0
 12 14  4  0
 12 16  4  0
 14 19  4  0
 15 18  4  0
 16 20  4  0
 17 25  1  0
 18 26  4  0
 19 29  4  0
 20 29  4  0
 21 23  1  0
 21 25  1  0
 27 29  4  0
M  END
$$$$

 Created by Python create_sdf_string function

 29 32  0  0  0  0  0  0  0  0999 V2000
    5.4450    8.7154   22.6662 C   0  0  0  0  0  0  0  0  0  0  0  0
   10.9154    5.4574   20.5483 C   0  0  0  0  0  0  0  0  0  0  0  0
    7.2709    4.5089   22.7542 C   0  0  0  0  0  0  0  0  0  0  0  0
    5.9698    7.6329   24.6581 C   0  0  0  0  0  0  0  0  0  0  0  0
    4.5542    8.9057   21.7104 O   0  0  0  0  0  0  0  0  0  0  0  0
    6.9895    3.2085   23.0690 C   0  0  0  0  0  0  0  0  0  0  0  0
    7.8391    2.2253   22.7260 N   0  0  0  0  0  0  0  0  0  0  0  0
    8.6968    9.8373   23.6359 C   0  0  0  0  0  0  0  0  0  0  0  0
   12.5135    6.5957   21.8396 C   0  0  0  0  0  0  0  0  0  0  0  0
   10.9406    8.2330   21.1350 C   0  0  0  0  0  0  0  0  0  0  0  0
    9.6648    8.5956   21.7310 C   0  0  0  0  0  0  0  0  0  0  0  0
   10.8829    1.7153   20.9865 C   0  0  0  0  0  0  0  0  0  0  0  0
    5.7768    2.8533   23.7910 C   0  0  0  0  0  0  0  0  0  0  0  0
    9.7977    1.4791   21.6912 N   0  0  0  0  0  0  0  0  0  0  0  0
    6.5976    9.3401   22.6478 N   0  0  0  0  0  0  0  0  0  0  0  0
   11.2031    3.0042   20.6246 C   0  0  0  0  0  0  0  0  0  0  0  0
   12.8688    7.7370   22.7287 C   0  0  0  0  0  0  0  0  0  0  0  0
    7.4487    9.1361   23.6506 C   0  0  0  0  0  0  0  0  0  0  0  0
    8.9772    2.5025   22.0273 C   0  0  0  0  0  0  0  0  0  0  0  0
   10.4859    4.0901   20.9730 C   0  0  0  0  0  0  0  0  0  0  0  0
   11.0962    9.3293   23.5072 C   0  0  0  0  0  0  0  0  0  0  0  0
    5.1273    7.8529   23.6208 N   0  0  0  0  0  0  0  0  0  0  0  0
    9.7552    9.2338   23.0171 N   0  0  0  0  0  0  0  0  0  0  0  0
   11.1797    6.7591   21.3326 N   0  0  0  0  0  0  0  0  0  0  0  0
   11.7728    8.0337   23.7267 C   0  0  0  0  0  0  0  0  0  0  0  0
    7.1194    8.3344   24.6775 C   0  0  0  0  0  0  0  0  0  0  0  0
    8.4311    4.7963   22.0500 C   0  0  0  0  0  0  0  0  0  0  0  0
    8.7393   10.8706   24.1871 O   0  0  0  0  0  0  0  0  0  0  0  0
    9.3093    3.8166   21.6712 C   0  0  0  0  0  0  0  0  0  0  0  0
  1  5  1  0
  1 15  4  0
  1 22  4  0
  2 20  1  0
  2 24  1  0
  3  6  4  0
  3 27  4  0
  4 22  4  0
  4 26  4  0
  6  7  4  0
  6 13  1  0
  7 19  4  0
  8 18  1  0
  8 23  1  0
  8 28  2  0
  9 17  1  0
  9 24  1  0
 10 11  1  0
 10 24  1  0
 11 23  1  0
 12 14  4  0
 12 16  4  0
 14 19  4  0
 15 18  4  0
 16 20  4  0
 17 25  1  0
 18 26  4  0
 19 29  4  0
 20 29  4  0
 21 23  1  0
 21 25  1  0
 27 29  4  0
M  END
$$$$

 Created by Python create_sdf_string function

 29 32  0  0  0  0  0  0  0  0999 V2000
    5.4450    8.7154   22.6662 C   0  0  0  0  0  0  0  0  0  0  0  0
   10.9154    5.4574   20.5483 C   0  0  0  0  0  0  0  0  0  0  0  0
    7.2709    4.5089   22.7542 C   0  0  0  0  0  0  0  0  0  0  0  0
    5.9698    7.6329   24.6581 C   0  0  0  0  0  0  0  0  0  0  0  0
    4.5542    8.9057   21.7104 O   0  0  0  0  0  0  0  0  0  0  0  0
    6.9895    3.2085   23.0690 C   0  0  0  0  0  0  0  0  0  0  0  0
    7.8391    2.2253   22.7260 N   0  0  0  0  0  0  0  0  0  0  0  0
    8.6968    9.8373   23.6359 C   0  0  0  0  0  0  0  0  0  0  0  0
   12.5135    6.5957   21.8396 C   0  0  0  0  0  0  0  0  0  0  0  0
   10.9406    8.2330   21.1350 C   0  0  0  0  0  0  0  0  0  0  0  0
    9.6648    8.5956   21.7310 C   0  0  0  0  0  0  0  0  0  0  0  0
   10.8829    1.7153   20.9865 C   0  0  0  0  0  0  0  0  0  0  0  0
    5.7768    2.8533   23.7910 C   0  0  0  0  0  0  0  0  0  0  0  0
    9.7977    1.4791   21.6912 N   0  0  0  0  0  0  0  0  0  0  0  0
    6.5976    9.3401   22.6478 N   0  0  0  0  0  0  0  0  0  0  0  0
   11.2031    3.0042   20.6246 C   0  0  0  0  0  0  0  0  0  0  0  0
   12.8688    7.7370   22.7287 C   0  0  0  0  0  0  0  0  0  0  0  0
    7.4487    9.1361   23.6506 C   0  0  0  0  0  0  0  0  0  0  0  0
    8.9772    2.5025   22.0273 C   0  0  0  0  0  0  0  0  0  0  0  0
   10.4859    4.0901   20.9730 C   0  0  0  0  0  0  0  0  0  0  0  0
   11.0962    9.3293   23.5072 C   0  0  0  0  0  0  0  0  0  0  0  0
    5.1273    7.8529   23.6208 N   0  0  0  0  0  0  0  0  0  0  0  0
    9.7552    9.2338   23.0171 N   0  0  0  0  0  0  0  0  0  0  0  0
   11.1797    6.7591   21.3326 N   0  0  0  0  0  0  0  0  0  0  0  0
   11.7728    8.0337   23.7267 C   0  0  0  0  0  0  0  0  0  0  0  0
    7.1194    8.3344   24.6775 C   0  0  0  0  0  0  0  0  0  0  0  0
    8.4311    4.7963   22.0500 C   0  0  0  0  0  0  0  0  0  0  0  0
    8.7393   10.8706   24.1871 O   0  0  0  0  0  0  0  0  0  0  0  0
    9.3093    3.8166   21.6712 C   0  0  0  0  0  0  0  0  0  0  0  0
  1  5  1  0
  1 15  4  0
  1 22  4  0
  2 20  1  0
  2 24  1  0
  3  6  4  0
  3 27  4  0
  4 22  4  0
  4 26  4  0
  6  7  4  0
  6 13  1  0
  7 19  4  0
  8 18  1  0
  8 23  1  0
  8 28  2  0
  9 17  1  0
  9 24  1  0
 10 11  1  0
 10 24  1  0
 11 23  1  0
 12 14  4  0
 12 16  4  0
 14 19  4  0
 15 18  4  0
 16 20  4  0
 17 25  1  0
 18 26  4  0
 19 29  4  0
 20 29  4  0
 21 23  1  0
 21 25  1  0
 27 29  4  0
M  END
$$$$

 Created by Python create_sdf_string function

 29 32  0  0  0  0  0  0  0  0999 V2000
    5.4450    8.7154   22.6662 C   0  0  0  0  0  0  0  0  0  0  0  0
   10.9154    5.4574   20.5483 C   0  0  0  0  0  0  0  0  0  0  0  0
    7.2709    4.5089   22.7542 C   0  0  0  0  0  0  0  0  0  0  0  0
    5.9698    7.6329   24.6581 C   0  0  0  0  0  0  0  0  0  0  0  0
    4.5542    8.9057   21.7104 O   0  0  0  0  0  0  0  0  0  0  0  0
    6.9895    3.2085   23.0690 C   0  0  0  0  0  0  0  0  0  0  0  0
    7.8391    2.2253   22.7260 N   0  0  0  0  0  0  0  0  0  0  0  0
    8.6968    9.8373   23.6359 C   0  0  0  0  0  0  0  0  0  0  0  0
   12.5135    6.5957   21.8396 C   0  0  0  0  0  0  0  0  0  0  0  0
   10.9406    8.2330   21.1350 C   0  0  0  0  0  0  0  0  0  0  0  0
    9.6648    8.5956   21.7310 C   0  0  0  0  0  0  0  0  0  0  0  0
   10.8829    1.7153   20.9865 C   0  0  0  0  0  0  0  0  0  0  0  0
    5.7768    2.8533   23.7910 C   0  0  0  0  0  0  0  0  0  0  0  0
    9.7977    1.4791   21.6912 N   0  0  0  0  0  0  0  0  0  0  0  0
    6.5976    9.3401   22.6478 N   0  0  0  0  0  0  0  0  0  0  0  0
   11.2031    3.0042   20.6246 C   0  0  0  0  0  0  0  0  0  0  0  0
   12.8688    7.7370   22.7287 C   0  0  0  0  0  0  0  0  0  0  0  0
    7.4487    9.1361   23.6506 C   0  0  0  0  0  0  0  0  0  0  0  0
    8.9772    2.5025   22.0273 C   0  0  0  0  0  0  0  0  0  0  0  0
   10.4859    4.0901   20.9730 C   0  0  0  0  0  0  0  0  0  0  0  0
   11.0962    9.3293   23.5072 C   0  0  0  0  0  0  0  0  0  0  0  0
    5.1273    7.8529   23.6208 N   0  0  0  0  0  0  0  0  0  0  0  0
    9.7552    9.2338   23.0171 N   0  0  0  0  0  0  0  0  0  0  0  0
   11.1797    6.7591   21.3326 N   0  0  0  0  0  0  0  0  0  0  0  0
   11.7728    8.0337   23.7267 C   0  0  0  0  0  0  0  0  0  0  0  0
    7.1194    8.3344   24.6775 C   0  0  0  0  0  0  0  0  0  0  0  0
    8.4311    4.7963   22.0500 C   0  0  0  0  0  0  0  0  0  0  0  0
    8.7393   10.8706   24.1871 O   0  0  0  0  0  0  0  0  0  0  0  0
    9.3093    3.8166   21.6712 C   0  0  0  0  0  0  0  0  0  0  0  0
  1  5  1  0
  1 15  4  0
  1 22  4  0
  2 20  1  0
  2 24  1  0
  3  6  4  0
  3 27  4  0
  4 22  4  0
  4 26  4  0
  6  7  4  0
  6 13  1  0
  7 19  4  0
  8 18  1  0
  8 23  1  0
  8 28  2  0
  9 17  1  0
  9 24  1  0
 10 11  1  0
 10 24  1  0
 11 23  1  0
 12 14  4  0
 12 16  4  0
 14 19  4  0
 15 18  4  0
 16 20  4  0
 17 25  1  0
 18 26  4  0
 19 29  4  0
 20 29  4  0
 21 23  1  0
 21 25  1  0
 27 29  4  0
M  END
$$$$

 Created by Python create_sdf_string function

 29 32  0  0  0  0  0  0  0  0999 V2000
    5.4450    8.7154   22.6662 C   0  0  0  0  0  0  0  0  0  0  0  0
   10.9154    5.4574   20.5483 C   0  0  0  0  0  0  0  0  0  0  0  0
    7.2709    4.5089   22.7542 C   0  0  0  0  0  0  0  0  0  0  0  0
    5.9698    7.6329   24.6581 C   0  0  0  0  0  0  0  0  0  0  0  0
    4.5542    8.9057   21.7104 O   0  0  0  0  0  0  0  0  0  0  0  0
    6.9895    3.2085   23.0690 C   0  0  0  0  0  0  0  0  0  0  0  0
    7.8391    2.2253   22.7260 N   0  0  0  0  0  0  0  0  0  0  0  0
    8.6968    9.8373   23.6359 C   0  0  0  0  0  0  0  0  0  0  0  0
   12.5135    6.5957   21.8396 C   0  0  0  0  0  0  0  0  0  0  0  0
   10.9406    8.2330   21.1350 C   0  0  0  0  0  0  0  0  0  0  0  0
    9.6648    8.5956   21.7310 C   0  0  0  0  0  0  0  0  0  0  0  0
   10.8829    1.7153   20.9865 C   0  0  0  0  0  0  0  0  0  0  0  0
    5.7768    2.8533   23.7910 C   0  0  0  0  0  0  0  0  0  0  0  0
    9.7977    1.4791   21.6912 N   0  0  0  0  0  0  0  0  0  0  0  0
    6.5976    9.3401   22.6478 N   0  0  0  0  0  0  0  0  0  0  0  0
   11.2031    3.0042   20.6246 C   0  0  0  0  0  0  0  0  0  0  0  0
   12.8688    7.7370   22.7287 C   0  0  0  0  0  0  0  0  0  0  0  0
    7.4487    9.1361   23.6506 C   0  0  0  0  0  0  0  0  0  0  0  0
    8.9772    2.5025   22.0273 C   0  0  0  0  0  0  0  0  0  0  0  0
   10.4859    4.0901   20.9730 C   0  0  0  0  0  0  0  0  0  0  0  0
   11.0962    9.3293   23.5072 C   0  0  0  0  0  0  0  0  0  0  0  0
    5.1273    7.8529   23.6208 N   0  0  0  0  0  0  0  0  0  0  0  0
    9.7552    9.2338   23.0171 N   0  0  0  0  0  0  0  0  0  0  0  0
   11.1797    6.7591   21.3326 N   0  0  0  0  0  0  0  0  0  0  0  0
   11.7728    8.0337   23.7267 C   0  0  0  0  0  0  0  0  0  0  0  0
    7.1194    8.3344   24.6775 C   0  0  0  0  0  0  0  0  0  0  0  0
    8.4311    4.7963   22.0500 C   0  0  0  0  0  0  0  0  0  0  0  0
    8.7393   10.8706   24.1871 O   0  0  0  0  0  0  0  0  0  0  0  0
    9.3093    3.8166   21.6712 C   0  0  0  0  0  0  0  0  0  0  0  0
  1  5  1  0
  1 15  4  0
  1 22  4  0
  2 20  1  0
  2 24  1  0
  3  6  4  0
  3 27  4  0
  4 22  4  0
  4 26  4  0
  6  7  4  0
  6 13  1  0
  7 19  4  0
  8 18  1  0
  8 23  1  0
  8 28  2  0
  9 17  1  0
  9 24  1  0
 10 11  1  0
 10 24  1  0
 11 23  1  0
 12 14  4  0
 12 16  4  0
 14 19  4  0
 15 18  4  0
 16 20  4  0
 17 25  1  0
 18 26  4  0
 19 29  4  0
 20 29  4  0
 21 23  1  0
 21 25  1  0
 27 29  4  0
M  END
$$$$

 Created by Python create_sdf_string function

 29 32  0  0  0  0  0  0  0  0999 V2000
    5.4450    8.7154   22.6662 C   0  0  0  0  0  0  0  0  0  0  0  0
   10.9154    5.4574   20.5483 C   0  0  0  0  0  0  0  0  0  0  0  0
    7.2709    4.5089   22.7542 C   0  0  0  0  0  0  0  0  0  0  0  0
    5.9698    7.6329   24.6581 C   0  0  0  0  0  0  0  0  0  0  0  0
    4.5542    8.9057   21.7104 O   0  0  0  0  0  0  0  0  0  0  0  0
    6.9895    3.2085   23.0690 C   0  0  0  0  0  0  0  0  0  0  0  0
    7.8391    2.2253   22.7260 N   0  0  0  0  0  0  0  0  0  0  0  0
    8.6968    9.8373   23.6359 C   0  0  0  0  0  0  0  0  0  0  0  0
   12.5135    6.5957   21.8396 C   0  0  0  0  0  0  0  0  0  0  0  0
   10.9406    8.2330   21.1350 C   0  0  0  0  0  0  0  0  0  0  0  0
    9.6648    8.5956   21.7310 C   0  0  0  0  0  0  0  0  0  0  0  0
   10.8829    1.7153   20.9865 C   0  0  0  0  0  0  0  0  0  0  0  0
    5.7768    2.8533   23.7910 C   0  0  0  0  0  0  0  0  0  0  0  0
    9.7977    1.4791   21.6912 N   0  0  0  0  0  0  0  0  0  0  0  0
    6.5976    9.3401   22.6478 N   0  0  0  0  0  0  0  0  0  0  0  0
   11.2031    3.0042   20.6246 C   0  0  0  0  0  0  0  0  0  0  0  0
   12.8688    7.7370   22.7287 C   0  0  0  0  0  0  0  0  0  0  0  0
    7.4487    9.1361   23.6506 C   0  0  0  0  0  0  0  0  0  0  0  0
    8.9772    2.5025   22.0273 C   0  0  0  0  0  0  0  0  0  0  0  0
   10.4859    4.0901   20.9730 C   0  0  0  0  0  0  0  0  0  0  0  0
   11.0962    9.3293   23.5072 C   0  0  0  0  0  0  0  0  0  0  0  0
    5.1273    7.8529   23.6208 N   0  0  0  0  0  0  0  0  0  0  0  0
    9.7552    9.2338   23.0171 N   0  0  0  0  0  0  0  0  0  0  0  0
   11.1797    6.7591   21.3326 N   0  0  0  0  0  0  0  0  0  0  0  0
   11.7728    8.0337   23.7267 C   0  0  0  0  0  0  0  0  0  0  0  0
    7.1194    8.3344   24.6775 C   0  0  0  0  0  0  0  0  0  0  0  0
    8.4311    4.7963   22.0500 C   0  0  0  0  0  0  0  0  0  0  0  0
    8.7393   10.8706   24.1871 O   0  0  0  0  0  0  0  0  0  0  0  0
    9.3093    3.8166   21.6712 C   0  0  0  0  0  0  0  0  0  0  0  0
  1  5  1  0
  1 15  4  0
  1 22  4  0
  2 20  1  0
  2 24  1  0
  3  6  4  0
  3 27  4  0
  4 22  4  0
  4 26  4  0
  6  7  4  0
  6 13  1  0
  7 19  4  0
  8 18  1  0
  8 23  1  0
  8 28  2  0
  9 17  1  0
  9 24  1  0
 10 11  1  0
 10 24  1  0
 11 23  1  0
 12 14  4  0
 12 16  4  0
 14 19  4  0
 15 18  4  0
 16 20  4  0
 17 25  1  0
 18 26  4  0
 19 29  4  0
 20 29  4  0
 21 23  1  0
 21 25  1  0
 27 29  4  0
M  END
$$$$

 Created by Python create_sdf_string function

 29 32  0  0  0  0  0  0  0  0999 V2000
    5.4450    8.7154   22.6662 C   0  0  0  0  0  0  0  0  0  0  0  0
   10.9154    5.4574   20.5483 C   0  0  0  0  0  0  0  0  0  0  0  0
    7.2709    4.5089   22.7542 C   0  0  0  0  0  0  0  0  0  0  0  0
    5.9698    7.6329   24.6581 C   0  0  0  0  0  0  0  0  0  0  0  0
    4.5542    8.9057   21.7104 O   0  0  0  0  0  0  0  0  0  0  0  0
    6.9895    3.2085   23.0690 C   0  0  0  0  0  0  0  0  0  0  0  0
    7.8391    2.2253   22.7260 N   0  0  0  0  0  0  0  0  0  0  0  0
    8.6968    9.8373   23.6359 C   0  0  0  0  0  0  0  0  0  0  0  0
   12.5135    6.5957   21.8396 C   0  0  0  0  0  0  0  0  0  0  0  0
   10.9406    8.2330   21.1350 C   0  0  0  0  0  0  0  0  0  0  0  0
    9.6648    8.5956   21.7310 C   0  0  0  0  0  0  0  0  0  0  0  0
   10.8829    1.7153   20.9865 C   0  0  0  0  0  0  0  0  0  0  0  0
    5.7768    2.8533   23.7910 C   0  0  0  0  0  0  0  0  0  0  0  0
    9.7977    1.4791   21.6912 N   0  0  0  0  0  0  0  0  0  0  0  0
    6.5976    9.3401   22.6478 N   0  0  0  0  0  0  0  0  0  0  0  0
   11.2031    3.0042   20.6246 C   0  0  0  0  0  0  0  0  0  0  0  0
   12.8688    7.7370   22.7287 C   0  0  0  0  0  0  0  0  0  0  0  0
    7.4487    9.1361   23.6506 C   0  0  0  0  0  0  0  0  0  0  0  0
    8.9772    2.5025   22.0273 C   0  0  0  0  0  0  0  0  0  0  0  0
   10.4859    4.0901   20.9730 C   0  0  0  0  0  0  0  0  0  0  0  0
   11.0962    9.3293   23.5072 C   0  0  0  0  0  0  0  0  0  0  0  0
    5.1273    7.8529   23.6208 N   0  0  0  0  0  0  0  0  0  0  0  0
    9.7552    9.2338   23.0171 N   0  0  0  0  0  0  0  0  0  0  0  0
   11.1797    6.7591   21.3326 N   0  0  0  0  0  0  0  0  0  0  0  0
   11.7728    8.0337   23.7267 C   0  0  0  0  0  0  0  0  0  0  0  0
    7.1194    8.3344   24.6775 C   0  0  0  0  0  0  0  0  0  0  0  0
    8.4311    4.7963   22.0500 C   0  0  0  0  0  0  0  0  0  0  0  0
    8.7393   10.8706   24.1871 O   0  0  0  0  0  0  0  0  0  0  0  0
    9.3093    3.8166   21.6712 C   0  0  0  0  0  0  0  0  0  0  0  0
  1  5  1  0
  1 15  4  0
  1 22  4  0
  2 20  1  0
  2 24  1  0
  3  6  4  0
  3 27  4  0
  4 22  4  0
  4 26  4  0
  6  7  4  0
  6 13  1  0
  7 19  4  0
  8 18  1  0
  8 23  1  0
  8 28  2  0
  9 17  1  0
  9 24  1  0
 10 11  1  0
 10 24  1  0
 11 23  1  0
 12 14  4  0
 12 16  4  0
 14 19  4  0
 15 18  4  0
 16 20  4  0
 17 25  1  0
 18 26  4  0
 19 29  4  0
 20 29  4  0
 21 23  1  0
 21 25  1  0
 27 29  4  0
M  END
$$$$

 Created by Python create_sdf_string function

 29 32  0  0  0  0  0  0  0  0999 V2000
    5.4450    8.7154   22.6662 C   0  0  0  0  0  0  0  0  0  0  0  0
   10.9154    5.4574   20.5483 C   0  0  0  0  0  0  0  0  0  0  0  0
    7.2709    4.5089   22.7542 C   0  0  0  0  0  0  0  0  0  0  0  0
    5.9698    7.6329   24.6581 C   0  0  0  0  0  0  0  0  0  0  0  0
    4.5542    8.9057   21.7104 O   0  0  0  0  0  0  0  0  0  0  0  0
    6.9895    3.2085   23.0690 C   0  0  0  0  0  0  0  0  0  0  0  0
    7.8391    2.2253   22.7260 N   0  0  0  0  0  0  0  0  0  0  0  0
    8.6968    9.8373   23.6359 C   0  0  0  0  0  0  0  0  0  0  0  0
   12.5135    6.5957   21.8396 C   0  0  0  0  0  0  0  0  0  0  0  0
   10.9406    8.2330   21.1350 C   0  0  0  0  0  0  0  0  0  0  0  0
    9.6648    8.5956   21.7310 C   0  0  0  0  0  0  0  0  0  0  0  0
   10.8829    1.7153   20.9865 C   0  0  0  0  0  0  0  0  0  0  0  0
    5.7768    2.8533   23.7910 C   0  0  0  0  0  0  0  0  0  0  0  0
    9.7977    1.4791   21.6912 N   0  0  0  0  0  0  0  0  0  0  0  0
    6.5976    9.3401   22.6478 N   0  0  0  0  0  0  0  0  0  0  0  0
   11.2031    3.0042   20.6246 C   0  0  0  0  0  0  0  0  0  0  0  0
   12.8688    7.7370   22.7287 C   0  0  0  0  0  0  0  0  0  0  0  0
    7.4487    9.1361   23.6506 C   0  0  0  0  0  0  0  0  0  0  0  0
    8.9772    2.5025   22.0273 C   0  0  0  0  0  0  0  0  0  0  0  0
   10.4859    4.0901   20.9730 C   0  0  0  0  0  0  0  0  0  0  0  0
   11.0962    9.3293   23.5072 C   0  0  0  0  0  0  0  0  0  0  0  0
    5.1273    7.8529   23.6208 N   0  0  0  0  0  0  0  0  0  0  0  0
    9.7552    9.2338   23.0171 N   0  0  0  0  0  0  0  0  0  0  0  0
   11.1797    6.7591   21.3326 N   0  0  0  0  0  0  0  0  0  0  0  0
   11.7728    8.0337   23.7267 C   0  0  0  0  0  0  0  0  0  0  0  0
    7.1194    8.3344   24.6775 C   0  0  0  0  0  0  0  0  0  0  0  0
    8.4311    4.7963   22.0500 C   0  0  0  0  0  0  0  0  0  0  0  0
    8.7393   10.8706   24.1871 O   0  0  0  0  0  0  0  0  0  0  0  0
    9.3093    3.8166   21.6712 C   0  0  0  0  0  0  0  0  0  0  0  0
  1  5  1  0
  1 15  4  0
  1 22  4  0
  2 20  1  0
  2 24  1  0
  3  6  4  0
  3 27  4  0
  4 22  4  0
  4 26  4  0
  6  7  4  0
  6 13  1  0
  7 19  4  0
  8 18  1  0
  8 23  1  0
  8 28  2  0
  9 17  1  0
  9 24  1  0
 10 11  1  0
 10 24  1  0
 11 23  1  0
 12 14  4  0
 12 16  4  0
 14 19  4  0
 15 18  4  0
 16 20  4  0
 17 25  1  0
 18 26  4  0
 19 29  4  0
 20 29  4  0
 21 23  1  0
 21 25  1  0
 27 29  4  0
M  END
$$$$

 Created by Python create_sdf_string function

 29 32  0  0  0  0  0  0  0  0999 V2000
    5.4450    8.7154   22.6662 C   0  0  0  0  0  0  0  0  0  0  0  0
   10.9154    5.4574   20.5483 C   0  0  0  0  0  0  0  0  0  0  0  0
    7.2709    4.5089   22.7542 C   0  0  0  0  0  0  0  0  0  0  0  0
    5.9698    7.6329   24.6581 C   0  0  0  0  0  0  0  0  0  0  0  0
    4.5542    8.9057   21.7104 O   0  0  0  0  0  0  0  0  0  0  0  0
    6.9895    3.2085   23.0690 C   0  0  0  0  0  0  0  0  0  0  0  0
    7.8391    2.2253   22.7260 N   0  0  0  0  0  0  0  0  0  0  0  0
    8.6968    9.8373   23.6359 C   0  0  0  0  0  0  0  0  0  0  0  0
   12.5135    6.5957   21.8396 C   0  0  0  0  0  0  0  0  0  0  0  0
   10.9406    8.2330   21.1350 C   0  0  0  0  0  0  0  0  0  0  0  0
    9.6648    8.5956   21.7310 C   0  0  0  0  0  0  0  0  0  0  0  0
   10.8829    1.7153   20.9865 C   0  0  0  0  0  0  0  0  0  0  0  0
    5.7768    2.8533   23.7910 C   0  0  0  0  0  0  0  0  0  0  0  0
    9.7977    1.4791   21.6912 N   0  0  0  0  0  0  0  0  0  0  0  0
    6.5976    9.3401   22.6478 N   0  0  0  0  0  0  0  0  0  0  0  0
   11.2031    3.0042   20.6246 C   0  0  0  0  0  0  0  0  0  0  0  0
   12.8688    7.7370   22.7287 C   0  0  0  0  0  0  0  0  0  0  0  0
    7.4487    9.1361   23.6506 C   0  0  0  0  0  0  0  0  0  0  0  0
    8.9772    2.5025   22.0273 C   0  0  0  0  0  0  0  0  0  0  0  0
   10.4859    4.0901   20.9730 C   0  0  0  0  0  0  0  0  0  0  0  0
   11.0962    9.3293   23.5072 C   0  0  0  0  0  0  0  0  0  0  0  0
    5.1273    7.8529   23.6208 N   0  0  0  0  0  0  0  0  0  0  0  0
    9.7552    9.2338   23.0171 N   0  0  0  0  0  0  0  0  0  0  0  0
   11.1797    6.7591   21.3326 N   0  0  0  0  0  0  0  0  0  0  0  0
   11.7728    8.0337   23.7267 C   0  0  0  0  0  0  0  0  0  0  0  0
    7.1194    8.3344   24.6775 C   0  0  0  0  0  0  0  0  0  0  0  0
    8.4311    4.7963   22.0500 C   0  0  0  0  0  0  0  0  0  0  0  0
    8.7393   10.8706   24.1871 O   0  0  0  0  0  0  0  0  0  0  0  0
    9.3093    3.8166   21.6712 C   0  0  0  0  0  0  0  0  0  0  0  0
  1  5  1  0
  1 15  4  0
  1 22  4  0
  2 20  1  0
  2 24  1  0
  3  6  4  0
  3 27  4  0
  4 22  4  0
  4 26  4  0
  6  7  4  0
  6 13  1  0
  7 19  4  0
  8 18  1  0
  8 23  1  0
  8 28  2  0
  9 17  1  0
  9 24  1  0
 10 11  1  0
 10 24  1  0
 11 23  1  0
 12 14  4  0
 12 16  4  0
 14 19  4  0
 15 18  4  0
 16 20  4  0
 17 25  1  0
 18 26  4  0
 19 29  4  0
 20 29  4  0
 21 23  1  0
 21 25  1  0
 27 29  4  0
M  END
$$$$

 Created by Python create_sdf_string function

 29 32  0  0  0  0  0  0  0  0999 V2000
    5.4450    8.7154   22.6662 C   0  0  0  0  0  0  0  0  0  0  0  0
   10.9154    5.4574   20.5483 C   0  0  0  0  0  0  0  0  0  0  0  0
    7.2709    4.5089   22.7542 C   0  0  0  0  0  0  0  0  0  0  0  0
    5.9698    7.6329   24.6581 C   0  0  0  0  0  0  0  0  0  0  0  0
    4.5542    8.9057   21.7104 O   0  0  0  0  0  0  0  0  0  0  0  0
    6.9895    3.2085   23.0690 C   0  0  0  0  0  0  0  0  0  0  0  0
    7.8391    2.2253   22.7260 N   0  0  0  0  0  0  0  0  0  0  0  0
    8.6968    9.8373   23.6359 C   0  0  0  0  0  0  0  0  0  0  0  0
   12.5135    6.5957   21.8396 C   0  0  0  0  0  0  0  0  0  0  0  0
   10.9406    8.2330   21.1350 C   0  0  0  0  0  0  0  0  0  0  0  0
    9.6648    8.5956   21.7310 C   0  0  0  0  0  0  0  0  0  0  0  0
   10.8829    1.7153   20.9865 C   0  0  0  0  0  0  0  0  0  0  0  0
    5.7768    2.8533   23.7910 C   0  0  0  0  0  0  0  0  0  0  0  0
    9.7977    1.4791   21.6912 N   0  0  0  0  0  0  0  0  0  0  0  0
    6.5976    9.3401   22.6478 N   0  0  0  0  0  0  0  0  0  0  0  0
   11.2031    3.0042   20.6246 C   0  0  0  0  0  0  0  0  0  0  0  0
   12.8688    7.7370   22.7287 C   0  0  0  0  0  0  0  0  0  0  0  0
    7.4487    9.1361   23.6506 C   0  0  0  0  0  0  0  0  0  0  0  0
    8.9772    2.5025   22.0273 C   0  0  0  0  0  0  0  0  0  0  0  0
   10.4859    4.0901   20.9730 C   0  0  0  0  0  0  0  0  0  0  0  0
   11.0962    9.3293   23.5072 C   0  0  0  0  0  0  0  0  0  0  0  0
    5.1273    7.8529   23.6208 N   0  0  0  0  0  0  0  0  0  0  0  0
    9.7552    9.2338   23.0171 N   0  0  0  0  0  0  0  0  0  0  0  0
   11.1797    6.7591   21.3326 N   0  0  0  0  0  0  0  0  0  0  0  0
   11.7728    8.0337   23.7267 C   0  0  0  0  0  0  0  0  0  0  0  0
    7.1194    8.3344   24.6775 C   0  0  0  0  0  0  0  0  0  0  0  0
    8.4311    4.7963   22.0500 C   0  0  0  0  0  0  0  0  0  0  0  0
    8.7393   10.8706   24.1871 O   0  0  0  0  0  0  0  0  0  0  0  0
    9.3093    3.8166   21.6712 C   0  0  0  0  0  0  0  0  0  0  0  0
  1  5  1  0
  1 15  4  0
  1 22  4  0
  2 20  1  0
  2 24  1  0
  3  6  4  0
  3 27  4  0
  4 22  4  0
  4 26  4  0
  6  7  4  0
  6 13  1  0
  7 19  4  0
  8 18  1  0
  8 23  1  0
  8 28  2  0
  9 17  1  0
  9 24  1  0
 10 11  1  0
 10 24  1  0
 11 23  1  0
 12 14  4  0
 12 16  4  0
 14 19  4  0
 15 18  4  0
 16 20  4  0
 17 25  1  0
 18 26  4  0
 19 29  4  0
 20 29  4  0
 21 23  1  0
 21 25  1  0
 27 29  4  0
M  END
$$$$

 Created by Python create_sdf_string function

 29 32  0  0  0  0  0  0  0  0999 V2000
    5.4450    8.7154   22.6662 C   0  0  0  0  0  0  0  0  0  0  0  0
   10.9154    5.4574   20.5483 C   0  0  0  0  0  0  0  0  0  0  0  0
    7.2709    4.5089   22.7542 C   0  0  0  0  0  0  0  0  0  0  0  0
    5.9698    7.6329   24.6581 C   0  0  0  0  0  0  0  0  0  0  0  0
    4.5542    8.9057   21.7104 O   0  0  0  0  0  0  0  0  0  0  0  0
    6.9895    3.2085   23.0690 C   0  0  0  0  0  0  0  0  0  0  0  0
    7.8391    2.2253   22.7260 N   0  0  0  0  0  0  0  0  0  0  0  0
    8.6968    9.8373   23.6359 C   0  0  0  0  0  0  0  0  0  0  0  0
   12.5135    6.5957   21.8396 C   0  0  0  0  0  0  0  0  0  0  0  0
   10.9406    8.2330   21.1350 C   0  0  0  0  0  0  0  0  0  0  0  0
    9.6648    8.5956   21.7310 C   0  0  0  0  0  0  0  0  0  0  0  0
   10.8829    1.7153   20.9865 C   0  0  0  0  0  0  0  0  0  0  0  0
    5.7768    2.8533   23.7910 C   0  0  0  0  0  0  0  0  0  0  0  0
    9.7977    1.4791   21.6912 N   0  0  0  0  0  0  0  0  0  0  0  0
    6.5976    9.3401   22.6478 N   0  0  0  0  0  0  0  0  0  0  0  0
   11.2031    3.0042   20.6246 C   0  0  0  0  0  0  0  0  0  0  0  0
   12.8688    7.7370   22.7287 C   0  0  0  0  0  0  0  0  0  0  0  0
    7.4487    9.1361   23.6506 C   0  0  0  0  0  0  0  0  0  0  0  0
    8.9772    2.5025   22.0273 C   0  0  0  0  0  0  0  0  0  0  0  0
   10.4859    4.0901   20.9730 C   0  0  0  0  0  0  0  0  0  0  0  0
   11.0962    9.3293   23.5072 C   0  0  0  0  0  0  0  0  0  0  0  0
    5.1273    7.8529   23.6208 N   0  0  0  0  0  0  0  0  0  0  0  0
    9.7552    9.2338   23.0171 N   0  0  0  0  0  0  0  0  0  0  0  0
   11.1797    6.7591   21.3326 N   0  0  0  0  0  0  0  0  0  0  0  0
   11.7728    8.0337   23.7267 C   0  0  0  0  0  0  0  0  0  0  0  0
    7.1194    8.3344   24.6775 C   0  0  0  0  0  0  0  0  0  0  0  0
    8.4311    4.7963   22.0500 C   0  0  0  0  0  0  0  0  0  0  0  0
    8.7393   10.8706   24.1871 O   0  0  0  0  0  0  0  0  0  0  0  0
    9.3093    3.8166   21.6712 C   0  0  0  0  0  0  0  0  0  0  0  0
  1  5  1  0
  1 15  4  0
  1 22  4  0
  2 20  1  0
  2 24  1  0
  3  6  4  0
  3 27  4  0
  4 22  4  0
  4 26  4  0
  6  7  4  0
  6 13  1  0
  7 19  4  0
  8 18  1  0
  8 23  1  0
  8 28  2  0
  9 17  1  0
  9 24  1  0
 10 11  1  0
 10 24  1  0
 11 23  1  0
 12 14  4  0
 12 16  4  0
 14 19  4  0
 15 18  4  0
 16 20  4  0
 17 25  1  0
 18 26  4  0
 19 29  4  0
 20 29  4  0
 21 23  1  0
 21 25  1  0
 27 29  4  0
M  END
$$$$

 Created by Python create_sdf_string function

 29 32  0  0  0  0  0  0  0  0999 V2000
    5.4450    8.7154   22.6662 C   0  0  0  0  0  0  0  0  0  0  0  0
   10.9154    5.4574   20.5483 C   0  0  0  0  0  0  0  0  0  0  0  0
    7.2709    4.5089   22.7542 C   0  0  0  0  0  0  0  0  0  0  0  0
    5.9698    7.6329   24.6581 C   0  0  0  0  0  0  0  0  0  0  0  0
    4.5542    8.9057   21.7104 O   0  0  0  0  0  0  0  0  0  0  0  0
    6.9895    3.2085   23.0690 C   0  0  0  0  0  0  0  0  0  0  0  0
    7.8391    2.2253   22.7260 N   0  0  0  0  0  0  0  0  0  0  0  0
    8.6968    9.8373   23.6359 C   0  0  0  0  0  0  0  0  0  0  0  0
   12.5135    6.5957   21.8396 C   0  0  0  0  0  0  0  0  0  0  0  0
   10.9406    8.2330   21.1350 C   0  0  0  0  0  0  0  0  0  0  0  0
    9.6648    8.5956   21.7310 C   0  0  0  0  0  0  0  0  0  0  0  0
   10.8829    1.7153   20.9865 C   0  0  0  0  0  0  0  0  0  0  0  0
    5.7768    2.8533   23.7910 C   0  0  0  0  0  0  0  0  0  0  0  0
    9.7977    1.4791   21.6912 N   0  0  0  0  0  0  0  0  0  0  0  0
    6.5976    9.3401   22.6478 N   0  0  0  0  0  0  0  0  0  0  0  0
   11.2031    3.0042   20.6246 C   0  0  0  0  0  0  0  0  0  0  0  0
   12.8688    7.7370   22.7287 C   0  0  0  0  0  0  0  0  0  0  0  0
    7.4487    9.1361   23.6506 C   0  0  0  0  0  0  0  0  0  0  0  0
    8.9772    2.5025   22.0273 C   0  0  0  0  0  0  0  0  0  0  0  0
   10.4859    4.0901   20.9730 C   0  0  0  0  0  0  0  0  0  0  0  0
   11.0962    9.3293   23.5072 C   0  0  0  0  0  0  0  0  0  0  0  0
    5.1273    7.8529   23.6208 N   0  0  0  0  0  0  0  0  0  0  0  0
    9.7552    9.2338   23.0171 N   0  0  0  0  0  0  0  0  0  0  0  0
   11.1797    6.7591   21.3326 N   0  0  0  0  0  0  0  0  0  0  0  0
   11.7728    8.0337   23.7267 C   0  0  0  0  0  0  0  0  0  0  0  0
    7.1194    8.3344   24.6775 C   0  0  0  0  0  0  0  0  0  0  0  0
    8.4311    4.7963   22.0500 C   0  0  0  0  0  0  0  0  0  0  0  0
    8.7393   10.8706   24.1871 O   0  0  0  0  0  0  0  0  0  0  0  0
    9.3093    3.8166   21.6712 C   0  0  0  0  0  0  0  0  0  0  0  0
  1  5  1  0
  1 15  4  0
  1 22  4  0
  2 20  1  0
  2 24  1  0
  3  6  4  0
  3 27  4  0
  4 22  4  0
  4 26  4  0
  6  7  4  0
  6 13  1  0
  7 19  4  0
  8 18  1  0
  8 23  1  0
  8 28  2  0
  9 17  1  0
  9 24  1  0
 10 11  1  0
 10 24  1  0
 11 23  1  0
 12 14  4  0
 12 16  4  0
 14 19  4  0
 15 18  4  0
 16 20  4  0
 17 25  1  0
 18 26  4  0
 19 29  4  0
 20 29  4  0
 21 23  1  0
 21 25  1  0
 27 29  4  0
M  END
$$$$

 Created by Python create_sdf_string function

 29 32  0  0  0  0  0  0  0  0999 V2000
    5.4450    8.7154   22.6662 C   0  0  0  0  0  0  0  0  0  0  0  0
   10.9154    5.4574   20.5483 C   0  0  0  0  0  0  0  0  0  0  0  0
    7.2709    4.5089   22.7542 C   0  0  0  0  0  0  0  0  0  0  0  0
    5.9698    7.6329   24.6581 C   0  0  0  0  0  0  0  0  0  0  0  0
    4.5542    8.9057   21.7104 O   0  0  0  0  0  0  0  0  0  0  0  0
    6.9895    3.2085   23.0690 C   0  0  0  0  0  0  0  0  0  0  0  0
    7.8391    2.2253   22.7260 N   0  0  0  0  0  0  0  0  0  0  0  0
    8.6968    9.8373   23.6359 C   0  0  0  0  0  0  0  0  0  0  0  0
   12.5135    6.5957   21.8396 C   0  0  0  0  0  0  0  0  0  0  0  0
   10.9406    8.2330   21.1350 C   0  0  0  0  0  0  0  0  0  0  0  0
    9.6648    8.5956   21.7310 C   0  0  0  0  0  0  0  0  0  0  0  0
   10.8829    1.7153   20.9865 C   0  0  0  0  0  0  0  0  0  0  0  0
    5.7768    2.8533   23.7910 C   0  0  0  0  0  0  0  0  0  0  0  0
    9.7977    1.4791   21.6912 N   0  0  0  0  0  0  0  0  0  0  0  0
    6.5976    9.3401   22.6478 N   0  0  0  0  0  0  0  0  0  0  0  0
   11.2031    3.0042   20.6246 C   0  0  0  0  0  0  0  0  0  0  0  0
   12.8688    7.7370   22.7287 C   0  0  0  0  0  0  0  0  0  0  0  0
    7.4487    9.1361   23.6506 C   0  0  0  0  0  0  0  0  0  0  0  0
    8.9772    2.5025   22.0273 C   0  0  0  0  0  0  0  0  0  0  0  0
   10.4859    4.0901   20.9730 C   0  0  0  0  0  0  0  0  0  0  0  0
   11.0962    9.3293   23.5072 C   0  0  0  0  0  0  0  0  0  0  0  0
    5.1273    7.8529   23.6208 N   0  0  0  0  0  0  0  0  0  0  0  0
    9.7552    9.2338   23.0171 N   0  0  0  0  0  0  0  0  0  0  0  0
   11.1797    6.7591   21.3326 N   0  0  0  0  0  0  0  0  0  0  0  0
   11.7728    8.0337   23.7267 C   0  0  0  0  0  0  0  0  0  0  0  0
    7.1194    8.3344   24.6775 C   0  0  0  0  0  0  0  0  0  0  0  0
    8.4311    4.7963   22.0500 C   0  0  0  0  0  0  0  0  0  0  0  0
    8.7393   10.8706   24.1871 O   0  0  0  0  0  0  0  0  0  0  0  0
    9.3093    3.8166   21.6712 C   0  0  0  0  0  0  0  0  0  0  0  0
  1  5  1  0
  1 15  4  0
  1 22  4  0
  2 20  1  0
  2 24  1  0
  3  6  4  0
  3 27  4  0
  4 22  4  0
  4 26  4  0
  6  7  4  0
  6 13  1  0
  7 19  4  0
  8 18  1  0
  8 23  1  0
  8 28  2  0
  9 17  1  0
  9 24  1  0
 10 11  1  0
 10 24  1  0
 11 23  1  0
 12 14  4  0
 12 16  4  0
 14 19  4  0
 15 18  4  0
 16 20  4  0
 17 25  1  0
 18 26  4  0
 19 29  4  0
 20 29  4  0
 21 23  1  0
 21 25  1  0
 27 29  4  0
M  END
$$$$

 Created by Python create_sdf_string function

 29 32  0  0  0  0  0  0  0  0999 V2000
    5.4450    8.7154   22.6662 C   0  0  0  0  0  0  0  0  0  0  0  0
   10.9154    5.4574   20.5483 C   0  0  0  0  0  0  0  0  0  0  0  0
    7.2709    4.5089   22.7542 C   0  0  0  0  0  0  0  0  0  0  0  0
    5.9698    7.6329   24.6581 C   0  0  0  0  0  0  0  0  0  0  0  0
    4.5542    8.9057   21.7104 O   0  0  0  0  0  0  0  0  0  0  0  0
    6.9895    3.2085   23.0690 C   0  0  0  0  0  0  0  0  0  0  0  0
    7.8391    2.2253   22.7260 N   0  0  0  0  0  0  0  0  0  0  0  0
    8.6968    9.8373   23.6359 C   0  0  0  0  0  0  0  0  0  0  0  0
   12.5135    6.5957   21.8396 C   0  0  0  0  0  0  0  0  0  0  0  0
   10.9406    8.2330   21.1350 C   0  0  0  0  0  0  0  0  0  0  0  0
    9.6648    8.5956   21.7310 C   0  0  0  0  0  0  0  0  0  0  0  0
   10.8829    1.7153   20.9865 C   0  0  0  0  0  0  0  0  0  0  0  0
    5.7768    2.8533   23.7910 C   0  0  0  0  0  0  0  0  0  0  0  0
    9.7977    1.4791   21.6912 N   0  0  0  0  0  0  0  0  0  0  0  0
    6.5976    9.3401   22.6478 N   0  0  0  0  0  0  0  0  0  0  0  0
   11.2031    3.0042   20.6246 C   0  0  0  0  0  0  0  0  0  0  0  0
   12.8688    7.7370   22.7287 C   0  0  0  0  0  0  0  0  0  0  0  0
    7.4487    9.1361   23.6506 C   0  0  0  0  0  0  0  0  0  0  0  0
    8.9772    2.5025   22.0273 C   0  0  0  0  0  0  0  0  0  0  0  0
   10.4859    4.0901   20.9730 C   0  0  0  0  0  0  0  0  0  0  0  0
   11.0962    9.3293   23.5072 C   0  0  0  0  0  0  0  0  0  0  0  0
    5.1273    7.8529   23.6208 N   0  0  0  0  0  0  0  0  0  0  0  0
    9.7552    9.2338   23.0171 N   0  0  0  0  0  0  0  0  0  0  0  0
   11.1797    6.7591   21.3326 N   0  0  0  0  0  0  0  0  0  0  0  0
   11.7728    8.0337   23.7267 C   0  0  0  0  0  0  0  0  0  0  0  0
    7.1194    8.3344   24.6775 C   0  0  0  0  0  0  0  0  0  0  0  0
    8.4311    4.7963   22.0500 C   0  0  0  0  0  0  0  0  0  0  0  0
    8.7393   10.8706   24.1871 O   0  0  0  0  0  0  0  0  0  0  0  0
    9.3093    3.8166   21.6712 C   0  0  0  0  0  0  0  0  0  0  0  0
  1  5  1  0
  1 15  4  0
  1 22  4  0
  2 20  1  0
  2 24  1  0
  3  6  4  0
  3 27  4  0
  4 22  4  0
  4 26  4  0
  6  7  4  0
  6 13  1  0
  7 19  4  0
  8 18  1  0
  8 23  1  0
  8 28  2  0
  9 17  1  0
  9 24  1  0
 10 11  1  0
 10 24  1  0
 11 23  1  0
 12 14  4  0
 12 16  4  0
 14 19  4  0
 15 18  4  0
 16 20  4  0
 17 25  1  0
 18 26  4  0
 19 29  4  0
 20 29  4  0
 21 23  1  0
 21 25  1  0
 27 29  4  0
M  END
$$$$

 Created by Python create_sdf_string function

 29 32  0  0  0  0  0  0  0  0999 V2000
    5.4450    8.7154   22.6662 C   0  0  0  0  0  0  0  0  0  0  0  0
   10.9154    5.4574   20.5483 C   0  0  0  0  0  0  0  0  0  0  0  0
    7.2709    4.5089   22.7542 C   0  0  0  0  0  0  0  0  0  0  0  0
    5.9698    7.6329   24.6581 C   0  0  0  0  0  0  0  0  0  0  0  0
    4.5542    8.9057   21.7104 O   0  0  0  0  0  0  0  0  0  0  0  0
    6.9895    3.2085   23.0690 C   0  0  0  0  0  0  0  0  0  0  0  0
    7.8391    2.2253   22.7260 N   0  0  0  0  0  0  0  0  0  0  0  0
    8.6968    9.8373   23.6359 C   0  0  0  0  0  0  0  0  0  0  0  0
   12.5135    6.5957   21.8396 C   0  0  0  0  0  0  0  0  0  0  0  0
   10.9406    8.2330   21.1350 C   0  0  0  0  0  0  0  0  0  0  0  0
    9.6648    8.5956   21.7310 C   0  0  0  0  0  0  0  0  0  0  0  0
   10.8829    1.7153   20.9865 C   0  0  0  0  0  0  0  0  0  0  0  0
    5.7768    2.8533   23.7910 C   0  0  0  0  0  0  0  0  0  0  0  0
    9.7977    1.4791   21.6912 N   0  0  0  0  0  0  0  0  0  0  0  0
    6.5976    9.3401   22.6478 N   0  0  0  0  0  0  0  0  0  0  0  0
   11.2031    3.0042   20.6246 C   0  0  0  0  0  0  0  0  0  0  0  0
   12.8688    7.7370   22.7287 C   0  0  0  0  0  0  0  0  0  0  0  0
    7.4487    9.1361   23.6506 C   0  0  0  0  0  0  0  0  0  0  0  0
    8.9772    2.5025   22.0273 C   0  0  0  0  0  0  0  0  0  0  0  0
   10.4859    4.0901   20.9730 C   0  0  0  0  0  0  0  0  0  0  0  0
   11.0962    9.3293   23.5072 C   0  0  0  0  0  0  0  0  0  0  0  0
    5.1273    7.8529   23.6208 N   0  0  0  0  0  0  0  0  0  0  0  0
    9.7552    9.2338   23.0171 N   0  0  0  0  0  0  0  0  0  0  0  0
   11.1797    6.7591   21.3326 N   0  0  0  0  0  0  0  0  0  0  0  0
   11.7728    8.0337   23.7267 C   0  0  0  0  0  0  0  0  0  0  0  0
    7.1194    8.3344   24.6775 C   0  0  0  0  0  0  0  0  0  0  0  0
    8.4311    4.7963   22.0500 C   0  0  0  0  0  0  0  0  0  0  0  0
    8.7393   10.8706   24.1871 O   0  0  0  0  0  0  0  0  0  0  0  0
    9.3093    3.8166   21.6712 C   0  0  0  0  0  0  0  0  0  0  0  0
  1  5  1  0
  1 15  4  0
  1 22  4  0
  2 20  1  0
  2 24  1  0
  3  6  4  0
  3 27  4  0
  4 22  4  0
  4 26  4  0
  6  7  4  0
  6 13  1  0
  7 19  4  0
  8 18  1  0
  8 23  1  0
  8 28  2  0
  9 17  1  0
  9 24  1  0
 10 11  1  0
 10 24  1  0
 11 23  1  0
 12 14  4  0
 12 16  4  0
 14 19  4  0
 15 18  4  0
 16 20  4  0
 17 25  1  0
 18 26  4  0
 19 29  4  0
 20 29  4  0
 21 23  1  0
 21 25  1  0
 27 29  4  0
M  END
$$$$

 Created by Python create_sdf_string function

 29 32  0  0  0  0  0  0  0  0999 V2000
    5.4450    8.7154   22.6662 C   0  0  0  0  0  0  0  0  0  0  0  0
   10.9154    5.4574   20.5483 C   0  0  0  0  0  0  0  0  0  0  0  0
    7.2709    4.5089   22.7542 C   0  0  0  0  0  0  0  0  0  0  0  0
    5.9698    7.6329   24.6581 C   0  0  0  0  0  0  0  0  0  0  0  0
    4.5542    8.9057   21.7104 O   0  0  0  0  0  0  0  0  0  0  0  0
    6.9895    3.2085   23.0690 C   0  0  0  0  0  0  0  0  0  0  0  0
    7.8391    2.2253   22.7260 N   0  0  0  0  0  0  0  0  0  0  0  0
    8.6968    9.8373   23.6359 C   0  0  0  0  0  0  0  0  0  0  0  0
   12.5135    6.5957   21.8396 C   0  0  0  0  0  0  0  0  0  0  0  0
   10.9406    8.2330   21.1350 C   0  0  0  0  0  0  0  0  0  0  0  0
    9.6648    8.5956   21.7310 C   0  0  0  0  0  0  0  0  0  0  0  0
   10.8829    1.7153   20.9865 C   0  0  0  0  0  0  0  0  0  0  0  0
    5.7768    2.8533   23.7910 C   0  0  0  0  0  0  0  0  0  0  0  0
    9.7977    1.4791   21.6912 N   0  0  0  0  0  0  0  0  0  0  0  0
    6.5976    9.3401   22.6478 N   0  0  0  0  0  0  0  0  0  0  0  0
   11.2031    3.0042   20.6246 C   0  0  0  0  0  0  0  0  0  0  0  0
   12.8688    7.7370   22.7287 C   0  0  0  0  0  0  0  0  0  0  0  0
    7.4487    9.1361   23.6506 C   0  0  0  0  0  0  0  0  0  0  0  0
    8.9772    2.5025   22.0273 C   0  0  0  0  0  0  0  0  0  0  0  0
   10.4859    4.0901   20.9730 C   0  0  0  0  0  0  0  0  0  0  0  0
   11.0962    9.3293   23.5072 C   0  0  0  0  0  0  0  0  0  0  0  0
    5.1273    7.8529   23.6208 N   0  0  0  0  0  0  0  0  0  0  0  0
    9.7552    9.2338   23.0171 N   0  0  0  0  0  0  0  0  0  0  0  0
   11.1797    6.7591   21.3326 N   0  0  0  0  0  0  0  0  0  0  0  0
   11.7728    8.0337   23.7267 C   0  0  0  0  0  0  0  0  0  0  0  0
    7.1194    8.3344   24.6775 C   0  0  0  0  0  0  0  0  0  0  0  0
    8.4311    4.7963   22.0500 C   0  0  0  0  0  0  0  0  0  0  0  0
    8.7393   10.8706   24.1871 O   0  0  0  0  0  0  0  0  0  0  0  0
    9.3093    3.8166   21.6712 C   0  0  0  0  0  0  0  0  0  0  0  0
  1  5  1  0
  1 15  4  0
  1 22  4  0
  2 20  1  0
  2 24  1  0
  3  6  4  0
  3 27  4  0
  4 22  4  0
  4 26  4  0
  6  7  4  0
  6 13  1  0
  7 19  4  0
  8 18  1  0
  8 23  1  0
  8 28  2  0
  9 17  1  0
  9 24  1  0
 10 11  1  0
 10 24  1  0
 11 23  1  0
 12 14  4  0
 12 16  4  0
 14 19  4  0
 15 18  4  0
 16 20  4  0
 17 25  1  0
 18 26  4  0
 19 29  4  0
 20 29  4  0
 21 23  1  0
 21 25  1  0
 27 29  4  0
M  END
$$$$

 Created by Python create_sdf_string function

 29 32  0  0  0  0  0  0  0  0999 V2000
    5.4450    8.7154   22.6662 C   0  0  0  0  0  0  0  0  0  0  0  0
   10.9154    5.4574   20.5483 C   0  0  0  0  0  0  0  0  0  0  0  0
    7.2709    4.5089   22.7542 C   0  0  0  0  0  0  0  0  0  0  0  0
    5.9698    7.6329   24.6581 C   0  0  0  0  0  0  0  0  0  0  0  0
    4.5542    8.9057   21.7104 O   0  0  0  0  0  0  0  0  0  0  0  0
    6.9895    3.2085   23.0690 C   0  0  0  0  0  0  0  0  0  0  0  0
    7.8391    2.2253   22.7260 N   0  0  0  0  0  0  0  0  0  0  0  0
    8.6968    9.8373   23.6359 C   0  0  0  0  0  0  0  0  0  0  0  0
   12.5135    6.5957   21.8396 C   0  0  0  0  0  0  0  0  0  0  0  0
   10.9406    8.2330   21.1350 C   0  0  0  0  0  0  0  0  0  0  0  0
    9.6648    8.5956   21.7310 C   0  0  0  0  0  0  0  0  0  0  0  0
   10.8829    1.7153   20.9865 C   0  0  0  0  0  0  0  0  0  0  0  0
    5.7768    2.8533   23.7910 C   0  0  0  0  0  0  0  0  0  0  0  0
    9.7977    1.4791   21.6912 N   0  0  0  0  0  0  0  0  0  0  0  0
    6.5976    9.3401   22.6478 N   0  0  0  0  0  0  0  0  0  0  0  0
   11.2031    3.0042   20.6246 C   0  0  0  0  0  0  0  0  0  0  0  0
   12.8688    7.7370   22.7287 C   0  0  0  0  0  0  0  0  0  0  0  0
    7.4487    9.1361   23.6506 C   0  0  0  0  0  0  0  0  0  0  0  0
    8.9772    2.5025   22.0273 C   0  0  0  0  0  0  0  0  0  0  0  0
   10.4859    4.0901   20.9730 C   0  0  0  0  0  0  0  0  0  0  0  0
   11.0962    9.3293   23.5072 C   0  0  0  0  0  0  0  0  0  0  0  0
    5.1273    7.8529   23.6208 N   0  0  0  0  0  0  0  0  0  0  0  0
    9.7552    9.2338   23.0171 N   0  0  0  0  0  0  0  0  0  0  0  0
   11.1797    6.7591   21.3326 N   0  0  0  0  0  0  0  0  0  0  0  0
   11.7728    8.0337   23.7267 C   0  0  0  0  0  0  0  0  0  0  0  0
    7.1194    8.3344   24.6775 C   0  0  0  0  0  0  0  0  0  0  0  0
    8.4311    4.7963   22.0500 C   0  0  0  0  0  0  0  0  0  0  0  0
    8.7393   10.8706   24.1871 O   0  0  0  0  0  0  0  0  0  0  0  0
    9.3093    3.8166   21.6712 C   0  0  0  0  0  0  0  0  0  0  0  0
  1  5  1  0
  1 15  4  0
  1 22  4  0
  2 20  1  0
  2 24  1  0
  3  6  4  0
  3 27  4  0
  4 22  4  0
  4 26  4  0
  6  7  4  0
  6 13  1  0
  7 19  4  0
  8 18  1  0
  8 23  1  0
  8 28  2  0
  9 17  1  0
  9 24  1  0
 10 11  1  0
 10 24  1  0
 11 23  1  0
 12 14  4  0
 12 16  4  0
 14 19  4  0
 15 18  4  0
 16 20  4  0
 17 25  1  0
 18 26  4  0
 19 29  4  0
 20 29  4  0
 21 23  1  0
 21 25  1  0
 27 29  4  0
M  END
$$$$

 Created by Python create_sdf_string function

 29 32  0  0  0  0  0  0  0  0999 V2000
    5.4450    8.7154   22.6662 C   0  0  0  0  0  0  0  0  0  0  0  0
   10.9154    5.4574   20.5483 C   0  0  0  0  0  0  0  0  0  0  0  0
    7.2709    4.5089   22.7542 C   0  0  0  0  0  0  0  0  0  0  0  0
    5.9698    7.6329   24.6581 C   0  0  0  0  0  0  0  0  0  0  0  0
    4.5542    8.9057   21.7104 O   0  0  0  0  0  0  0  0  0  0  0  0
    6.9895    3.2085   23.0690 C   0  0  0  0  0  0  0  0  0  0  0  0
    7.8391    2.2253   22.7260 N   0  0  0  0  0  0  0  0  0  0  0  0
    8.6968    9.8373   23.6359 C   0  0  0  0  0  0  0  0  0  0  0  0
   12.5135    6.5957   21.8396 C   0  0  0  0  0  0  0  0  0  0  0  0
   10.9406    8.2330   21.1350 C   0  0  0  0  0  0  0  0  0  0  0  0
    9.6648    8.5956   21.7310 C   0  0  0  0  0  0  0  0  0  0  0  0
   10.8829    1.7153   20.9865 C   0  0  0  0  0  0  0  0  0  0  0  0
    5.7768    2.8533   23.7910 C   0  0  0  0  0  0  0  0  0  0  0  0
    9.7977    1.4791   21.6912 N   0  0  0  0  0  0  0  0  0  0  0  0
    6.5976    9.3401   22.6478 N   0  0  0  0  0  0  0  0  0  0  0  0
   11.2031    3.0042   20.6246 C   0  0  0  0  0  0  0  0  0  0  0  0
   12.8688    7.7370   22.7287 C   0  0  0  0  0  0  0  0  0  0  0  0
    7.4487    9.1361   23.6506 C   0  0  0  0  0  0  0  0  0  0  0  0
    8.9772    2.5025   22.0273 C   0  0  0  0  0  0  0  0  0  0  0  0
   10.4859    4.0901   20.9730 C   0  0  0  0  0  0  0  0  0  0  0  0
   11.0962    9.3293   23.5072 C   0  0  0  0  0  0  0  0  0  0  0  0
    5.1273    7.8529   23.6208 N   0  0  0  0  0  0  0  0  0  0  0  0
    9.7552    9.2338   23.0171 N   0  0  0  0  0  0  0  0  0  0  0  0
   11.1797    6.7591   21.3326 N   0  0  0  0  0  0  0  0  0  0  0  0
   11.7728    8.0337   23.7267 C   0  0  0  0  0  0  0  0  0  0  0  0
    7.1194    8.3344   24.6775 C   0  0  0  0  0  0  0  0  0  0  0  0
    8.4311    4.7963   22.0500 C   0  0  0  0  0  0  0  0  0  0  0  0
    8.7393   10.8706   24.1871 O   0  0  0  0  0  0  0  0  0  0  0  0
    9.3093    3.8166   21.6712 C   0  0  0  0  0  0  0  0  0  0  0  0
  1  5  1  0
  1 15  4  0
  1 22  4  0
  2 20  1  0
  2 24  1  0
  3  6  4  0
  3 27  4  0
  4 22  4  0
  4 26  4  0
  6  7  4  0
  6 13  1  0
  7 19  4  0
  8 18  1  0
  8 23  1  0
  8 28  2  0
  9 17  1  0
  9 24  1  0
 10 11  1  0
 10 24  1  0
 11 23  1  0
 12 14  4  0
 12 16  4  0
 14 19  4  0
 15 18  4  0
 16 20  4  0
 17 25  1  0
 18 26  4  0
 19 29  4  0
 20 29  4  0
 21 23  1  0
 21 25  1  0
 27 29  4  0
M  END
$$$$

 Created by Python create_sdf_string function

 29 32  0  0  0  0  0  0  0  0999 V2000
    5.4450    8.7154   22.6662 C   0  0  0  0  0  0  0  0  0  0  0  0
   10.9154    5.4574   20.5483 C   0  0  0  0  0  0  0  0  0  0  0  0
    7.2709    4.5089   22.7542 C   0  0  0  0  0  0  0  0  0  0  0  0
    5.9698    7.6329   24.6581 C   0  0  0  0  0  0  0  0  0  0  0  0
    4.5542    8.9057   21.7104 O   0  0  0  0  0  0  0  0  0  0  0  0
    6.9895    3.2085   23.0690 C   0  0  0  0  0  0  0  0  0  0  0  0
    7.8391    2.2253   22.7260 N   0  0  0  0  0  0  0  0  0  0  0  0
    8.6968    9.8373   23.6359 C   0  0  0  0  0  0  0  0  0  0  0  0
   12.5135    6.5957   21.8396 C   0  0  0  0  0  0  0  0  0  0  0  0
   10.9406    8.2330   21.1350 C   0  0  0  0  0  0  0  0  0  0  0  0
    9.6648    8.5956   21.7310 C   0  0  0  0  0  0  0  0  0  0  0  0
   10.8829    1.7153   20.9865 C   0  0  0  0  0  0  0  0  0  0  0  0
    5.7768    2.8533   23.7910 C   0  0  0  0  0  0  0  0  0  0  0  0
    9.7977    1.4791   21.6912 N   0  0  0  0  0  0  0  0  0  0  0  0
    6.5976    9.3401   22.6478 N   0  0  0  0  0  0  0  0  0  0  0  0
   11.2031    3.0042   20.6246 C   0  0  0  0  0  0  0  0  0  0  0  0
   12.8688    7.7370   22.7287 C   0  0  0  0  0  0  0  0  0  0  0  0
    7.4487    9.1361   23.6506 C   0  0  0  0  0  0  0  0  0  0  0  0
    8.9772    2.5025   22.0273 C   0  0  0  0  0  0  0  0  0  0  0  0
   10.4859    4.0901   20.9730 C   0  0  0  0  0  0  0  0  0  0  0  0
   11.0962    9.3293   23.5072 C   0  0  0  0  0  0  0  0  0  0  0  0
    5.1273    7.8529   23.6208 N   0  0  0  0  0  0  0  0  0  0  0  0
    9.7552    9.2338   23.0171 N   0  0  0  0  0  0  0  0  0  0  0  0
   11.1797    6.7591   21.3326 N   0  0  0  0  0  0  0  0  0  0  0  0
   11.7728    8.0337   23.7267 C   0  0  0  0  0  0  0  0  0  0  0  0
    7.1194    8.3344   24.6775 C   0  0  0  0  0  0  0  0  0  0  0  0
    8.4311    4.7963   22.0500 C   0  0  0  0  0  0  0  0  0  0  0  0
    8.7393   10.8706   24.1871 O   0  0  0  0  0  0  0  0  0  0  0  0
    9.3093    3.8166   21.6712 C   0  0  0  0  0  0  0  0  0  0  0  0
  1  5  1  0
  1 15  4  0
  1 22  4  0
  2 20  1  0
  2 24  1  0
  3  6  4  0
  3 27  4  0
  4 22  4  0
  4 26  4  0
  6  7  4  0
  6 13  1  0
  7 19  4  0
  8 18  1  0
  8 23  1  0
  8 28  2  0
  9 17  1  0
  9 24  1  0
 10 11  1  0
 10 24  1  0
 11 23  1  0
 12 14  4  0
 12 16  4  0
 14 19  4  0
 15 18  4  0
 16 20  4  0
 17 25  1  0
 18 26  4  0
 19 29  4  0
 20 29  4  0
 21 23  1  0
 21 25  1  0
 27 29  4  0
M  END
$$$$

 Created by Python create_sdf_string function

 29 32  0  0  0  0  0  0  0  0999 V2000
    5.4450    8.7154   22.6662 C   0  0  0  0  0  0  0  0  0  0  0  0
   10.9154    5.4574   20.5483 C   0  0  0  0  0  0  0  0  0  0  0  0
    7.2709    4.5089   22.7542 C   0  0  0  0  0  0  0  0  0  0  0  0
    5.9698    7.6329   24.6581 C   0  0  0  0  0  0  0  0  0  0  0  0
    4.5542    8.9057   21.7104 O   0  0  0  0  0  0  0  0  0  0  0  0
    6.9895    3.2085   23.0690 C   0  0  0  0  0  0  0  0  0  0  0  0
    7.8391    2.2253   22.7260 N   0  0  0  0  0  0  0  0  0  0  0  0
    8.6968    9.8373   23.6359 C   0  0  0  0  0  0  0  0  0  0  0  0
   12.5135    6.5957   21.8396 C   0  0  0  0  0  0  0  0  0  0  0  0
   10.9406    8.2330   21.1350 C   0  0  0  0  0  0  0  0  0  0  0  0
    9.6648    8.5956   21.7310 C   0  0  0  0  0  0  0  0  0  0  0  0
   10.8829    1.7153   20.9865 C   0  0  0  0  0  0  0  0  0  0  0  0
    5.7768    2.8533   23.7910 C   0  0  0  0  0  0  0  0  0  0  0  0
    9.7977    1.4791   21.6912 N   0  0  0  0  0  0  0  0  0  0  0  0
    6.5976    9.3401   22.6478 N   0  0  0  0  0  0  0  0  0  0  0  0
   11.2031    3.0042   20.6246 C   0  0  0  0  0  0  0  0  0  0  0  0
   12.8688    7.7370   22.7287 C   0  0  0  0  0  0  0  0  0  0  0  0
    7.4487    9.1361   23.6506 C   0  0  0  0  0  0  0  0  0  0  0  0
    8.9772    2.5025   22.0273 C   0  0  0  0  0  0  0  0  0  0  0  0
   10.4859    4.0901   20.9730 C   0  0  0  0  0  0  0  0  0  0  0  0
   11.0962    9.3293   23.5072 C   0  0  0  0  0  0  0  0  0  0  0  0
    5.1273    7.8529   23.6208 N   0  0  0  0  0  0  0  0  0  0  0  0
    9.7552    9.2338   23.0171 N   0  0  0  0  0  0  0  0  0  0  0  0
   11.1797    6.7591   21.3326 N   0  0  0  0  0  0  0  0  0  0  0  0
   11.7728    8.0337   23.7267 C   0  0  0  0  0  0  0  0  0  0  0  0
    7.1194    8.3344   24.6775 C   0  0  0  0  0  0  0  0  0  0  0  0
    8.4311    4.7963   22.0500 C   0  0  0  0  0  0  0  0  0  0  0  0
    8.7393   10.8706   24.1871 O   0  0  0  0  0  0  0  0  0  0  0  0
    9.3093    3.8166   21.6712 C   0  0  0  0  0  0  0  0  0  0  0  0
  1  5  1  0
  1 15  4  0
  1 22  4  0
  2 20  1  0
  2 24  1  0
  3  6  4  0
  3 27  4  0
  4 22  4  0
  4 26  4  0
  6  7  4  0
  6 13  1  0
  7 19  4  0
  8 18  1  0
  8 23  1  0
  8 28  2  0
  9 17  1  0
  9 24  1  0
 10 11  1  0
 10 24  1  0
 11 23  1  0
 12 14  4  0
 12 16  4  0
 14 19  4  0
 15 18  4  0
 16 20  4  0
 17 25  1  0
 18 26  4  0
 19 29  4  0
 20 29  4  0
 21 23  1  0
 21 25  1  0
 27 29  4  0
M  END
$$$$

 Created by Python create_sdf_string function

 29 32  0  0  0  0  0  0  0  0999 V2000
    5.4450    8.7154   22.6662 C   0  0  0  0  0  0  0  0  0  0  0  0
   10.9154    5.4574   20.5483 C   0  0  0  0  0  0  0  0  0  0  0  0
    7.2709    4.5089   22.7542 C   0  0  0  0  0  0  0  0  0  0  0  0
    5.9698    7.6329   24.6581 C   0  0  0  0  0  0  0  0  0  0  0  0
    4.5542    8.9057   21.7104 O   0  0  0  0  0  0  0  0  0  0  0  0
    6.9895    3.2085   23.0690 C   0  0  0  0  0  0  0  0  0  0  0  0
    7.8391    2.2253   22.7260 N   0  0  0  0  0  0  0  0  0  0  0  0
    8.6968    9.8373   23.6359 C   0  0  0  0  0  0  0  0  0  0  0  0
   12.5135    6.5957   21.8396 C   0  0  0  0  0  0  0  0  0  0  0  0
   10.9406    8.2330   21.1350 C   0  0  0  0  0  0  0  0  0  0  0  0
    9.6648    8.5956   21.7310 C   0  0  0  0  0  0  0  0  0  0  0  0
   10.8829    1.7153   20.9865 C   0  0  0  0  0  0  0  0  0  0  0  0
    5.7768    2.8533   23.7910 C   0  0  0  0  0  0  0  0  0  0  0  0
    9.7977    1.4791   21.6912 N   0  0  0  0  0  0  0  0  0  0  0  0
    6.5976    9.3401   22.6478 N   0  0  0  0  0  0  0  0  0  0  0  0
   11.2031    3.0042   20.6246 C   0  0  0  0  0  0  0  0  0  0  0  0
   12.8688    7.7370   22.7287 C   0  0  0  0  0  0  0  0  0  0  0  0
    7.4487    9.1361   23.6506 C   0  0  0  0  0  0  0  0  0  0  0  0
    8.9772    2.5025   22.0273 C   0  0  0  0  0  0  0  0  0  0  0  0
   10.4859    4.0901   20.9730 C   0  0  0  0  0  0  0  0  0  0  0  0
   11.0962    9.3293   23.5072 C   0  0  0  0  0  0  0  0  0  0  0  0
    5.1273    7.8529   23.6208 N   0  0  0  0  0  0  0  0  0  0  0  0
    9.7552    9.2338   23.0171 N   0  0  0  0  0  0  0  0  0  0  0  0
   11.1797    6.7591   21.3326 N   0  0  0  0  0  0  0  0  0  0  0  0
   11.7728    8.0337   23.7267 C   0  0  0  0  0  0  0  0  0  0  0  0
    7.1194    8.3344   24.6775 C   0  0  0  0  0  0  0  0  0  0  0  0
    8.4311    4.7963   22.0500 C   0  0  0  0  0  0  0  0  0  0  0  0
    8.7393   10.8706   24.1871 O   0  0  0  0  0  0  0  0  0  0  0  0
    9.3093    3.8166   21.6712 C   0  0  0  0  0  0  0  0  0  0  0  0
  1  5  1  0
  1 15  4  0
  1 22  4  0
  2 20  1  0
  2 24  1  0
  3  6  4  0
  3 27  4  0
  4 22  4  0
  4 26  4  0
  6  7  4  0
  6 13  1  0
  7 19  4  0
  8 18  1  0
  8 23  1  0
  8 28  2  0
  9 17  1  0
  9 24  1  0
 10 11  1  0
 10 24  1  0
 11 23  1  0
 12 14  4  0
 12 16  4  0
 14 19  4  0
 15 18  4  0
 16 20  4  0
 17 25  1  0
 18 26  4  0
 19 29  4  0
 20 29  4  0
 21 23  1  0
 21 25  1  0
 27 29  4  0
M  END
$$$$

 Created by Python create_sdf_string function

 29 32  0  0  0  0  0  0  0  0999 V2000
    5.4450    8.7154   22.6662 C   0  0  0  0  0  0  0  0  0  0  0  0
   10.9154    5.4574   20.5483 C   0  0  0  0  0  0  0  0  0  0  0  0
    7.2709    4.5089   22.7542 C   0  0  0  0  0  0  0  0  0  0  0  0
    5.9698    7.6329   24.6581 C   0  0  0  0  0  0  0  0  0  0  0  0
    4.5542    8.9057   21.7104 O   0  0  0  0  0  0  0  0  0  0  0  0
    6.9895    3.2085   23.0690 C   0  0  0  0  0  0  0  0  0  0  0  0
    7.8391    2.2253   22.7260 N   0  0  0  0  0  0  0  0  0  0  0  0
    8.6968    9.8373   23.6359 C   0  0  0  0  0  0  0  0  0  0  0  0
   12.5135    6.5957   21.8396 C   0  0  0  0  0  0  0  0  0  0  0  0
   10.9406    8.2330   21.1350 C   0  0  0  0  0  0  0  0  0  0  0  0
    9.6648    8.5956   21.7310 C   0  0  0  0  0  0  0  0  0  0  0  0
   10.8829    1.7153   20.9865 C   0  0  0  0  0  0  0  0  0  0  0  0
    5.7768    2.8533   23.7910 C   0  0  0  0  0  0  0  0  0  0  0  0
    9.7977    1.4791   21.6912 N   0  0  0  0  0  0  0  0  0  0  0  0
    6.5976    9.3401   22.6478 N   0  0  0  0  0  0  0  0  0  0  0  0
   11.2031    3.0042   20.6246 C   0  0  0  0  0  0  0  0  0  0  0  0
   12.8688    7.7370   22.7287 C   0  0  0  0  0  0  0  0  0  0  0  0
    7.4487    9.1361   23.6506 C   0  0  0  0  0  0  0  0  0  0  0  0
    8.9772    2.5025   22.0273 C   0  0  0  0  0  0  0  0  0  0  0  0
   10.4859    4.0901   20.9730 C   0  0  0  0  0  0  0  0  0  0  0  0
   11.0962    9.3293   23.5072 C   0  0  0  0  0  0  0  0  0  0  0  0
    5.1273    7.8529   23.6208 N   0  0  0  0  0  0  0  0  0  0  0  0
    9.7552    9.2338   23.0171 N   0  0  0  0  0  0  0  0  0  0  0  0
   11.1797    6.7591   21.3326 N   0  0  0  0  0  0  0  0  0  0  0  0
   11.7728    8.0337   23.7267 C   0  0  0  0  0  0  0  0  0  0  0  0
    7.1194    8.3344   24.6775 C   0  0  0  0  0  0  0  0  0  0  0  0
    8.4311    4.7963   22.0500 C   0  0  0  0  0  0  0  0  0  0  0  0
    8.7393   10.8706   24.1871 O   0  0  0  0  0  0  0  0  0  0  0  0
    9.3093    3.8166   21.6712 C   0  0  0  0  0  0  0  0  0  0  0  0
  1  5  1  0
  1 15  4  0
  1 22  4  0
  2 20  1  0
  2 24  1  0
  3  6  4  0
  3 27  4  0
  4 22  4  0
  4 26  4  0
  6  7  4  0
  6 13  1  0
  7 19  4  0
  8 18  1  0
  8 23  1  0
  8 28  2  0
  9 17  1  0
  9 24  1  0
 10 11  1  0
 10 24  1  0
 11 23  1  0
 12 14  4  0
 12 16  4  0
 14 19  4  0
 15 18  4  0
 16 20  4  0
 17 25  1  0
 18 26  4  0
 19 29  4  0
 20 29  4  0
 21 23  1  0
 21 25  1  0
 27 29  4  0
M  END
$$$$

 Created by Python create_sdf_string function

 29 32  0  0  0  0  0  0  0  0999 V2000
    5.4450    8.7154   22.6662 C   0  0  0  0  0  0  0  0  0  0  0  0
   10.9154    5.4574   20.5483 C   0  0  0  0  0  0  0  0  0  0  0  0
    7.2709    4.5089   22.7542 C   0  0  0  0  0  0  0  0  0  0  0  0
    5.9698    7.6329   24.6581 C   0  0  0  0  0  0  0  0  0  0  0  0
    4.5542    8.9057   21.7104 O   0  0  0  0  0  0  0  0  0  0  0  0
    6.9895    3.2085   23.0690 C   0  0  0  0  0  0  0  0  0  0  0  0
    7.8391    2.2253   22.7260 N   0  0  0  0  0  0  0  0  0  0  0  0
    8.6968    9.8373   23.6359 C   0  0  0  0  0  0  0  0  0  0  0  0
   12.5135    6.5957   21.8396 C   0  0  0  0  0  0  0  0  0  0  0  0
   10.9406    8.2330   21.1350 C   0  0  0  0  0  0  0  0  0  0  0  0
    9.6648    8.5956   21.7310 C   0  0  0  0  0  0  0  0  0  0  0  0
   10.8829    1.7153   20.9865 C   0  0  0  0  0  0  0  0  0  0  0  0
    5.7768    2.8533   23.7910 C   0  0  0  0  0  0  0  0  0  0  0  0
    9.7977    1.4791   21.6912 N   0  0  0  0  0  0  0  0  0  0  0  0
    6.5976    9.3401   22.6478 N   0  0  0  0  0  0  0  0  0  0  0  0
   11.2031    3.0042   20.6246 C   0  0  0  0  0  0  0  0  0  0  0  0
   12.8688    7.7370   22.7287 C   0  0  0  0  0  0  0  0  0  0  0  0
    7.4487    9.1361   23.6506 C   0  0  0  0  0  0  0  0  0  0  0  0
    8.9772    2.5025   22.0273 C   0  0  0  0  0  0  0  0  0  0  0  0
   10.4859    4.0901   20.9730 C   0  0  0  0  0  0  0  0  0  0  0  0
   11.0962    9.3293   23.5072 C   0  0  0  0  0  0  0  0  0  0  0  0
    5.1273    7.8529   23.6208 N   0  0  0  0  0  0  0  0  0  0  0  0
    9.7552    9.2338   23.0171 N   0  0  0  0  0  0  0  0  0  0  0  0
   11.1797    6.7591   21.3326 N   0  0  0  0  0  0  0  0  0  0  0  0
   11.7728    8.0337   23.7267 C   0  0  0  0  0  0  0  0  0  0  0  0
    7.1194    8.3344   24.6775 C   0  0  0  0  0  0  0  0  0  0  0  0
    8.4311    4.7963   22.0500 C   0  0  0  0  0  0  0  0  0  0  0  0
    8.7393   10.8706   24.1871 O   0  0  0  0  0  0  0  0  0  0  0  0
    9.3093    3.8166   21.6712 C   0  0  0  0  0  0  0  0  0  0  0  0
  1  5  1  0
  1 15  4  0
  1 22  4  0
  2 20  1  0
  2 24  1  0
  3  6  4  0
  3 27  4  0
  4 22  4  0
  4 26  4  0
  6  7  4  0
  6 13  1  0
  7 19  4  0
  8 18  1  0
  8 23  1  0
  8 28  2  0
  9 17  1  0
  9 24  1  0
 10 11  1  0
 10 24  1  0
 11 23  1  0
 12 14  4  0
 12 16  4  0
 14 19  4  0
 15 18  4  0
 16 20  4  0
 17 25  1  0
 18 26  4  0
 19 29  4  0
 20 29  4  0
 21 23  1  0
 21 25  1  0
 27 29  4  0
M  END
$$$$

 Created by Python create_sdf_string function

 29 32  0  0  0  0  0  0  0  0999 V2000
    5.4450    8.7154   22.6662 C   0  0  0  0  0  0  0  0  0  0  0  0
   10.9154    5.4574   20.5483 C   0  0  0  0  0  0  0  0  0  0  0  0
    7.2709    4.5089   22.7542 C   0  0  0  0  0  0  0  0  0  0  0  0
    5.9698    7.6329   24.6581 C   0  0  0  0  0  0  0  0  0  0  0  0
    4.5542    8.9057   21.7104 O   0  0  0  0  0  0  0  0  0  0  0  0
    6.9895    3.2085   23.0690 C   0  0  0  0  0  0  0  0  0  0  0  0
    7.8391    2.2253   22.7260 N   0  0  0  0  0  0  0  0  0  0  0  0
    8.6968    9.8373   23.6359 C   0  0  0  0  0  0  0  0  0  0  0  0
   12.5135    6.5957   21.8396 C   0  0  0  0  0  0  0  0  0  0  0  0
   10.9406    8.2330   21.1350 C   0  0  0  0  0  0  0  0  0  0  0  0
    9.6648    8.5956   21.7310 C   0  0  0  0  0  0  0  0  0  0  0  0
   10.8829    1.7153   20.9865 C   0  0  0  0  0  0  0  0  0  0  0  0
    5.7768    2.8533   23.7910 C   0  0  0  0  0  0  0  0  0  0  0  0
    9.7977    1.4791   21.6912 N   0  0  0  0  0  0  0  0  0  0  0  0
    6.5976    9.3401   22.6478 N   0  0  0  0  0  0  0  0  0  0  0  0
   11.2031    3.0042   20.6246 C   0  0  0  0  0  0  0  0  0  0  0  0
   12.8688    7.7370   22.7287 C   0  0  0  0  0  0  0  0  0  0  0  0
    7.4487    9.1361   23.6506 C   0  0  0  0  0  0  0  0  0  0  0  0
    8.9772    2.5025   22.0273 C   0  0  0  0  0  0  0  0  0  0  0  0
   10.4859    4.0901   20.9730 C   0  0  0  0  0  0  0  0  0  0  0  0
   11.0962    9.3293   23.5072 C   0  0  0  0  0  0  0  0  0  0  0  0
    5.1273    7.8529   23.6208 N   0  0  0  0  0  0  0  0  0  0  0  0
    9.7552    9.2338   23.0171 N   0  0  0  0  0  0  0  0  0  0  0  0
   11.1797    6.7591   21.3326 N   0  0  0  0  0  0  0  0  0  0  0  0
   11.7728    8.0337   23.7267 C   0  0  0  0  0  0  0  0  0  0  0  0
    7.1194    8.3344   24.6775 C   0  0  0  0  0  0  0  0  0  0  0  0
    8.4311    4.7963   22.0500 C   0  0  0  0  0  0  0  0  0  0  0  0
    8.7393   10.8706   24.1871 O   0  0  0  0  0  0  0  0  0  0  0  0
    9.3093    3.8166   21.6712 C   0  0  0  0  0  0  0  0  0  0  0  0
  1  5  1  0
  1 15  4  0
  1 22  4  0
  2 20  1  0
  2 24  1  0
  3  6  4  0
  3 27  4  0
  4 22  4  0
  4 26  4  0
  6  7  4  0
  6 13  1  0
  7 19  4  0
  8 18  1  0
  8 23  1  0
  8 28  2  0
  9 17  1  0
  9 24  1  0
 10 11  1  0
 10 24  1  0
 11 23  1  0
 12 14  4  0
 12 16  4  0
 14 19  4  0
 15 18  4  0
 16 20  4  0
 17 25  1  0
 18 26  4  0
 19 29  4  0
 20 29  4  0
 21 23  1  0
 21 25  1  0
 27 29  4  0
M  END
$$$$

 Created by Python create_sdf_string function

 29 32  0  0  0  0  0  0  0  0999 V2000
    5.4450    8.7154   22.6662 C   0  0  0  0  0  0  0  0  0  0  0  0
   10.9154    5.4574   20.5483 C   0  0  0  0  0  0  0  0  0  0  0  0
    7.2709    4.5089   22.7542 C   0  0  0  0  0  0  0  0  0  0  0  0
    5.9698    7.6329   24.6581 C   0  0  0  0  0  0  0  0  0  0  0  0
    4.5542    8.9057   21.7104 O   0  0  0  0  0  0  0  0  0  0  0  0
    6.9895    3.2085   23.0690 C   0  0  0  0  0  0  0  0  0  0  0  0
    7.8391    2.2253   22.7260 N   0  0  0  0  0  0  0  0  0  0  0  0
    8.6968    9.8373   23.6359 C   0  0  0  0  0  0  0  0  0  0  0  0
   12.5135    6.5957   21.8396 C   0  0  0  0  0  0  0  0  0  0  0  0
   10.9406    8.2330   21.1350 C   0  0  0  0  0  0  0  0  0  0  0  0
    9.6648    8.5956   21.7310 C   0  0  0  0  0  0  0  0  0  0  0  0
   10.8829    1.7153   20.9865 C   0  0  0  0  0  0  0  0  0  0  0  0
    5.7768    2.8533   23.7910 C   0  0  0  0  0  0  0  0  0  0  0  0
    9.7977    1.4791   21.6912 N   0  0  0  0  0  0  0  0  0  0  0  0
    6.5976    9.3401   22.6478 N   0  0  0  0  0  0  0  0  0  0  0  0
   11.2031    3.0042   20.6246 C   0  0  0  0  0  0  0  0  0  0  0  0
   12.8688    7.7370   22.7287 C   0  0  0  0  0  0  0  0  0  0  0  0
    7.4487    9.1361   23.6506 C   0  0  0  0  0  0  0  0  0  0  0  0
    8.9772    2.5025   22.0273 C   0  0  0  0  0  0  0  0  0  0  0  0
   10.4859    4.0901   20.9730 C   0  0  0  0  0  0  0  0  0  0  0  0
   11.0962    9.3293   23.5072 C   0  0  0  0  0  0  0  0  0  0  0  0
    5.1273    7.8529   23.6208 N   0  0  0  0  0  0  0  0  0  0  0  0
    9.7552    9.2338   23.0171 N   0  0  0  0  0  0  0  0  0  0  0  0
   11.1797    6.7591   21.3326 N   0  0  0  0  0  0  0  0  0  0  0  0
   11.7728    8.0337   23.7267 C   0  0  0  0  0  0  0  0  0  0  0  0
    7.1194    8.3344   24.6775 C   0  0  0  0  0  0  0  0  0  0  0  0
    8.4311    4.7963   22.0500 C   0  0  0  0  0  0  0  0  0  0  0  0
    8.7393   10.8706   24.1871 O   0  0  0  0  0  0  0  0  0  0  0  0
    9.3093    3.8166   21.6712 C   0  0  0  0  0  0  0  0  0  0  0  0
  1  5  1  0
  1 15  4  0
  1 22  4  0
  2 20  1  0
  2 24  1  0
  3  6  4  0
  3 27  4  0
  4 22  4  0
  4 26  4  0
  6  7  4  0
  6 13  1  0
  7 19  4  0
  8 18  1  0
  8 23  1  0
  8 28  2  0
  9 17  1  0
  9 24  1  0
 10 11  1  0
 10 24  1  0
 11 23  1  0
 12 14  4  0
 12 16  4  0
 14 19  4  0
 15 18  4  0
 16 20  4  0
 17 25  1  0
 18 26  4  0
 19 29  4  0
 20 29  4  0
 21 23  1  0
 21 25  1  0
 27 29  4  0
M  END
$$$$

 Created by Python create_sdf_string function

 29 32  0  0  0  0  0  0  0  0999 V2000
    5.4450    8.7154   22.6662 C   0  0  0  0  0  0  0  0  0  0  0  0
   10.9154    5.4574   20.5483 C   0  0  0  0  0  0  0  0  0  0  0  0
    7.2709    4.5089   22.7542 C   0  0  0  0  0  0  0  0  0  0  0  0
    5.9698    7.6329   24.6581 C   0  0  0  0  0  0  0  0  0  0  0  0
    4.5542    8.9057   21.7104 O   0  0  0  0  0  0  0  0  0  0  0  0
    6.9895    3.2085   23.0690 C   0  0  0  0  0  0  0  0  0  0  0  0
    7.8391    2.2253   22.7260 N   0  0  0  0  0  0  0  0  0  0  0  0
    8.6968    9.8373   23.6359 C   0  0  0  0  0  0  0  0  0  0  0  0
   12.5135    6.5957   21.8396 C   0  0  0  0  0  0  0  0  0  0  0  0
   10.9406    8.2330   21.1350 C   0  0  0  0  0  0  0  0  0  0  0  0
    9.6648    8.5956   21.7310 C   0  0  0  0  0  0  0  0  0  0  0  0
   10.8829    1.7153   20.9865 C   0  0  0  0  0  0  0  0  0  0  0  0
    5.7768    2.8533   23.7910 C   0  0  0  0  0  0  0  0  0  0  0  0
    9.7977    1.4791   21.6912 N   0  0  0  0  0  0  0  0  0  0  0  0
    6.5976    9.3401   22.6478 N   0  0  0  0  0  0  0  0  0  0  0  0
   11.2031    3.0042   20.6246 C   0  0  0  0  0  0  0  0  0  0  0  0
   12.8688    7.7370   22.7287 C   0  0  0  0  0  0  0  0  0  0  0  0
    7.4487    9.1361   23.6506 C   0  0  0  0  0  0  0  0  0  0  0  0
    8.9772    2.5025   22.0273 C   0  0  0  0  0  0  0  0  0  0  0  0
   10.4859    4.0901   20.9730 C   0  0  0  0  0  0  0  0  0  0  0  0
   11.0962    9.3293   23.5072 C   0  0  0  0  0  0  0  0  0  0  0  0
    5.1273    7.8529   23.6208 N   0  0  0  0  0  0  0  0  0  0  0  0
    9.7552    9.2338   23.0171 N   0  0  0  0  0  0  0  0  0  0  0  0
   11.1797    6.7591   21.3326 N   0  0  0  0  0  0  0  0  0  0  0  0
   11.7728    8.0337   23.7267 C   0  0  0  0  0  0  0  0  0  0  0  0
    7.1194    8.3344   24.6775 C   0  0  0  0  0  0  0  0  0  0  0  0
    8.4311    4.7963   22.0500 C   0  0  0  0  0  0  0  0  0  0  0  0
    8.7393   10.8706   24.1871 O   0  0  0  0  0  0  0  0  0  0  0  0
    9.3093    3.8166   21.6712 C   0  0  0  0  0  0  0  0  0  0  0  0
  1  5  1  0
  1 15  4  0
  1 22  4  0
  2 20  1  0
  2 24  1  0
  3  6  4  0
  3 27  4  0
  4 22  4  0
  4 26  4  0
  6  7  4  0
  6 13  1  0
  7 19  4  0
  8 18  1  0
  8 23  1  0
  8 28  2  0
  9 17  1  0
  9 24  1  0
 10 11  1  0
 10 24  1  0
 11 23  1  0
 12 14  4  0
 12 16  4  0
 14 19  4  0
 15 18  4  0
 16 20  4  0
 17 25  1  0
 18 26  4  0
 19 29  4  0
 20 29  4  0
 21 23  1  0
 21 25  1  0
 27 29  4  0
M  END
$$$$

 Created by Python create_sdf_string function

 29 32  0  0  0  0  0  0  0  0999 V2000
    5.4450    8.7154   22.6662 C   0  0  0  0  0  0  0  0  0  0  0  0
   10.9154    5.4574   20.5483 C   0  0  0  0  0  0  0  0  0  0  0  0
    7.2709    4.5089   22.7542 C   0  0  0  0  0  0  0  0  0  0  0  0
    5.9698    7.6329   24.6581 C   0  0  0  0  0  0  0  0  0  0  0  0
    4.5542    8.9057   21.7104 O   0  0  0  0  0  0  0  0  0  0  0  0
    6.9895    3.2085   23.0690 C   0  0  0  0  0  0  0  0  0  0  0  0
    7.8391    2.2253   22.7260 N   0  0  0  0  0  0  0  0  0  0  0  0
    8.6968    9.8373   23.6359 C   0  0  0  0  0  0  0  0  0  0  0  0
   12.5135    6.5957   21.8396 C   0  0  0  0  0  0  0  0  0  0  0  0
   10.9406    8.2330   21.1350 C   0  0  0  0  0  0  0  0  0  0  0  0
    9.6648    8.5956   21.7310 C   0  0  0  0  0  0  0  0  0  0  0  0
   10.8829    1.7153   20.9865 C   0  0  0  0  0  0  0  0  0  0  0  0
    5.7768    2.8533   23.7910 C   0  0  0  0  0  0  0  0  0  0  0  0
    9.7977    1.4791   21.6912 N   0  0  0  0  0  0  0  0  0  0  0  0
    6.5976    9.3401   22.6478 N   0  0  0  0  0  0  0  0  0  0  0  0
   11.2031    3.0042   20.6246 C   0  0  0  0  0  0  0  0  0  0  0  0
   12.8688    7.7370   22.7287 C   0  0  0  0  0  0  0  0  0  0  0  0
    7.4487    9.1361   23.6506 C   0  0  0  0  0  0  0  0  0  0  0  0
    8.9772    2.5025   22.0273 C   0  0  0  0  0  0  0  0  0  0  0  0
   10.4859    4.0901   20.9730 C   0  0  0  0  0  0  0  0  0  0  0  0
   11.0962    9.3293   23.5072 C   0  0  0  0  0  0  0  0  0  0  0  0
    5.1273    7.8529   23.6208 N   0  0  0  0  0  0  0  0  0  0  0  0
    9.7552    9.2338   23.0171 N   0  0  0  0  0  0  0  0  0  0  0  0
   11.1797    6.7591   21.3326 N   0  0  0  0  0  0  0  0  0  0  0  0
   11.7728    8.0337   23.7267 C   0  0  0  0  0  0  0  0  0  0  0  0
    7.1194    8.3344   24.6775 C   0  0  0  0  0  0  0  0  0  0  0  0
    8.4311    4.7963   22.0500 C   0  0  0  0  0  0  0  0  0  0  0  0
    8.7393   10.8706   24.1871 O   0  0  0  0  0  0  0  0  0  0  0  0
    9.3093    3.8166   21.6712 C   0  0  0  0  0  0  0  0  0  0  0  0
  1  5  1  0
  1 15  4  0
  1 22  4  0
  2 20  1  0
  2 24  1  0
  3  6  4  0
  3 27  4  0
  4 22  4  0
  4 26  4  0
  6  7  4  0
  6 13  1  0
  7 19  4  0
  8 18  1  0
  8 23  1  0
  8 28  2  0
  9 17  1  0
  9 24  1  0
 10 11  1  0
 10 24  1  0
 11 23  1  0
 12 14  4  0
 12 16  4  0
 14 19  4  0
 15 18  4  0
 16 20  4  0
 17 25  1  0
 18 26  4  0
 19 29  4  0
 20 29  4  0
 21 23  1  0
 21 25  1  0
 27 29  4  0
M  END
$$$$

 Created by Python create_sdf_string function

 29 32  0  0  0  0  0  0  0  0999 V2000
    5.4450    8.7154   22.6662 C   0  0  0  0  0  0  0  0  0  0  0  0
   10.9154    5.4574   20.5483 C   0  0  0  0  0  0  0  0  0  0  0  0
    7.2709    4.5089   22.7542 C   0  0  0  0  0  0  0  0  0  0  0  0
    5.9698    7.6329   24.6581 C   0  0  0  0  0  0  0  0  0  0  0  0
    4.5542    8.9057   21.7104 O   0  0  0  0  0  0  0  0  0  0  0  0
    6.9895    3.2085   23.0690 C   0  0  0  0  0  0  0  0  0  0  0  0
    7.8391    2.2253   22.7260 N   0  0  0  0  0  0  0  0  0  0  0  0
    8.6968    9.8373   23.6359 C   0  0  0  0  0  0  0  0  0  0  0  0
   12.5135    6.5957   21.8396 C   0  0  0  0  0  0  0  0  0  0  0  0
   10.9406    8.2330   21.1350 C   0  0  0  0  0  0  0  0  0  0  0  0
    9.6648    8.5956   21.7310 C   0  0  0  0  0  0  0  0  0  0  0  0
   10.8829    1.7153   20.9865 C   0  0  0  0  0  0  0  0  0  0  0  0
    5.7768    2.8533   23.7910 C   0  0  0  0  0  0  0  0  0  0  0  0
    9.7977    1.4791   21.6912 N   0  0  0  0  0  0  0  0  0  0  0  0
    6.5976    9.3401   22.6478 N   0  0  0  0  0  0  0  0  0  0  0  0
   11.2031    3.0042   20.6246 C   0  0  0  0  0  0  0  0  0  0  0  0
   12.8688    7.7370   22.7287 C   0  0  0  0  0  0  0  0  0  0  0  0
    7.4487    9.1361   23.6506 C   0  0  0  0  0  0  0  0  0  0  0  0
    8.9772    2.5025   22.0273 C   0  0  0  0  0  0  0  0  0  0  0  0
   10.4859    4.0901   20.9730 C   0  0  0  0  0  0  0  0  0  0  0  0
   11.0962    9.3293   23.5072 C   0  0  0  0  0  0  0  0  0  0  0  0
    5.1273    7.8529   23.6208 N   0  0  0  0  0  0  0  0  0  0  0  0
    9.7552    9.2338   23.0171 N   0  0  0  0  0  0  0  0  0  0  0  0
   11.1797    6.7591   21.3326 N   0  0  0  0  0  0  0  0  0  0  0  0
   11.7728    8.0337   23.7267 C   0  0  0  0  0  0  0  0  0  0  0  0
    7.1194    8.3344   24.6775 C   0  0  0  0  0  0  0  0  0  0  0  0
    8.4311    4.7963   22.0500 C   0  0  0  0  0  0  0  0  0  0  0  0
    8.7393   10.8706   24.1871 O   0  0  0  0  0  0  0  0  0  0  0  0
    9.3093    3.8166   21.6712 C   0  0  0  0  0  0  0  0  0  0  0  0
  1  5  1  0
  1 15  4  0
  1 22  4  0
  2 20  1  0
  2 24  1  0
  3  6  4  0
  3 27  4  0
  4 22  4  0
  4 26  4  0
  6  7  4  0
  6 13  1  0
  7 19  4  0
  8 18  1  0
  8 23  1  0
  8 28  2  0
  9 17  1  0
  9 24  1  0
 10 11  1  0
 10 24  1  0
 11 23  1  0
 12 14  4  0
 12 16  4  0
 14 19  4  0
 15 18  4  0
 16 20  4  0
 17 25  1  0
 18 26  4  0
 19 29  4  0
 20 29  4  0
 21 23  1  0
 21 25  1  0
 27 29  4  0
M  END
$$$$

 Created by Python create_sdf_string function

 29 32  0  0  0  0  0  0  0  0999 V2000
    5.4450    8.7154   22.6662 C   0  0  0  0  0  0  0  0  0  0  0  0
   10.9154    5.4574   20.5483 C   0  0  0  0  0  0  0  0  0  0  0  0
    7.2709    4.5089   22.7542 C   0  0  0  0  0  0  0  0  0  0  0  0
    5.9698    7.6329   24.6581 C   0  0  0  0  0  0  0  0  0  0  0  0
    4.5542    8.9057   21.7104 O   0  0  0  0  0  0  0  0  0  0  0  0
    6.9895    3.2085   23.0690 C   0  0  0  0  0  0  0  0  0  0  0  0
    7.8391    2.2253   22.7260 N   0  0  0  0  0  0  0  0  0  0  0  0
    8.6968    9.8373   23.6359 C   0  0  0  0  0  0  0  0  0  0  0  0
   12.5135    6.5957   21.8396 C   0  0  0  0  0  0  0  0  0  0  0  0
   10.9406    8.2330   21.1350 C   0  0  0  0  0  0  0  0  0  0  0  0
    9.6648    8.5956   21.7310 C   0  0  0  0  0  0  0  0  0  0  0  0
   10.8829    1.7153   20.9865 C   0  0  0  0  0  0  0  0  0  0  0  0
    5.7768    2.8533   23.7910 C   0  0  0  0  0  0  0  0  0  0  0  0
    9.7977    1.4791   21.6912 N   0  0  0  0  0  0  0  0  0  0  0  0
    6.5976    9.3401   22.6478 N   0  0  0  0  0  0  0  0  0  0  0  0
   11.2031    3.0042   20.6246 C   0  0  0  0  0  0  0  0  0  0  0  0
   12.8688    7.7370   22.7287 C   0  0  0  0  0  0  0  0  0  0  0  0
    7.4487    9.1361   23.6506 C   0  0  0  0  0  0  0  0  0  0  0  0
    8.9772    2.5025   22.0273 C   0  0  0  0  0  0  0  0  0  0  0  0
   10.4859    4.0901   20.9730 C   0  0  0  0  0  0  0  0  0  0  0  0
   11.0962    9.3293   23.5072 C   0  0  0  0  0  0  0  0  0  0  0  0
    5.1273    7.8529   23.6208 N   0  0  0  0  0  0  0  0  0  0  0  0
    9.7552    9.2338   23.0171 N   0  0  0  0  0  0  0  0  0  0  0  0
   11.1797    6.7591   21.3326 N   0  0  0  0  0  0  0  0  0  0  0  0
   11.7728    8.0337   23.7267 C   0  0  0  0  0  0  0  0  0  0  0  0
    7.1194    8.3344   24.6775 C   0  0  0  0  0  0  0  0  0  0  0  0
    8.4311    4.7963   22.0500 C   0  0  0  0  0  0  0  0  0  0  0  0
    8.7393   10.8706   24.1871 O   0  0  0  0  0  0  0  0  0  0  0  0
    9.3093    3.8166   21.6712 C   0  0  0  0  0  0  0  0  0  0  0  0
  1  5  1  0
  1 15  4  0
  1 22  4  0
  2 20  1  0
  2 24  1  0
  3  6  4  0
  3 27  4  0
  4 22  4  0
  4 26  4  0
  6  7  4  0
  6 13  1  0
  7 19  4  0
  8 18  1  0
  8 23  1  0
  8 28  2  0
  9 17  1  0
  9 24  1  0
 10 11  1  0
 10 24  1  0
 11 23  1  0
 12 14  4  0
 12 16  4  0
 14 19  4  0
 15 18  4  0
 16 20  4  0
 17 25  1  0
 18 26  4  0
 19 29  4  0
 20 29  4  0
 21 23  1  0
 21 25  1  0
 27 29  4  0
M  END
$$$$

 Created by Python create_sdf_string function

 29 32  0  0  0  0  0  0  0  0999 V2000
    5.4450    8.7154   22.6662 C   0  0  0  0  0  0  0  0  0  0  0  0
   10.9154    5.4574   20.5483 C   0  0  0  0  0  0  0  0  0  0  0  0
    7.2709    4.5089   22.7542 C   0  0  0  0  0  0  0  0  0  0  0  0
    5.9698    7.6329   24.6581 C   0  0  0  0  0  0  0  0  0  0  0  0
    4.5542    8.9057   21.7104 O   0  0  0  0  0  0  0  0  0  0  0  0
    6.9895    3.2085   23.0690 C   0  0  0  0  0  0  0  0  0  0  0  0
    7.8391    2.2253   22.7260 N   0  0  0  0  0  0  0  0  0  0  0  0
    8.6968    9.8373   23.6359 C   0  0  0  0  0  0  0  0  0  0  0  0
   12.5135    6.5957   21.8396 C   0  0  0  0  0  0  0  0  0  0  0  0
   10.9406    8.2330   21.1350 C   0  0  0  0  0  0  0  0  0  0  0  0
    9.6648    8.5956   21.7310 C   0  0  0  0  0  0  0  0  0  0  0  0
   10.8829    1.7153   20.9865 C   0  0  0  0  0  0  0  0  0  0  0  0
    5.7768    2.8533   23.7910 C   0  0  0  0  0  0  0  0  0  0  0  0
    9.7977    1.4791   21.6912 N   0  0  0  0  0  0  0  0  0  0  0  0
    6.5976    9.3401   22.6478 N   0  0  0  0  0  0  0  0  0  0  0  0
   11.2031    3.0042   20.6246 C   0  0  0  0  0  0  0  0  0  0  0  0
   12.8688    7.7370   22.7287 C   0  0  0  0  0  0  0  0  0  0  0  0
    7.4487    9.1361   23.6506 C   0  0  0  0  0  0  0  0  0  0  0  0
    8.9772    2.5025   22.0273 C   0  0  0  0  0  0  0  0  0  0  0  0
   10.4859    4.0901   20.9730 C   0  0  0  0  0  0  0  0  0  0  0  0
   11.0962    9.3293   23.5072 C   0  0  0  0  0  0  0  0  0  0  0  0
    5.1273    7.8529   23.6208 N   0  0  0  0  0  0  0  0  0  0  0  0
    9.7552    9.2338   23.0171 N   0  0  0  0  0  0  0  0  0  0  0  0
   11.1797    6.7591   21.3326 N   0  0  0  0  0  0  0  0  0  0  0  0
   11.7728    8.0337   23.7267 C   0  0  0  0  0  0  0  0  0  0  0  0
    7.1194    8.3344   24.6775 C   0  0  0  0  0  0  0  0  0  0  0  0
    8.4311    4.7963   22.0500 C   0  0  0  0  0  0  0  0  0  0  0  0
    8.7393   10.8706   24.1871 O   0  0  0  0  0  0  0  0  0  0  0  0
    9.3093    3.8166   21.6712 C   0  0  0  0  0  0  0  0  0  0  0  0
  1  5  1  0
  1 15  4  0
  1 22  4  0
  2 20  1  0
  2 24  1  0
  3  6  4  0
  3 27  4  0
  4 22  4  0
  4 26  4  0
  6  7  4  0
  6 13  1  0
  7 19  4  0
  8 18  1  0
  8 23  1  0
  8 28  2  0
  9 17  1  0
  9 24  1  0
 10 11  1  0
 10 24  1  0
 11 23  1  0
 12 14  4  0
 12 16  4  0
 14 19  4  0
 15 18  4  0
 16 20  4  0
 17 25  1  0
 18 26  4  0
 19 29  4  0
 20 29  4  0
 21 23  1  0
 21 25  1  0
 27 29  4  0
M  END
$$$$

 Created by Python create_sdf_string function

 29 32  0  0  0  0  0  0  0  0999 V2000
    5.4450    8.7154   22.6662 C   0  0  0  0  0  0  0  0  0  0  0  0
   10.9154    5.4574   20.5483 C   0  0  0  0  0  0  0  0  0  0  0  0
    7.2709    4.5089   22.7542 C   0  0  0  0  0  0  0  0  0  0  0  0
    5.9698    7.6329   24.6581 C   0  0  0  0  0  0  0  0  0  0  0  0
    4.5542    8.9057   21.7104 O   0  0  0  0  0  0  0  0  0  0  0  0
    6.9895    3.2085   23.0690 C   0  0  0  0  0  0  0  0  0  0  0  0
    7.8391    2.2253   22.7260 N   0  0  0  0  0  0  0  0  0  0  0  0
    8.6968    9.8373   23.6359 C   0  0  0  0  0  0  0  0  0  0  0  0
   12.5135    6.5957   21.8396 C   0  0  0  0  0  0  0  0  0  0  0  0
   10.9406    8.2330   21.1350 C   0  0  0  0  0  0  0  0  0  0  0  0
    9.6648    8.5956   21.7310 C   0  0  0  0  0  0  0  0  0  0  0  0
   10.8829    1.7153   20.9865 C   0  0  0  0  0  0  0  0  0  0  0  0
    5.7768    2.8533   23.7910 C   0  0  0  0  0  0  0  0  0  0  0  0
    9.7977    1.4791   21.6912 N   0  0  0  0  0  0  0  0  0  0  0  0
    6.5976    9.3401   22.6478 N   0  0  0  0  0  0  0  0  0  0  0  0
   11.2031    3.0042   20.6246 C   0  0  0  0  0  0  0  0  0  0  0  0
   12.8688    7.7370   22.7287 C   0  0  0  0  0  0  0  0  0  0  0  0
    7.4487    9.1361   23.6506 C   0  0  0  0  0  0  0  0  0  0  0  0
    8.9772    2.5025   22.0273 C   0  0  0  0  0  0  0  0  0  0  0  0
   10.4859    4.0901   20.9730 C   0  0  0  0  0  0  0  0  0  0  0  0
   11.0962    9.3293   23.5072 C   0  0  0  0  0  0  0  0  0  0  0  0
    5.1273    7.8529   23.6208 N   0  0  0  0  0  0  0  0  0  0  0  0
    9.7552    9.2338   23.0171 N   0  0  0  0  0  0  0  0  0  0  0  0
   11.1797    6.7591   21.3326 N   0  0  0  0  0  0  0  0  0  0  0  0
   11.7728    8.0337   23.7267 C   0  0  0  0  0  0  0  0  0  0  0  0
    7.1194    8.3344   24.6775 C   0  0  0  0  0  0  0  0  0  0  0  0
    8.4311    4.7963   22.0500 C   0  0  0  0  0  0  0  0  0  0  0  0
    8.7393   10.8706   24.1871 O   0  0  0  0  0  0  0  0  0  0  0  0
    9.3093    3.8166   21.6712 C   0  0  0  0  0  0  0  0  0  0  0  0
  1  5  1  0
  1 15  4  0
  1 22  4  0
  2 20  1  0
  2 24  1  0
  3  6  4  0
  3 27  4  0
  4 22  4  0
  4 26  4  0
  6  7  4  0
  6 13  1  0
  7 19  4  0
  8 18  1  0
  8 23  1  0
  8 28  2  0
  9 17  1  0
  9 24  1  0
 10 11  1  0
 10 24  1  0
 11 23  1  0
 12 14  4  0
 12 16  4  0
 14 19  4  0
 15 18  4  0
 16 20  4  0
 17 25  1  0
 18 26  4  0
 19 29  4  0
 20 29  4  0
 21 23  1  0
 21 25  1  0
 27 29  4  0
M  END
$$$$

 Created by Python create_sdf_string function

 29 32  0  0  0  0  0  0  0  0999 V2000
    5.4450    8.7154   22.6662 C   0  0  0  0  0  0  0  0  0  0  0  0
   10.9154    5.4574   20.5483 C   0  0  0  0  0  0  0  0  0  0  0  0
    7.2709    4.5089   22.7542 C   0  0  0  0  0  0  0  0  0  0  0  0
    5.9698    7.6329   24.6581 C   0  0  0  0  0  0  0  0  0  0  0  0
    4.5542    8.9057   21.7104 O   0  0  0  0  0  0  0  0  0  0  0  0
    6.9895    3.2085   23.0690 C   0  0  0  0  0  0  0  0  0  0  0  0
    7.8391    2.2253   22.7260 N   0  0  0  0  0  0  0  0  0  0  0  0
    8.6968    9.8373   23.6359 C   0  0  0  0  0  0  0  0  0  0  0  0
   12.5135    6.5957   21.8396 C   0  0  0  0  0  0  0  0  0  0  0  0
   10.9406    8.2330   21.1350 C   0  0  0  0  0  0  0  0  0  0  0  0
    9.6648    8.5956   21.7310 C   0  0  0  0  0  0  0  0  0  0  0  0
   10.8829    1.7153   20.9865 C   0  0  0  0  0  0  0  0  0  0  0  0
    5.7768    2.8533   23.7910 C   0  0  0  0  0  0  0  0  0  0  0  0
    9.7977    1.4791   21.6912 N   0  0  0  0  0  0  0  0  0  0  0  0
    6.5976    9.3401   22.6478 N   0  0  0  0  0  0  0  0  0  0  0  0
   11.2031    3.0042   20.6246 C   0  0  0  0  0  0  0  0  0  0  0  0
   12.8688    7.7370   22.7287 C   0  0  0  0  0  0  0  0  0  0  0  0
    7.4487    9.1361   23.6506 C   0  0  0  0  0  0  0  0  0  0  0  0
    8.9772    2.5025   22.0273 C   0  0  0  0  0  0  0  0  0  0  0  0
   10.4859    4.0901   20.9730 C   0  0  0  0  0  0  0  0  0  0  0  0
   11.0962    9.3293   23.5072 C   0  0  0  0  0  0  0  0  0  0  0  0
    5.1273    7.8529   23.6208 N   0  0  0  0  0  0  0  0  0  0  0  0
    9.7552    9.2338   23.0171 N   0  0  0  0  0  0  0  0  0  0  0  0
   11.1797    6.7591   21.3326 N   0  0  0  0  0  0  0  0  0  0  0  0
   11.7728    8.0337   23.7267 C   0  0  0  0  0  0  0  0  0  0  0  0
    7.1194    8.3344   24.6775 C   0  0  0  0  0  0  0  0  0  0  0  0
    8.4311    4.7963   22.0500 C   0  0  0  0  0  0  0  0  0  0  0  0
    8.7393   10.8706   24.1871 O   0  0  0  0  0  0  0  0  0  0  0  0
    9.3093    3.8166   21.6712 C   0  0  0  0  0  0  0  0  0  0  0  0
  1  5  1  0
  1 15  4  0
  1 22  4  0
  2 20  1  0
  2 24  1  0
  3  6  4  0
  3 27  4  0
  4 22  4  0
  4 26  4  0
  6  7  4  0
  6 13  1  0
  7 19  4  0
  8 18  1  0
  8 23  1  0
  8 28  2  0
  9 17  1  0
  9 24  1  0
 10 11  1  0
 10 24  1  0
 11 23  1  0
 12 14  4  0
 12 16  4  0
 14 19  4  0
 15 18  4  0
 16 20  4  0
 17 25  1  0
 18 26  4  0
 19 29  4  0
 20 29  4  0
 21 23  1  0
 21 25  1  0
 27 29  4  0
M  END
$$$$

 Created by Python create_sdf_string function

 29 32  0  0  0  0  0  0  0  0999 V2000
    5.4450    8.7154   22.6662 C   0  0  0  0  0  0  0  0  0  0  0  0
   10.9154    5.4574   20.5483 C   0  0  0  0  0  0  0  0  0  0  0  0
    7.2709    4.5089   22.7542 C   0  0  0  0  0  0  0  0  0  0  0  0
    5.9698    7.6329   24.6581 C   0  0  0  0  0  0  0  0  0  0  0  0
    4.5542    8.9057   21.7104 O   0  0  0  0  0  0  0  0  0  0  0  0
    6.9895    3.2085   23.0690 C   0  0  0  0  0  0  0  0  0  0  0  0
    7.8391    2.2253   22.7260 N   0  0  0  0  0  0  0  0  0  0  0  0
    8.6968    9.8373   23.6359 C   0  0  0  0  0  0  0  0  0  0  0  0
   12.5135    6.5957   21.8396 C   0  0  0  0  0  0  0  0  0  0  0  0
   10.9406    8.2330   21.1350 C   0  0  0  0  0  0  0  0  0  0  0  0
    9.6648    8.5956   21.7310 C   0  0  0  0  0  0  0  0  0  0  0  0
   10.8829    1.7153   20.9865 C   0  0  0  0  0  0  0  0  0  0  0  0
    5.7768    2.8533   23.7910 C   0  0  0  0  0  0  0  0  0  0  0  0
    9.7977    1.4791   21.6912 N   0  0  0  0  0  0  0  0  0  0  0  0
    6.5976    9.3401   22.6478 N   0  0  0  0  0  0  0  0  0  0  0  0
   11.2031    3.0042   20.6246 C   0  0  0  0  0  0  0  0  0  0  0  0
   12.8688    7.7370   22.7287 C   0  0  0  0  0  0  0  0  0  0  0  0
    7.4487    9.1361   23.6506 C   0  0  0  0  0  0  0  0  0  0  0  0
    8.9772    2.5025   22.0273 C   0  0  0  0  0  0  0  0  0  0  0  0
   10.4859    4.0901   20.9730 C   0  0  0  0  0  0  0  0  0  0  0  0
   11.0962    9.3293   23.5072 C   0  0  0  0  0  0  0  0  0  0  0  0
    5.1273    7.8529   23.6208 N   0  0  0  0  0  0  0  0  0  0  0  0
    9.7552    9.2338   23.0171 N   0  0  0  0  0  0  0  0  0  0  0  0
   11.1797    6.7591   21.3326 N   0  0  0  0  0  0  0  0  0  0  0  0
   11.7728    8.0337   23.7267 C   0  0  0  0  0  0  0  0  0  0  0  0
    7.1194    8.3344   24.6775 C   0  0  0  0  0  0  0  0  0  0  0  0
    8.4311    4.7963   22.0500 C   0  0  0  0  0  0  0  0  0  0  0  0
    8.7393   10.8706   24.1871 O   0  0  0  0  0  0  0  0  0  0  0  0
    9.3093    3.8166   21.6712 C   0  0  0  0  0  0  0  0  0  0  0  0
  1  5  1  0
  1 15  4  0
  1 22  4  0
  2 20  1  0
  2 24  1  0
  3  6  4  0
  3 27  4  0
  4 22  4  0
  4 26  4  0
  6  7  4  0
  6 13  1  0
  7 19  4  0
  8 18  1  0
  8 23  1  0
  8 28  2  0
  9 17  1  0
  9 24  1  0
 10 11  1  0
 10 24  1  0
 11 23  1  0
 12 14  4  0
 12 16  4  0
 14 19  4  0
 15 18  4  0
 16 20  4  0
 17 25  1  0
 18 26  4  0
 19 29  4  0
 20 29  4  0
 21 23  1  0
 21 25  1  0
 27 29  4  0
M  END
$$$$

 Created by Python create_sdf_string function

 29 32  0  0  0  0  0  0  0  0999 V2000
    5.4450    8.7154   22.6662 C   0  0  0  0  0  0  0  0  0  0  0  0
   10.9154    5.4574   20.5483 C   0  0  0  0  0  0  0  0  0  0  0  0
    7.2709    4.5089   22.7542 C   0  0  0  0  0  0  0  0  0  0  0  0
    5.9698    7.6329   24.6581 C   0  0  0  0  0  0  0  0  0  0  0  0
    4.5542    8.9057   21.7104 O   0  0  0  0  0  0  0  0  0  0  0  0
    6.9895    3.2085   23.0690 C   0  0  0  0  0  0  0  0  0  0  0  0
    7.8391    2.2253   22.7260 N   0  0  0  0  0  0  0  0  0  0  0  0
    8.6968    9.8373   23.6359 C   0  0  0  0  0  0  0  0  0  0  0  0
   12.5135    6.5957   21.8396 C   0  0  0  0  0  0  0  0  0  0  0  0
   10.9406    8.2330   21.1350 C   0  0  0  0  0  0  0  0  0  0  0  0
    9.6648    8.5956   21.7310 C   0  0  0  0  0  0  0  0  0  0  0  0
   10.8829    1.7153   20.9865 C   0  0  0  0  0  0  0  0  0  0  0  0
    5.7768    2.8533   23.7910 C   0  0  0  0  0  0  0  0  0  0  0  0
    9.7977    1.4791   21.6912 N   0  0  0  0  0  0  0  0  0  0  0  0
    6.5976    9.3401   22.6478 N   0  0  0  0  0  0  0  0  0  0  0  0
   11.2031    3.0042   20.6246 C   0  0  0  0  0  0  0  0  0  0  0  0
   12.8688    7.7370   22.7287 C   0  0  0  0  0  0  0  0  0  0  0  0
    7.4487    9.1361   23.6506 C   0  0  0  0  0  0  0  0  0  0  0  0
    8.9772    2.5025   22.0273 C   0  0  0  0  0  0  0  0  0  0  0  0
   10.4859    4.0901   20.9730 C   0  0  0  0  0  0  0  0  0  0  0  0
   11.0962    9.3293   23.5072 C   0  0  0  0  0  0  0  0  0  0  0  0
    5.1273    7.8529   23.6208 N   0  0  0  0  0  0  0  0  0  0  0  0
    9.7552    9.2338   23.0171 N   0  0  0  0  0  0  0  0  0  0  0  0
   11.1797    6.7591   21.3326 N   0  0  0  0  0  0  0  0  0  0  0  0
   11.7728    8.0337   23.7267 C   0  0  0  0  0  0  0  0  0  0  0  0
    7.1194    8.3344   24.6775 C   0  0  0  0  0  0  0  0  0  0  0  0
    8.4311    4.7963   22.0500 C   0  0  0  0  0  0  0  0  0  0  0  0
    8.7393   10.8706   24.1871 O   0  0  0  0  0  0  0  0  0  0  0  0
    9.3093    3.8166   21.6712 C   0  0  0  0  0  0  0  0  0  0  0  0
  1  5  1  0
  1 15  4  0
  1 22  4  0
  2 20  1  0
  2 24  1  0
  3  6  4  0
  3 27  4  0
  4 22  4  0
  4 26  4  0
  6  7  4  0
  6 13  1  0
  7 19  4  0
  8 18  1  0
  8 23  1  0
  8 28  2  0
  9 17  1  0
  9 24  1  0
 10 11  1  0
 10 24  1  0
 11 23  1  0
 12 14  4  0
 12 16  4  0
 14 19  4  0
 15 18  4  0
 16 20  4  0
 17 25  1  0
 18 26  4  0
 19 29  4  0
 20 29  4  0
 21 23  1  0
 21 25  1  0
 27 29  4  0
M  END
$$$$

 Created by Python create_sdf_string function

 29 32  0  0  0  0  0  0  0  0999 V2000
    5.4450    8.7154   22.6662 C   0  0  0  0  0  0  0  0  0  0  0  0
   10.9154    5.4574   20.5483 C   0  0  0  0  0  0  0  0  0  0  0  0
    7.2709    4.5089   22.7542 C   0  0  0  0  0  0  0  0  0  0  0  0
    5.9698    7.6329   24.6581 C   0  0  0  0  0  0  0  0  0  0  0  0
    4.5542    8.9057   21.7104 O   0  0  0  0  0  0  0  0  0  0  0  0
    6.9895    3.2085   23.0690 C   0  0  0  0  0  0  0  0  0  0  0  0
    7.8391    2.2253   22.7260 N   0  0  0  0  0  0  0  0  0  0  0  0
    8.6968    9.8373   23.6359 C   0  0  0  0  0  0  0  0  0  0  0  0
   12.5135    6.5957   21.8396 C   0  0  0  0  0  0  0  0  0  0  0  0
   10.9406    8.2330   21.1350 C   0  0  0  0  0  0  0  0  0  0  0  0
    9.6648    8.5956   21.7310 C   0  0  0  0  0  0  0  0  0  0  0  0
   10.8829    1.7153   20.9865 C   0  0  0  0  0  0  0  0  0  0  0  0
    5.7768    2.8533   23.7910 C   0  0  0  0  0  0  0  0  0  0  0  0
    9.7977    1.4791   21.6912 N   0  0  0  0  0  0  0  0  0  0  0  0
    6.5976    9.3401   22.6478 N   0  0  0  0  0  0  0  0  0  0  0  0
   11.2031    3.0042   20.6246 C   0  0  0  0  0  0  0  0  0  0  0  0
   12.8688    7.7370   22.7287 C   0  0  0  0  0  0  0  0  0  0  0  0
    7.4487    9.1361   23.6506 C   0  0  0  0  0  0  0  0  0  0  0  0
    8.9772    2.5025   22.0273 C   0  0  0  0  0  0  0  0  0  0  0  0
   10.4859    4.0901   20.9730 C   0  0  0  0  0  0  0  0  0  0  0  0
   11.0962    9.3293   23.5072 C   0  0  0  0  0  0  0  0  0  0  0  0
    5.1273    7.8529   23.6208 N   0  0  0  0  0  0  0  0  0  0  0  0
    9.7552    9.2338   23.0171 N   0  0  0  0  0  0  0  0  0  0  0  0
   11.1797    6.7591   21.3326 N   0  0  0  0  0  0  0  0  0  0  0  0
   11.7728    8.0337   23.7267 C   0  0  0  0  0  0  0  0  0  0  0  0
    7.1194    8.3344   24.6775 C   0  0  0  0  0  0  0  0  0  0  0  0
    8.4311    4.7963   22.0500 C   0  0  0  0  0  0  0  0  0  0  0  0
    8.7393   10.8706   24.1871 O   0  0  0  0  0  0  0  0  0  0  0  0
    9.3093    3.8166   21.6712 C   0  0  0  0  0  0  0  0  0  0  0  0
  1  5  1  0
  1 15  4  0
  1 22  4  0
  2 20  1  0
  2 24  1  0
  3  6  4  0
  3 27  4  0
  4 22  4  0
  4 26  4  0
  6  7  4  0
  6 13  1  0
  7 19  4  0
  8 18  1  0
  8 23  1  0
  8 28  2  0
  9 17  1  0
  9 24  1  0
 10 11  1  0
 10 24  1  0
 11 23  1  0
 12 14  4  0
 12 16  4  0
 14 19  4  0
 15 18  4  0
 16 20  4  0
 17 25  1  0
 18 26  4  0
 19 29  4  0
 20 29  4  0
 21 23  1  0
 21 25  1  0
 27 29  4  0
M  END
$$$$

 Created by Python create_sdf_string function

 29 32  0  0  0  0  0  0  0  0999 V2000
    5.4450    8.7154   22.6662 C   0  0  0  0  0  0  0  0  0  0  0  0
   10.9154    5.4574   20.5483 C   0  0  0  0  0  0  0  0  0  0  0  0
    7.2709    4.5089   22.7542 C   0  0  0  0  0  0  0  0  0  0  0  0
    5.9698    7.6329   24.6581 C   0  0  0  0  0  0  0  0  0  0  0  0
    4.5542    8.9057   21.7104 O   0  0  0  0  0  0  0  0  0  0  0  0
    6.9895    3.2085   23.0690 C   0  0  0  0  0  0  0  0  0  0  0  0
    7.8391    2.2253   22.7260 N   0  0  0  0  0  0  0  0  0  0  0  0
    8.6968    9.8373   23.6359 C   0  0  0  0  0  0  0  0  0  0  0  0
   12.5135    6.5957   21.8396 C   0  0  0  0  0  0  0  0  0  0  0  0
   10.9406    8.2330   21.1350 C   0  0  0  0  0  0  0  0  0  0  0  0
    9.6648    8.5956   21.7310 C   0  0  0  0  0  0  0  0  0  0  0  0
   10.8829    1.7153   20.9865 C   0  0  0  0  0  0  0  0  0  0  0  0
    5.7768    2.8533   23.7910 C   0  0  0  0  0  0  0  0  0  0  0  0
    9.7977    1.4791   21.6912 N   0  0  0  0  0  0  0  0  0  0  0  0
    6.5976    9.3401   22.6478 N   0  0  0  0  0  0  0  0  0  0  0  0
   11.2031    3.0042   20.6246 C   0  0  0  0  0  0  0  0  0  0  0  0
   12.8688    7.7370   22.7287 C   0  0  0  0  0  0  0  0  0  0  0  0
    7.4487    9.1361   23.6506 C   0  0  0  0  0  0  0  0  0  0  0  0
    8.9772    2.5025   22.0273 C   0  0  0  0  0  0  0  0  0  0  0  0
   10.4859    4.0901   20.9730 C   0  0  0  0  0  0  0  0  0  0  0  0
   11.0962    9.3293   23.5072 C   0  0  0  0  0  0  0  0  0  0  0  0
    5.1273    7.8529   23.6208 N   0  0  0  0  0  0  0  0  0  0  0  0
    9.7552    9.2338   23.0171 N   0  0  0  0  0  0  0  0  0  0  0  0
   11.1797    6.7591   21.3326 N   0  0  0  0  0  0  0  0  0  0  0  0
   11.7728    8.0337   23.7267 C   0  0  0  0  0  0  0  0  0  0  0  0
    7.1194    8.3344   24.6775 C   0  0  0  0  0  0  0  0  0  0  0  0
    8.4311    4.7963   22.0500 C   0  0  0  0  0  0  0  0  0  0  0  0
    8.7393   10.8706   24.1871 O   0  0  0  0  0  0  0  0  0  0  0  0
    9.3093    3.8166   21.6712 C   0  0  0  0  0  0  0  0  0  0  0  0
  1  5  1  0
  1 15  4  0
  1 22  4  0
  2 20  1  0
  2 24  1  0
  3  6  4  0
  3 27  4  0
  4 22  4  0
  4 26  4  0
  6  7  4  0
  6 13  1  0
  7 19  4  0
  8 18  1  0
  8 23  1  0
  8 28  2  0
  9 17  1  0
  9 24  1  0
 10 11  1  0
 10 24  1  0
 11 23  1  0
 12 14  4  0
 12 16  4  0
 14 19  4  0
 15 18  4  0
 16 20  4  0
 17 25  1  0
 18 26  4  0
 19 29  4  0
 20 29  4  0
 21 23  1  0
 21 25  1  0
 27 29  4  0
M  END
$$$$

 Created by Python create_sdf_string function

 29 32  0  0  0  0  0  0  0  0999 V2000
    5.4450    8.7154   22.6662 C   0  0  0  0  0  0  0  0  0  0  0  0
   10.9154    5.4574   20.5483 C   0  0  0  0  0  0  0  0  0  0  0  0
    7.2709    4.5089   22.7542 C   0  0  0  0  0  0  0  0  0  0  0  0
    5.9698    7.6329   24.6581 C   0  0  0  0  0  0  0  0  0  0  0  0
    4.5542    8.9057   21.7104 O   0  0  0  0  0  0  0  0  0  0  0  0
    6.9895    3.2085   23.0690 C   0  0  0  0  0  0  0  0  0  0  0  0
    7.8391    2.2253   22.7260 N   0  0  0  0  0  0  0  0  0  0  0  0
    8.6968    9.8373   23.6359 C   0  0  0  0  0  0  0  0  0  0  0  0
   12.5135    6.5957   21.8396 C   0  0  0  0  0  0  0  0  0  0  0  0
   10.9406    8.2330   21.1350 C   0  0  0  0  0  0  0  0  0  0  0  0
    9.6648    8.5956   21.7310 C   0  0  0  0  0  0  0  0  0  0  0  0
   10.8829    1.7153   20.9865 C   0  0  0  0  0  0  0  0  0  0  0  0
    5.7768    2.8533   23.7910 C   0  0  0  0  0  0  0  0  0  0  0  0
    9.7977    1.4791   21.6912 N   0  0  0  0  0  0  0  0  0  0  0  0
    6.5976    9.3401   22.6478 N   0  0  0  0  0  0  0  0  0  0  0  0
   11.2031    3.0042   20.6246 C   0  0  0  0  0  0  0  0  0  0  0  0
   12.8688    7.7370   22.7287 C   0  0  0  0  0  0  0  0  0  0  0  0
    7.4487    9.1361   23.6506 C   0  0  0  0  0  0  0  0  0  0  0  0
    8.9772    2.5025   22.0273 C   0  0  0  0  0  0  0  0  0  0  0  0
   10.4859    4.0901   20.9730 C   0  0  0  0  0  0  0  0  0  0  0  0
   11.0962    9.3293   23.5072 C   0  0  0  0  0  0  0  0  0  0  0  0
    5.1273    7.8529   23.6208 N   0  0  0  0  0  0  0  0  0  0  0  0
    9.7552    9.2338   23.0171 N   0  0  0  0  0  0  0  0  0  0  0  0
   11.1797    6.7591   21.3326 N   0  0  0  0  0  0  0  0  0  0  0  0
   11.7728    8.0337   23.7267 C   0  0  0  0  0  0  0  0  0  0  0  0
    7.1194    8.3344   24.6775 C   0  0  0  0  0  0  0  0  0  0  0  0
    8.4311    4.7963   22.0500 C   0  0  0  0  0  0  0  0  0  0  0  0
    8.7393   10.8706   24.1871 O   0  0  0  0  0  0  0  0  0  0  0  0
    9.3093    3.8166   21.6712 C   0  0  0  0  0  0  0  0  0  0  0  0
  1  5  1  0
  1 15  4  0
  1 22  4  0
  2 20  1  0
  2 24  1  0
  3  6  4  0
  3 27  4  0
  4 22  4  0
  4 26  4  0
  6  7  4  0
  6 13  1  0
  7 19  4  0
  8 18  1  0
  8 23  1  0
  8 28  2  0
  9 17  1  0
  9 24  1  0
 10 11  1  0
 10 24  1  0
 11 23  1  0
 12 14  4  0
 12 16  4  0
 14 19  4  0
 15 18  4  0
 16 20  4  0
 17 25  1  0
 18 26  4  0
 19 29  4  0
 20 29  4  0
 21 23  1  0
 21 25  1  0
 27 29  4  0
M  END
