
 Created by Python create_sdf_string function

 26  0  0  0  0  0  0  0  0  0999 V2000
    0.0000    0.0000    0.0000 C   0  0  0  0  0  0  0  0  0  0  0  0
    1.8261   -1.4425    0.8010 C   0  0  0  0  0  0  0  0  0  0  0  0
    1.1068    0.9297   -0.0386 C   0  0  0  0  0  0  0  0  0  0  0  0
   -1.7678    1.2788   -0.7258 C   0  0  0  0  0  0  0  0  0  0  0  0
   -1.3719   -1.6740    1.6702 C   0  0  0  0  0  0  0  0  0  0  0  0
    0.4800    1.4843   -0.9320 C   0  0  0  0  0  0  0  0  0  0  0  0
   -0.3639   -1.5735   -1.9090 C   0  0  0  0  0  0  0  0  0  0  0  0
    0.2474    0.5274    1.2524 C   0  0  0  0  0  0  0  0  0  0  0  0
   -1.9640   -1.8571   -0.2747 C   0  0  0  0  0  0  0  0  0  0  0  0
    0.4944    1.7593   -1.3647 C   0  0  0  0  0  0  0  0  0  0  0  0
    0.3582   -1.0451   -0.3445 C   0  0  0  0  0  0  0  0  0  0  0  0
   -0.5576   -2.3863   -0.7253 C   0  0  0  0  0  0  0  0  0  0  0  0
   -0.1520   -0.3566    1.8675 C   0  0  0  0  0  0  0  0  0  0  0  0
    0.4684   -0.1753   -1.4264 C   0  0  0  0  0  0  0  0  0  0  0  0
    1.1493    0.6424   -1.8901 C   0  0  0  0  0  0  0  0  0  0  0  0
   -1.8195   -1.1340    0.5360 C   0  0  0  0  0  0  0  0  0  0  0  0
    0.3075   -0.6115   -1.7849 C   0  0  0  0  0  0  0  0  0  0  0  0
    0.2996    1.9786   -0.9422 C   0  0  0  0  0  0  0  0  0  0  0  0
   -1.1384   -0.0744    1.3373 C   0  0  0  0  0  0  0  0  0  0  0  0
   -0.1809    1.4141    2.0425 C   0  0  0  0  0  0  0  0  0  0  0  0
    1.8910    1.1194    0.2628 C   0  0  0  0  0  0  0  0  0  0  0  0
   -1.9994   -0.6295    0.5627 C   0  0  0  0  0  0  0  0  0  0  0  0
   -1.1526    1.3601   -1.1137 C   0  0  0  0  0  0  0  0  0  0  0  0
   -0.8458   -0.0413    1.2939 C   0  0  0  0  0  0  0  0  0  0  0  0
    1.1985   -1.1884   -0.2132 C   0  0  0  0  0  0  0  0  0  0  0  0
    1.9318   -0.8143   -0.3366 C   0  0  0  0  0  0  0  0  0  0  0  0
M  END
$$$$

 Created by Python create_sdf_string function

 26 61  0  0  0  0  0  0  0  0999 V2000
    9.5603    7.4069   21.7894 C   0  0  0  0  0  0  0  0  0  0  0  0
    9.0149    7.2971   21.7239 Cl  0  0  0  0  0  0  0  0  0  0  0  0
    8.2568    8.1807   22.6211 F   0  0  0  0  0  0  0  0  0  0  0  0
    9.5561    7.3598   18.1188 O   0  0  0  0  0  0  0  0  0  0  0  0
    8.4704    8.3460   18.9245 C   0  0  0  0  0  0  0  0  0  0  0  0
    8.0676    8.6630   20.9467 Cl  0  0  0  0  0  0  0  0  0  0  0  0
    8.5894    7.9674   19.3893 C   0  0  0  0  0  0  0  0  0  0  0  0
    9.5113    7.8730   21.5957 F   0  0  0  0  0  0  0  0  0  0  0  0
    9.4321    6.0953   21.8056 O   0  0  0  0  0  0  0  0  0  0  0  0
    8.6570    8.2159   21.4205 O   0  0  0  0  0  0  0  0  0  0  0  0
   10.1727    7.7627   19.5374 C   0  0  0  0  0  0  0  0  0  0  0  0
    9.2291    7.8882   21.3227 C   0  0  0  0  0  0  0  0  0  0  0  0
    8.8580    7.5696   20.3919 Cl  0  0  0  0  0  0  0  0  0  0  0  0
    9.8189    9.5335   21.9118 C   0  0  0  0  0  0  0  0  0  0  0  0
    9.5739    6.2765   20.6669 F   0  0  0  0  0  0  0  0  0  0  0  0
   10.1245    8.6055   18.7879 S   0  0  0  0  0  0  0  0  0  0  0  0
    8.8869    7.9751   22.3362 N   0  0  0  0  0  0  0  0  0  0  0  0
    9.8481    7.7378   22.0189 N   0  0  0  0  0  0  0  0  0  0  0  0
   11.4557    8.4313   20.7818 F   0  0  0  0  0  0  0  0  0  0  0  0
    9.5456    7.1777   20.2927 He  0  0  0  0  0  0  0  0  0  0  0  0
    9.3889    6.9443   21.1735 He  0  0  0  0  0  0  0  0  0  0  0  0
   10.7636    6.8000   21.1502 He  0  0  0  0  0  0  0  0  0  0  0  0
    9.5479    9.5511   19.5403 He  0  0  0  0  0  0  0  0  0  0  0  0
    9.1264    7.0566   18.2269 He  0  0  0  0  0  0  0  0  0  0  0  0
   10.7795    6.9093   21.4668 He  0  0  0  0  0  0  0  0  0  0  0  0
   10.7605    7.3739   20.5745 He  0  0  0  0  0  0  0  0  0  0  0  0
  1  2  2  0
  1  4  3  0
  1  5  4  0
  1  6  3  0
  1  8  3  0
  1  9  2  0
  1 11  2  0
  1 18  3  0
  2  4  4  0
  2  6  3  0
  2 10  2  0
  2 14  2  0
  2 15  3  0
  2 17  3  0
  3  4  2  0
  3  5  4  0
  3 10  3  0
  3 13  4  0
  3 16  2  0
  4  6  1  0
  4 12  2  0
  4 14  3  0
  4 19  4  0
  5  9  1  0
  5 12  4  0
  5 14  4  0
  5 15  3  0
  5 18  3  0
  6  9  4  0
  6 10  3  0
  6 14  4  0
  6 16  3  0
  6 17  4  0
  7 14  4  0
  7 18  2  0
  8 10  1  0
  8 11  2  0
  8 15  3  0
  8 18  4  0
  9 12  1  0
  9 13  4  0
  9 14  4  0
  9 17  4  0
  9 18  4  0
 10 11  4  0
 10 13  1  0
 10 14  1  0
 10 17  2  0
 11 13  2  0
 11 15  4  0
 11 19  4  0
 12 13  2  0
 12 15  2  0
 12 19  2  0
 14 17  2  0
 15 16  3  0
 15 17  2  0
 15 18  4  0
 16 19  1  0
 17 18  4  0
 18 19  4  0
M  END
$$$$

 Created by Python create_sdf_string function

 26  0  0  0  0  0  0  0  0  0999 V2000
    9.7862    7.0660   22.3672 C   0  0  0  0  0  0  0  0  0  0  0  0
    8.6453    6.9843   22.5312 C   0  0  0  0  0  0  0  0  0  0  0  0
    7.7215    8.4800   23.2056 C   0  0  0  0  0  0  0  0  0  0  0  0
    9.5468    7.4424   17.4969 C   0  0  0  0  0  0  0  0  0  0  0  0
    8.4479    8.7513   18.3539 C   0  0  0  0  0  0  0  0  0  0  0  0
    9.7587    6.8244   19.6619 C   0  0  0  0  0  0  0  0  0  0  0  0
    7.3063    9.1685   20.9771 C   0  0  0  0  0  0  0  0  0  0  0  0
    8.3650    8.1815   18.6650 C   0  0  0  0  0  0  0  0  0  0  0  0
    9.5974    8.2487   22.2474 C   0  0  0  0  0  0  0  0  0  0  0  0
    9.4047    6.4978   21.5295 C   0  0  0  0  0  0  0  0  0  0  0  0
    9.7020    5.3377   22.1953 C   0  0  0  0  0  0  0  0  0  0  0  0
    8.0578    8.7574   21.7964 C   0  0  0  0  0  0  0  0  0  0  0  0
   10.4819    7.8917   18.7668 C   0  0  0  0  0  0  0  0  0  0  0  0
    8.9581    8.2637   21.5506 C   0  0  0  0  0  0  0  0  0  0  0  0
    8.2797    7.7336   19.9814 C   0  0  0  0  0  0  0  0  0  0  0  0
   11.5822    6.4226   21.2169 C   0  0  0  0  0  0  0  0  0  0  0  0
    9.5941    9.9251   22.2375 C   0  0  0  0  0  0  0  0  0  0  0  0
    9.4714    9.7662   18.9921 C   0  0  0  0  0  0  0  0  0  0  0  0
    9.9065    5.4976   20.5246 C   0  0  0  0  0  0  0  0  0  0  0  0
   10.1981    8.8034   18.0777 C   0  0  0  0  0  0  0  0  0  0  0  0
    8.9699    7.0279   17.6677 C   0  0  0  0  0  0  0  0  0  0  0  0
   11.4602    6.4169   21.7254 C   0  0  0  0  0  0  0  0  0  0  0  0
    8.4605    8.2620   23.1157 C   0  0  0  0  0  0  0  0  0  0  0  0
   10.1965    7.6997   22.7817 C   0  0  0  0  0  0  0  0  0  0  0  0
   12.0446    8.3889   20.6559 C   0  0  0  0  0  0  0  0  0  0  0  0
   11.6696    7.0505   20.2807 C   0  0  0  0  0  0  0  0  0  0  0  0
M  END
$$$$

 Created by Python create_sdf_string function

 26 17  0  0  0  0  0  0  0  0999 V2000
    8.0675    5.5706   22.3638 N   0  0  0  0  0  0  0  0  0  0  0  0
    6.6653    8.0412   22.4725 C   0  0  0  0  0  0  0  0  0  0  0  0
    8.3251    7.2923   19.1315 B   0  0  0  0  0  0  0  0  0  0  0  0
    9.8759    6.3847   21.1675 Se  0  0  0  0  0  0  0  0  0  0  0  0
    9.2525   10.2726   22.4959 C   0  0  0  0  0  0  0  0  0  0  0  0
    9.8140    7.0717   19.1838 C   0  0  0  0  0  0  0  0  0  0  0  0
   11.2688    7.4919   21.7881 P   0  0  0  0  0  0  0  0  0  0  0  0
   10.9434    8.4913   23.8245 Se  0  0  0  0  0  0  0  0  0  0  0  0
   10.0589   11.3054   19.4784 P   0  0  0  0  0  0  0  0  0  0  0  0
    9.6036    7.1330   18.0325 F   0  0  0  0  0  0  0  0  0  0  0  0
   10.4742    6.4069   21.1051 He  0  0  0  0  0  0  0  0  0  0  0  0
    8.5998    8.0128   18.3413 He  0  0  0  0  0  0  0  0  0  0  0  0
    9.2887    7.5922   20.0683 He  0  0  0  0  0  0  0  0  0  0  0  0
    8.0601   10.4689   20.9648 He  0  0  0  0  0  0  0  0  0  0  0  0
    9.1099    8.9791   19.1617 He  0  0  0  0  0  0  0  0  0  0  0  0
    9.2084    8.9407   22.5149 He  0  0  0  0  0  0  0  0  0  0  0  0
   10.8117    6.9224   22.4581 He  0  0  0  0  0  0  0  0  0  0  0  0
    8.9200    6.5805   22.5480 He  0  0  0  0  0  0  0  0  0  0  0  0
    9.6494    9.6535   19.3026 He  0  0  0  0  0  0  0  0  0  0  0  0
   10.5565    5.6749   19.6073 He  0  0  0  0  0  0  0  0  0  0  0  0
   10.9221    8.7652   16.7222 He  0  0  0  0  0  0  0  0  0  0  0  0
   10.9971    5.7006   21.7802 He  0  0  0  0  0  0  0  0  0  0  0  0
    9.7660   10.1808   23.2700 He  0  0  0  0  0  0  0  0  0  0  0  0
   10.3951    5.9956   23.7886 He  0  0  0  0  0  0  0  0  0  0  0  0
   12.1513   10.1570   20.3458 He  0  0  0  0  0  0  0  0  0  0  0  0
   11.8443    6.1734   19.8892 He  0  0  0  0  0  0  0  0  0  0  0  0
  1  2  4  0
  1  3  3  0
  1  5  4  0
  2  4  3  0
  2  5  3  0
  2  7  4  0
  2  8  1  0
  2  9  3  0
  3  5  2  0
  3  6  1  0
  3  8  4  0
  3  9  3  0
  4  5  2  0
  4 10  2  0
  5 10  3  0
  8  9  2  0
  8 10  1  0
M  END
$$$$

 Created by Python create_sdf_string function

 26  1  0  0  0  0  0  0  0  0999 V2000
   10.6460    6.2566   21.1178 C   0  0  0  0  0  0  0  0  0  0  0  0
    8.1220    6.0561   22.4444 C   0  0  0  0  0  0  0  0  0  0  0  0
    7.3912    7.9268   22.4553 C   0  0  0  0  0  0  0  0  0  0  0  0
    8.2967    7.4810   18.8014 C   0  0  0  0  0  0  0  0  0  0  0  0
    8.5950    8.1574   18.1059 C   0  0  0  0  0  0  0  0  0  0  0  0
    9.2276    7.6652   20.1990 C   0  0  0  0  0  0  0  0  0  0  0  0
    8.6072   10.3983   21.1786 C   0  0  0  0  0  0  0  0  0  0  0  0
    9.4859    9.3325   19.0709 C   0  0  0  0  0  0  0  0  0  0  0  0
    9.2653    9.2852   22.6209 C   0  0  0  0  0  0  0  0  0  0  0  0
   10.8518    6.9915   22.8119 C   0  0  0  0  0  0  0  0  0  0  0  0
    9.7201    6.3214   21.3445 C   0  0  0  0  0  0  0  0  0  0  0  0
    9.3244   10.1480   22.3949 C   0  0  0  0  0  0  0  0  0  0  0  0
    9.9136    7.0818   18.9695 C   0  0  0  0  0  0  0  0  0  0  0  0
    8.7858    6.7653   22.7888 C   0  0  0  0  0  0  0  0  0  0  0  0
    9.8236    9.9126   19.3999 C   0  0  0  0  0  0  0  0  0  0  0  0
   11.3421    7.7579   22.2819 C   0  0  0  0  0  0  0  0  0  0  0  0
   10.8233    8.5577   23.6164 C   0  0  0  0  0  0  0  0  0  0  0  0
   10.0198   10.8944   19.7990 C   0  0  0  0  0  0  0  0  0  0  0  0
   10.8670    5.7874   19.3891 C   0  0  0  0  0  0  0  0  0  0  0  0
   10.4824    8.7528   17.2990 C   0  0  0  0  0  0  0  0  0  0  0  0
    9.6541    7.4687   17.8478 C   0  0  0  0  0  0  0  0  0  0  0  0
   11.1755    5.7521   21.9541 C   0  0  0  0  0  0  0  0  0  0  0  0
    9.7111   10.0155   22.8630 C   0  0  0  0  0  0  0  0  0  0  0  0
   10.3841    6.1260   23.6122 C   0  0  0  0  0  0  0  0  0  0  0  0
   11.2495   10.1679   20.3234 C   0  0  0  0  0  0  0  0  0  0  0  0
   11.7819    6.0183   19.8236 C   0  0  0  0  0  0  0  0  0  0  0  0
 12 23  1  0
M  END
$$$$

 Created by Python create_sdf_string function

 26 43  0  0  0  0  0  0  0  0999 V2000
   10.3049    4.9684   20.4415 F   0  0  0  0  0  0  0  0  0  0  0  0
    5.9607    6.5744   22.0588 C   0  0  0  0  0  0  0  0  0  0  0  0
    9.3836    7.8540   18.2101 Cl  0  0  0  0  0  0  0  0  0  0  0  0
    7.2035   11.5317   23.4414 Br  0  0  0  0  0  0  0  0  0  0  0  0
    7.6205   10.4482   22.5579 N   0  0  0  0  0  0  0  0  0  0  0  0
    9.5619    6.6178   21.0409 F   0  0  0  0  0  0  0  0  0  0  0  0
    9.6762    9.2594   21.9537 O   0  0  0  0  0  0  0  0  0  0  0  0
   11.0553    7.3691   19.2466 C   0  0  0  0  0  0  0  0  0  0  0  0
    9.0714    6.6879   22.3045 C   0  0  0  0  0  0  0  0  0  0  0  0
   11.3485    7.3577   21.6824 N   0  0  0  0  0  0  0  0  0  0  0  0
   11.0924    8.2317   23.0558 Cl  0  0  0  0  0  0  0  0  0  0  0  0
   11.5675   11.3664   19.7368 C   0  0  0  0  0  0  0  0  0  0  0  0
   10.4192    9.3612   14.9466 O   0  0  0  0  0  0  0  0  0  0  0  0
    8.9903    8.1465   18.3298 C   0  0  0  0  0  0  0  0  0  0  0  0
   11.4334    4.9486   21.3269 C   0  0  0  0  0  0  0  0  0  0  0  0
    9.5755    6.1896   22.0604 F   0  0  0  0  0  0  0  0  0  0  0  0
   10.7416    9.1790   18.7193 S   0  0  0  0  0  0  0  0  0  0  0  0
    7.3049    4.8817   23.2234 He  0  0  0  0  0  0  0  0  0  0  0  0
    8.2570    8.6669   17.8594 He  0  0  0  0  0  0  0  0  0  0  0  0
    9.0377    7.1066   18.9122 He  0  0  0  0  0  0  0  0  0  0  0  0
    9.3332    9.4631   18.1784 He  0  0  0  0  0  0  0  0  0  0  0  0
   10.5904    5.4797   21.6757 He  0  0  0  0  0  0  0  0  0  0  0  0
    9.3786    9.1797   18.8888 He  0  0  0  0  0  0  0  0  0  0  0  0
   10.7501    5.3158   18.5006 He  0  0  0  0  0  0  0  0  0  0  0  0
   10.1475    9.4001   22.4431 He  0  0  0  0  0  0  0  0  0  0  0  0
   10.4874    6.8755   20.1221 He  0  0  0  0  0  0  0  0  0  0  0  0
  1  3  4  0
  1  5  4  0
  1  6  4  0
  1  9  1  0
  1 11  1  0
  2  3  1  0
  2  4  3  0
  2  7  1  0
  2 13  2  0
  2 15  1  0
  3  4  2  0
  3  9  2  0
  3 10  3  0
  3 13  1  0
  3 17  4  0
  4  8  4  0
  4 13  2  0
  4 16  4  0
  4 17  1  0
  5  6  1  0
  5  7  2  0
  5  8  3  0
  5 10  3  0
  6 12  4  0
  7 13  2  0
  8 10  3  0
  8 14  2  0
  8 16  3  0
  9 10  4  0
  9 12  4  0
  9 16  1  0
 10 12  2  0
 10 16  1  0
 11 13  2  0
 11 14  3  0
 11 16  4  0
 12 13  1  0
 12 14  3  0
 12 15  4  0
 13 15  3  0
 14 15  3  0
 14 16  4  0
 15 17  3  0
M  END
$$$$

 Created by Python create_sdf_string function

 26  1  0  0  0  0  0  0  0  0999 V2000
   10.5074    5.0625   20.4540 C   0  0  0  0  0  0  0  0  0  0  0  0
    7.7199    5.4576   22.8157 C   0  0  0  0  0  0  0  0  0  0  0  0
    7.0968    6.6710   22.4015 C   0  0  0  0  0  0  0  0  0  0  0  0
    8.4936    8.7838   17.6802 C   0  0  0  0  0  0  0  0  0  0  0  0
    9.2005    7.1332   18.7606 C   0  0  0  0  0  0  0  0  0  0  0  0
    9.5723    8.1196   17.8625 C   0  0  0  0  0  0  0  0  0  0  0  0
    8.0282   10.6663   22.7878 C   0  0  0  0  0  0  0  0  0  0  0  0
    9.5470    9.7003   18.1046 C   0  0  0  0  0  0  0  0  0  0  0  0
    8.3385    9.9984   22.3641 C   0  0  0  0  0  0  0  0  0  0  0  0
   10.4782    5.5501   21.8196 C   0  0  0  0  0  0  0  0  0  0  0  0
    9.3472    6.4900   21.4647 C   0  0  0  0  0  0  0  0  0  0  0  0
    9.3738    9.6263   22.0694 C   0  0  0  0  0  0  0  0  0  0  0  0
   10.9001    7.3018   19.1613 C   0  0  0  0  0  0  0  0  0  0  0  0
    8.7731    6.7889   22.5304 C   0  0  0  0  0  0  0  0  0  0  0  0
    9.7142    9.7033   19.1782 C   0  0  0  0  0  0  0  0  0  0  0  0
   10.9607    7.6307   21.8704 C   0  0  0  0  0  0  0  0  0  0  0  0
   10.6628    8.4737   22.7719 C   0  0  0  0  0  0  0  0  0  0  0  0
   10.8149   10.7383   19.9305 C   0  0  0  0  0  0  0  0  0  0  0  0
   10.8734    5.5162   18.7946 C   0  0  0  0  0  0  0  0  0  0  0  0
   10.0528    9.1463   16.1518 O   0  0  0  0  0  0  0  0  0  0  0  0
    9.0655    8.3889   18.0878 C   0  0  0  0  0  0  0  0  0  0  0  0
   11.2146    5.1179   21.1704 C   0  0  0  0  0  0  0  0  0  0  0  0
    9.7448    9.5934   22.2665 C   0  0  0  0  0  0  0  0  0  0  0  0
    9.2640    6.3092   22.3929 C   0  0  0  0  0  0  0  0  0  0  0  0
   10.6492    9.4993   18.7026 C   0  0  0  0  0  0  0  0  0  0  0  0
   10.6696    6.8633   19.9826 C   0  0  0  0  0  0  0  0  0  0  0  0
 12 23  1  0
M  END
$$$$

 Created by Python create_sdf_string function

 26 43  0  0  0  0  0  0  0  0999 V2000
   10.5314    6.1979   20.4539 N   0  0  0  0  0  0  0  0  0  0  0  0
    9.9558    7.3763   18.7696 F   0  0  0  0  0  0  0  0  0  0  0  0
    8.6225    6.5397   17.9583 O   0  0  0  0  0  0  0  0  0  0  0  0
    9.8292    6.8390   18.7648 C   0  0  0  0  0  0  0  0  0  0  0  0
    8.9772   10.4868   21.1386 O   0  0  0  0  0  0  0  0  0  0  0  0
    9.4152   10.9882   18.4701 O   0  0  0  0  0  0  0  0  0  0  0  0
    9.2836    9.1622   20.7934 O   0  0  0  0  0  0  0  0  0  0  0  0
    9.8109    7.2880   22.2202 C   0  0  0  0  0  0  0  0  0  0  0  0
   13.1739    9.0220   20.6257 C   0  0  0  0  0  0  0  0  0  0  0  0
    7.5873    7.2480   22.7503 C   0  0  0  0  0  0  0  0  0  0  0  0
    9.1703   10.1440   19.4002 F   0  0  0  0  0  0  0  0  0  0  0  0
   11.4165    7.9282   23.0274 Br  0  0  0  0  0  0  0  0  0  0  0  0
   11.9860   11.7955   20.5598 Cl  0  0  0  0  0  0  0  0  0  0  0  0
   10.7678    5.5458   17.7176 C   0  0  0  0  0  0  0  0  0  0  0  0
   11.7130    3.7204   20.6939 C   0  0  0  0  0  0  0  0  0  0  0  0
   10.6880    7.4079   18.7602 F   0  0  0  0  0  0  0  0  0  0  0  0
    9.0719    3.6801   21.9784 He  0  0  0  0  0  0  0  0  0  0  0  0
    6.7369    7.9783   23.8980 He  0  0  0  0  0  0  0  0  0  0  0  0
   11.1340    5.2897   22.3496 He  0  0  0  0  0  0  0  0  0  0  0  0
    8.1859   10.4216   22.6396 He  0  0  0  0  0  0  0  0  0  0  0  0
   10.4216    7.2241   23.2956 He  0  0  0  0  0  0  0  0  0  0  0  0
    9.9128   10.3073   15.3163 He  0  0  0  0  0  0  0  0  0  0  0  0
    8.9617    6.4347   16.2783 He  0  0  0  0  0  0  0  0  0  0  0  0
    9.8177    8.3939   22.6931 He  0  0  0  0  0  0  0  0  0  0  0  0
    9.4445    6.2365   21.2254 He  0  0  0  0  0  0  0  0  0  0  0  0
   10.2154    8.5786   19.7101 He  0  0  0  0  0  0  0  0  0  0  0  0
  1  2  4  0
  1  4  2  0
  1  6  3  0
  1  9  3  0
  1 10  4  0
  1 12  3  0
  1 13  1  0
  2  4  1  0
  2  9  4  0
  3  4  2  0
  3  7  2  0
  3 11  1  0
  3 15  4  0
  4  7  3  0
  4  9  2  0
  4 11  1  0
  5 11  4  0
  5 14  2  0
  5 15  3  0
  5 16  3  0
  6  8  1  0
  6 10  3  0
  6 11  2  0
  6 14  4  0
  6 15  4  0
  6 16  4  0
  7 10  3  0
  7 15  2  0
  7 16  4  0
  8  9  1  0
  8 14  4  0
  9 10  4  0
  9 14  2  0
  9 16  2  0
 10 11  1  0
 10 12  2  0
 10 13  4  0
 11 13  4  0
 11 14  3  0
 11 16  4  0
 12 14  2  0
 13 16  3  0
 14 16  2  0
M  END
$$$$

 Created by Python create_sdf_string function

 26  0  0  0  0  0  0  0  0  0999 V2000
   10.5483    5.8588   20.5593 C   0  0  0  0  0  0  0  0  0  0  0  0
    9.7090    4.2549   21.7177 C   0  0  0  0  0  0  0  0  0  0  0  0
    7.5378    8.1481   23.4507 C   0  0  0  0  0  0  0  0  0  0  0  0
    9.9962    7.6137   18.5228 C   0  0  0  0  0  0  0  0  0  0  0  0
    8.9946    6.7724   17.6766 C   0  0  0  0  0  0  0  0  0  0  0  0
   10.0302    7.0322   18.6105 C   0  0  0  0  0  0  0  0  0  0  0  0
    9.2599   10.2611   21.1447 C   0  0  0  0  0  0  0  0  0  0  0  0
    9.7069   10.5770   18.6987 C   0  0  0  0  0  0  0  0  0  0  0  0
    9.5004    9.4391   20.9494 C   0  0  0  0  0  0  0  0  0  0  0  0
   10.8549    5.3204   22.0672 C   0  0  0  0  0  0  0  0  0  0  0  0
    9.7503    7.1763   22.4045 C   0  0  0  0  0  0  0  0  0  0  0  0
    8.4310    9.7924   22.4488 C   0  0  0  0  0  0  0  0  0  0  0  0
   12.0257    9.1661   20.5675 C   0  0  0  0  0  0  0  0  0  0  0  0
    8.1193    7.6085   22.9121 C   0  0  0  0  0  0  0  0  0  0  0  0
    9.6743   10.1733   19.2711 C   0  0  0  0  0  0  0  0  0  0  0  0
   10.2465    7.2184   23.0783 C   0  0  0  0  0  0  0  0  0  0  0  0
   11.1603    7.7945   22.8936 C   0  0  0  0  0  0  0  0  0  0  0  0
   11.1769   10.8550   20.3794 C   0  0  0  0  0  0  0  0  0  0  0  0
   10.4439    5.9696   17.9630 C   0  0  0  0  0  0  0  0  0  0  0  0
    9.6178    9.3871   16.7806 C   0  0  0  0  0  0  0  0  0  0  0  0
    9.3097    6.8669   16.7731 C   0  0  0  0  0  0  0  0  0  0  0  0
   11.0491    4.4029   20.7932 C   0  0  0  0  0  0  0  0  0  0  0  0
    9.4877    8.4572   22.6663 C   0  0  0  0  0  0  0  0  0  0  0  0
    9.7418    6.0454   21.5596 C   0  0  0  0  0  0  0  0  0  0  0  0
   10.3238    8.9126   19.6027 C   0  0  0  0  0  0  0  0  0  0  0  0
   10.5086    7.6309   18.5258 C   0  0  0  0  0  0  0  0  0  0  0  0
M  END
$$$$

 Created by Python create_sdf_string function

 26 32  0  0  0  0  0  0  0  0999 V2000
    9.1780    6.0181   23.0098 Cl  0  0  0  0  0  0  0  0  0  0  0  0
    8.0256    7.5382   23.4344 S   0  0  0  0  0  0  0  0  0  0  0  0
    7.9435    8.5378   18.9672 C   0  0  0  0  0  0  0  0  0  0  0  0
   11.0766    7.4339   18.4055 F   0  0  0  0  0  0  0  0  0  0  0  0
   10.8720    6.7726   21.3672 C   0  0  0  0  0  0  0  0  0  0  0  0
    9.2743    7.3456   21.4356 S   0  0  0  0  0  0  0  0  0  0  0  0
   10.3234   10.0149   21.0287 N   0  0  0  0  0  0  0  0  0  0  0  0
    6.9343    7.1840   22.6134 C   0  0  0  0  0  0  0  0  0  0  0  0
   10.1047   10.7049   19.2013 O   0  0  0  0  0  0  0  0  0  0  0  0
   11.4276    8.4091   22.3258 O   0  0  0  0  0  0  0  0  0  0  0  0
   10.9263    4.2487   22.7301 N   0  0  0  0  0  0  0  0  0  0  0  0
   11.1616    9.4928   19.7332 F   0  0  0  0  0  0  0  0  0  0  0  0
    7.9951    5.3503   21.6983 He  0  0  0  0  0  0  0  0  0  0  0  0
    8.7274    8.4676   18.6771 He  0  0  0  0  0  0  0  0  0  0  0  0
    9.2571   14.2050   20.1391 He  0  0  0  0  0  0  0  0  0  0  0  0
   10.3942   11.6319   17.9039 He  0  0  0  0  0  0  0  0  0  0  0  0
    9.0963    8.1249   21.8616 He  0  0  0  0  0  0  0  0  0  0  0  0
    8.9562   10.1220   21.9107 He  0  0  0  0  0  0  0  0  0  0  0  0
    8.3713    8.9261   25.1030 He  0  0  0  0  0  0  0  0  0  0  0  0
   10.2131   11.1200   19.8660 He  0  0  0  0  0  0  0  0  0  0  0  0
   10.7125    5.6975   18.4971 He  0  0  0  0  0  0  0  0  0  0  0  0
   10.8868   10.5234   16.6768 He  0  0  0  0  0  0  0  0  0  0  0  0
    8.5821    5.5769   17.0086 He  0  0  0  0  0  0  0  0  0  0  0  0
    9.3467    9.3103   21.8487 He  0  0  0  0  0  0  0  0  0  0  0  0
    8.7944    9.1216   19.0142 He  0  0  0  0  0  0  0  0  0  0  0  0
   11.7070    7.7392   17.4512 He  0  0  0  0  0  0  0  0  0  0  0  0
  1  3  2  0
  1  7  1  0
  1  8  1  0
  1 11  3  0
  1 12  1  0
  2  4  2  0
  2  7  2  0
  2 10  3  0
  2 12  1  0
  3  7  2  0
  3  8  4  0
  3 10  2  0
  4  6  4  0
  4  7  3  0
  4  8  4  0
  4  9  2  0
  4 10  1  0
  4 11  3  0
  5 11  2  0
  6  8  2  0
  6  9  3  0
  6 11  3  0
  6 12  4  0
  7  8  4  0
  7 10  4  0
  7 12  1  0
  8  9  2  0
  8 10  2  0
  8 11  3  0
  9 10  1  0
  9 12  1  0
 11 12  2  0
M  END
$$$$

 Created by Python create_sdf_string function

 26  2  0  0  0  0  0  0  0  0999 V2000
    9.2636    6.1132   22.8046 C   0  0  0  0  0  0  0  0  0  0  0  0
    8.4765    5.7346   22.0283 C   0  0  0  0  0  0  0  0  0  0  0  0
    8.1678    7.5757   23.4275 C   0  0  0  0  0  0  0  0  0  0  0  0
    9.0466    8.1817   18.4399 C   0  0  0  0  0  0  0  0  0  0  0  0
    8.3983    8.1922   18.6959 C   0  0  0  0  0  0  0  0  0  0  0  0
   10.8056    7.3645   18.2851 C   0  0  0  0  0  0  0  0  0  0  0  0
    9.7185   12.7847   19.8942 O   0  0  0  0  0  0  0  0  0  0  0  0
   10.3425   11.4929   18.3401 C   0  0  0  0  0  0  0  0  0  0  0  0
    9.2141    7.9950   22.2221 C   0  0  0  0  0  0  0  0  0  0  0  0
   10.5769    6.4836   21.5845 C   0  0  0  0  0  0  0  0  0  0  0  0
    9.3890    7.1849   21.8179 C   0  0  0  0  0  0  0  0  0  0  0  0
    9.2401   10.1233   21.9136 C   0  0  0  0  0  0  0  0  0  0  0  0
   10.1130   10.1960   20.8989 C   0  0  0  0  0  0  0  0  0  0  0  0
    7.6618    7.1934   22.9000 C   0  0  0  0  0  0  0  0  0  0  0  0
   10.1415   10.9107   19.2169 C   0  0  0  0  0  0  0  0  0  0  0  0
    8.2532    8.5750   24.2034 C   0  0  0  0  0  0  0  0  0  0  0  0
   11.0006    8.3766   22.0824 C   0  0  0  0  0  0  0  0  0  0  0  0
   10.0368   11.3062   19.9266 C   0  0  0  0  0  0  0  0  0  0  0  0
   10.5189    6.3594   18.5133 C   0  0  0  0  0  0  0  0  0  0  0  0
   10.7711   10.4548   17.4513 C   0  0  0  0  0  0  0  0  0  0  0  0
    9.0568    6.3646   17.6724 C   0  0  0  0  0  0  0  0  0  0  0  0
   10.5034    5.0388   22.3286 C   0  0  0  0  0  0  0  0  0  0  0  0
    9.4796    9.4333   21.9145 C   0  0  0  0  0  0  0  0  0  0  0  0
    9.2920    9.1081   18.8428 C   0  0  0  0  0  0  0  0  0  0  0  0
   10.8082    9.7268   19.5916 C   0  0  0  0  0  0  0  0  0  0  0  0
   11.0981    7.7253   17.8017 C   0  0  0  0  0  0  0  0  0  0  0  0
  6 19  4  0
  6 26  4  0
M  END
$$$$

 Created by Python create_sdf_string function

 26 26  0  0  0  0  0  0  0  0999 V2000
    7.7142    4.6344   23.7758 C   0  0  0  0  0  0  0  0  0  0  0  0
    9.3114    6.2880   23.0108 F   0  0  0  0  0  0  0  0  0  0  0  0
    9.2111    8.2185   18.7058 Cl  0  0  0  0  0  0  0  0  0  0  0  0
    9.0336    9.8129   18.8118 I   0  0  0  0  0  0  0  0  0  0  0  0
   12.2846    6.4848   19.9006 P   0  0  0  0  0  0  0  0  0  0  0  0
    8.6784   13.3944   18.5179 B   0  0  0  0  0  0  0  0  0  0  0  0
   10.8234    4.8042   22.9043 C   0  0  0  0  0  0  0  0  0  0  0  0
   10.7011   11.2316   19.1029 C   0  0  0  0  0  0  0  0  0  0  0  0
    8.8272   10.9900   19.7346 Cl  0  0  0  0  0  0  0  0  0  0  0  0
   10.0303    6.5920   18.6171 C   0  0  0  0  0  0  0  0  0  0  0  0
   10.1679   11.2724   18.5060 Cl  0  0  0  0  0  0  0  0  0  0  0  0
    9.8858    4.0021   22.3908 S   0  0  0  0  0  0  0  0  0  0  0  0
   11.3766    7.7670   17.4328 N   0  0  0  0  0  0  0  0  0  0  0  0
    7.4144    6.5969   24.6413 He  0  0  0  0  0  0  0  0  0  0  0  0
   10.1155   11.5112   18.8435 He  0  0  0  0  0  0  0  0  0  0  0  0
    5.9526    8.5173   23.9089 He  0  0  0  0  0  0  0  0  0  0  0  0
    9.6767    9.3427   22.7518 He  0  0  0  0  0  0  0  0  0  0  0  0
    8.5314   12.5418   21.6315 He  0  0  0  0  0  0  0  0  0  0  0  0
   11.1365   10.1683   20.7564 He  0  0  0  0  0  0  0  0  0  0  0  0
   10.5043    7.0695   22.2452 He  0  0  0  0  0  0  0  0  0  0  0  0
    7.6769    9.3325   25.1392 He  0  0  0  0  0  0  0  0  0  0  0  0
   10.2993    7.5245   24.3927 He  0  0  0  0  0  0  0  0  0  0  0  0
   10.0287    5.8100   16.6503 He  0  0  0  0  0  0  0  0  0  0  0  0
   10.1128    7.8657   20.1217 He  0  0  0  0  0  0  0  0  0  0  0  0
   10.4191    7.7581   18.4134 He  0  0  0  0  0  0  0  0  0  0  0  0
   12.6026    9.3176   20.1791 He  0  0  0  0  0  0  0  0  0  0  0  0
  1  6  2  0
  1  7  4  0
  1  8  1  0
  1 12  1  0
  1 13  2  0
  2  6  4  0
  2  7  1  0
  2 12  4  0
  3  7  3  0
  3 12  4  0
  4 11  1  0
  4 13  1  0
  5  7  4  0
  5  8  2  0
  5  9  1  0
  5 11  4  0
  5 13  1  0
  6  8  4  0
  6 11  1  0
  7  9  1  0
  7 10  1  0
  8 11  4  0
  8 13  4  0
 10 12  3  0
 10 13  2  0
 12 13  3  0
M  END
$$$$

 Created by Python create_sdf_string function

 26  2  0  0  0  0  0  0  0  0999 V2000
    8.4331    5.5527   23.6363 C   0  0  0  0  0  0  0  0  0  0  0  0
    9.3917    6.4363   23.0503 C   0  0  0  0  0  0  0  0  0  0  0  0
    7.7874    6.9517   24.2686 C   0  0  0  0  0  0  0  0  0  0  0  0
    9.5892    8.1297   18.6306 C   0  0  0  0  0  0  0  0  0  0  0  0
    9.4215   10.1095   19.1004 C   0  0  0  0  0  0  0  0  0  0  0  0
   11.5420    6.8420   19.7327 C   0  0  0  0  0  0  0  0  0  0  0  0
    9.0148   12.7857   18.7904 C   0  0  0  0  0  0  0  0  0  0  0  0
    9.8361   11.6129   19.0304 C   0  0  0  0  0  0  0  0  0  0  0  0
    7.1798    8.1245   24.0756 C   0  0  0  0  0  0  0  0  0  0  0  0
   10.2865    5.5749   22.7092 C   0  0  0  0  0  0  0  0  0  0  0  0
    9.4633    8.7420   22.6589 C   0  0  0  0  0  0  0  0  0  0  0  0
    8.7692   11.9282   20.9247 C   0  0  0  0  0  0  0  0  0  0  0  0
   10.8293    9.7617   20.6637 C   0  0  0  0  0  0  0  0  0  0  0  0
   10.2790    7.0948   22.2635 C   0  0  0  0  0  0  0  0  0  0  0  0
   10.4300   11.0513   19.3859 C   0  0  0  0  0  0  0  0  0  0  0  0
    7.9088    8.6051   24.4457 C   0  0  0  0  0  0  0  0  0  0  0  0
    9.4904    7.5101   23.6864 C   0  0  0  0  0  0  0  0  0  0  0  0
    9.0921   11.2493   20.0350 C   0  0  0  0  0  0  0  0  0  0  0  0
   10.4100    6.8133   18.6797 C   0  0  0  0  0  0  0  0  0  0  0  0
   10.0570   11.4296   18.7471 C   0  0  0  0  0  0  0  0  0  0  0  0
   10.4304    6.4325   17.3880 C   0  0  0  0  0  0  0  0  0  0  0  0
    9.7648    4.8589   22.5824 C   0  0  0  0  0  0  0  0  0  0  0  0
   10.4726    7.8611   20.4232 C   0  0  0  0  0  0  0  0  0  0  0  0
   10.5717    7.6723   18.4946 C   0  0  0  0  0  0  0  0  0  0  0  0
   11.8753    9.2308   20.2770 C   0  0  0  0  0  0  0  0  0  0  0  0
   11.1307    7.6108   17.8053 C   0  0  0  0  0  0  0  0  0  0  0  0
  9 16  1  0
 12 18  1  0
M  END
$$$$

 Created by Python create_sdf_string function

 26 57  0  0  0  0  0  0  0  0999 V2000
    8.3594    5.3341   25.0809 Se  0  0  0  0  0  0  0  0  0  0  0  0
   10.1535    5.5298   22.6576 S   0  0  0  0  0  0  0  0  0  0  0  0
    8.3060    6.8855   22.3257 C   0  0  0  0  0  0  0  0  0  0  0  0
   10.1442    6.2874   19.1067 C   0  0  0  0  0  0  0  0  0  0  0  0
    8.7005   12.3589   18.5157 N   0  0  0  0  0  0  0  0  0  0  0  0
    5.3436    8.3443   25.0223 O   0  0  0  0  0  0  0  0  0  0  0  0
   10.2145    6.6708   24.2029 N   0  0  0  0  0  0  0  0  0  0  0  0
    7.8864   11.2705   20.0783 O   0  0  0  0  0  0  0  0  0  0  0  0
   10.3541    8.9885   20.7118 N   0  0  0  0  0  0  0  0  0  0  0  0
   10.4201    6.9820   21.9882 O   0  0  0  0  0  0  0  0  0  0  0  0
    7.9927    9.2241   24.5061 F   0  0  0  0  0  0  0  0  0  0  0  0
   10.1913    6.4986   23.6500 Cl  0  0  0  0  0  0  0  0  0  0  0  0
    9.3480   10.9323   19.7152 F   0  0  0  0  0  0  0  0  0  0  0  0
    9.3384    7.8529   17.1466 P   0  0  0  0  0  0  0  0  0  0  0  0
    9.7930    5.7705   23.1660 C   0  0  0  0  0  0  0  0  0  0  0  0
   10.9567    7.4747   19.5063 I   0  0  0  0  0  0  0  0  0  0  0  0
    9.0410    7.9731   17.7837 Cl  0  0  0  0  0  0  0  0  0  0  0  0
   10.9084    8.2705   17.2619 O   0  0  0  0  0  0  0  0  0  0  0  0
    9.9628   11.1867   18.9867 He  0  0  0  0  0  0  0  0  0  0  0  0
   11.2389    5.4431   19.5365 He  0  0  0  0  0  0  0  0  0  0  0  0
   10.2972   11.0630   19.5691 He  0  0  0  0  0  0  0  0  0  0  0  0
   10.3972    8.8894   21.7641 He  0  0  0  0  0  0  0  0  0  0  0  0
   12.4963   11.6344   17.5944 He  0  0  0  0  0  0  0  0  0  0  0  0
   10.3818    6.5739   19.3835 He  0  0  0  0  0  0  0  0  0  0  0  0
    9.1360   10.5299   19.4376 He  0  0  0  0  0  0  0  0  0  0  0  0
   12.7786    8.6529   19.5770 He  0  0  0  0  0  0  0  0  0  0  0  0
  1  3  1  0
  1  8  1  0
  1  9  1  0
  1 11  1  0
  1 12  2  0
  1 13  1  0
  1 15  4  0
  1 16  2  0
  2  6  1  0
  2  9  1  0
  2 10  3  0
  2 13  3  0
  3  7  3  0
  3  8  3  0
  4  5  2  0
  4  6  2  0
  4  8  1  0
  4  9  1  0
  4 11  2  0
  4 12  2  0
  4 13  4  0
  4 16  3  0
  4 18  1  0
  6  7  1  0
  6 14  2  0
  6 16  3  0
  7 10  2  0
  7 12  4  0
  7 15  3  0
  8 12  3  0
  8 14  1  0
  8 15  2  0
  8 16  2  0
  8 17  4  0
  9 10  1  0
  9 11  4  0
  9 12  1  0
  9 17  1  0
  9 18  3  0
 10 11  2  0
 10 16  2  0
 11 12  2  0
 11 14  2  0
 11 15  2  0
 11 18  4  0
 12 13  4  0
 12 14  2  0
 12 15  1  0
 12 16  1  0
 13 14  4  0
 13 15  3  0
 13 18  2  0
 14 15  4  0
 14 16  1  0
 14 17  3  0
 15 17  3  0
 17 18  1  0
M  END
$$$$

 Created by Python create_sdf_string function

 26  0  0  0  0  0  0  0  0  0999 V2000
    8.4011    6.1815   24.7958 C   0  0  0  0  0  0  0  0  0  0  0  0
   10.1667    5.8418   22.5611 C   0  0  0  0  0  0  0  0  0  0  0  0
    8.6142    7.2630   23.0090 C   0  0  0  0  0  0  0  0  0  0  0  0
   10.4234    6.5754   19.1851 C   0  0  0  0  0  0  0  0  0  0  0  0
   10.1887   11.1876   18.8556 C   0  0  0  0  0  0  0  0  0  0  0  0
   11.0411    5.7737   19.7142 C   0  0  0  0  0  0  0  0  0  0  0  0
    9.0805   11.9813   18.7056 C   0  0  0  0  0  0  0  0  0  0  0  0
   10.4445   10.9629   19.2807 C   0  0  0  0  0  0  0  0  0  0  0  0
    6.9918    7.7149   24.4406 O   0  0  0  0  0  0  0  0  0  0  0  0
    9.6895    6.6939   23.9989 C   0  0  0  0  0  0  0  0  0  0  0  0
   10.0442    8.6850   21.7333 C   0  0  0  0  0  0  0  0  0  0  0  0
    8.3275   11.1112   20.0735 C   0  0  0  0  0  0  0  0  0  0  0  0
   10.3414    8.9139   20.5648 C   0  0  0  0  0  0  0  0  0  0  0  0
   10.3467    6.9602   21.9417 C   0  0  0  0  0  0  0  0  0  0  0  0
   11.6870   11.1829   18.0486 C   0  0  0  0  0  0  0  0  0  0  0  0
    8.0472    8.2799   24.0919 C   0  0  0  0  0  0  0  0  0  0  0  0
    9.7890    6.6516   23.6446 C   0  0  0  0  0  0  0  0  0  0  0  0
    9.3465   10.9669   19.6374 C   0  0  0  0  0  0  0  0  0  0  0  0
   10.5400    6.7522   19.3766 C   0  0  0  0  0  0  0  0  0  0  0  0
    9.3079   10.6578   19.4192 C   0  0  0  0  0  0  0  0  0  0  0  0
    9.7191    8.0264   17.6267 C   0  0  0  0  0  0  0  0  0  0  0  0
    9.7469    6.1208   23.2041 C   0  0  0  0  0  0  0  0  0  0  0  0
   10.8859    7.6591   19.5211 C   0  0  0  0  0  0  0  0  0  0  0  0
    9.5335    8.1341   17.9983 C   0  0  0  0  0  0  0  0  0  0  0  0
   11.9106    8.7793   19.4082 C   0  0  0  0  0  0  0  0  0  0  0  0
   10.7679    8.3859   17.6104 C   0  0  0  0  0  0  0  0  0  0  0  0
M  END
$$$$

 Created by Python create_sdf_string function

 26 19  0  0  0  0  0  0  0  0999 V2000
    8.8045    6.7666   25.2001 F   0  0  0  0  0  0  0  0  0  0  0  0
    9.8715    9.1023   23.1349 C   0  0  0  0  0  0  0  0  0  0  0  0
   11.1491    4.5970   18.9944 C   0  0  0  0  0  0  0  0  0  0  0  0
    9.1605    8.3379   24.0651 C   0  0  0  0  0  0  0  0  0  0  0  0
   11.7000    8.1399   20.9338 Cl  0  0  0  0  0  0  0  0  0  0  0  0
    8.5129   11.0503   21.3291 C   0  0  0  0  0  0  0  0  0  0  0  0
    8.1361    7.2802   23.9436 P   0  0  0  0  0  0  0  0  0  0  0  0
   10.5329    8.7477   20.2610 F   0  0  0  0  0  0  0  0  0  0  0  0
    8.7543    8.3430   18.0643 S   0  0  0  0  0  0  0  0  0  0  0  0
   10.3574    6.3665   23.3290 N   0  0  0  0  0  0  0  0  0  0  0  0
   10.1816    8.4921   15.4621 C   0  0  0  0  0  0  0  0  0  0  0  0
    9.6677    6.0365   21.1615 He  0  0  0  0  0  0  0  0  0  0  0  0
   10.1627   12.8529   19.8597 He  0  0  0  0  0  0  0  0  0  0  0  0
   12.7923    6.9510   17.9955 He  0  0  0  0  0  0  0  0  0  0  0  0
   10.1357   11.4677   18.3608 He  0  0  0  0  0  0  0  0  0  0  0  0
   12.2113   11.4335   20.7018 He  0  0  0  0  0  0  0  0  0  0  0  0
    7.7905    8.9887   24.5352 He  0  0  0  0  0  0  0  0  0  0  0  0
    9.0378    8.3897   22.2410 He  0  0  0  0  0  0  0  0  0  0  0  0
   11.2914    5.3997   22.4195 He  0  0  0  0  0  0  0  0  0  0  0  0
   11.4171   12.2196   18.5613 He  0  0  0  0  0  0  0  0  0  0  0  0
    8.5813    6.9579   23.3926 He  0  0  0  0  0  0  0  0  0  0  0  0
   10.0772   10.2786   20.0929 He  0  0  0  0  0  0  0  0  0  0  0  0
    9.8214    9.1559   20.4811 He  0  0  0  0  0  0  0  0  0  0  0  0
   11.7149    6.9294   21.6470 He  0  0  0  0  0  0  0  0  0  0  0  0
    9.0332    8.1147   17.2053 He  0  0  0  0  0  0  0  0  0  0  0  0
   11.7105    8.1912   18.0977 He  0  0  0  0  0  0  0  0  0  0  0  0
  1  3  4  0
  1  5  1  0
  1  7  2  0
  1  9  3  0
  1 11  3  0
  2 10  3  0
  3  4  3  0
  3  6  1  0
  3 10  4  0
  4  9  3  0
  4 11  1  0
  5  8  2  0
  5 11  3  0
  6  7  4  0
  6 11  1  0
  8  9  3  0
  8 10  3  0
  8 11  1  0
  9 11  4  0
M  END
$$$$

 Created by Python create_sdf_string function

 26  0  0  0  0  0  0  0  0  0999 V2000
    8.7072    6.8489   24.8893 C   0  0  0  0  0  0  0  0  0  0  0  0
   10.2583    6.2972   21.3462 C   0  0  0  0  0  0  0  0  0  0  0  0
    9.5372    9.0570   22.8603 C   0  0  0  0  0  0  0  0  0  0  0  0
   11.5182    5.8348   19.3190 C   0  0  0  0  0  0  0  0  0  0  0  0
   10.3285   12.2575   19.8395 C   0  0  0  0  0  0  0  0  0  0  0  0
   11.8934    6.9694   18.2645 C   0  0  0  0  0  0  0  0  0  0  0  0
   10.2494   11.1474   18.6504 C   0  0  0  0  0  0  0  0  0  0  0  0
   11.3854   11.3450   20.3006 C   0  0  0  0  0  0  0  0  0  0  0  0
    8.0918    8.7896   24.4118 C   0  0  0  0  0  0  0  0  0  0  0  0
    8.9515    8.3536   23.9155 C   0  0  0  0  0  0  0  0  0  0  0  0
   11.4423    7.7530   20.5864 C   0  0  0  0  0  0  0  0  0  0  0  0
    9.1867   10.8024   21.1868 C   0  0  0  0  0  0  0  0  0  0  0  0
    9.2600    8.4645   22.3442 C   0  0  0  0  0  0  0  0  0  0  0  0
   11.0356    5.6742   22.1328 C   0  0  0  0  0  0  0  0  0  0  0  0
   10.9577   11.8824   19.0240 C   0  0  0  0  0  0  0  0  0  0  0  0
    8.3437    7.4016   24.1674 C   0  0  0  0  0  0  0  0  0  0  0  0
    8.8832    6.9945   23.4632 C   0  0  0  0  0  0  0  0  0  0  0  0
   10.1788   10.4470   20.0324 C   0  0  0  0  0  0  0  0  0  0  0  0
   10.5359    8.7141   19.9714 C   0  0  0  0  0  0  0  0  0  0  0  0
   10.0090    9.3148   20.3494 C   0  0  0  0  0  0  0  0  0  0  0  0
    9.5531    8.5828   18.0129 C   0  0  0  0  0  0  0  0  0  0  0  0
   10.1923    6.3244   23.0811 C   0  0  0  0  0  0  0  0  0  0  0  0
   11.3129    6.6797   21.3085 C   0  0  0  0  0  0  0  0  0  0  0  0
    9.8239    8.3348   17.4927 C   0  0  0  0  0  0  0  0  0  0  0  0
   11.2301    7.8763   18.1666 C   0  0  0  0  0  0  0  0  0  0  0  0
   10.2999    8.3770   16.6597 C   0  0  0  0  0  0  0  0  0  0  0  0
M  END
$$$$

 Created by Python create_sdf_string function

 26 29  0  0  0  0  0  0  0  0999 V2000
   11.0211    6.4510   17.5862 O   0  0  0  0  0  0  0  0  0  0  0  0
   11.0878   11.7701   19.0069 F   0  0  0  0  0  0  0  0  0  0  0  0
    9.7852   11.4813   19.1428 N   0  0  0  0  0  0  0  0  0  0  0  0
    9.2701    8.5266   24.1084 C   0  0  0  0  0  0  0  0  0  0  0  0
    9.8302    9.1673   25.2005 C   0  0  0  0  0  0  0  0  0  0  0  0
   10.0912    5.7784   19.6450 O   0  0  0  0  0  0  0  0  0  0  0  0
    6.6649   11.3609   20.3557 N   0  0  0  0  0  0  0  0  0  0  0  0
    7.8114    7.0004   23.4832 F   0  0  0  0  0  0  0  0  0  0  0  0
   12.6949   11.1081   19.6038 F   0  0  0  0  0  0  0  0  0  0  0  0
    8.9273    6.3360   24.0000 S   0  0  0  0  0  0  0  0  0  0  0  0
    9.4831   10.2448   20.3475 Cl  0  0  0  0  0  0  0  0  0  0  0  0
   10.7214    7.0899   21.6369 F   0  0  0  0  0  0  0  0  0  0  0  0
    8.9525    7.2113   23.7437 He  0  0  0  0  0  0  0  0  0  0  0  0
   10.3482    6.9935   20.5626 He  0  0  0  0  0  0  0  0  0  0  0  0
    9.3467    9.1442   21.7313 He  0  0  0  0  0  0  0  0  0  0  0  0
   11.9333    6.1334   20.8949 He  0  0  0  0  0  0  0  0  0  0  0  0
    8.7819    9.6834   17.9875 He  0  0  0  0  0  0  0  0  0  0  0  0
   12.3304    4.7717   23.2598 He  0  0  0  0  0  0  0  0  0  0  0  0
    8.9592    8.5165   23.4797 He  0  0  0  0  0  0  0  0  0  0  0  0
   11.0010    8.8580   19.9191 He  0  0  0  0  0  0  0  0  0  0  0  0
    9.1434    9.1042   19.6729 He  0  0  0  0  0  0  0  0  0  0  0  0
    9.2486   10.8911   18.3666 He  0  0  0  0  0  0  0  0  0  0  0  0
    9.7734    5.4992   24.1785 He  0  0  0  0  0  0  0  0  0  0  0  0
    9.1782    8.3208   17.9386 He  0  0  0  0  0  0  0  0  0  0  0  0
   12.8729    6.5604   18.6660 He  0  0  0  0  0  0  0  0  0  0  0  0
    8.9872    8.9890   16.1239 He  0  0  0  0  0  0  0  0  0  0  0  0
  1  2  3  0
  1  6  4  0
  2  3  1  0
  2  4  2  0
  2  5  2  0
  2  6  2  0
  2  7  4  0
  2  9  1  0
  2 11  2  0
  3  4  4  0
  3  5  1  0
  3  6  4  0
  3 12  4  0
  4  7  1  0
  4 10  3  0
  4 12  1  0
  5  7  2  0
  5 11  4  0
  5 12  3  0
  6  7  4  0
  6  8  3  0
  6 11  4  0
  7  9  3  0
  8  9  3  0
  8 10  1  0
  9 11  3  0
  9 12  3  0
 10 11  3  0
 11 12  1  0
M  END
$$$$

 Created by Python create_sdf_string function

 26  2  0  0  0  0  0  0  0  0999 V2000
    9.3586    7.1803   23.6840 C   0  0  0  0  0  0  0  0  0  0  0  0
   10.5573    7.0525   20.5244 C   0  0  0  0  0  0  0  0  0  0  0  0
    9.3396    9.0983   21.7817 C   0  0  0  0  0  0  0  0  0  0  0  0
   10.9795    6.8672   18.2257 C   0  0  0  0  0  0  0  0  0  0  0  0
   10.8135   11.2777   19.1638 C   0  0  0  0  0  0  0  0  0  0  0  0
   11.5767    6.1733   20.7530 C   0  0  0  0  0  0  0  0  0  0  0  0
    8.9436    9.6855   18.1001 C   0  0  0  0  0  0  0  0  0  0  0  0
    9.9436   11.2724   19.1734 C   0  0  0  0  0  0  0  0  0  0  0  0
    9.2358    8.4142   23.9370 C   0  0  0  0  0  0  0  0  0  0  0  0
    9.4036    8.7193   24.5765 C   0  0  0  0  0  0  0  0  0  0  0  0
   10.6270    6.2662   19.7484 C   0  0  0  0  0  0  0  0  0  0  0  0
    7.7308   10.8447   20.0025 O   0  0  0  0  0  0  0  0  0  0  0  0
    8.4107    7.1784   23.5345 C   0  0  0  0  0  0  0  0  0  0  0  0
   11.3404    5.3268   22.8505 C   0  0  0  0  0  0  0  0  0  0  0  0
   11.7810   10.8418   19.4550 C   0  0  0  0  0  0  0  0  0  0  0  0
    8.9585    8.5408   23.2888 C   0  0  0  0  0  0  0  0  0  0  0  0
    9.2876    6.4507   23.9367 C   0  0  0  0  0  0  0  0  0  0  0  0
    9.4839   10.2712   20.3022 C   0  0  0  0  0  0  0  0  0  0  0  0
   10.8401    8.9542   19.7574 C   0  0  0  0  0  0  0  0  0  0  0  0
    9.3401    9.1708   19.5749 C   0  0  0  0  0  0  0  0  0  0  0  0
    9.2028   10.6796   18.5319 C   0  0  0  0  0  0  0  0  0  0  0  0
   10.0359    5.8876   23.7942 C   0  0  0  0  0  0  0  0  0  0  0  0
   10.5659    6.8841   21.7821 C   0  0  0  0  0  0  0  0  0  0  0  0
    9.4075    8.5952   18.0678 C   0  0  0  0  0  0  0  0  0  0  0  0
   12.0794    6.5992   19.0565 C   0  0  0  0  0  0  0  0  0  0  0  0
    8.9443    9.0930   16.9556 O   0  0  0  0  0  0  0  0  0  0  0  0
  5  8  1  0
  5 15  1  0
M  END
$$$$

 Created by Python create_sdf_string function

 26 35  0  0  0  0  0  0  0  0999 V2000
    9.7384    6.5073   17.4532 S   0  0  0  0  0  0  0  0  0  0  0  0
   12.5833   12.1442   20.2694 F   0  0  0  0  0  0  0  0  0  0  0  0
    8.4313    7.8550   23.4156 Cl  0  0  0  0  0  0  0  0  0  0  0  0
    7.3006    7.1707   24.1390 Cl  0  0  0  0  0  0  0  0  0  0  0  0
   10.9252    6.7072   20.3548 C   0  0  0  0  0  0  0  0  0  0  0  0
   12.2720   11.5516   17.9519 O   0  0  0  0  0  0  0  0  0  0  0  0
   10.2072    7.2139   23.4450 F   0  0  0  0  0  0  0  0  0  0  0  0
    8.8858    5.6647   25.7461 C   0  0  0  0  0  0  0  0  0  0  0  0
    9.8482   10.1683   19.0329 Cl  0  0  0  0  0  0  0  0  0  0  0  0
    8.0315   11.3106   20.1560 P   0  0  0  0  0  0  0  0  0  0  0  0
   10.2869    9.9634   18.6816 F   0  0  0  0  0  0  0  0  0  0  0  0
    9.0366    6.5988   23.4743 I   0  0  0  0  0  0  0  0  0  0  0  0
    8.8234    9.1503   19.1339 S   0  0  0  0  0  0  0  0  0  0  0  0
   12.5269    7.0528   19.2578 C   0  0  0  0  0  0  0  0  0  0  0  0
    7.4701    9.0661   17.3066 N   0  0  0  0  0  0  0  0  0  0  0  0
    8.9039    7.8127   23.2693 He  0  0  0  0  0  0  0  0  0  0  0  0
    9.3845    7.4031   20.6438 He  0  0  0  0  0  0  0  0  0  0  0  0
    8.9457    8.7443   20.7219 He  0  0  0  0  0  0  0  0  0  0  0  0
   11.1551    5.9155   18.7807 He  0  0  0  0  0  0  0  0  0  0  0  0
    9.5455   10.7711   18.3660 He  0  0  0  0  0  0  0  0  0  0  0  0
    9.6907   11.5168   18.1987 He  0  0  0  0  0  0  0  0  0  0  0  0
    8.2311   10.1955   19.8099 He  0  0  0  0  0  0  0  0  0  0  0  0
    7.9801    9.2911   24.0682 He  0  0  0  0  0  0  0  0  0  0  0  0
   10.5948    5.9762   22.0417 He  0  0  0  0  0  0  0  0  0  0  0  0
   12.0225   10.3683   21.7858 He  0  0  0  0  0  0  0  0  0  0  0  0
   10.7789    6.8749   20.6514 He  0  0  0  0  0  0  0  0  0  0  0  0
  1  4  1  0
  1  7  4  0
  1  9  4  0
  1 10  1  0
  2  5  3  0
  2  6  2  0
  2  7  2  0
  2  8  3  0
  2  9  4  0
  3  7  1  0
  3  8  2  0
  3 12  1  0
  3 15  3  0
  4  5  3  0
  4  6  2  0
  4  8  3  0
  4 14  1  0
  5  7  2  0
  5  8  4  0
  5 10  2  0
  5 13  3  0
  5 15  4  0
  6  9  4  0
  6 10  4  0
  6 14  4  0
  7 13  3  0
  8 10  1  0
  8 13  3  0
  8 14  4  0
  9 14  1  0
 10 13  1  0
 11 12  3  0
 12 14  2  0
 12 15  2  0
 13 15  2  0
M  END
$$$$

 Created by Python create_sdf_string function

 26  1  0  0  0  0  0  0  0  0999 V2000
    8.8398    7.7443   23.2189 C   0  0  0  0  0  0  0  0  0  0  0  0
    9.6458    7.6122   20.6646 C   0  0  0  0  0  0  0  0  0  0  0  0
    9.0428    8.6783   20.8873 C   0  0  0  0  0  0  0  0  0  0  0  0
   10.1671    7.0107   18.2611 C   0  0  0  0  0  0  0  0  0  0  0  0
   12.0051   11.5138   19.8055 C   0  0  0  0  0  0  0  0  0  0  0  0
   11.1945    6.3183   18.8827 C   0  0  0  0  0  0  0  0  0  0  0  0
    9.7564   10.8268   18.4962 C   0  0  0  0  0  0  0  0  0  0  0  0
    9.9758   11.4549   18.3952 C   0  0  0  0  0  0  0  0  0  0  0  0
    8.4568    7.8096   23.5468 C   0  0  0  0  0  0  0  0  0  0  0  0
    7.6966    7.3092   24.3357 C   0  0  0  0  0  0  0  0  0  0  0  0
   10.9650    6.7279   20.2377 C   0  0  0  0  0  0  0  0  0  0  0  0
    8.3436   10.2600   19.6808 C   0  0  0  0  0  0  0  0  0  0  0  0
    8.0218    8.8446   23.6959 C   0  0  0  0  0  0  0  0  0  0  0  0
   10.5909    6.2792   22.0961 C   0  0  0  0  0  0  0  0  0  0  0  0
   11.8663   11.4271   18.5729 C   0  0  0  0  0  0  0  0  0  0  0  0
    9.8886    6.9959   23.3366 C   0  0  0  0  0  0  0  0  0  0  0  0
    8.8447    6.2014   25.0399 C   0  0  0  0  0  0  0  0  0  0  0  0
   10.1586   10.4008   19.1544 C   0  0  0  0  0  0  0  0  0  0  0  0
   11.6664   10.5216   20.8366 C   0  0  0  0  0  0  0  0  0  0  0  0
    8.2353   10.8924   19.9416 C   0  0  0  0  0  0  0  0  0  0  0  0
   10.2780   10.1984   18.7350 C   0  0  0  0  0  0  0  0  0  0  0  0
    9.1500    6.7409   23.6491 C   0  0  0  0  0  0  0  0  0  0  0  0
   10.7726    6.8921   20.4876 C   0  0  0  0  0  0  0  0  0  0  0  0
    8.8121    9.2085   19.1169 C   0  0  0  0  0  0  0  0  0  0  0  0
   11.9244    6.8198   19.2120 C   0  0  0  0  0  0  0  0  0  0  0  0
    7.9533    9.2212   17.8281 O   0  0  0  0  0  0  0  0  0  0  0  0
 12 20  1  0
M  END
$$$$

 Created by Python create_sdf_string function

 26 48  0  0  0  0  0  0  0  0999 V2000
    9.5886    7.9983   21.5660 O   0  0  0  0  0  0  0  0  0  0  0  0
    8.7368    7.8671   19.6609 N   0  0  0  0  0  0  0  0  0  0  0  0
    9.0215    8.4592   19.0874 I   0  0  0  0  0  0  0  0  0  0  0  0
   10.1806   12.0109   18.3254 F   0  0  0  0  0  0  0  0  0  0  0  0
    6.5627    7.8574   23.9080 F   0  0  0  0  0  0  0  0  0  0  0  0
    7.4418    7.4340   23.8933 O   0  0  0  0  0  0  0  0  0  0  0  0
    9.4803   10.7194   21.2410 Cl  0  0  0  0  0  0  0  0  0  0  0  0
   10.0224    8.8925   22.4870 Se  0  0  0  0  0  0  0  0  0  0  0  0
   11.0807    6.6075   22.8848 Cl  0  0  0  0  0  0  0  0  0  0  0  0
   11.4781   10.8886   18.1330 S   0  0  0  0  0  0  0  0  0  0  0  0
   10.8796    7.5474   23.0131 C   0  0  0  0  0  0  0  0  0  0  0  0
   11.4787   10.8124   18.4823 Br  0  0  0  0  0  0  0  0  0  0  0  0
   11.6323    8.0615   21.8427 F   0  0  0  0  0  0  0  0  0  0  0  0
   10.3521   12.2602   18.5344 C   0  0  0  0  0  0  0  0  0  0  0  0
    8.2943    5.9917   22.3257 I   0  0  0  0  0  0  0  0  0  0  0  0
    9.1804    9.7614   19.8197 C   0  0  0  0  0  0  0  0  0  0  0  0
    9.9754    7.0944   23.7530 He  0  0  0  0  0  0  0  0  0  0  0  0
    9.2255    8.7834   21.5994 He  0  0  0  0  0  0  0  0  0  0  0  0
   12.8877   12.8226   18.2876 He  0  0  0  0  0  0  0  0  0  0  0  0
   12.0792    5.3857   19.5757 He  0  0  0  0  0  0  0  0  0  0  0  0
   11.7643    7.6568   21.3771 He  0  0  0  0  0  0  0  0  0  0  0  0
    8.6678    5.9517   25.1843 He  0  0  0  0  0  0  0  0  0  0  0  0
    7.9889   10.4185   19.3939 He  0  0  0  0  0  0  0  0  0  0  0  0
   10.8910    4.3038   20.4082 He  0  0  0  0  0  0  0  0  0  0  0  0
   13.7589    5.5707   18.8075 He  0  0  0  0  0  0  0  0  0  0  0  0
    6.2001    8.2586   19.5972 He  0  0  0  0  0  0  0  0  0  0  0  0
  1  3  2  0
  1  7  1  0
  1  8  4  0
  2  5  3  0
  2  6  3  0
  2  7  3  0
  2  8  4  0
  2 12  3  0
  2 14  1  0
  3  4  3  0
  3  6  3  0
  3 11  3  0
  3 13  3  0
  3 16  1  0
  4  6  1  0
  4 12  3  0
  5  7  4  0
  5 12  4  0
  5 14  1  0
  5 16  2  0
  6  7  3  0
  6  8  4  0
  6  9  1  0
  6 14  2  0
  6 15  4  0
  7 10  4  0
  7 11  4  0
  7 13  4  0
  7 14  3  0
  7 15  4  0
  8  9  4  0
  8 13  4  0
  8 16  3  0
  9 12  2  0
 10 13  4  0
 10 14  2  0
 10 15  4  0
 10 16  3  0
 11 12  2  0
 11 13  4  0
 11 14  3  0
 11 15  3  0
 11 16  4  0
 12 15  4  0
 13 15  3  0
 14 15  2  0
 14 16  4  0
 15 16  4  0
M  END
$$$$

 Created by Python create_sdf_string function

 26  5  0  0  0  0  0  0  0  0999 V2000
    9.6682    6.8667   23.7014 C   0  0  0  0  0  0  0  0  0  0  0  0
    9.0053    8.7799   21.4295 C   0  0  0  0  0  0  0  0  0  0  0  0
    9.4540    8.0601   21.6819 C   0  0  0  0  0  0  0  0  0  0  0  0
    8.5917    8.3133   19.8084 C   0  0  0  0  0  0  0  0  0  0  0  0
   12.1264   12.2345   18.3068 C   0  0  0  0  0  0  0  0  0  0  0  0
   12.0636    5.7669   19.9007 C   0  0  0  0  0  0  0  0  0  0  0  0
    8.7995    8.8132   19.2993 C   0  0  0  0  0  0  0  0  0  0  0  0
   10.4080   11.8396   18.5450 C   0  0  0  0  0  0  0  0  0  0  0  0
    7.2067    7.5216   23.6837 C   0  0  0  0  0  0  0  0  0  0  0  0
    7.6694    7.2760   23.7691 C   0  0  0  0  0  0  0  0  0  0  0  0
   11.8517    7.2125   21.2020 C   0  0  0  0  0  0  0  0  0  0  0  0
    9.4886   10.5773   20.7553 C   0  0  0  0  0  0  0  0  0  0  0  0
    9.8159    8.5333   22.3691 C   0  0  0  0  0  0  0  0  0  0  0  0
   11.0688    6.5338   22.4969 C   0  0  0  0  0  0  0  0  0  0  0  0
   11.3927   11.0464   18.4051 C   0  0  0  0  0  0  0  0  0  0  0  0
   10.8300    7.2625   22.7000 C   0  0  0  0  0  0  0  0  0  0  0  0
    8.6105    6.3690   24.6200 C   0  0  0  0  0  0  0  0  0  0  0  0
   11.3189   10.9796   18.5771 C   0  0  0  0  0  0  0  0  0  0  0  0
   11.6619    7.4983   21.4982 C   0  0  0  0  0  0  0  0  0  0  0  0
    8.4330   10.2170   19.4274 C   0  0  0  0  0  0  0  0  0  0  0  0
   10.5020   11.9344   18.6980 C   0  0  0  0  0  0  0  0  0  0  0  0
    8.3593    6.5289   22.9152 C   0  0  0  0  0  0  0  0  0  0  0  0
   11.5421    5.2492   20.3680 C   0  0  0  0  0  0  0  0  0  0  0  0
    9.2828   10.0672   19.5979 C   0  0  0  0  0  0  0  0  0  0  0  0
   12.6976    5.9608   19.5222 C   0  0  0  0  0  0  0  0  0  0  0  0
    7.0998    8.4066   19.7542 C   0  0  0  0  0  0  0  0  0  0  0  0
  6 23  4  0
  6 25  4  0
  8 21  1  0
  9 10  1  0
 15 18  1  0
M  END
$$$$

 Created by Python create_sdf_string function

 26 37  0  0  0  0  0  0  0  0999 V2000
   10.0849    5.7732   22.6183 C   0  0  0  0  0  0  0  0  0  0  0  0
    8.6806    9.2527   21.0935 C   0  0  0  0  0  0  0  0  0  0  0  0
    8.6540    8.9736   19.2762 N   0  0  0  0  0  0  0  0  0  0  0  0
    8.9091   10.9102   18.0233 C   0  0  0  0  0  0  0  0  0  0  0  0
    6.2425    7.3266   22.5520 F   0  0  0  0  0  0  0  0  0  0  0  0
    6.5445    6.4039   24.5138 C   0  0  0  0  0  0  0  0  0  0  0  0
   12.3419    5.5570   22.1750 S   0  0  0  0  0  0  0  0  0  0  0  0
    9.6726   10.1227   19.0148 C   0  0  0  0  0  0  0  0  0  0  0  0
    9.5318    8.3957   21.7615 B   0  0  0  0  0  0  0  0  0  0  0  0
    9.9293    5.5746   23.2404 O   0  0  0  0  0  0  0  0  0  0  0  0
   10.8223    7.9226   23.1594 C   0  0  0  0  0  0  0  0  0  0  0  0
    8.6975   10.7976   20.7282 C   0  0  0  0  0  0  0  0  0  0  0  0
    9.4974    5.4996   21.5077 N   0  0  0  0  0  0  0  0  0  0  0  0
   11.2760    3.3524   20.3105 C   0  0  0  0  0  0  0  0  0  0  0  0
    8.0635   10.1586   19.5893 F   0  0  0  0  0  0  0  0  0  0  0  0
    9.9621    6.1707   21.7864 He  0  0  0  0  0  0  0  0  0  0  0  0
    9.5024    8.8207   18.7742 He  0  0  0  0  0  0  0  0  0  0  0  0
   12.2582   13.4446   17.3025 He  0  0  0  0  0  0  0  0  0  0  0  0
   11.1681    5.1334   17.7113 He  0  0  0  0  0  0  0  0  0  0  0  0
   10.0219   10.2166   16.0021 He  0  0  0  0  0  0  0  0  0  0  0  0
    9.5914    6.4055   25.1196 He  0  0  0  0  0  0  0  0  0  0  0  0
   11.3536   10.2568   17.7717 He  0  0  0  0  0  0  0  0  0  0  0  0
   10.2190    8.3020   21.9377 He  0  0  0  0  0  0  0  0  0  0  0  0
    9.0812   10.6344   20.5199 He  0  0  0  0  0  0  0  0  0  0  0  0
   12.9387    6.6752   20.7829 He  0  0  0  0  0  0  0  0  0  0  0  0
    6.0526    9.0968   17.9617 He  0  0  0  0  0  0  0  0  0  0  0  0
  1  2  3  0
  1  5  2  0
  1  7  2  0
  1  8  4  0
  1 12  2  0
  1 15  3  0
  2  3  3  0
  2  5  3  0
  2 10  1  0
  3  6  3  0
  3 11  3  0
  3 15  3  0
  4  7  3  0
  4 15  1  0
  5 10  3  0
  5 14  1  0
  6  7  2  0
  6  8  3  0
  6  9  3  0
  6 10  1  0
  6 12  3  0
  7  8  2  0
  7 11  1  0
  7 12  2  0
  7 13  4  0
  8 12  4  0
  8 13  4  0
  8 15  2  0
  9 12  1  0
  9 14  3  0
 10 12  2  0
 10 13  2  0
 10 15  4  0
 11 12  3  0
 12 13  2  0
 12 15  2  0
 13 14  1  0
M  END
$$$$

 Created by Python create_sdf_string function

 26  3  0  0  0  0  0  0  0  0999 V2000
   10.0529    6.0797   22.7354 C   0  0  0  0  0  0  0  0  0  0  0  0
    8.6086    9.0991   21.1745 C   0  0  0  0  0  0  0  0  0  0  0  0
   10.2333    6.0808   21.7480 C   0  0  0  0  0  0  0  0  0  0  0  0
    9.4805    9.2976   18.6333 C   0  0  0  0  0  0  0  0  0  0  0  0
   11.2261   11.9880   17.5770 C   0  0  0  0  0  0  0  0  0  0  0  0
   11.4974    5.2946   19.2713 C   0  0  0  0  0  0  0  0  0  0  0  0
    8.5998    9.1792   19.3192 C   0  0  0  0  0  0  0  0  0  0  0  0
    9.2234   10.6889   18.0470 C   0  0  0  0  0  0  0  0  0  0  0  0
    7.3628    7.4536   22.7685 C   0  0  0  0  0  0  0  0  0  0  0  0
    7.6309    6.6463   23.9244 C   0  0  0  0  0  0  0  0  0  0  0  0
   11.7545    5.6935   21.5274 C   0  0  0  0  0  0  0  0  0  0  0  0
    9.7170   10.3448   18.9357 C   0  0  0  0  0  0  0  0  0  0  0  0
    9.2779    8.3383   21.9630 C   0  0  0  0  0  0  0  0  0  0  0  0
    9.5198    5.9785   23.5438 C   0  0  0  0  0  0  0  0  0  0  0  0
   10.2392   10.4543   16.8020 C   0  0  0  0  0  0  0  0  0  0  0  0
   10.3797    7.7188   23.1160 C   0  0  0  0  0  0  0  0  0  0  0  0
    9.1877    6.3315   24.5031 C   0  0  0  0  0  0  0  0  0  0  0  0
   10.9494   10.5887   17.7039 C   0  0  0  0  0  0  0  0  0  0  0  0
    9.6697    8.3532   21.9841 C   0  0  0  0  0  0  0  0  0  0  0  0
    8.8988   10.4192   20.5287 C   0  0  0  0  0  0  0  0  0  0  0  0
    9.1955   10.4660   20.4051 C   0  0  0  0  0  0  0  0  0  0  0  0
    9.9784    5.6606   21.4600 C   0  0  0  0  0  0  0  0  0  0  0  0
   11.2961    4.4448   20.1527 C   0  0  0  0  0  0  0  0  0  0  0  0
    8.1348    9.9872   19.3350 C   0  0  0  0  0  0  0  0  0  0  0  0
   12.1040    6.0872   20.4966 C   0  0  0  0  0  0  0  0  0  0  0  0
    6.9741    9.2241   18.5228 O   0  0  0  0  0  0  0  0  0  0  0  0
  3 22  4  0
  6 23  4  0
 13 19  1  0
M  END
$$$$

 Created by Python create_sdf_string function

 26 17  0  0  0  0  0  0  0  0999 V2000
   11.2227    7.0531   21.6426 N   0  0  0  0  0  0  0  0  0  0  0  0
   10.5603    9.9563   18.0932 Br  0  0  0  0  0  0  0  0  0  0  0  0
   10.4017   13.2150   18.9459 C   0  0  0  0  0  0  0  0  0  0  0  0
   11.6108    6.6698   16.9937 Se  0  0  0  0  0  0  0  0  0  0  0  0
    9.9803   10.8695   17.6723 P   0  0  0  0  0  0  0  0  0  0  0  0
    7.4537    5.3085   21.9435 P   0  0  0  0  0  0  0  0  0  0  0  0
   10.8434    6.2240   20.4085 B   0  0  0  0  0  0  0  0  0  0  0  0
   10.6363    4.2117   24.7967 F   0  0  0  0  0  0  0  0  0  0  0  0
   10.6162   10.7143   16.2187 O   0  0  0  0  0  0  0  0  0  0  0  0
    8.6815    5.5486   24.4978 C   0  0  0  0  0  0  0  0  0  0  0  0
    8.7711    7.0216   21.6486 He  0  0  0  0  0  0  0  0  0  0  0  0
   10.1227   10.2655   21.2401 He  0  0  0  0  0  0  0  0  0  0  0  0
    9.2962    8.6256   19.3473 He  0  0  0  0  0  0  0  0  0  0  0  0
    7.0613    6.8071   22.6623 He  0  0  0  0  0  0  0  0  0  0  0  0
    9.9911    8.3814   17.3185 He  0  0  0  0  0  0  0  0  0  0  0  0
   10.5687    6.7949   22.0070 He  0  0  0  0  0  0  0  0  0  0  0  0
   10.6077    7.1974   22.8836 He  0  0  0  0  0  0  0  0  0  0  0  0
   10.6150   11.3009   17.9937 He  0  0  0  0  0  0  0  0  0  0  0  0
    9.3569    9.0710   21.9475 He  0  0  0  0  0  0  0  0  0  0  0  0
   10.9786   11.1162   20.2092 He  0  0  0  0  0  0  0  0  0  0  0  0
    9.2511   10.9365   20.5868 He  0  0  0  0  0  0  0  0  0  0  0  0
   10.8561    5.8462   21.6349 He  0  0  0  0  0  0  0  0  0  0  0  0
   11.2534    5.3606   21.2453 He  0  0  0  0  0  0  0  0  0  0  0  0
    7.9891    9.6264   19.0672 He  0  0  0  0  0  0  0  0  0  0  0  0
   12.1129    5.6012   21.6958 He  0  0  0  0  0  0  0  0  0  0  0  0
    7.7190   11.1107   19.2128 He  0  0  0  0  0  0  0  0  0  0  0  0
  1  3  2  0
  1  4  1  0
  1  6  1  0
  1 10  1  0
  3  5  2  0
  3  9  1  0
  3 10  1  0
  4  8  1  0
  4  9  1  0
  5 10  3  0
  6  7  3  0
  6  8  3  0
  6  9  4  0
  6 10  3  0
  7  9  4  0
  7 10  4  0
  8  9  4  0
M  END
$$$$

 Created by Python create_sdf_string function

 26  0  0  0  0  0  0  0  0  0999 V2000
    8.7257    7.1811   21.8920 C   0  0  0  0  0  0  0  0  0  0  0  0
    9.9168   10.2533   21.0928 C   0  0  0  0  0  0  0  0  0  0  0  0
   10.8817    7.1971   21.3952 C   0  0  0  0  0  0  0  0  0  0  0  0
   10.3743    9.9368   18.0405 C   0  0  0  0  0  0  0  0  0  0  0  0
   10.2324   12.4804   18.8667 C   0  0  0  0  0  0  0  0  0  0  0  0
   11.1619    7.3307   17.7538 C   0  0  0  0  0  0  0  0  0  0  0  0
    9.6580    8.7666   19.3724 C   0  0  0  0  0  0  0  0  0  0  0  0
   10.1466   10.8309   17.7357 C   0  0  0  0  0  0  0  0  0  0  0  0
    8.0040    5.9258   22.4436 C   0  0  0  0  0  0  0  0  0  0  0  0
    7.6415    6.8212   22.6147 C   0  0  0  0  0  0  0  0  0  0  0  0
   10.9791    6.5426   20.0886 C   0  0  0  0  0  0  0  0  0  0  0  0
   10.3222    8.6497   17.6023 C   0  0  0  0  0  0  0  0  0  0  0  0
   10.2738    6.6726   22.2021 C   0  0  0  0  0  0  0  0  0  0  0  0
   10.4447    4.7701   24.0564 O   0  0  0  0  0  0  0  0  0  0  0  0
   10.5529   10.5320   16.6371 O   0  0  0  0  0  0  0  0  0  0  0  0
   10.3133    6.8694   22.7594 C   0  0  0  0  0  0  0  0  0  0  0  0
    8.9636    5.6038   23.8046 C   0  0  0  0  0  0  0  0  0  0  0  0
   10.4891   11.1120   17.9464 C   0  0  0  0  0  0  0  0  0  0  0  0
    9.2808    9.0280   21.6196 C   0  0  0  0  0  0  0  0  0  0  0  0
   10.5043   11.1365   20.0565 C   0  0  0  0  0  0  0  0  0  0  0  0
    9.3751   10.8887   20.3713 C   0  0  0  0  0  0  0  0  0  0  0  0
   10.6969    5.9599   21.8810 C   0  0  0  0  0  0  0  0  0  0  0  0
   11.3016    5.6035   21.4146 C   0  0  0  0  0  0  0  0  0  0  0  0
    8.6138    9.7794   19.2985 C   0  0  0  0  0  0  0  0  0  0  0  0
   11.7608    5.6001   21.7087 C   0  0  0  0  0  0  0  0  0  0  0  0
    8.4252   10.9557   19.3027 C   0  0  0  0  0  0  0  0  0  0  0  0
M  END
$$$$

 Created by Python create_sdf_string function

 26 75  0  0  0  0  0  0  0  0999 V2000
   10.9369    6.5783   21.1972 C   0  0  0  0  0  0  0  0  0  0  0  0
   11.7400   11.1731   20.3369 N   0  0  0  0  0  0  0  0  0  0  0  0
   10.1052    9.8285   16.4974 Cl  0  0  0  0  0  0  0  0  0  0  0  0
    9.3775   13.6449   18.6320 S   0  0  0  0  0  0  0  0  0  0  0  0
    9.4336    9.7979   20.8527 C   0  0  0  0  0  0  0  0  0  0  0  0
    9.8046   10.5337   17.8544 P   0  0  0  0  0  0  0  0  0  0  0  0
    8.3166    4.9426   21.9231 O   0  0  0  0  0  0  0  0  0  0  0  0
    7.0593    7.8931   23.3953 N   0  0  0  0  0  0  0  0  0  0  0  0
   10.0101    6.2849   19.1448 C   0  0  0  0  0  0  0  0  0  0  0  0
    9.6428    7.9296   17.7994 C   0  0  0  0  0  0  0  0  0  0  0  0
   10.0123    7.7715   22.2993 F   0  0  0  0  0  0  0  0  0  0  0  0
    9.8828    6.0208   24.6144 P   0  0  0  0  0  0  0  0  0  0  0  0
   10.9526    9.1556   17.7153 O   0  0  0  0  0  0  0  0  0  0  0  0
    8.3643    5.3364   23.8417 O   0  0  0  0  0  0  0  0  0  0  0  0
    7.8935    7.2249   22.0269 Se  0  0  0  0  0  0  0  0  0  0  0  0
    9.8864   10.7015   22.6177 Se  0  0  0  0  0  0  0  0  0  0  0  0
   11.4740    9.1684   19.4477 C   0  0  0  0  0  0  0  0  0  0  0  0
    9.7617    4.5393   21.1597 C   0  0  0  0  0  0  0  0  0  0  0  0
   11.9273    6.0466   21.0822 O   0  0  0  0  0  0  0  0  0  0  0  0
    9.3576   12.4573   21.1686 N   0  0  0  0  0  0  0  0  0  0  0  0
   10.9446    7.9694   20.2107 He  0  0  0  0  0  0  0  0  0  0  0  0
   10.5785    7.7523   16.6279 He  0  0  0  0  0  0  0  0  0  0  0  0
   11.0235    6.9151   23.0557 He  0  0  0  0  0  0  0  0  0  0  0  0
   11.1289   12.8729   15.9317 He  0  0  0  0  0  0  0  0  0  0  0  0
   10.9855    5.7229   20.8172 He  0  0  0  0  0  0  0  0  0  0  0  0
    8.2210    9.9725   20.0258 He  0  0  0  0  0  0  0  0  0  0  0  0
  1  2  3  0
  1  5  4  0
  1  6  2  0
  1  8  1  0
  1  9  2  0
  1 17  4  0
  2  3  3  0
  2  7  3  0
  2  9  3  0
  2 10  4  0
  2 12  4  0
  2 13  3  0
  2 14  3  0
  2 17  2  0
  2 18  3  0
  2 19  4  0
  2 20  1  0
  3  6  3  0
  3  7  3  0
  3 12  3  0
  3 14  3  0
  3 15  3  0
  3 19  2  0
  3 20  2  0
  4  5  1  0
  4  7  3  0
  4 10  1  0
  4 19  4  0
  4 20  1  0
  5  9  1  0
  5 10  2  0
  6  9  2  0
  6 11  3  0
  6 12  4  0
  6 14  1  0
  6 15  3  0
  6 16  1  0
  6 18  2  0
  6 19  3  0
  7  8  1  0
  7  9  2  0
  7 12  1  0
  7 14  4  0
  7 15  1  0
  7 16  2  0
  8  9  3  0
  8 11  2  0
  8 12  1  0
  8 16  3  0
  8 18  3  0
  8 19  3  0
  9 17  4  0
 10 12  2  0
 10 13  2  0
 10 14  3  0
 10 15  3  0
 10 19  2  0
 11 12  4  0
 11 13  1  0
 11 17  4  0
 11 18  2  0
 11 20  4  0
 12 17  3  0
 13 14  3  0
 13 15  1  0
 13 17  3  0
 13 19  4  0
 14 16  2  0
 14 17  1  0
 15 18  1  0
 15 19  3  0
 16 17  1  0
 17 19  3  0
 18 20  1  0
 19 20  2  0
M  END
$$$$

 Created by Python create_sdf_string function

 26  0  0  0  0  0  0  0  0  0999 V2000
   10.8874    6.7124   20.8963 C   0  0  0  0  0  0  0  0  0  0  0  0
   10.8325   10.9929   20.0115 C   0  0  0  0  0  0  0  0  0  0  0  0
   10.7725    8.0409   19.9200 C   0  0  0  0  0  0  0  0  0  0  0  0
   10.3973    9.9511   16.9249 C   0  0  0  0  0  0  0  0  0  0  0  0
    9.8265   12.5343   18.7725 C   0  0  0  0  0  0  0  0  0  0  0  0
   10.5559    8.2658   16.9014 C   0  0  0  0  0  0  0  0  0  0  0  0
    9.6076   10.1498   20.9459 C   0  0  0  0  0  0  0  0  0  0  0  0
   10.2576   10.8603   17.9497 C   0  0  0  0  0  0  0  0  0  0  0  0
    8.6777    5.4911   22.2541 C   0  0  0  0  0  0  0  0  0  0  0  0
    7.8593    7.5404   23.2234 C   0  0  0  0  0  0  0  0  0  0  0  0
   10.4222    6.7891   19.1655 C   0  0  0  0  0  0  0  0  0  0  0  0
   10.1654    8.2356   18.0246 C   0  0  0  0  0  0  0  0  0  0  0  0
    9.8191    7.6836   22.2198 C   0  0  0  0  0  0  0  0  0  0  0  0
    9.5062    6.2672   23.9676 C   0  0  0  0  0  0  0  0  0  0  0  0
   10.8028    9.1621   17.7612 C   0  0  0  0  0  0  0  0  0  0  0  0
   10.3434    6.7851   22.9517 C   0  0  0  0  0  0  0  0  0  0  0  0
    8.4454    5.6270   23.6768 O   0  0  0  0  0  0  0  0  0  0  0  0
   10.5794   11.8959   16.8907 O   0  0  0  0  0  0  0  0  0  0  0  0
    8.3956    7.1847   22.3602 C   0  0  0  0  0  0  0  0  0  0  0  0
    9.6730   10.4986   21.9790 O   0  0  0  0  0  0  0  0  0  0  0  0
   10.8932    9.2382   19.4151 C   0  0  0  0  0  0  0  0  0  0  0  0
    9.7579    5.0796   21.3144 C   0  0  0  0  0  0  0  0  0  0  0  0
   10.7621    5.8030   20.8891 C   0  0  0  0  0  0  0  0  0  0  0  0
    8.8961   10.1668   20.4026 C   0  0  0  0  0  0  0  0  0  0  0  0
   11.7785    6.1046   20.9159 O   0  0  0  0  0  0  0  0  0  0  0  0
    9.6554   11.8352   20.6349 C   0  0  0  0  0  0  0  0  0  0  0  0
M  END
$$$$

 Created by Python create_sdf_string function

 26 32  0  0  0  0  0  0  0  0999 V2000
   11.0030    5.5984   19.4251 O   0  0  0  0  0  0  0  0  0  0  0  0
    8.9723   11.4535   19.4507 C   0  0  0  0  0  0  0  0  0  0  0  0
    9.8365    9.6296   22.0262 C   0  0  0  0  0  0  0  0  0  0  0  0
   10.0384   10.8675   17.8755 N   0  0  0  0  0  0  0  0  0  0  0  0
    8.2513    4.8182   22.5791 C   0  0  0  0  0  0  0  0  0  0  0  0
    8.8036    9.5726   19.0509 C   0  0  0  0  0  0  0  0  0  0  0  0
   10.3077    6.5214   22.1189 C   0  0  0  0  0  0  0  0  0  0  0  0
   11.3212    6.9968   22.2364 C   0  0  0  0  0  0  0  0  0  0  0  0
    7.5224    5.7497   23.1025 B   0  0  0  0  0  0  0  0  0  0  0  0
    8.2772    7.2898   21.2933 Se  0  0  0  0  0  0  0  0  0  0  0  0
    9.7609   10.2584   22.8886 B   0  0  0  0  0  0  0  0  0  0  0  0
   11.2975   10.3166   19.0296 C   0  0  0  0  0  0  0  0  0  0  0  0
    9.8790   11.4371   20.9543 O   0  0  0  0  0  0  0  0  0  0  0  0
   10.9645    6.1725   21.7331 He  0  0  0  0  0  0  0  0  0  0  0  0
    9.0139   11.5512   19.4102 He  0  0  0  0  0  0  0  0  0  0  0  0
   12.5530    9.8770   15.1941 He  0  0  0  0  0  0  0  0  0  0  0  0
   11.3384    8.7776   16.6959 He  0  0  0  0  0  0  0  0  0  0  0  0
    9.1688    6.0663   22.9873 He  0  0  0  0  0  0  0  0  0  0  0  0
   12.5096    9.0040   18.5905 He  0  0  0  0  0  0  0  0  0  0  0  0
    8.8384    6.9833   25.7106 He  0  0  0  0  0  0  0  0  0  0  0  0
   11.2464    7.8708   17.9645 He  0  0  0  0  0  0  0  0  0  0  0  0
   10.0902   13.2149   16.9314 He  0  0  0  0  0  0  0  0  0  0  0  0
    9.9000    5.2817   21.5913 He  0  0  0  0  0  0  0  0  0  0  0  0
    9.2669    6.9065   19.9227 He  0  0  0  0  0  0  0  0  0  0  0  0
    8.2989    9.2445   21.2883 He  0  0  0  0  0  0  0  0  0  0  0  0
   11.1843    7.8289   19.4655 He  0  0  0  0  0  0  0  0  0  0  0  0
  1  3  1  0
  1  4  4  0
  1 10  4  0
  1 11  3  0
  1 12  1  0
  1 13  1  0
  2  3  3  0
  2  4  3  0
  2  5  1  0
  2  6  1  0
  2  9  3  0
  2 11  3  0
  2 12  4  0
  3  6  2  0
  3  7  1  0
  3  9  4  0
  3 12  4  0
  4  5  2  0
  4 11  3  0
  4 12  1  0
  4 13  3  0
  5  6  2  0
  5  7  1  0
  5  8  4  0
  5 12  3  0
  6  8  2  0
  7 10  3  0
  7 13  3  0
  8  9  4  0
  8 10  2  0
  9 11  4  0
 12 13  3  0
M  END
$$$$

 Created by Python create_sdf_string function

 26  4  0  0  0  0  0  0  0  0999 V2000
   11.0400    6.4836   21.4115 C   0  0  0  0  0  0  0  0  0  0  0  0
    9.2539   11.5701   19.2317 C   0  0  0  0  0  0  0  0  0  0  0  0
   11.1771    5.9873   19.5050 C   0  0  0  0  0  0  0  0  0  0  0  0
   11.9828    9.7837   16.1372 C   0  0  0  0  0  0  0  0  0  0  0  0
    9.3533   11.2619   19.3839 C   0  0  0  0  0  0  0  0  0  0  0  0
   11.5891    9.2826   16.9976 C   0  0  0  0  0  0  0  0  0  0  0  0
    9.6525    9.6983   21.8688 C   0  0  0  0  0  0  0  0  0  0  0  0
   10.3847   10.8297   17.9776 C   0  0  0  0  0  0  0  0  0  0  0  0
    8.6297    5.3108   22.6039 C   0  0  0  0  0  0  0  0  0  0  0  0
    9.0498    6.2385   23.4232 C   0  0  0  0  0  0  0  0  0  0  0  0
   12.0318    8.8108   18.2006 C   0  0  0  0  0  0  0  0  0  0  0  0
    9.3219    9.9732   19.2937 C   0  0  0  0  0  0  0  0  0  0  0  0
   10.0463    6.8167   22.2245 C   0  0  0  0  0  0  0  0  0  0  0  0
    8.8820    6.7337   24.6307 O   0  0  0  0  0  0  0  0  0  0  0  0
   11.4607    7.9417   18.1690 C   0  0  0  0  0  0  0  0  0  0  0  0
   10.7443    7.0814   22.1326 C   0  0  0  0  0  0  0  0  0  0  0  0
    7.9252    6.0398   23.3238 C   0  0  0  0  0  0  0  0  0  0  0  0
   10.1255   12.1333   17.4607 O   0  0  0  0  0  0  0  0  0  0  0  0
    8.5388    7.4177   21.4870 C   0  0  0  0  0  0  0  0  0  0  0  0
    9.6392    9.9919   22.4632 C   0  0  0  0  0  0  0  0  0  0  0  0
   10.8373   10.1660   18.4928 C   0  0  0  0  0  0  0  0  0  0  0  0
    9.7289    5.6021   21.6305 C   0  0  0  0  0  0  0  0  0  0  0  0
    9.7022    7.2153   20.0833 C   0  0  0  0  0  0  0  0  0  0  0  0
    8.7738    9.4467   21.3423 C   0  0  0  0  0  0  0  0  0  0  0  0
   11.0601    7.9481   19.3881 C   0  0  0  0  0  0  0  0  0  0  0  0
    9.6464   11.1654   20.9098 C   0  0  0  0  0  0  0  0  0  0  0  0
  2  5  1  0
  4  6  1  0
  7 20  1  0
  8 21  1  0
M  END
$$$$

 Created by Python create_sdf_string function

 26 30  0  0  0  0  0  0  0  0999 V2000
   12.6881    6.1465   20.9637 I   0  0  0  0  0  0  0  0  0  0  0  0
    9.3467   12.2673   18.3348 S   0  0  0  0  0  0  0  0  0  0  0  0
   10.0690   11.3939   19.3215 F   0  0  0  0  0  0  0  0  0  0  0  0
   11.8758   11.3401   18.0330 C   0  0  0  0  0  0  0  0  0  0  0  0
   10.4873    9.0760   23.4544 O   0  0  0  0  0  0  0  0  0  0  0  0
   10.1310    9.8766   18.3320 C   0  0  0  0  0  0  0  0  0  0  0  0
    8.5908    3.0393   20.9781 Cl  0  0  0  0  0  0  0  0  0  0  0  0
    9.4454    6.7447   22.3123 C   0  0  0  0  0  0  0  0  0  0  0  0
    8.7776    4.8311   24.4514 Cl  0  0  0  0  0  0  0  0  0  0  0  0
   11.2523   12.9330   17.0409 N   0  0  0  0  0  0  0  0  0  0  0  0
    9.0662    7.7003   20.8824 O   0  0  0  0  0  0  0  0  0  0  0  0
   11.3966   10.0678   18.8861 F   0  0  0  0  0  0  0  0  0  0  0  0
    8.3221    5.2397   21.0953 C   0  0  0  0  0  0  0  0  0  0  0  0
   10.6837    6.0566   19.7206 He  0  0  0  0  0  0  0  0  0  0  0  0
   12.8753    9.8392   17.5327 He  0  0  0  0  0  0  0  0  0  0  0  0
    8.7935    4.8562   21.8434 He  0  0  0  0  0  0  0  0  0  0  0  0
   10.0569    9.4142   17.8827 He  0  0  0  0  0  0  0  0  0  0  0  0
   11.1276    8.0759   18.5669 He  0  0  0  0  0  0  0  0  0  0  0  0
   11.7355    6.5663   18.2026 He  0  0  0  0  0  0  0  0  0  0  0  0
   11.5882    5.9407   22.5445 He  0  0  0  0  0  0  0  0  0  0  0  0
    7.3760    5.6949   24.5901 He  0  0  0  0  0  0  0  0  0  0  0  0
    8.5669    8.4212   22.8375 He  0  0  0  0  0  0  0  0  0  0  0  0
   10.9415    6.1878   19.3986 He  0  0  0  0  0  0  0  0  0  0  0  0
    8.7626    9.3333   21.5043 He  0  0  0  0  0  0  0  0  0  0  0  0
   11.3228    7.9326   18.5164 He  0  0  0  0  0  0  0  0  0  0  0  0
    9.4375   10.4764   20.2691 He  0  0  0  0  0  0  0  0  0  0  0  0
  1  2  1  0
  1  3  4  0
  1  4  2  0
  1  6  1  0
  1  9  1  0
  1 11  1  0
  1 12  3  0
  1 13  4  0
  2  4  3  0
  2  9  2  0
  2 10  1  0
  2 13  4  0
  3  5  1  0
  3  6  3  0
  3  9  4  0
  3 11  3  0
  4  7  4  0
  4 11  4  0
  5  6  1  0
  5  9  3  0
  5 12  4  0
  5 13  1  0
  6  8  3  0
  6 12  2  0
  8 10  2  0
  8 11  2  0
  9 10  4  0
  9 12  1  0
 10 12  3  0
 12 13  4  0
M  END
$$$$

 Created by Python create_sdf_string function

 26  5  0  0  0  0  0  0  0  0999 V2000
   12.0661    6.0996   20.4717 C   0  0  0  0  0  0  0  0  0  0  0  0
    9.8316   12.2084   18.2737 C   0  0  0  0  0  0  0  0  0  0  0  0
   10.9568    6.0812   19.7063 C   0  0  0  0  0  0  0  0  0  0  0  0
   12.4281    9.5621   17.6303 C   0  0  0  0  0  0  0  0  0  0  0  0
    9.8834   11.2388   19.3417 C   0  0  0  0  0  0  0  0  0  0  0  0
   11.5315   11.2796   17.9424 C   0  0  0  0  0  0  0  0  0  0  0  0
   10.0190    8.7680   23.0302 O   0  0  0  0  0  0  0  0  0  0  0  0
   10.2915   10.0748   18.6325 C   0  0  0  0  0  0  0  0  0  0  0  0
    8.8717    3.7547   21.3049 C   0  0  0  0  0  0  0  0  0  0  0  0
    8.9519    4.9826   21.9436 C   0  0  0  0  0  0  0  0  0  0  0  0
   10.6063    9.8125   18.2188 C   0  0  0  0  0  0  0  0  0  0  0  0
   11.3735    7.5321   18.6508 C   0  0  0  0  0  0  0  0  0  0  0  0
    9.3963    6.7290   22.3626 C   0  0  0  0  0  0  0  0  0  0  0  0
    8.7683    5.0754   23.6338 C   0  0  0  0  0  0  0  0  0  0  0  0
   11.7959    6.6005   18.5574 C   0  0  0  0  0  0  0  0  0  0  0  0
   10.6433    6.0493   22.3286 C   0  0  0  0  0  0  0  0  0  0  0  0
    8.1858    5.7908   23.7490 C   0  0  0  0  0  0  0  0  0  0  0  0
   10.9054   12.5709   17.4638 C   0  0  0  0  0  0  0  0  0  0  0  0
    9.0982    7.9593   21.3216 O   0  0  0  0  0  0  0  0  0  0  0  0
    9.0651    8.1275   22.5691 C   0  0  0  0  0  0  0  0  0  0  0  0
   11.0660   10.1004   18.6872 C   0  0  0  0  0  0  0  0  0  0  0  0
    8.6515    5.3028   21.6847 C   0  0  0  0  0  0  0  0  0  0  0  0
   11.0572    5.9739   19.6683 C   0  0  0  0  0  0  0  0  0  0  0  0
    9.1321    9.3980   21.5871 C   0  0  0  0  0  0  0  0  0  0  0  0
   11.5147    8.1549   18.5726 C   0  0  0  0  0  0  0  0  0  0  0  0
    9.5025   10.3088   20.3080 C   0  0  0  0  0  0  0  0  0  0  0  0
  2 18  1  0
  3 23  4  0
 10 22  1  0
 12 15  4  0
 13 20  1  0
M  END
$$$$

 Created by Python create_sdf_string function

 26 13  0  0  0  0  0  0  0  0999 V2000
   12.2032    4.9079   19.3723 Cl  0  0  0  0  0  0  0  0  0  0  0  0
   12.5896    9.9715   17.0640 N   0  0  0  0  0  0  0  0  0  0  0  0
   10.3275   10.3401   21.9491 S   0  0  0  0  0  0  0  0  0  0  0  0
   10.1581    5.1251   21.7916 P   0  0  0  0  0  0  0  0  0  0  0  0
   10.5471    8.9267   17.7843 N   0  0  0  0  0  0  0  0  0  0  0  0
    7.4928    5.5369   23.2672 C   0  0  0  0  0  0  0  0  0  0  0  0
    8.3908    6.5352   22.7484 Br  0  0  0  0  0  0  0  0  0  0  0  0
    9.6832   12.1409   16.5947 O   0  0  0  0  0  0  0  0  0  0  0  0
   10.9401    7.9123   18.9505 N   0  0  0  0  0  0  0  0  0  0  0  0
   12.4051    5.9333   21.5083 He  0  0  0  0  0  0  0  0  0  0  0  0
   11.1885   11.9877   17.7040 He  0  0  0  0  0  0  0  0  0  0  0  0
    8.2749   11.3629   17.9702 He  0  0  0  0  0  0  0  0  0  0  0  0
   11.0905    9.8349   19.0982 He  0  0  0  0  0  0  0  0  0  0  0  0
   11.0709   11.5608   18.0385 He  0  0  0  0  0  0  0  0  0  0  0  0
    7.7699    4.7993   22.0042 He  0  0  0  0  0  0  0  0  0  0  0  0
   11.7331    9.0315   18.8396 He  0  0  0  0  0  0  0  0  0  0  0  0
    9.6217    6.8839   23.4573 He  0  0  0  0  0  0  0  0  0  0  0  0
   13.6397    7.7362   18.9380 He  0  0  0  0  0  0  0  0  0  0  0  0
   11.5105    5.8724   22.4423 He  0  0  0  0  0  0  0  0  0  0  0  0
   10.9037   13.5057   17.0871 He  0  0  0  0  0  0  0  0  0  0  0  0
    8.1021    7.2403   20.2716 He  0  0  0  0  0  0  0  0  0  0  0  0
    8.7851    8.2762   22.8304 He  0  0  0  0  0  0  0  0  0  0  0  0
    8.1517    6.9875   22.1278 He  0  0  0  0  0  0  0  0  0  0  0  0
   11.2636    5.8885   19.1243 He  0  0  0  0  0  0  0  0  0  0  0  0
    8.9640    8.9768   21.1080 He  0  0  0  0  0  0  0  0  0  0  0  0
    9.6372   11.0725   21.3917 He  0  0  0  0  0  0  0  0  0  0  0  0
  1  5  2  0
  1  6  2  0
  1  7  4  0
  1  8  1  0
  2  4  1  0
  2  7  4  0
  2  9  2  0
  3  5  4  0
  3  9  2  0
  4  6  1  0
  4  9  3  0
  5  7  2  0
  7  9  1  0
M  END
$$$$

 Created by Python create_sdf_string function

 26  3  0  0  0  0  0  0  0  0999 V2000
   11.9470    5.8431   21.0303 C   0  0  0  0  0  0  0  0  0  0  0  0
   11.0560   11.5926   17.6452 C   0  0  0  0  0  0  0  0  0  0  0  0
   12.0245    5.5673   19.6535 C   0  0  0  0  0  0  0  0  0  0  0  0
   12.1202   10.1020   17.5224 C   0  0  0  0  0  0  0  0  0  0  0  0
    9.2636   11.5037   18.1120 C   0  0  0  0  0  0  0  0  0  0  0  0
   10.7390    9.9584   19.2752 C   0  0  0  0  0  0  0  0  0  0  0  0
    9.9285    9.9392   21.5075 C   0  0  0  0  0  0  0  0  0  0  0  0
   10.7967   11.3577   18.0458 C   0  0  0  0  0  0  0  0  0  0  0  0
   10.1133    5.4382   21.9173 C   0  0  0  0  0  0  0  0  0  0  0  0
    8.0779    5.1519   22.2065 C   0  0  0  0  0  0  0  0  0  0  0  0
   10.9831    9.3469   18.3787 C   0  0  0  0  0  0  0  0  0  0  0  0
   11.4609    8.9518   18.8318 C   0  0  0  0  0  0  0  0  0  0  0  0
    9.4177    6.6704   23.1831 C   0  0  0  0  0  0  0  0  0  0  0  0
    7.9325    5.6714   22.9404 C   0  0  0  0  0  0  0  0  0  0  0  0
   12.7151    7.3241   18.8451 C   0  0  0  0  0  0  0  0  0  0  0  0
   11.2184    5.8339   21.8499 C   0  0  0  0  0  0  0  0  0  0  0  0
    8.5342    6.7222   22.6708 C   0  0  0  0  0  0  0  0  0  0  0  0
   10.7177   13.0082   17.0970 C   0  0  0  0  0  0  0  0  0  0  0  0
    8.3288    7.5859   20.9375 C   0  0  0  0  0  0  0  0  0  0  0  0
    9.0317    8.4274   22.4730 C   0  0  0  0  0  0  0  0  0  0  0  0
   10.1053   12.0850   17.0919 C   0  0  0  0  0  0  0  0  0  0  0  0
    8.3291    7.1304   21.9005 C   0  0  0  0  0  0  0  0  0  0  0  0
   11.6042    6.0897   19.5147 C   0  0  0  0  0  0  0  0  0  0  0  0
    9.1982    9.0310   21.1034 C   0  0  0  0  0  0  0  0  0  0  0  0
   11.3207    8.0157   19.1229 C   0  0  0  0  0  0  0  0  0  0  0  0
    9.6505   10.5122   21.0052 C   0  0  0  0  0  0  0  0  0  0  0  0
  1 16  4  0
  2  8  4  0
  3 23  4  0
M  END
$$$$

 Created by Python create_sdf_string function

 26 35  0  0  0  0  0  0  0  0999 V2000
   11.3934    6.1667   21.8345 C   0  0  0  0  0  0  0  0  0  0  0  0
   12.0172    4.9050   20.2732 P   0  0  0  0  0  0  0  0  0  0  0  0
   12.8702   11.0803   16.6678 O   0  0  0  0  0  0  0  0  0  0  0  0
   10.1641   10.2406   18.3852 O   0  0  0  0  0  0  0  0  0  0  0  0
    9.5704   12.4839   18.6273 C   0  0  0  0  0  0  0  0  0  0  0  0
    6.9970    4.7028   21.4023 P   0  0  0  0  0  0  0  0  0  0  0  0
   11.0351    9.6511   18.0231 F   0  0  0  0  0  0  0  0  0  0  0  0
    8.3590    6.7189   25.1903 F   0  0  0  0  0  0  0  0  0  0  0  0
    6.7365    5.0852   22.6055 S   0  0  0  0  0  0  0  0  0  0  0  0
   12.2403    8.1521   21.4987 S   0  0  0  0  0  0  0  0  0  0  0  0
   10.9525    5.1115   22.2540 O   0  0  0  0  0  0  0  0  0  0  0  0
    8.5838    5.8648   21.2700 Cl  0  0  0  0  0  0  0  0  0  0  0  0
    9.2833    7.8420   21.9561 C   0  0  0  0  0  0  0  0  0  0  0  0
   12.1411    7.0572   20.3395 F   0  0  0  0  0  0  0  0  0  0  0  0
   10.8125    9.6842   19.7493 I   0  0  0  0  0  0  0  0  0  0  0  0
    9.6177   11.8470   20.6006 C   0  0  0  0  0  0  0  0  0  0  0  0
   11.1908   10.7589   17.6582 He  0  0  0  0  0  0  0  0  0  0  0  0
    9.9991    9.5653   20.2393 He  0  0  0  0  0  0  0  0  0  0  0  0
    9.9988    8.1195   22.0998 He  0  0  0  0  0  0  0  0  0  0  0  0
    8.8977    6.8444   24.2350 He  0  0  0  0  0  0  0  0  0  0  0  0
   11.0301    9.1777   17.7553 He  0  0  0  0  0  0  0  0  0  0  0  0
    8.6934    6.7705   22.1347 He  0  0  0  0  0  0  0  0  0  0  0  0
   11.5892   12.3773   16.3134 He  0  0  0  0  0  0  0  0  0  0  0  0
    9.8505    7.7417   22.9588 He  0  0  0  0  0  0  0  0  0  0  0  0
    8.4808   11.8520   16.3334 He  0  0  0  0  0  0  0  0  0  0  0  0
   10.3368    8.9469   20.5523 He  0  0  0  0  0  0  0  0  0  0  0  0
  1  6  1  0
  1 10  4  0
  1 14  3  0
  2  3  2  0
  2 11  4  0
  2 12  2  0
  3  4  3  0
  3  5  2  0
  3  6  4  0
  3  9  3  0
  3 11  2  0
  4  5  3  0
  4 11  1  0
  5  6  2  0
  5  8  2  0
  5  9  3  0
  5 10  2  0
  6  7  2  0
  6  8  4  0
  6 11  2  0
  7  9  4  0
  7 13  3  0
  7 14  4  0
  8  9  2  0
  8 12  3  0
  8 13  4  0
  8 16  3  0
  9 12  1  0
  9 13  3  0
  9 14  4  0
  9 15  3  0
  9 16  3  0
 11 14  4  0
 13 15  3  0
 14 15  1  0
M  END
$$$$

 Created by Python create_sdf_string function

 26  3  0  0  0  0  0  0  0  0999 V2000
   11.3165    6.2694   21.5053 C   0  0  0  0  0  0  0  0  0  0  0  0
   10.9056   11.2142   17.2832 C   0  0  0  0  0  0  0  0  0  0  0  0
   11.8664    5.4183   20.5912 C   0  0  0  0  0  0  0  0  0  0  0  0
   12.3241   10.8222   16.7715 O   0  0  0  0  0  0  0  0  0  0  0  0
   10.2279   10.8208   18.2110 C   0  0  0  0  0  0  0  0  0  0  0  0
   10.1479    9.7415   20.2478 C   0  0  0  0  0  0  0  0  0  0  0  0
    9.9708    8.1462   21.9904 C   0  0  0  0  0  0  0  0  0  0  0  0
    9.7690   11.9721   18.4424 C   0  0  0  0  0  0  0  0  0  0  0  0
    8.6686    6.6202   23.9168 C   0  0  0  0  0  0  0  0  0  0  0  0
    7.5457    5.1699   21.9675 C   0  0  0  0  0  0  0  0  0  0  0  0
   11.1468    9.8039   18.1626 C   0  0  0  0  0  0  0  0  0  0  0  0
   11.2542    9.7529   17.8978 C   0  0  0  0  0  0  0  0  0  0  0  0
    8.2777    6.4564   24.4755 C   0  0  0  0  0  0  0  0  0  0  0  0
    7.2163    5.3959   22.7791 C   0  0  0  0  0  0  0  0  0  0  0  0
   12.0311    8.0026   21.1631 C   0  0  0  0  0  0  0  0  0  0  0  0
   10.8505    5.3120   21.9107 C   0  0  0  0  0  0  0  0  0  0  0  0
    8.6455    6.6739   22.3173 C   0  0  0  0  0  0  0  0  0  0  0  0
   11.3390   12.0039   16.4554 C   0  0  0  0  0  0  0  0  0  0  0  0
    8.4752    5.7219   21.8526 C   0  0  0  0  0  0  0  0  0  0  0  0
    9.8594    7.6286   22.6754 C   0  0  0  0  0  0  0  0  0  0  0  0
    9.2645   11.7607   16.7576 O   0  0  0  0  0  0  0  0  0  0  0  0
    9.2130    7.7100   22.2132 C   0  0  0  0  0  0  0  0  0  0  0  0
   11.9792    7.0369   20.4079 C   0  0  0  0  0  0  0  0  0  0  0  0
   10.3520    8.9853   20.8147 C   0  0  0  0  0  0  0  0  0  0  0  0
   10.9039    9.6185   19.6079 C   0  0  0  0  0  0  0  0  0  0  0  0
    9.6609   11.1327   20.3132 C   0  0  0  0  0  0  0  0  0  0  0  0
  2 18  1  0
  6 24  1  0
  9 13  1  0
M  END
$$$$

 Created by Python create_sdf_string function

 26 25  0  0  0  0  0  0  0  0999 V2000
   11.9987    6.0629   21.2056 F   0  0  0  0  0  0  0  0  0  0  0  0
   11.4099   12.3378   16.5236 S   0  0  0  0  0  0  0  0  0  0  0  0
   10.2022    9.6542   19.6058 P   0  0  0  0  0  0  0  0  0  0  0  0
   10.6696   11.1371   19.0862 C   0  0  0  0  0  0  0  0  0  0  0  0
    7.0839    3.9057   21.8721 O   0  0  0  0  0  0  0  0  0  0  0  0
    9.0113    6.8978   25.1097 Br  0  0  0  0  0  0  0  0  0  0  0  0
    7.3257    5.7893   23.8236 I   0  0  0  0  0  0  0  0  0  0  0  0
    8.7542    7.0145   23.1490 N   0  0  0  0  0  0  0  0  0  0  0  0
   12.2476   11.8188   16.4891 I   0  0  0  0  0  0  0  0  0  0  0  0
   10.2919    8.1784   22.1005 C   0  0  0  0  0  0  0  0  0  0  0  0
   12.1192    5.5545   20.0652 N   0  0  0  0  0  0  0  0  0  0  0  0
   11.7236    8.3285   21.1822 C   0  0  0  0  0  0  0  0  0  0  0  0
   10.8348    9.6268   18.1758 C   0  0  0  0  0  0  0  0  0  0  0  0
   11.1592    2.9618   20.5009 He  0  0  0  0  0  0  0  0  0  0  0  0
   11.1549   12.1290   18.9764 He  0  0  0  0  0  0  0  0  0  0  0  0
   10.1763   12.0652   18.6860 He  0  0  0  0  0  0  0  0  0  0  0  0
    9.6613    8.7753   21.4334 He  0  0  0  0  0  0  0  0  0  0  0  0
    8.7057    6.4165   24.9205 He  0  0  0  0  0  0  0  0  0  0  0  0
   11.3328    8.9782   18.4121 He  0  0  0  0  0  0  0  0  0  0  0  0
   12.2157    8.3627   18.1848 He  0  0  0  0  0  0  0  0  0  0  0  0
   11.3091    8.0277   21.7337 He  0  0  0  0  0  0  0  0  0  0  0  0
   11.1036    5.3103   22.3130 He  0  0  0  0  0  0  0  0  0  0  0  0
    6.8218    3.0382   20.4956 He  0  0  0  0  0  0  0  0  0  0  0  0
   10.9953    6.3620   22.4349 He  0  0  0  0  0  0  0  0  0  0  0  0
    9.8691   12.8296   16.8839 He  0  0  0  0  0  0  0  0  0  0  0  0
    9.5805   11.4654   20.3943 He  0  0  0  0  0  0  0  0  0  0  0  0
  1  9  4  0
  1 10  1  0
  1 11  3  0
  1 13  3  0
  2  8  2  0
  3  6  2  0
  3 10  3  0
  3 11  1  0
  3 12  1  0
  4  5  1  0
  4  6  1  0
  4 10  4  0
  4 12  2  0
  4 13  4  0
  5  7  1  0
  5 10  1  0
  6  9  1  0
  6 13  2  0
  7 11  3  0
  7 13  2  0
  8 11  1  0
  9 10  3  0
  9 13  3  0
 10 12  3  0
 11 13  1  0
M  END
$$$$

 Created by Python create_sdf_string function

 26  7  0  0  0  0  0  0  0  0999 V2000
   11.5100    5.8244   20.9953 C   0  0  0  0  0  0  0  0  0  0  0  0
   11.1960   12.3586   16.7802 C   0  0  0  0  0  0  0  0  0  0  0  0
   10.6340    3.9127   20.7439 C   0  0  0  0  0  0  0  0  0  0  0  0
   10.8783   11.8714   18.5056 C   0  0  0  0  0  0  0  0  0  0  0  0
   10.3426   12.0137   18.6177 C   0  0  0  0  0  0  0  0  0  0  0  0
   10.5889    9.6305   20.0774 C   0  0  0  0  0  0  0  0  0  0  0  0
    9.9703    8.7938   21.5619 C   0  0  0  0  0  0  0  0  0  0  0  0
   10.6696   10.9354   19.0361 C   0  0  0  0  0  0  0  0  0  0  0  0
    8.5267    6.1665   24.2067 C   0  0  0  0  0  0  0  0  0  0  0  0
    7.9532    4.3929   22.1962 C   0  0  0  0  0  0  0  0  0  0  0  0
   11.5405    9.1402   18.6842 C   0  0  0  0  0  0  0  0  0  0  0  0
   12.0399    8.5110   18.3110 C   0  0  0  0  0  0  0  0  0  0  0  0
    8.8459    6.6103   24.3989 C   0  0  0  0  0  0  0  0  0  0  0  0
    7.6692    5.2413   23.2214 C   0  0  0  0  0  0  0  0  0  0  0  0
   11.0395    8.0141   21.3464 C   0  0  0  0  0  0  0  0  0  0  0  0
   10.3931    5.2678   21.8645 C   0  0  0  0  0  0  0  0  0  0  0  0
    9.1024    6.4797   22.9522 C   0  0  0  0  0  0  0  0  0  0  0  0
   11.8174   11.7959   16.5792 C   0  0  0  0  0  0  0  0  0  0  0  0
    8.0769    3.7204   21.5285 C   0  0  0  0  0  0  0  0  0  0  0  0
   10.2868    6.3312   22.2859 C   0  0  0  0  0  0  0  0  0  0  0  0
   10.4520   12.9002   16.8009 C   0  0  0  0  0  0  0  0  0  0  0  0
   10.2388    7.9866   21.9375 C   0  0  0  0  0  0  0  0  0  0  0  0
   11.8016    5.4524   20.4472 C   0  0  0  0  0  0  0  0  0  0  0  0
   11.3126    8.0736   20.8101 C   0  0  0  0  0  0  0  0  0  0  0  0
   11.2758   10.0215   18.3251 C   0  0  0  0  0  0  0  0  0  0  0  0
    9.7616   11.2828   20.3029 C   0  0  0  0  0  0  0  0  0  0  0  0
  1 23  1  0
  2 18  1  0
  2 21  1  0
  7 22  4  0
  9 13  1  0
 10 14  1  0
 10 19  1  0
M  END
$$$$

 Created by Python create_sdf_string function

 26 44  0  0  0  0  0  0  0  0999 V2000
   13.9053    6.4406   20.4321 C   0  0  0  0  0  0  0  0  0  0  0  0
   11.1227    3.8149   22.0664 C   0  0  0  0  0  0  0  0  0  0  0  0
    9.7957   12.1497   19.2174 C   0  0  0  0  0  0  0  0  0  0  0  0
   10.1055   11.6086   17.5639 N   0  0  0  0  0  0  0  0  0  0  0  0
    8.9798    6.3069   24.2300 C   0  0  0  0  0  0  0  0  0  0  0  0
   10.0514    5.8391   24.2856 O   0  0  0  0  0  0  0  0  0  0  0  0
    8.2651    4.6479   23.0320 N   0  0  0  0  0  0  0  0  0  0  0  0
   10.8548    8.2256   19.2609 N   0  0  0  0  0  0  0  0  0  0  0  0
   11.6963    4.1547   21.6756 C   0  0  0  0  0  0  0  0  0  0  0  0
   10.5094    5.2103   21.3817 Cl  0  0  0  0  0  0  0  0  0  0  0  0
    8.5811    3.7551   21.9768 C   0  0  0  0  0  0  0  0  0  0  0  0
   12.7099    5.2308   21.1603 C   0  0  0  0  0  0  0  0  0  0  0  0
   10.0121   13.6387   16.6197 S   0  0  0  0  0  0  0  0  0  0  0  0
   11.8804    2.6628   20.9266 F   0  0  0  0  0  0  0  0  0  0  0  0
    9.9138    8.5008   21.5593 C   0  0  0  0  0  0  0  0  0  0  0  0
    9.2443   11.3270   20.0613 C   0  0  0  0  0  0  0  0  0  0  0  0
   10.4758   11.9080   18.7234 He  0  0  0  0  0  0  0  0  0  0  0  0
    9.5639    6.4807   21.0734 He  0  0  0  0  0  0  0  0  0  0  0  0
    9.2988    9.7929   21.8335 He  0  0  0  0  0  0  0  0  0  0  0  0
    9.8256   12.1226   19.9203 He  0  0  0  0  0  0  0  0  0  0  0  0
    6.4754    5.5551   21.4986 He  0  0  0  0  0  0  0  0  0  0  0  0
   11.5816    8.1381   19.4428 He  0  0  0  0  0  0  0  0  0  0  0  0
   12.6643    7.6817   18.5055 He  0  0  0  0  0  0  0  0  0  0  0  0
   10.2546   11.1910   16.5112 He  0  0  0  0  0  0  0  0  0  0  0  0
   11.7481    7.7035   21.4202 He  0  0  0  0  0  0  0  0  0  0  0  0
   11.1220    9.0109   18.7287 He  0  0  0  0  0  0  0  0  0  0  0  0
  1  3  3  0
  1 12  2  0
  1 13  3  0
  1 14  1  0
  1 15  4  0
  2  4  2  0
  2  6  1  0
  2 11  2  0
  2 12  3  0
  2 14  3  0
  2 16  2  0
  3  7  4  0
  3  8  2  0
  3 11  4  0
  3 16  2  0
  4 11  2  0
  4 12  1  0
  4 13  2  0
  4 15  2  0
  4 16  2  0
  5  7  3  0
  5  9  1  0
  5 11  3  0
  6  9  1  0
  6 10  4  0
  6 11  4  0
  6 12  3  0
  6 15  3  0
  6 16  4  0
  7  8  3  0
  7 13  3  0
  7 14  4  0
  8 10  3  0
  8 12  1  0
  9 13  1  0
 10 11  4  0
 10 15  3  0
 11 13  1  0
 11 16  2  0
 12 13  4  0
 12 16  1  0
 13 14  2  0
 13 16  4  0
 14 15  4  0
M  END
$$$$

 Created by Python create_sdf_string function

 26  0  0  0  0  0  0  0  0  0999 V2000
   12.9869    6.1542   20.2277 C   0  0  0  0  0  0  0  0  0  0  0  0
   10.2075   11.9508   18.3816 C   0  0  0  0  0  0  0  0  0  0  0  0
   11.0024    4.0107   21.8661 C   0  0  0  0  0  0  0  0  0  0  0  0
    9.8566   11.8676   19.1968 C   0  0  0  0  0  0  0  0  0  0  0  0
   10.2122   11.7603   17.8363 C   0  0  0  0  0  0  0  0  0  0  0  0
    9.7298    6.6743   21.5652 C   0  0  0  0  0  0  0  0  0  0  0  0
    9.6535    9.5756   21.2247 C   0  0  0  0  0  0  0  0  0  0  0  0
    9.7345   12.0313   19.6936 C   0  0  0  0  0  0  0  0  0  0  0  0
    8.8530    6.0357   23.5005 C   0  0  0  0  0  0  0  0  0  0  0  0
    7.6268    5.3891   22.1439 C   0  0  0  0  0  0  0  0  0  0  0  0
   11.4971    8.2494   19.6309 C   0  0  0  0  0  0  0  0  0  0  0  0
   12.3724    7.7806   18.9165 C   0  0  0  0  0  0  0  0  0  0  0  0
    9.7391    5.6922   23.4232 C   0  0  0  0  0  0  0  0  0  0  0  0
    8.3793    5.0111   23.0493 C   0  0  0  0  0  0  0  0  0  0  0  0
   11.1515    8.4930   19.6049 C   0  0  0  0  0  0  0  0  0  0  0  0
   11.5536    4.3774   21.5243 C   0  0  0  0  0  0  0  0  0  0  0  0
   10.4369    5.3766   21.7888 C   0  0  0  0  0  0  0  0  0  0  0  0
   10.4816   11.2463   17.1317 C   0  0  0  0  0  0  0  0  0  0  0  0
    8.9480    4.2152   22.1221 C   0  0  0  0  0  0  0  0  0  0  0  0
   12.4444    5.3359   20.8304 C   0  0  0  0  0  0  0  0  0  0  0  0
   10.0667   13.1838   17.1762 C   0  0  0  0  0  0  0  0  0  0  0  0
   11.3171    7.5499   20.9485 C   0  0  0  0  0  0  0  0  0  0  0  0
   11.8890    3.4079   21.2094 C   0  0  0  0  0  0  0  0  0  0  0  0
   10.0558    8.5602   21.2019 C   0  0  0  0  0  0  0  0  0  0  0  0
   10.9743    9.4822   18.8904 C   0  0  0  0  0  0  0  0  0  0  0  0
    9.7619   10.9623   19.9276 C   0  0  0  0  0  0  0  0  0  0  0  0
M  END
$$$$

 Created by Python create_sdf_string function

 26 38  0  0  0  0  0  0  0  0999 V2000
   12.5819    7.7485   19.5930 C   0  0  0  0  0  0  0  0  0  0  0  0
   10.4048    4.6009   21.5995 C   0  0  0  0  0  0  0  0  0  0  0  0
   10.1965   10.5399   19.6464 O   0  0  0  0  0  0  0  0  0  0  0  0
    9.8362    7.4163   21.3815 O   0  0  0  0  0  0  0  0  0  0  0  0
    9.8893    9.3106   20.9106 B   0  0  0  0  0  0  0  0  0  0  0  0
    9.2497   11.7168   19.0361 O   0  0  0  0  0  0  0  0  0  0  0  0
    6.7772    6.4215   23.3710 C   0  0  0  0  0  0  0  0  0  0  0  0
   10.0172    8.5794   19.8326 C   0  0  0  0  0  0  0  0  0  0  0  0
   11.8894    6.3746   17.8101 C   0  0  0  0  0  0  0  0  0  0  0  0
   10.2364    6.4848   25.5906 S   0  0  0  0  0  0  0  0  0  0  0  0
    7.5577    5.4143   21.3707 C   0  0  0  0  0  0  0  0  0  0  0  0
   13.3844    5.9847   21.6878 C   0  0  0  0  0  0  0  0  0  0  0  0
    9.8428    6.2651   21.7763 I   0  0  0  0  0  0  0  0  0  0  0  0
    9.6941    3.9321   21.8567 F   0  0  0  0  0  0  0  0  0  0  0  0
   12.5044    5.7988   21.3111 O   0  0  0  0  0  0  0  0  0  0  0  0
    8.5696   11.7812   20.5709 C   0  0  0  0  0  0  0  0  0  0  0  0
   10.9343   12.6279   18.9917 He  0  0  0  0  0  0  0  0  0  0  0  0
    9.1937   12.6859   19.7261 He  0  0  0  0  0  0  0  0  0  0  0  0
    8.2611    6.7560   22.8055 He  0  0  0  0  0  0  0  0  0  0  0  0
    9.6018    8.6745   20.4985 He  0  0  0  0  0  0  0  0  0  0  0  0
   11.0644   12.1557   19.1257 He  0  0  0  0  0  0  0  0  0  0  0  0
    8.7959   13.9490   16.3386 He  0  0  0  0  0  0  0  0  0  0  0  0
   11.6246    8.5014   20.7058 He  0  0  0  0  0  0  0  0  0  0  0  0
   12.2130    4.1900   21.2588 He  0  0  0  0  0  0  0  0  0  0  0  0
    8.5716    9.5489   20.7220 He  0  0  0  0  0  0  0  0  0  0  0  0
   10.9294    9.5182   19.6981 He  0  0  0  0  0  0  0  0  0  0  0  0
  1  2  4  0
  1  3  3  0
  1  7  2  0
  1  9  4  0
  1 10  2  0
  1 15  3  0
  2  4  2  0
  2 10  2  0
  2 12  1  0
  2 14  2  0
  2 16  4  0
  3  5  4  0
  3 10  1  0
  3 12  1  0
  3 15  2  0
  4  7  4  0
  4 10  4  0
  4 13  4  0
  4 15  1  0
  5 10  3  0
  5 11  1  0
  5 13  1  0
  5 15  4  0
  6  9  3  0
  6 14  2  0
  6 16  2  0
  7 12  4  0
  7 16  2  0
  8 10  2  0
  9 11  2  0
  9 14  3  0
  9 15  4  0
  9 16  1  0
 10 13  1  0
 11 12  1  0
 11 15  1  0
 12 13  3  0
 13 15  4  0
M  END
$$$$

 Created by Python create_sdf_string function

 26  9  0  0  0  0  0  0  0  0999 V2000
   12.4726    7.2510   19.5773 C   0  0  0  0  0  0  0  0  0  0  0  0
   10.4612   12.7390   18.4801 C   0  0  0  0  0  0  0  0  0  0  0  0
   10.7329    4.9598   21.8703 C   0  0  0  0  0  0  0  0  0  0  0  0
   10.1956   10.9159   19.5870 C   0  0  0  0  0  0  0  0  0  0  0  0
    9.1179   12.4309   19.4915 C   0  0  0  0  0  0  0  0  0  0  0  0
    9.6398    6.8870   21.9397 C   0  0  0  0  0  0  0  0  0  0  0  0
    9.6317    9.5758   20.5699 C   0  0  0  0  0  0  0  0  0  0  0  0
    9.2170   12.2872   18.8118 C   0  0  0  0  0  0  0  0  0  0  0  0
    7.6787    6.4434   23.2428 C   0  0  0  0  0  0  0  0  0  0  0  0
    8.2914    6.6104   22.8581 C   0  0  0  0  0  0  0  0  0  0  0  0
   10.4930    8.5943   20.1111 C   0  0  0  0  0  0  0  0  0  0  0  0
   12.3312    6.6205   19.0978 C   0  0  0  0  0  0  0  0  0  0  0  0
    9.6593    6.2035   24.3032 C   0  0  0  0  0  0  0  0  0  0  0  0
    8.1398    5.6773   21.9567 C   0  0  0  0  0  0  0  0  0  0  0  0
    9.7633    8.7907   20.6795 C   0  0  0  0  0  0  0  0  0  0  0  0
   12.7882    5.6889   21.0543 C   0  0  0  0  0  0  0  0  0  0  0  0
    9.8247    6.2835   22.2631 C   0  0  0  0  0  0  0  0  0  0  0  0
   10.7359   12.0752   18.7763 C   0  0  0  0  0  0  0  0  0  0  0  0
   10.0211    4.3907   22.0008 C   0  0  0  0  0  0  0  0  0  0  0  0
   12.3306    5.7533   20.8404 C   0  0  0  0  0  0  0  0  0  0  0  0
    9.3153   13.5238   17.4733 C   0  0  0  0  0  0  0  0  0  0  0  0
   11.7760    8.0594   20.1834 C   0  0  0  0  0  0  0  0  0  0  0  0
   11.9333    4.6238   21.3427 C   0  0  0  0  0  0  0  0  0  0  0  0
    8.6128    9.6415   20.8025 C   0  0  0  0  0  0  0  0  0  0  0  0
   11.0439    9.3765   19.6645 C   0  0  0  0  0  0  0  0  0  0  0  0
    8.6738   11.6096   20.1407 C   0  0  0  0  0  0  0  0  0  0  0  0
  1 12  4  0
  1 22  4  0
  2 18  1  0
  3 19  4  0
  5 26  4  0
  6 17  4  0
  9 10  1  0
 11 22  4  0
 16 20  4  0
M  END
$$$$

 Created by Python create_sdf_string function

 26 23  0  0  0  0  0  0  0  0999 V2000
   13.6925    5.0395   22.2872 N   0  0  0  0  0  0  0  0  0  0  0  0
    9.0633   12.1943   19.2895 C   0  0  0  0  0  0  0  0  0  0  0  0
   10.3995   10.6150   20.4509 O   0  0  0  0  0  0  0  0  0  0  0  0
   11.1782   12.5713   17.6907 N   0  0  0  0  0  0  0  0  0  0  0  0
    8.3929    7.8172   23.6955 P   0  0  0  0  0  0  0  0  0  0  0  0
   12.1354    7.8900   20.8460 C   0  0  0  0  0  0  0  0  0  0  0  0
    8.6529    6.0445   22.7013 C   0  0  0  0  0  0  0  0  0  0  0  0
   13.4226   11.1736   18.5281 C   0  0  0  0  0  0  0  0  0  0  0  0
    9.5530    4.8504   22.4056 Br  0  0  0  0  0  0  0  0  0  0  0  0
   10.5119   15.2294   18.8621 S   0  0  0  0  0  0  0  0  0  0  0  0
   11.0266    8.3086   20.1779 S   0  0  0  0  0  0  0  0  0  0  0  0
   11.7775    9.6195   18.3744 C   0  0  0  0  0  0  0  0  0  0  0  0
   11.5483    7.7848   19.3063 He  0  0  0  0  0  0  0  0  0  0  0  0
   11.7262   13.3416   17.9916 He  0  0  0  0  0  0  0  0  0  0  0  0
    8.9536   11.0581   18.3826 He  0  0  0  0  0  0  0  0  0  0  0  0
   10.4008    8.3031   20.6144 He  0  0  0  0  0  0  0  0  0  0  0  0
    7.9032    6.2287   24.4358 He  0  0  0  0  0  0  0  0  0  0  0  0
   14.3824    5.8480   18.7928 He  0  0  0  0  0  0  0  0  0  0  0  0
    8.3670    4.2520   21.6430 He  0  0  0  0  0  0  0  0  0  0  0  0
    9.4217    9.9087   21.0770 He  0  0  0  0  0  0  0  0  0  0  0  0
   10.8274    5.5818   20.0624 He  0  0  0  0  0  0  0  0  0  0  0  0
    9.9147    5.3284   21.3019 He  0  0  0  0  0  0  0  0  0  0  0  0
   12.6258    4.4847   20.3925 He  0  0  0  0  0  0  0  0  0  0  0  0
   12.9799    6.2259   22.3670 He  0  0  0  0  0  0  0  0  0  0  0  0
    8.7429   10.8213   22.2002 He  0  0  0  0  0  0  0  0  0  0  0  0
    8.5022   12.7095   21.2077 He  0  0  0  0  0  0  0  0  0  0  0  0
  1  3  2  0
  1  4  1  0
  1  5  3  0
  1  9  2  0
  1 10  2  0
  1 12  3  0
  2  3  4  0
  2  6  1  0
  2  7  1  0
  2  8  1  0
  2 12  3  0
  3  6  4  0
  3 12  1  0
  4  7  4  0
  4  8  2  0
  4  9  3  0
  5  9  4  0
  5 11  3  0
  6  7  3  0
  6  8  2  0
  6 11  1  0
  6 12  4  0
  7  9  2  0
M  END
$$$$

 Created by Python create_sdf_string function

 26  1  0  0  0  0  0  0  0  0999 V2000
   11.8870    7.8630   19.4614 C   0  0  0  0  0  0  0  0  0  0  0  0
   11.4549   13.0868   18.1654 C   0  0  0  0  0  0  0  0  0  0  0  0
   13.1587    5.1766   21.5450 O   0  0  0  0  0  0  0  0  0  0  0  0
    9.9476   11.4798   19.0625 C   0  0  0  0  0  0  0  0  0  0  0  0
    9.7623   12.1241   19.5460 C   0  0  0  0  0  0  0  0  0  0  0  0
   10.6068    8.5195   20.6004 C   0  0  0  0  0  0  0  0  0  0  0  0
   10.1906   10.4796   20.1115 C   0  0  0  0  0  0  0  0  0  0  0  0
   11.1714   12.5503   18.2009 C   0  0  0  0  0  0  0  0  0  0  0  0
    8.2408    6.0589   23.5977 C   0  0  0  0  0  0  0  0  0  0  0  0
    8.5634    7.2038   23.0752 C   0  0  0  0  0  0  0  0  0  0  0  0
   11.7482    7.6787   20.3268 C   0  0  0  0  0  0  0  0  0  0  0  0
   13.6461    6.0433   19.4743 O   0  0  0  0  0  0  0  0  0  0  0  0
    8.7929    5.9844   22.6516 C   0  0  0  0  0  0  0  0  0  0  0  0
    8.7194    4.8465   22.0123 C   0  0  0  0  0  0  0  0  0  0  0  0
    9.5916   10.1574   20.8289 C   0  0  0  0  0  0  0  0  0  0  0  0
   11.2813    5.9139   20.4768 C   0  0  0  0  0  0  0  0  0  0  0  0
    9.9715    5.6501   21.7733 C   0  0  0  0  0  0  0  0  0  0  0  0
   12.2008   11.5072   18.2836 C   0  0  0  0  0  0  0  0  0  0  0  0
    9.6185    5.4375   22.4403 C   0  0  0  0  0  0  0  0  0  0  0  0
   12.8301    5.0694   20.5600 C   0  0  0  0  0  0  0  0  0  0  0  0
   10.4553   14.0047   18.6673 C   0  0  0  0  0  0  0  0  0  0  0  0
   11.0969    8.3385   20.2341 C   0  0  0  0  0  0  0  0  0  0  0  0
   12.4872    5.9313   21.5338 C   0  0  0  0  0  0  0  0  0  0  0  0
    8.9187   10.7079   21.5837 C   0  0  0  0  0  0  0  0  0  0  0  0
   11.4953    9.8644   18.9309 C   0  0  0  0  0  0  0  0  0  0  0  0
    8.9079   12.3524   20.5846 C   0  0  0  0  0  0  0  0  0  0  0  0
  2  8  1  0
M  END
$$$$

 Created by Python create_sdf_string function

 26 29  0  0  0  0  0  0  0  0999 V2000
   10.7503   13.4293   17.1119 C   0  0  0  0  0  0  0  0  0  0  0  0
   10.9128   11.3612   19.2362 O   0  0  0  0  0  0  0  0  0  0  0  0
    9.3035   13.4240   19.1178 C   0  0  0  0  0  0  0  0  0  0  0  0
   10.4610    9.5479   21.4124 O   0  0  0  0  0  0  0  0  0  0  0  0
    8.3426    5.2803   22.1729 C   0  0  0  0  0  0  0  0  0  0  0  0
   10.6328   10.4155   21.3632 C   0  0  0  0  0  0  0  0  0  0  0  0
   12.6429    6.5820   22.3916 Br  0  0  0  0  0  0  0  0  0  0  0  0
   10.8096    6.7973   21.2159 S   0  0  0  0  0  0  0  0  0  0  0  0
   12.6901   12.2064   18.6169 Se  0  0  0  0  0  0  0  0  0  0  0  0
    9.9981    6.3514   21.1772 C   0  0  0  0  0  0  0  0  0  0  0  0
   12.7769    5.4572   21.0097 O   0  0  0  0  0  0  0  0  0  0  0  0
   10.2210    8.4815   20.0401 O   0  0  0  0  0  0  0  0  0  0  0  0
   12.3853    9.3629   18.7748 Br  0  0  0  0  0  0  0  0  0  0  0  0
   11.9560    8.0772   20.0291 He  0  0  0  0  0  0  0  0  0  0  0  0
   11.8819    5.5972   20.8500 He  0  0  0  0  0  0  0  0  0  0  0  0
    9.6744    7.7551   19.3949 He  0  0  0  0  0  0  0  0  0  0  0  0
   11.2868   13.1744   18.4820 He  0  0  0  0  0  0  0  0  0  0  0  0
    7.5149    4.9973   24.0572 He  0  0  0  0  0  0  0  0  0  0  0  0
    8.4471    6.9365   20.9181 He  0  0  0  0  0  0  0  0  0  0  0  0
    9.1461    6.5679   20.1899 He  0  0  0  0  0  0  0  0  0  0  0  0
   12.5466    5.2701   18.6748 He  0  0  0  0  0  0  0  0  0  0  0  0
   10.0100    5.2388   23.1417 He  0  0  0  0  0  0  0  0  0  0  0  0
    9.9490   14.7124   19.2485 He  0  0  0  0  0  0  0  0  0  0  0  0
   12.2089    4.0354   22.1537 He  0  0  0  0  0  0  0  0  0  0  0  0
    8.6302   10.2105   21.7139 He  0  0  0  0  0  0  0  0  0  0  0  0
    9.0296   11.5769   20.0023 He  0  0  0  0  0  0  0  0  0  0  0  0
  1  2  1  0
  1  3  3  0
  1 12  3  0
  2  5  3  0
  2  8  2  0
  2 10  4  0
  2 12  1  0
  3 11  1  0
  3 13  4  0
  4  5  3  0
  4  8  4  0
  4 10  4  0
  5  6  1  0
  5  8  3  0
  5 10  2  0
  5 11  4  0
  5 12  1  0
  6  8  1  0
  6 10  2  0
  6 11  4  0
  7  8  3  0
  7 10  3  0
  8 11  2  0
  8 12  2  0
  8 13  3  0
  9 13  4  0
 10 13  1  0
 11 12  1  0
 12 13  4  0
M  END
$$$$

 Created by Python create_sdf_string function

 26  2  0  0  0  0  0  0  0  0999 V2000
   11.7833    7.9201   19.8338 C   0  0  0  0  0  0  0  0  0  0  0  0
   10.8970   13.4473   17.9311 C   0  0  0  0  0  0  0  0  0  0  0  0
   11.8533    5.6202   20.9151 C   0  0  0  0  0  0  0  0  0  0  0  0
   10.6978   11.4000   19.3886 C   0  0  0  0  0  0  0  0  0  0  0  0
    9.8385   13.1612   19.2116 C   0  0  0  0  0  0  0  0  0  0  0  0
   10.0034    8.0563   19.6873 C   0  0  0  0  0  0  0  0  0  0  0  0
   10.2256    9.6657   21.0068 C   0  0  0  0  0  0  0  0  0  0  0  0
   11.0821   12.9497   18.5741 C   0  0  0  0  0  0  0  0  0  0  0  0
    8.0822    5.2418   23.2395 C   0  0  0  0  0  0  0  0  0  0  0  0
    8.4396    6.6488   21.5712 C   0  0  0  0  0  0  0  0  0  0  0  0
    9.3455    6.6216   20.6957 C   0  0  0  0  0  0  0  0  0  0  0  0
   12.4438    5.6373   19.3638 C   0  0  0  0  0  0  0  0  0  0  0  0
    8.3074    5.6554   22.2634 C   0  0  0  0  0  0  0  0  0  0  0  0
   10.0050    5.2610   22.9043 C   0  0  0  0  0  0  0  0  0  0  0  0
   10.5000   10.4737   20.6006 C   0  0  0  0  0  0  0  0  0  0  0  0
   12.4005    6.1178   22.0399 C   0  0  0  0  0  0  0  0  0  0  0  0
   10.7194    6.6931   21.1569 C   0  0  0  0  0  0  0  0  0  0  0  0
   11.9432   12.0859   18.5686 C   0  0  0  0  0  0  0  0  0  0  0  0
    9.9562    6.3032   21.3665 C   0  0  0  0  0  0  0  0  0  0  0  0
   12.9417    5.3176   20.7173 C   0  0  0  0  0  0  0  0  0  0  0  0
   10.0656   14.1560   18.9693 C   0  0  0  0  0  0  0  0  0  0  0  0
   10.4615    8.8657   20.0364 C   0  0  0  0  0  0  0  0  0  0  0  0
   12.1542    4.6164   21.8605 C   0  0  0  0  0  0  0  0  0  0  0  0
    8.9877   10.2396   21.3168 O   0  0  0  0  0  0  0  0  0  0  0  0
   11.9703    9.6673   19.0732 C   0  0  0  0  0  0  0  0  0  0  0  0
    9.7047   11.6489   20.0204 C   0  0  0  0  0  0  0  0  0  0  0  0
  9 13  1  0
 10 13  1  0
M  END
$$$$

 Created by Python create_sdf_string function

 26 48  0  0  0  0  0  0  0  0999 V2000
   12.0458   13.3749   19.2901 O   0  0  0  0  0  0  0  0  0  0  0  0
   12.0949    5.4750   20.3388 P   0  0  0  0  0  0  0  0  0  0  0  0
    9.9096   12.6082   17.8315 C   0  0  0  0  0  0  0  0  0  0  0  0
   11.0637    9.0197   23.0124 O   0  0  0  0  0  0  0  0  0  0  0  0
    8.2433    5.5432   21.7754 C   0  0  0  0  0  0  0  0  0  0  0  0
    9.2289    5.7630   20.2016 P   0  0  0  0  0  0  0  0  0  0  0  0
    9.0537    6.6594   23.2619 P   0  0  0  0  0  0  0  0  0  0  0  0
   10.4206    9.6508   20.6506 F   0  0  0  0  0  0  0  0  0  0  0  0
   10.9568   11.8148   21.3749 C   0  0  0  0  0  0  0  0  0  0  0  0
   12.7501    5.6896   21.2229 C   0  0  0  0  0  0  0  0  0  0  0  0
    8.9559    9.1640   20.3259 Br  0  0  0  0  0  0  0  0  0  0  0  0
   11.6882    4.9388   23.2452 O   0  0  0  0  0  0  0  0  0  0  0  0
    8.5752   11.2114   22.1426 C   0  0  0  0  0  0  0  0  0  0  0  0
   13.1163    9.9318   18.9308 C   0  0  0  0  0  0  0  0  0  0  0  0
   10.3186   11.8207   20.7824 C   0  0  0  0  0  0  0  0  0  0  0  0
   11.2365    8.7574   18.8916 He  0  0  0  0  0  0  0  0  0  0  0  0
    9.8931   11.2010   19.1920 He  0  0  0  0  0  0  0  0  0  0  0  0
    9.7826    7.6088   20.4712 He  0  0  0  0  0  0  0  0  0  0  0  0
   12.2872   11.7358   18.8922 He  0  0  0  0  0  0  0  0  0  0  0  0
    7.3426    5.6244   21.8285 He  0  0  0  0  0  0  0  0  0  0  0  0
   12.9384    6.2360   19.5107 He  0  0  0  0  0  0  0  0  0  0  0  0
    7.7643    5.3947   23.0450 He  0  0  0  0  0  0  0  0  0  0  0  0
   14.1670    6.1069   20.9914 He  0  0  0  0  0  0  0  0  0  0  0  0
   11.3497    6.2509   21.6848 He  0  0  0  0  0  0  0  0  0  0  0  0
    9.9586    6.8318   20.2900 He  0  0  0  0  0  0  0  0  0  0  0  0
   10.8024   14.3351   18.0941 He  0  0  0  0  0  0  0  0  0  0  0  0
  1  5  2  0
  1  8  4  0
  1 10  1  0
  1 11  2  0
  1 15  1  0
  2  6  1  0
  2  8  2  0
  2 10  4  0
  2 11  3  0
  2 13  1  0
  3  9  1  0
  4  7  2  0
  4  8  1  0
  4 10  4  0
  4 11  4  0
  4 12  3  0
  4 13  4  0
  4 15  4  0
  5  8  4  0
  5 10  3  0
  5 12  1  0
  5 14  4  0
  6  7  4  0
  6  8  3  0
  6  9  3  0
  6 10  1  0
  6 11  1  0
  6 12  3  0
  6 13  2  0
  6 14  4  0
  6 15  2  0
  7 11  1  0
  7 12  3  0
  8  9  4  0
  8 10  4  0
  8 13  4  0
  8 14  2  0
  8 15  2  0
  9 11  3  0
  9 13  1  0
  9 15  1  0
 10 12  2  0
 10 13  4  0
 11 12  2  0
 11 14  1  0
 11 15  4  0
 12 14  2  0
 13 15  2  0
M  END
$$$$

 Created by Python create_sdf_string function

 26  3  0  0  0  0  0  0  0  0999 V2000
   11.5157    8.8173   19.3372 C   0  0  0  0  0  0  0  0  0  0  0  0
   11.7167   13.2011   19.1933 O   0  0  0  0  0  0  0  0  0  0  0  0
   12.1455    5.9514   20.4883 C   0  0  0  0  0  0  0  0  0  0  0  0
   10.1990   11.2781   19.2871 C   0  0  0  0  0  0  0  0  0  0  0  0
   10.3825   12.6218   18.3609 C   0  0  0  0  0  0  0  0  0  0  0  0
   10.0219    7.9332   20.6204 C   0  0  0  0  0  0  0  0  0  0  0  0
   10.6250    9.2735   22.3508 O   0  0  0  0  0  0  0  0  0  0  0  0
   11.8679   11.6897   19.0552 C   0  0  0  0  0  0  0  0  0  0  0  0
    8.6839    5.9081   22.0380 C   0  0  0  0  0  0  0  0  0  0  0  0
    7.6325    5.9744   21.8727 C   0  0  0  0  0  0  0  0  0  0  0  0
    9.5764    6.4650   20.7824 C   0  0  0  0  0  0  0  0  0  0  0  0
   12.8841    6.5666   19.5480 C   0  0  0  0  0  0  0  0  0  0  0  0
    8.0642    5.5635   22.5780 C   0  0  0  0  0  0  0  0  0  0  0  0
    9.1895    6.6348   22.6895 C   0  0  0  0  0  0  0  0  0  0  0  0
   10.5794    9.8656   20.5986 C   0  0  0  0  0  0  0  0  0  0  0  0
   13.5909    5.9053   20.6701 C   0  0  0  0  0  0  0  0  0  0  0  0
   11.1878    6.0694   21.6426 C   0  0  0  0  0  0  0  0  0  0  0  0
   10.6955   11.5152   20.7387 C   0  0  0  0  0  0  0  0  0  0  0  0
   10.0012    6.7546   20.6762 C   0  0  0  0  0  0  0  0  0  0  0  0
   12.5429    5.7490   21.2633 C   0  0  0  0  0  0  0  0  0  0  0  0
   10.9116   13.5826   18.5204 C   0  0  0  0  0  0  0  0  0  0  0  0
    9.2898    9.3054   20.6278 C   0  0  0  0  0  0  0  0  0  0  0  0
   11.5398    5.2201   22.8904 O   0  0  0  0  0  0  0  0  0  0  0  0
    9.3346   10.8996   21.7547 C   0  0  0  0  0  0  0  0  0  0  0  0
   12.3847   10.1153   19.1091 C   0  0  0  0  0  0  0  0  0  0  0  0
   10.6053   11.6830   20.5548 C   0  0  0  0  0  0  0  0  0  0  0  0
  5 21  1  0
 10 13  4  0
 18 26  1  0
M  END
$$$$

 Created by Python create_sdf_string function

 26 59  0  0  0  0  0  0  0  0999 V2000
   11.2282    9.0911   20.0564 C   0  0  0  0  0  0  0  0  0  0  0  0
   11.4950   13.7875   18.6963 O   0  0  0  0  0  0  0  0  0  0  0  0
   10.8203    4.4341   20.4184 O   0  0  0  0  0  0  0  0  0  0  0  0
    9.8473   11.2929   20.0192 Cl  0  0  0  0  0  0  0  0  0  0  0  0
   10.3263   13.6728   18.8771 Se  0  0  0  0  0  0  0  0  0  0  0  0
   10.4847    7.2242   23.0976 O   0  0  0  0  0  0  0  0  0  0  0  0
   12.2144   11.9883   19.1797 O   0  0  0  0  0  0  0  0  0  0  0  0
    7.4948    3.8091   21.8864 F   0  0  0  0  0  0  0  0  0  0  0  0
    7.0138    5.0224   21.5025 C   0  0  0  0  0  0  0  0  0  0  0  0
   12.8420    6.4895   19.8250 C   0  0  0  0  0  0  0  0  0  0  0  0
    8.9009    5.4089   22.1173 S   0  0  0  0  0  0  0  0  0  0  0  0
    6.6835    7.0304   22.1620 C   0  0  0  0  0  0  0  0  0  0  0  0
   14.4980    6.6356   20.8859 Cl  0  0  0  0  0  0  0  0  0  0  0  0
   10.9397   11.7400   21.6264 C   0  0  0  0  0  0  0  0  0  0  0  0
    9.4201    6.9879   21.4915 N   0  0  0  0  0  0  0  0  0  0  0  0
   10.0185    9.5392   19.6609 O   0  0  0  0  0  0  0  0  0  0  0  0
   11.7913    4.8369   21.8672 C   0  0  0  0  0  0  0  0  0  0  0  0
    9.2746   11.2868   19.9884 C   0  0  0  0  0  0  0  0  0  0  0  0
    9.7818   12.4114   21.2530 C   0  0  0  0  0  0  0  0  0  0  0  0
   10.8324    9.0389   20.1123 He  0  0  0  0  0  0  0  0  0  0  0  0
    8.9765    6.8126   20.2441 He  0  0  0  0  0  0  0  0  0  0  0  0
   10.3563   10.2274   20.9919 He  0  0  0  0  0  0  0  0  0  0  0  0
   10.7455    5.6742   23.1590 He  0  0  0  0  0  0  0  0  0  0  0  0
   12.1022    5.1410   20.5117 He  0  0  0  0  0  0  0  0  0  0  0  0
   11.3320   13.4107   18.1624 He  0  0  0  0  0  0  0  0  0  0  0  0
   11.5193    9.4311   19.9549 He  0  0  0  0  0  0  0  0  0  0  0  0
  1  8  2  0
  1 11  4  0
  1 12  3  0
  1 15  4  0
  2  6  1  0
  2  9  4  0
  2 11  2  0
  2 12  1  0
  2 14  3  0
  2 19  2  0
  3 11  3  0
  3 14  4  0
  3 18  1  0
  3 19  4  0
  4 10  4  0
  4 13  3  0
  4 14  1  0
  4 15  2  0
  4 16  3  0
  5 11  4  0
  5 12  1  0
  5 15  4  0
  5 19  3  0
  6  8  3  0
  6  9  3  0
  6 10  2  0
  6 11  4  0
  7  9  4  0
  7 10  4  0
  7 13  3  0
  7 14  3  0
  8  9  3  0
  8 12  4  0
  8 13  4  0
  8 14  1  0
  8 15  2  0
  8 19  2  0
  9 11  2  0
  9 14  3  0
  9 15  3  0
  9 18  2  0
 10 12  3  0
 10 16  3  0
 11 15  4  0
 11 17  3  0
 11 18  4  0
 11 19  1  0
 12 14  1  0
 12 17  3  0
 13 19  3  0
 14 15  3  0
 14 16  2  0
 14 17  3  0
 14 19  3  0
 15 16  3  0
 15 18  1  0
 15 19  1  0
 16 18  2  0
 17 19  4  0
M  END
$$$$

 Created by Python create_sdf_string function

 26  5  0  0  0  0  0  0  0  0999 V2000
   11.4914    8.3823   20.2921 C   0  0  0  0  0  0  0  0  0  0  0  0
   11.3603   13.7404   18.6894 O   0  0  0  0  0  0  0  0  0  0  0  0
   10.7252    4.5962   20.7872 O   0  0  0  0  0  0  0  0  0  0  0  0
   10.2588   11.6316   19.8954 C   0  0  0  0  0  0  0  0  0  0  0  0
   10.2254   13.5931   19.0307 O   0  0  0  0  0  0  0  0  0  0  0  0
   10.9170    8.7689   20.2902 C   0  0  0  0  0  0  0  0  0  0  0  0
   10.5798    7.0893   22.6083 O   0  0  0  0  0  0  0  0  0  0  0  0
   11.7963   11.8749   19.1343 O   0  0  0  0  0  0  0  0  0  0  0  0
    7.7098    4.3947   21.8183 C   0  0  0  0  0  0  0  0  0  0  0  0
    7.4802    5.2783   21.6677 C   0  0  0  0  0  0  0  0  0  0  0  0
    8.9323    6.7743   20.8676 C   0  0  0  0  0  0  0  0  0  0  0  0
   12.7085    6.6943   20.1139 C   0  0  0  0  0  0  0  0  0  0  0  0
    9.0886    5.6503   21.9063 C   0  0  0  0  0  0  0  0  0  0  0  0
    7.1852    6.4508   21.8953 C   0  0  0  0  0  0  0  0  0  0  0  0
   10.3999   10.0130   20.7986 C   0  0  0  0  0  0  0  0  0  0  0  0
   13.6516    6.6676   20.4374 O   0  0  0  0  0  0  0  0  0  0  0  0
   10.7095    5.7683   22.3255 C   0  0  0  0  0  0  0  0  0  0  0  0
   10.6324   11.8553   21.0183 C   0  0  0  0  0  0  0  0  0  0  0  0
    9.3089    6.6946   21.5866 C   0  0  0  0  0  0  0  0  0  0  0  0
   12.2582    5.6661   20.6267 C   0  0  0  0  0  0  0  0  0  0  0  0
   11.1260   13.1762   18.7761 C   0  0  0  0  0  0  0  0  0  0  0  0
   10.0140    9.6742   19.8371 O   0  0  0  0  0  0  0  0  0  0  0  0
   11.5297    5.3563   21.4642 C   0  0  0  0  0  0  0  0  0  0  0  0
    9.6798   11.2146   19.8643 C   0  0  0  0  0  0  0  0  0  0  0  0
   11.4803    9.2584   20.0612 C   0  0  0  0  0  0  0  0  0  0  0  0
    9.9883   12.4113   21.1457 C   0  0  0  0  0  0  0  0  0  0  0  0
  2 21  1  0
  4 18  1  0
  4 24  1  0
 13 19  4  0
 18 26  1  0
M  END
$$$$

 Created by Python create_sdf_string function

 26 32  0  0  0  0  0  0  0  0999 V2000
   11.7661    8.1763   20.2284 C   0  0  0  0  0  0  0  0  0  0  0  0
   10.8315   13.6838   18.6493 N   0  0  0  0  0  0  0  0  0  0  0  0
   10.2633    4.9260   20.8012 N   0  0  0  0  0  0  0  0  0  0  0  0
   11.1781   11.1764   19.9687 S   0  0  0  0  0  0  0  0  0  0  0  0
    9.7891    7.1836   22.3407 N   0  0  0  0  0  0  0  0  0  0  0  0
   12.1609   12.3764   18.7584 C   0  0  0  0  0  0  0  0  0  0  0  0
    8.8459    6.7998   21.6538 Cl  0  0  0  0  0  0  0  0  0  0  0  0
    8.3380    6.2449   22.1561 P   0  0  0  0  0  0  0  0  0  0  0  0
    6.9600    4.3729   21.3682 C   0  0  0  0  0  0  0  0  0  0  0  0
   13.5051    6.3638   20.1503 N   0  0  0  0  0  0  0  0  0  0  0  0
   11.2837   11.0123   21.3440 N   0  0  0  0  0  0  0  0  0  0  0  0
   12.2843    4.6685   22.4949 C   0  0  0  0  0  0  0  0  0  0  0  0
    9.2536   10.3832   20.0366 C   0  0  0  0  0  0  0  0  0  0  0  0
   10.6836   11.7729   22.3396 O   0  0  0  0  0  0  0  0  0  0  0  0
   10.0526   12.2732   19.5991 He  0  0  0  0  0  0  0  0  0  0  0  0
   12.3873    8.5153   21.5533 He  0  0  0  0  0  0  0  0  0  0  0  0
    8.8751    3.1161   22.7104 He  0  0  0  0  0  0  0  0  0  0  0  0
    9.0455    7.4623   20.7667 He  0  0  0  0  0  0  0  0  0  0  0  0
   12.8430    6.4010   20.5442 He  0  0  0  0  0  0  0  0  0  0  0  0
   10.2421   10.6138   19.3011 He  0  0  0  0  0  0  0  0  0  0  0  0
    9.5313    6.6466   22.2883 He  0  0  0  0  0  0  0  0  0  0  0  0
    9.8126    6.3395   21.5916 He  0  0  0  0  0  0  0  0  0  0  0  0
   10.3112    5.1534   20.6539 He  0  0  0  0  0  0  0  0  0  0  0  0
   10.8091   11.6125   18.4821 He  0  0  0  0  0  0  0  0  0  0  0  0
    9.4200    9.4406   19.9061 He  0  0  0  0  0  0  0  0  0  0  0  0
   10.5552    9.9908   20.5730 He  0  0  0  0  0  0  0  0  0  0  0  0
  1  2  4  0
  1  3  4  0
  1  8  4  0
  1  9  2  0
  1 10  4  0
  1 11  1  0
  2  5  1  0
  2  6  3  0
  2  7  4  0
  2 12  2  0
  3  4  4  0
  3 11  4  0
  4  5  1  0
  4 10  1  0
  4 11  1  0
  4 12  2  0
  5  7  3  0
  5 10  1  0
  5 11  2  0
  5 14  2  0
  6  7  1  0
  6  9  2  0
  7  8  1  0
  7 11  3  0
  7 12  4  0
  7 14  4  0
  8 11  1  0
  9 10  4  0
  9 13  3  0
 10 13  2  0
 11 13  4  0
 13 14  4  0
M  END
$$$$

 Created by Python create_sdf_string function

 26  5  0  0  0  0  0  0  0  0999 V2000
   12.0156    8.1706   20.6549 C   0  0  0  0  0  0  0  0  0  0  0  0
   10.9264   13.4653   18.6905 O   0  0  0  0  0  0  0  0  0  0  0  0
   10.3240    4.7257   21.2227 C   0  0  0  0  0  0  0  0  0  0  0  0
   11.1781   11.2537   20.3011 C   0  0  0  0  0  0  0  0  0  0  0  0
   10.4241   12.3396   19.4680 C   0  0  0  0  0  0  0  0  0  0  0  0
   12.3795    8.5894   21.3513 C   0  0  0  0  0  0  0  0  0  0  0  0
    9.7786    7.4683   22.0571 C   0  0  0  0  0  0  0  0  0  0  0  0
   11.7817   12.5855   18.8635 C   0  0  0  0  0  0  0  0  0  0  0  0
    8.7932    3.4297   22.0593 C   0  0  0  0  0  0  0  0  0  0  0  0
    8.6042    6.3596   21.8145 C   0  0  0  0  0  0  0  0  0  0  0  0
    9.2558    7.9533   20.9151 C   0  0  0  0  0  0  0  0  0  0  0  0
   12.5272    6.1945   20.8232 C   0  0  0  0  0  0  0  0  0  0  0  0
    8.1205    6.0755   22.1150 C   0  0  0  0  0  0  0  0  0  0  0  0
    7.6452    4.4429   21.8410 C   0  0  0  0  0  0  0  0  0  0  0  0
   10.2148   10.7382   19.3370 C   0  0  0  0  0  0  0  0  0  0  0  0
   13.0653    6.4603   20.4050 C   0  0  0  0  0  0  0  0  0  0  0  0
    9.3487    6.6317   22.1688 C   0  0  0  0  0  0  0  0  0  0  0  0
   11.2136   10.7805   20.8281 C   0  0  0  0  0  0  0  0  0  0  0  0
    9.9533    6.1979   21.4940 C   0  0  0  0  0  0  0  0  0  0  0  0
   10.3430    4.9305   21.0782 C   0  0  0  0  0  0  0  0  0  0  0  0
   10.8902   11.9530   18.4023 C   0  0  0  0  0  0  0  0  0  0  0  0
    9.3420    9.2759   20.1042 C   0  0  0  0  0  0  0  0  0  0  0  0
   12.0725    5.0696   21.5382 C   0  0  0  0  0  0  0  0  0  0  0  0
    9.4040   10.4432   19.9584 C   0  0  0  0  0  0  0  0  0  0  0  0
   10.8480    9.8759   20.7790 C   0  0  0  0  0  0  0  0  0  0  0  0
   10.7792   11.5334   22.0696 O   0  0  0  0  0  0  0  0  0  0  0  0
  1  6  1  0
  3 20  4  0
  4 18  1  0
 10 13  1  0
 12 23  4  0
M  END
$$$$

 Created by Python create_sdf_string function

 26 38  0  0  0  0  0  0  0  0999 V2000
   12.9058    9.0760   20.7540 C   0  0  0  0  0  0  0  0  0  0  0  0
   10.4831   13.9016   18.0946 C   0  0  0  0  0  0  0  0  0  0  0  0
   11.6070   11.4507   19.2820 C   0  0  0  0  0  0  0  0  0  0  0  0
   11.6809    7.6110   22.4976 F   0  0  0  0  0  0  0  0  0  0  0  0
   10.6585    6.5318   20.8657 C   0  0  0  0  0  0  0  0  0  0  0  0
   11.5660   12.1111   19.0424 C   0  0  0  0  0  0  0  0  0  0  0  0
    9.8251    4.2576   22.7311 F   0  0  0  0  0  0  0  0  0  0  0  0
   12.3194    8.4872   21.2792 Cl  0  0  0  0  0  0  0  0  0  0  0  0
   13.9995    6.6578   19.3564 C   0  0  0  0  0  0  0  0  0  0  0  0
    9.0875    7.0920   21.0236 C   0  0  0  0  0  0  0  0  0  0  0  0
    8.9174    5.8271   20.8392 C   0  0  0  0  0  0  0  0  0  0  0  0
    8.9921    4.0861   20.5866 Cl  0  0  0  0  0  0  0  0  0  0  0  0
   12.3988   12.7492   18.4117 F   0  0  0  0  0  0  0  0  0  0  0  0
   10.7051    8.4065   20.7086 O   0  0  0  0  0  0  0  0  0  0  0  0
   12.3333    5.8171   20.1994 C   0  0  0  0  0  0  0  0  0  0  0  0
    9.3734   10.9769   22.0153 O   0  0  0  0  0  0  0  0  0  0  0  0
   10.4916    3.3978   19.8006 He  0  0  0  0  0  0  0  0  0  0  0  0
   12.8173   12.2134   20.1451 He  0  0  0  0  0  0  0  0  0  0  0  0
    8.8765    6.8465   21.9274 He  0  0  0  0  0  0  0  0  0  0  0  0
    9.7939    8.8281   20.3439 He  0  0  0  0  0  0  0  0  0  0  0  0
    8.5079    8.3467   21.5675 He  0  0  0  0  0  0  0  0  0  0  0  0
    7.9459    4.2424   20.1510 He  0  0  0  0  0  0  0  0  0  0  0  0
   11.1174   10.0699   18.5769 He  0  0  0  0  0  0  0  0  0  0  0  0
   10.7704   10.1616   21.3967 He  0  0  0  0  0  0  0  0  0  0  0  0
    8.1932   10.7283   19.8094 He  0  0  0  0  0  0  0  0  0  0  0  0
   11.1450    9.3570   19.8538 He  0  0  0  0  0  0  0  0  0  0  0  0
  1  4  2  0
  1 10  3  0
  1 12  2  0
  1 13  2  0
  2  4  1  0
  2  7  4  0
  2 12  1  0
  2 15  3  0
  3  5  3  0
  3  9  2  0
  3 10  3  0
  3 11  2  0
  3 12  4  0
  3 14  3  0
  4 10  4  0
  4 13  1  0
  5  6  3  0
  5  8  4  0
  5 13  2  0
  6 13  4  0
  6 14  2  0
  7  9  1  0
  7 10  4  0
  7 11  4  0
  7 12  2  0
  7 15  1  0
  7 16  2  0
  8 11  2  0
  8 13  4  0
  8 14  4  0
  8 16  2  0
  9 10  4  0
 10 14  1  0
 11 12  3  0
 12 14  2  0
 12 15  4  0
 14 15  3  0
 14 16  1  0
M  END
$$$$

 Created by Python create_sdf_string function

 26  8  0  0  0  0  0  0  0  0999 V2000
   12.7549    9.1115   20.5407 C   0  0  0  0  0  0  0  0  0  0  0  0
   10.9428   13.3589   18.2524 C   0  0  0  0  0  0  0  0  0  0  0  0
   10.0540    3.3586   20.0510 C   0  0  0  0  0  0  0  0  0  0  0  0
   11.4619   11.3635   19.3599 C   0  0  0  0  0  0  0  0  0  0  0  0
   12.6040   12.0416   19.8021 C   0  0  0  0  0  0  0  0  0  0  0  0
   11.8075    7.4366   21.9711 C   0  0  0  0  0  0  0  0  0  0  0  0
   10.9669    6.4281   20.9557 C   0  0  0  0  0  0  0  0  0  0  0  0
   11.7768   12.3316   18.9217 C   0  0  0  0  0  0  0  0  0  0  0  0
    9.6880    4.3937   22.0008 C   0  0  0  0  0  0  0  0  0  0  0  0
    8.9434    6.6335   21.6707 C   0  0  0  0  0  0  0  0  0  0  0  0
    9.5740    8.8782   20.6791 C   0  0  0  0  0  0  0  0  0  0  0  0
   12.4417    8.0370   20.9660 C   0  0  0  0  0  0  0  0  0  0  0  0
    8.5249    8.8040   21.2920 C   0  0  0  0  0  0  0  0  0  0  0  0
    8.2564    3.9011   20.4246 C   0  0  0  0  0  0  0  0  0  0  0  0
   11.1407   10.7426   18.7418 C   0  0  0  0  0  0  0  0  0  0  0  0
   13.4758    6.9276   19.9238 C   0  0  0  0  0  0  0  0  0  0  0  0
    9.3166    6.7516   21.3492 C   0  0  0  0  0  0  0  0  0  0  0  0
   10.8750   10.1012   20.9361 C   0  0  0  0  0  0  0  0  0  0  0  0
    9.0333    5.5510   21.1335 C   0  0  0  0  0  0  0  0  0  0  0  0
    9.1516    3.7953   20.6825 C   0  0  0  0  0  0  0  0  0  0  0  0
   12.0109   12.8197   18.5898 C   0  0  0  0  0  0  0  0  0  0  0  0
   10.5659    8.4991   20.9292 C   0  0  0  0  0  0  0  0  0  0  0  0
   11.9966    6.0073   20.4401 C   0  0  0  0  0  0  0  0  0  0  0  0
    8.6223   10.6003   20.2141 C   0  0  0  0  0  0  0  0  0  0  0  0
   11.3771    9.4865   20.2239 C   0  0  0  0  0  0  0  0  0  0  0  0
    9.2260   10.7413   21.7177 O   0  0  0  0  0  0  0  0  0  0  0  0
  1 25  1  0
  3 20  1  0
  4 15  4  0
  7 23  4  0
  8 21  4  0
 10 17  4  0
 11 13  1  0
 14 20  1  0
M  END
$$$$

 Created by Python create_sdf_string function

 26 26  0  0  0  0  0  0  0  0999 V2000
   12.2171    7.4952   19.9005 C   0  0  0  0  0  0  0  0  0  0  0  0
   10.9118   13.0904   18.8083 C   0  0  0  0  0  0  0  0  0  0  0  0
    9.0428    3.8078   21.8402 F   0  0  0  0  0  0  0  0  0  0  0  0
    9.3365    8.8606   20.1708 C   0  0  0  0  0  0  0  0  0  0  0  0
   13.7349    7.8160   21.5041 O   0  0  0  0  0  0  0  0  0  0  0  0
    8.0723    8.6648   21.4628 C   0  0  0  0  0  0  0  0  0  0  0  0
   11.0829   11.9251   17.6086 C   0  0  0  0  0  0  0  0  0  0  0  0
   11.0364    6.8727   20.5654 S   0  0  0  0  0  0  0  0  0  0  0  0
   10.7038    7.4969   21.0515 C   0  0  0  0  0  0  0  0  0  0  0  0
   10.2428   11.2405   20.7146 F   0  0  0  0  0  0  0  0  0  0  0  0
    9.5833    8.3408   20.7881 F   0  0  0  0  0  0  0  0  0  0  0  0
   12.7682    6.4417   20.3985 F   0  0  0  0  0  0  0  0  0  0  0  0
    9.5868   11.1831   19.9782 P   0  0  0  0  0  0  0  0  0  0  0  0
   10.1446   11.0849   22.6508 I   0  0  0  0  0  0  0  0  0  0  0  0
    9.2747    4.9848   21.8610 He  0  0  0  0  0  0  0  0  0  0  0  0
   11.7120   10.6023   19.5214 He  0  0  0  0  0  0  0  0  0  0  0  0
   12.9697   12.5198   19.6688 He  0  0  0  0  0  0  0  0  0  0  0  0
   11.4595    9.1140   22.2010 He  0  0  0  0  0  0  0  0  0  0  0  0
   10.3133    6.3248   20.1237 He  0  0  0  0  0  0  0  0  0  0  0  0
   12.6045   13.8446   17.8943 He  0  0  0  0  0  0  0  0  0  0  0  0
    9.2140    5.5012   22.6926 He  0  0  0  0  0  0  0  0  0  0  0  0
    8.3072    3.3114   21.0036 He  0  0  0  0  0  0  0  0  0  0  0  0
    7.9667    5.4670   21.0882 He  0  0  0  0  0  0  0  0  0  0  0  0
    9.8532    4.0712   20.1284 He  0  0  0  0  0  0  0  0  0  0  0  0
   12.4653   12.3470   18.1670 He  0  0  0  0  0  0  0  0  0  0  0  0
   10.4555    9.1853   19.9753 He  0  0  0  0  0  0  0  0  0  0  0  0
  1  4  3  0
  1  5  3  0
  1 11  3  0
  2  7  4  0
  2  8  3  0
  3  6  4  0
  3  7  4  0
  3  8  4  0
  3  9  1  0
  3 14  1  0
  4  5  4  0
  4  6  3  0
  4  7  2  0
  4 11  4  0
  4 14  2  0
  5 13  1  0
  6  7  2  0
  6  9  3  0
  6 13  3  0
  7 11  2  0
  8 10  4  0
  8 11  3  0
  9 10  3  0
 10 11  4  0
 10 12  2  0
 13 14  1  0
M  END
$$$$

 Created by Python create_sdf_string function

 26 10  0  0  0  0  0  0  0  0999 V2000
   12.4703    7.6685   20.4189 C   0  0  0  0  0  0  0  0  0  0  0  0
   11.1412   12.4007   19.0351 C   0  0  0  0  0  0  0  0  0  0  0  0
    8.9430    4.6375   21.7899 C   0  0  0  0  0  0  0  0  0  0  0  0
   11.6520   11.0836   19.5240 C   0  0  0  0  0  0  0  0  0  0  0  0
   12.6790   12.6343   19.4915 C   0  0  0  0  0  0  0  0  0  0  0  0
   11.4512    9.3676   21.5513 C   0  0  0  0  0  0  0  0  0  0  0  0
   10.3351    6.0619   20.5467 C   0  0  0  0  0  0  0  0  0  0  0  0
   12.7651   13.3840   17.9677 C   0  0  0  0  0  0  0  0  0  0  0  0
    8.9835    3.9920   22.0315 C   0  0  0  0  0  0  0  0  0  0  0  0
    9.1658    5.6131   22.5775 C   0  0  0  0  0  0  0  0  0  0  0  0
    9.0968    9.0322   20.8165 C   0  0  0  0  0  0  0  0  0  0  0  0
   13.3839    7.9591   21.0844 O   0  0  0  0  0  0  0  0  0  0  0  0
    8.2975    8.7862   21.3441 C   0  0  0  0  0  0  0  0  0  0  0  0
    8.3270    3.2397   20.9014 C   0  0  0  0  0  0  0  0  0  0  0  0
   11.2559   12.2507   17.8777 C   0  0  0  0  0  0  0  0  0  0  0  0
   10.7053    6.3663   20.6627 C   0  0  0  0  0  0  0  0  0  0  0  0
   10.6039    7.4121   20.8167 C   0  0  0  0  0  0  0  0  0  0  0  0
   10.2987   11.2978   20.4427 C   0  0  0  0  0  0  0  0  0  0  0  0
    8.3165    5.4555   21.2140 C   0  0  0  0  0  0  0  0  0  0  0  0
    9.6071    4.0192   20.3623 C   0  0  0  0  0  0  0  0  0  0  0  0
   12.5195   12.6241   17.9865 C   0  0  0  0  0  0  0  0  0  0  0  0
    9.5188    8.0763   20.9323 C   0  0  0  0  0  0  0  0  0  0  0  0
   12.6353    6.4673   20.1832 C   0  0  0  0  0  0  0  0  0  0  0  0
    9.9126   11.0485   20.6681 C   0  0  0  0  0  0  0  0  0  0  0  0
   10.8881    9.3690   20.5142 C   0  0  0  0  0  0  0  0  0  0  0  0
    9.7263   11.0636   22.0324 O   0  0  0  0  0  0  0  0  0  0  0  0
  1 12  1  0
  1 23  1  0
  2 15  4  0
  3  9  1  0
  6 25  1  0
  7 16  4  0
  8 21  1  0
 11 22  4  0
 18 24  1  0
 24 26  1  0
M  END
$$$$

 Created by Python create_sdf_string function

 26 53  0  0  0  0  0  0  0  0999 V2000
   12.3444    7.9350   20.7003 Cl  0  0  0  0  0  0  0  0  0  0  0  0
   10.8736   11.4175   18.5484 C   0  0  0  0  0  0  0  0  0  0  0  0
   11.5902   11.2935   18.6358 S   0  0  0  0  0  0  0  0  0  0  0  0
   11.6885   14.1438   20.4719 C   0  0  0  0  0  0  0  0  0  0  0  0
   11.6937    9.7122   20.6795 N   0  0  0  0  0  0  0  0  0  0  0  0
   13.2111   13.6906   20.1469 S   0  0  0  0  0  0  0  0  0  0  0  0
    7.8490    9.0603   21.4713 P   0  0  0  0  0  0  0  0  0  0  0  0
    6.9779    3.6472   22.2731 C   0  0  0  0  0  0  0  0  0  0  0  0
   11.3594   12.6314   18.2856 F   0  0  0  0  0  0  0  0  0  0  0  0
   10.0006    6.9872   19.9398 C   0  0  0  0  0  0  0  0  0  0  0  0
    9.6017   11.9633   18.7541 C   0  0  0  0  0  0  0  0  0  0  0  0
    8.4461    5.2455   19.9253 C   0  0  0  0  0  0  0  0  0  0  0  0
   11.3329    3.6436   20.2020 C   0  0  0  0  0  0  0  0  0  0  0  0
   12.4990   13.7255   17.8359 N   0  0  0  0  0  0  0  0  0  0  0  0
   10.8255   11.7111   21.0659 O   0  0  0  0  0  0  0  0  0  0  0  0
    8.9644   10.2444   23.0768 O   0  0  0  0  0  0  0  0  0  0  0  0
    9.1319    3.7117   21.0744 He  0  0  0  0  0  0  0  0  0  0  0  0
   11.1159    5.3649   20.6186 He  0  0  0  0  0  0  0  0  0  0  0  0
    8.5411    3.8375   21.5386 He  0  0  0  0  0  0  0  0  0  0  0  0
   10.5400    3.8890   22.5674 He  0  0  0  0  0  0  0  0  0  0  0  0
    8.2493    9.2674   20.6546 He  0  0  0  0  0  0  0  0  0  0  0  0
   13.1144    7.6362   20.8139 He  0  0  0  0  0  0  0  0  0  0  0  0
   11.9072    6.6852   20.7967 He  0  0  0  0  0  0  0  0  0  0  0  0
   10.0262    7.8125   22.0775 He  0  0  0  0  0  0  0  0  0  0  0  0
   13.0739    7.0360   17.7863 He  0  0  0  0  0  0  0  0  0  0  0  0
    9.5603    9.4291   19.7431 He  0  0  0  0  0  0  0  0  0  0  0  0
  1  2  1  0
  1  3  1  0
  1  4  4  0
  1  5  4  0
  1  9  4  0
  1 11  4  0
  1 15  1  0
  1 16  3  0
  2  3  2  0
  2  7  4  0
  2  9  1  0
  2 15  3  0
  2 16  2  0
  3  5  2  0
  3  9  1  0
  3 11  4  0
  3 12  3  0
  3 13  1  0
  3 14  2  0
  3 15  1  0
  4 15  4  0
  4 16  3  0
  5  7  1  0
  5  9  1  0
  5 10  3  0
  5 11  3  0
  5 12  1  0
  5 15  2  0
  6  7  3  0
  6  9  4  0
  6 13  4  0
  7 11  3  0
  7 12  2  0
  7 13  3  0
  7 16  2  0
  8 12  1  0
  8 13  4  0
  8 14  1  0
  8 15  1  0
  9 11  1  0
  9 15  4  0
  9 16  2  0
 10 11  1  0
 10 14  3  0
 10 15  2  0
 11 12  4  0
 11 13  3  0
 11 15  1  0
 11 16  3  0
 12 14  3  0
 13 16  4  0
 14 16  4  0
 15 16  3  0
M  END
$$$$

 Created by Python create_sdf_string function

 26  9  0  0  0  0  0  0  0  0999 V2000
   12.2322    7.8620   20.2161 C   0  0  0  0  0  0  0  0  0  0  0  0
   11.1930   11.4378   18.8134 C   0  0  0  0  0  0  0  0  0  0  0  0
    9.5122    3.7080   21.1525 C   0  0  0  0  0  0  0  0  0  0  0  0
   11.6488   11.4724   18.8248 C   0  0  0  0  0  0  0  0  0  0  0  0
   11.8174   13.6730   20.0768 C   0  0  0  0  0  0  0  0  0  0  0  0
   11.1937    9.6852   20.1859 C   0  0  0  0  0  0  0  0  0  0  0  0
   10.9260    5.4914   20.5680 C   0  0  0  0  0  0  0  0  0  0  0  0
   12.5718   13.5226   19.7167 C   0  0  0  0  0  0  0  0  0  0  0  0
    8.4838    3.6480   21.7050 C   0  0  0  0  0  0  0  0  0  0  0  0
   10.0331    3.9383   21.9148 C   0  0  0  0  0  0  0  0  0  0  0  0
    8.5617    9.4504   20.8451 C   0  0  0  0  0  0  0  0  0  0  0  0
   12.8405    7.6084   20.4715 C   0  0  0  0  0  0  0  0  0  0  0  0
    8.5571    9.3625   21.5074 C   0  0  0  0  0  0  0  0  0  0  0  0
    7.8475    3.7773   21.6504 C   0  0  0  0  0  0  0  0  0  0  0  0
   11.2699   12.2618   18.6224 C   0  0  0  0  0  0  0  0  0  0  0  0
   10.3511    7.2428   20.4546 C   0  0  0  0  0  0  0  0  0  0  0  0
   11.5105    6.5876   20.4079 C   0  0  0  0  0  0  0  0  0  0  0  0
   10.1214   11.8629   19.1642 C   0  0  0  0  0  0  0  0  0  0  0  0
    8.8078    5.2193   20.9563 C   0  0  0  0  0  0  0  0  0  0  0  0
   10.7296    4.3710   20.4456 C   0  0  0  0  0  0  0  0  0  0  0  0
   12.4334   13.5541   18.2521 C   0  0  0  0  0  0  0  0  0  0  0  0
    9.9919    7.8864   21.5609 C   0  0  0  0  0  0  0  0  0  0  0  0
   12.7213    7.0824   18.8574 C   0  0  0  0  0  0  0  0  0  0  0  0
   10.7692   11.5618   20.5112 C   0  0  0  0  0  0  0  0  0  0  0  0
    9.7935    9.4811   20.0844 C   0  0  0  0  0  0  0  0  0  0  0  0
    8.9659    9.9746   22.3685 O   0  0  0  0  0  0  0  0  0  0  0  0
  1 12  1  0
  2 15  1  0
  3 10  4  0
  4 15  1  0
  5  8  1  0
  9 14  4  0
 11 13  1  0
 13 26  2  0
 15 18  1  0
M  END
$$$$

 Created by Python create_sdf_string function

 26 35  0  0  0  0  0  0  0  0999 V2000
   12.7979    9.0956   19.4898 P   0  0  0  0  0  0  0  0  0  0  0  0
   10.4892   10.3642   18.3127 Cl  0  0  0  0  0  0  0  0  0  0  0  0
   11.5166   12.9152   20.5167 N   0  0  0  0  0  0  0  0  0  0  0  0
   11.7923    9.2643   20.5138 F   0  0  0  0  0  0  0  0  0  0  0  0
   10.9506    6.3952   19.8362 C   0  0  0  0  0  0  0  0  0  0  0  0
   11.9999   13.5771   18.7162 C   0  0  0  0  0  0  0  0  0  0  0  0
    8.1191    4.8504   21.5186 C   0  0  0  0  0  0  0  0  0  0  0  0
   11.0169    9.5135   21.2983 C   0  0  0  0  0  0  0  0  0  0  0  0
   12.3869    7.5628   20.8898 Br  0  0  0  0  0  0  0  0  0  0  0  0
    9.4114    7.9509   20.4580 N   0  0  0  0  0  0  0  0  0  0  0  0
   11.9792   12.0837   18.8327 S   0  0  0  0  0  0  0  0  0  0  0  0
   10.0858    5.1051   19.2716 C   0  0  0  0  0  0  0  0  0  0  0  0
   11.8226   13.0893   19.9593 O   0  0  0  0  0  0  0  0  0  0  0  0
   10.2495    9.6229   20.5799 N   0  0  0  0  0  0  0  0  0  0  0  0
   13.5778    5.5108   17.1920 N   0  0  0  0  0  0  0  0  0  0  0  0
   11.2554   11.2787   19.0856 He  0  0  0  0  0  0  0  0  0  0  0  0
    9.2276    3.6504   21.7414 He  0  0  0  0  0  0  0  0  0  0  0  0
    8.9856    4.0440   20.9222 He  0  0  0  0  0  0  0  0  0  0  0  0
    8.7918    4.0854   21.4761 He  0  0  0  0  0  0  0  0  0  0  0  0
   10.3626    8.0419   19.4295 He  0  0  0  0  0  0  0  0  0  0  0  0
   12.0884    6.7824   19.2908 He  0  0  0  0  0  0  0  0  0  0  0  0
   11.2817   12.8019   19.9732 He  0  0  0  0  0  0  0  0  0  0  0  0
    8.9258    4.6909   21.0227 He  0  0  0  0  0  0  0  0  0  0  0  0
   10.6860   10.6572   20.5077 He  0  0  0  0  0  0  0  0  0  0  0  0
    9.1347    9.5163   19.8407 He  0  0  0  0  0  0  0  0  0  0  0  0
    8.1044   10.8966   22.4493 He  0  0  0  0  0  0  0  0  0  0  0  0
  1  5  4  0
  1 11  4  0
  2  3  4  0
  2  6  1  0
  2 11  3  0
  2 12  3  0
  3  5  3  0
  3  8  3  0
  3 10  3  0
  3 12  2  0
  3 15  2  0
  4  5  4  0
  4  6  3  0
  4  8  4  0
  4 10  3  0
  4 12  4  0
  4 14  1  0
  4 15  2  0
  5  7  4  0
  5 12  4  0
  5 13  1  0
  6  7  3  0
  6 10  3  0
  7  8  2  0
  7  9  3  0
  8 11  4  0
  8 14  4  0
  8 15  1  0
  9 10  1  0
  9 13  3  0
 10 15  2  0
 11 14  1  0
 11 15  3  0
 12 13  1  0
 12 14  2  0
M  END
$$$$

 Created by Python create_sdf_string function

 26 10  0  0  0  0  0  0  0  0999 V2000
   12.7989    8.6547   19.3937 C   0  0  0  0  0  0  0  0  0  0  0  0
   11.3115   11.4551   19.1418 C   0  0  0  0  0  0  0  0  0  0  0  0
    9.0649    3.5936   21.4448 C   0  0  0  0  0  0  0  0  0  0  0  0
   10.7553   10.6995   18.2841 C   0  0  0  0  0  0  0  0  0  0  0  0
   11.4034   12.9868   20.3613 C   0  0  0  0  0  0  0  0  0  0  0  0
   11.5290    9.3400   20.3339 C   0  0  0  0  0  0  0  0  0  0  0  0
   10.8252    6.0344   19.7085 C   0  0  0  0  0  0  0  0  0  0  0  0
   11.9620   13.6551   18.6311 C   0  0  0  0  0  0  0  0  0  0  0  0
    9.3956    3.7867   20.6915 C   0  0  0  0  0  0  0  0  0  0  0  0
    8.3709    5.0646   21.4514 C   0  0  0  0  0  0  0  0  0  0  0  0
   10.7389    9.4117   21.0043 C   0  0  0  0  0  0  0  0  0  0  0  0
   12.2531    7.3097   20.1610 C   0  0  0  0  0  0  0  0  0  0  0  0
    9.3462    7.7748   20.6421 C   0  0  0  0  0  0  0  0  0  0  0  0
    8.7651    3.9496   21.3918 C   0  0  0  0  0  0  0  0  0  0  0  0
   11.8458   11.9604   18.8274 C   0  0  0  0  0  0  0  0  0  0  0  0
   10.5040    7.5018   19.8551 C   0  0  0  0  0  0  0  0  0  0  0  0
   12.1991    6.5020   18.9660 C   0  0  0  0  0  0  0  0  0  0  0  0
   11.5257   13.0579   19.8529 C   0  0  0  0  0  0  0  0  0  0  0  0
    9.0928    5.3255   20.8759 C   0  0  0  0  0  0  0  0  0  0  0  0
   10.3021    5.1251   19.8550 C   0  0  0  0  0  0  0  0  0  0  0  0
   11.8549   13.3752   20.0408 O   0  0  0  0  0  0  0  0  0  0  0  0
   10.3183    9.8515   20.8096 N   0  0  0  0  0  0  0  0  0  0  0  0
   12.7526    5.9889   18.0880 O   0  0  0  0  0  0  0  0  0  0  0  0
   10.3906   10.7843   20.5645 C   0  0  0  0  0  0  0  0  0  0  0  0
    9.0141    9.4065   20.3154 C   0  0  0  0  0  0  0  0  0  0  0  0
    8.7779   10.6046   21.8717 O   0  0  0  0  0  0  0  0  0  0  0  0
  2 15  1  0
  3 14  1  0
  5 18  1  0
  7 17  1  0
  7 20  4  0
 10 19  4  0
 11 22  4  0
 17 23  1  0
 18 21  1  0
 22 24  4  0
M  END
$$$$

 Created by Python create_sdf_string function

 26 30  0  0  0  0  0  0  0  0999 V2000
   12.1027   11.7365   19.8168 O   0  0  0  0  0  0  0  0  0  0  0  0
   12.2109   12.7114   19.9044 C   0  0  0  0  0  0  0  0  0  0  0  0
   11.7859   13.6682   19.1016 S   0  0  0  0  0  0  0  0  0  0  0  0
    8.2473    4.4042   21.1617 C   0  0  0  0  0  0  0  0  0  0  0  0
    8.9248    4.5042   21.6411 C   0  0  0  0  0  0  0  0  0  0  0  0
   10.8120   10.6841   19.5717 C   0  0  0  0  0  0  0  0  0  0  0  0
   12.9045    6.3120   21.1167 S   0  0  0  0  0  0  0  0  0  0  0  0
   10.0385    4.5213   21.9529 C   0  0  0  0  0  0  0  0  0  0  0  0
   12.4954    7.8894   18.5480 C   0  0  0  0  0  0  0  0  0  0  0  0
   11.5674   14.2936   18.1154 C   0  0  0  0  0  0  0  0  0  0  0  0
    8.9685    4.5278   20.6757 F   0  0  0  0  0  0  0  0  0  0  0  0
   10.8173    9.9606   20.9730 S   0  0  0  0  0  0  0  0  0  0  0  0
    9.1918    9.7450   21.3432 O   0  0  0  0  0  0  0  0  0  0  0  0
    7.8588    9.8946   21.7444 O   0  0  0  0  0  0  0  0  0  0  0  0
   13.7201    8.8270   18.7829 He  0  0  0  0  0  0  0  0  0  0  0  0
    9.1948    3.6592   20.3595 He  0  0  0  0  0  0  0  0  0  0  0  0
    9.9279    9.7181   17.3410 He  0  0  0  0  0  0  0  0  0  0  0  0
   11.2651    9.5125   20.2528 He  0  0  0  0  0  0  0  0  0  0  0  0
    9.4938    6.0991   20.0746 He  0  0  0  0  0  0  0  0  0  0  0  0
    9.6459    8.7060   20.4169 He  0  0  0  0  0  0  0  0  0  0  0  0
   12.8691   10.6718   19.6149 He  0  0  0  0  0  0  0  0  0  0  0  0
   10.5853    7.5238   19.9239 He  0  0  0  0  0  0  0  0  0  0  0  0
    8.8340    5.1340   21.4319 He  0  0  0  0  0  0  0  0  0  0  0  0
   12.6610   12.0987   21.2105 He  0  0  0  0  0  0  0  0  0  0  0  0
   11.8086    4.9702   18.8603 He  0  0  0  0  0  0  0  0  0  0  0  0
   10.3350   10.2569   20.1040 He  0  0  0  0  0  0  0  0  0  0  0  0
  1  2  2  0
  1  9  1  0
  1 10  3  0
  2  4  1  0
  2  5  3  0
  2  6  1  0
  2  7  4  0
  2  8  4  0
  2 10  3  0
  2 11  4  0
  3  5  3  0
  3 12  3  0
  3 14  1  0
  4 10  3  0
  4 12  1  0
  4 14  3  0
  5  6  2  0
  5  7  4  0
  5  8  4  0
  5 10  2  0
  5 12  4  0
  6  9  3  0
  6 10  2  0
  6 12  4  0
  7  8  2  0
  7 10  2  0
  8 10  4  0
  9 11  2  0
  9 13  3  0
 10 11  2  0
M  END
$$$$

 Created by Python create_sdf_string function

 26 10  0  0  0  0  0  0  0  0999 V2000
   13.3505    8.7054   19.1121 C   0  0  0  0  0  0  0  0  0  0  0  0
   12.1550   12.2457   19.9177 C   0  0  0  0  0  0  0  0  0  0  0  0
    9.1853    3.5081   20.6051 C   0  0  0  0  0  0  0  0  0  0  0  0
   10.3494    9.8247   18.2948 O   0  0  0  0  0  0  0  0  0  0  0  0
   11.9297   12.5132   19.4952 C   0  0  0  0  0  0  0  0  0  0  0  0
   11.7255    9.4318   20.0418 C   0  0  0  0  0  0  0  0  0  0  0  0
    9.8890    6.3997   20.3310 C   0  0  0  0  0  0  0  0  0  0  0  0
   11.6780   13.7429   18.9918 C   0  0  0  0  0  0  0  0  0  0  0  0
    8.3086    3.9412   20.9840 C   0  0  0  0  0  0  0  0  0  0  0  0
    9.3211    4.7826   21.8113 C   0  0  0  0  0  0  0  0  0  0  0  0
   11.0243   11.2383   19.4182 C   0  0  0  0  0  0  0  0  0  0  0  0
   12.5015    6.3225   20.0112 C   0  0  0  0  0  0  0  0  0  0  0  0
    9.6613    8.2650   20.3565 C   0  0  0  0  0  0  0  0  0  0  0  0
   10.0859    4.4488   21.6485 C   0  0  0  0  0  0  0  0  0  0  0  0
   12.7801   10.4898   19.6493 C   0  0  0  0  0  0  0  0  0  0  0  0
   10.5539    7.6348   19.7555 C   0  0  0  0  0  0  0  0  0  0  0  0
   12.1668    7.7159   19.2271 C   0  0  0  0  0  0  0  0  0  0  0  0
   11.6239   13.8330   18.4998 C   0  0  0  0  0  0  0  0  0  0  0  0
    9.1701    4.8068   20.6089 C   0  0  0  0  0  0  0  0  0  0  0  0
    8.9433    5.6109   21.3357 C   0  0  0  0  0  0  0  0  0  0  0  0
   12.6559   11.9177   20.8411 C   0  0  0  0  0  0  0  0  0  0  0  0
   10.8083    9.9621   20.5332 C   0  0  0  0  0  0  0  0  0  0  0  0
   11.9253    5.5393   19.1499 O   0  0  0  0  0  0  0  0  0  0  0  0
   10.2053   10.0758   20.3134 C   0  0  0  0  0  0  0  0  0  0  0  0
    8.8316    9.7229   21.2784 O   0  0  0  0  0  0  0  0  0  0  0  0
    8.1541    9.4812   21.5053 O   0  0  0  0  0  0  0  0  0  0  0  0
  2  5  1  0
  2 21  1  0
  3  9  4  0
  5 11  1  0
  8 18  1  0
 10 14  4  0
 10 20  4  0
 13 16  4  0
 22 24  1  0
 25 26  1  0
M  END
$$$$

 Created by Python create_sdf_string function

 26 49  0  0  0  0  0  0  0  0999 V2000
   13.2556    9.1789   19.2920 I   0  0  0  0  0  0  0  0  0  0  0  0
   11.2946   12.5429   19.7034 C   0  0  0  0  0  0  0  0  0  0  0  0
    9.6790    3.2107   20.4016 B   0  0  0  0  0  0  0  0  0  0  0  0
   12.9961   13.3990   17.7979 O   0  0  0  0  0  0  0  0  0  0  0  0
   12.8439   13.9201   18.9929 C   0  0  0  0  0  0  0  0  0  0  0  0
    7.4386    3.6697   20.7621 F   0  0  0  0  0  0  0  0  0  0  0  0
    8.0807    5.3865   22.0308 O   0  0  0  0  0  0  0  0  0  0  0  0
    9.2496    8.4607   19.6102 N   0  0  0  0  0  0  0  0  0  0  0  0
    9.0588    4.7476   21.2893 N   0  0  0  0  0  0  0  0  0  0  0  0
   13.3363    7.3831   17.8265 C   0  0  0  0  0  0  0  0  0  0  0  0
   11.5938   14.5769   19.6759 C   0  0  0  0  0  0  0  0  0  0  0  0
   10.8660    5.7682   22.0545 C   0  0  0  0  0  0  0  0  0  0  0  0
   11.4751    9.1337   21.1354 C   0  0  0  0  0  0  0  0  0  0  0  0
    9.7848   11.2749   19.7309 C   0  0  0  0  0  0  0  0  0  0  0  0
    8.6354   10.6558   21.8649 O   0  0  0  0  0  0  0  0  0  0  0  0
    7.6196    8.8570   20.6654 O   0  0  0  0  0  0  0  0  0  0  0  0
    9.7916   10.5821   17.5288 He  0  0  0  0  0  0  0  0  0  0  0  0
   10.9632   10.0553   20.1418 He  0  0  0  0  0  0  0  0  0  0  0  0
    9.1186    6.4651   21.5448 He  0  0  0  0  0  0  0  0  0  0  0  0
   11.7475   10.7397   18.6064 He  0  0  0  0  0  0  0  0  0  0  0  0
   12.4563    5.5553   19.8807 He  0  0  0  0  0  0  0  0  0  0  0  0
   12.9667   10.3861   18.9419 He  0  0  0  0  0  0  0  0  0  0  0  0
   10.8469    6.2460   20.9138 He  0  0  0  0  0  0  0  0  0  0  0  0
    9.8139    3.8307   20.5976 He  0  0  0  0  0  0  0  0  0  0  0  0
   13.1320   11.8944   19.9940 He  0  0  0  0  0  0  0  0  0  0  0  0
   12.9516    5.7027   17.7933 He  0  0  0  0  0  0  0  0  0  0  0  0
  1  2  2  0
  1  4  3  0
  1  5  2  0
  1  9  2  0
  1 10  2  0
  1 12  4  0
  1 13  4  0
  2  4  3  0
  2  6  3  0
  2  9  4  0
  2 11  2  0
  2 14  2  0
  3  4  4  0
  3  8  1  0
  3 15  2  0
  4  7  1  0
  4  9  3  0
  4 11  4  0
  4 12  2  0
  4 14  2  0
  4 15  3  0
  4 16  1  0
  5  6  3  0
  5 12  3  0
  5 15  2  0
  6  7  2  0
  6 12  1  0
  7  9  4  0
  7 10  1  0
  7 12  3  0
  7 13  1  0
  7 14  2  0
  7 16  3  0
  8 16  3  0
  9 10  2  0
  9 11  1  0
  9 12  4  0
  9 16  1  0
 10 11  4  0
 10 12  3  0
 10 13  4  0
 11 13  4  0
 11 14  2  0
 11 16  4  0
 12 14  3  0
 13 14  1  0
 13 15  4  0
 14 15  3  0
 15 16  3  0
M  END
$$$$

 Created by Python create_sdf_string function

 26 10  0  0  0  0  0  0  0  0999 V2000
   12.7609    8.8731   19.2505 C   0  0  0  0  0  0  0  0  0  0  0  0
   11.4219   12.3311   19.3082 C   0  0  0  0  0  0  0  0  0  0  0  0
    9.6127    3.4218   20.5207 C   0  0  0  0  0  0  0  0  0  0  0  0
   10.3148   10.5607   18.1972 C   0  0  0  0  0  0  0  0  0  0  0  0
   12.9065   13.1984   18.1598 O   0  0  0  0  0  0  0  0  0  0  0  0
   10.3410    9.9752   19.8044 C   0  0  0  0  0  0  0  0  0  0  0  0
    9.1328    6.6586   21.3464 C   0  0  0  0  0  0  0  0  0  0  0  0
   12.5446   13.8441   19.1863 C   0  0  0  0  0  0  0  0  0  0  0  0
    8.1714    3.5092   21.0410 C   0  0  0  0  0  0  0  0  0  0  0  0
    8.2488    5.3304   21.6468 C   0  0  0  0  0  0  0  0  0  0  0  0
   11.6021   11.2690   18.9551 C   0  0  0  0  0  0  0  0  0  0  0  0
   11.9776    5.9502   19.7726 C   0  0  0  0  0  0  0  0  0  0  0  0
    9.6083    8.5540   20.0685 N   0  0  0  0  0  0  0  0  0  0  0  0
    9.2272    5.3012   21.3136 C   0  0  0  0  0  0  0  0  0  0  0  0
   12.8681   10.3560   19.0644 C   0  0  0  0  0  0  0  0  0  0  0  0
   10.9779    6.8059   20.4334 C   0  0  0  0  0  0  0  0  0  0  0  0
   12.9728    7.6715   18.6795 C   0  0  0  0  0  0  0  0  0  0  0  0
   11.8825   13.9826   19.3973 C   0  0  0  0  0  0  0  0  0  0  0  0
    9.7834    3.9567   20.5907 C   0  0  0  0  0  0  0  0  0  0  0  0
   10.4706    5.5667   21.0950 C   0  0  0  0  0  0  0  0  0  0  0  0
   12.8535   11.8789   19.5195 C   0  0  0  0  0  0  0  0  0  0  0  0
   11.5788    8.7610   20.1917 C   0  0  0  0  0  0  0  0  0  0  0  0
   12.7130    6.2405   18.6754 C   0  0  0  0  0  0  0  0  0  0  0  0
   10.0972   10.9022   20.0451 C   0  0  0  0  0  0  0  0  0  0  0  0
    8.9264   10.4650   21.2514 O   0  0  0  0  0  0  0  0  0  0  0  0
    8.4194    8.7565   20.7011 O   0  0  0  0  0  0  0  0  0  0  0  0
  1 17  4  0
  1 22  4  0
  2 11  1  0
  3  9  4  0
  3 19  4  0
  6 24  1  0
  8 18  1  0
 10 14  4  0
 12 23  4  0
 14 20  4  0
M  END
$$$$

 Created by Python create_sdf_string function

 26 60  0  0  0  0  0  0  0  0999 V2000
   10.3568   12.6087   20.3105 B   0  0  0  0  0  0  0  0  0  0  0  0
    9.5234    3.2012   19.8006 O   0  0  0  0  0  0  0  0  0  0  0  0
   10.6961   12.0724   18.4866 O   0  0  0  0  0  0  0  0  0  0  0  0
    9.6509    6.4933   22.2780 O   0  0  0  0  0  0  0  0  0  0  0  0
   12.5634   13.3659   18.9732 Br  0  0  0  0  0  0  0  0  0  0  0  0
    7.6403    3.5545   21.1103 B   0  0  0  0  0  0  0  0  0  0  0  0
    6.4484    6.0340   21.5277 F   0  0  0  0  0  0  0  0  0  0  0  0
   10.9655   12.2559   18.7445 C   0  0  0  0  0  0  0  0  0  0  0  0
   11.9017    4.8300   20.7451 C   0  0  0  0  0  0  0  0  0  0  0  0
    8.8616    8.1177   20.2744 O   0  0  0  0  0  0  0  0  0  0  0  0
    9.5868    4.9447   21.7777 F   0  0  0  0  0  0  0  0  0  0  0  0
   11.8288   10.9628   19.0969 Cl  0  0  0  0  0  0  0  0  0  0  0  0
   11.4733    7.2677   19.9552 F   0  0  0  0  0  0  0  0  0  0  0  0
   12.5043    6.8932   17.5572 F   0  0  0  0  0  0  0  0  0  0  0  0
   11.6917   13.6690   19.2166 F   0  0  0  0  0  0  0  0  0  0  0  0
   11.4604    5.8037   21.6634 C   0  0  0  0  0  0  0  0  0  0  0  0
   12.5146   11.4332   20.1330 N   0  0  0  0  0  0  0  0  0  0  0  0
   10.5680    8.6567   20.3453 C   0  0  0  0  0  0  0  0  0  0  0  0
   10.7432   11.3335   21.1261 P   0  0  0  0  0  0  0  0  0  0  0  0
    9.0905   10.2839   21.7433 S   0  0  0  0  0  0  0  0  0  0  0  0
   12.7771    8.7169   20.5397 He  0  0  0  0  0  0  0  0  0  0  0  0
   12.5611   12.8774   17.5407 He  0  0  0  0  0  0  0  0  0  0  0  0
   11.3295    9.7660   22.3301 He  0  0  0  0  0  0  0  0  0  0  0  0
    9.1097    4.5633   21.0410 He  0  0  0  0  0  0  0  0  0  0  0  0
   12.7941    6.2156   19.8216 He  0  0  0  0  0  0  0  0  0  0  0  0
    9.6002    6.1611   20.7575 He  0  0  0  0  0  0  0  0  0  0  0  0
  1  8  2  0
  1 13  4  0
  1 18  3  0
  1 19  3  0
  2  4  2  0
  2  6  3  0
  2  8  2  0
  2  9  3  0
  2 13  1  0
  2 16  2  0
  2 20  4  0
  3  5  4  0
  3  6  3  0
  3  7  3  0
  3  8  3  0
  3 11  1  0
  3 12  3  0
  3 13  1  0
  3 15  4  0
  3 17  3  0
  3 19  1  0
  4  6  1  0
  4  9  1  0
  4 10  4  0
  4 14  1  0
  4 17  2  0
  4 18  3  0
  5 10  3  0
  5 15  1  0
  5 18  3  0
  6  7  4  0
  6 11  2  0
  6 12  4  0
  6 13  1  0
  6 19  1  0
  6 20  4  0
  7 11  2  0
  7 13  4  0
  7 15  4  0
  7 16  4  0
  8 11  2  0
  8 15  2  0
  8 17  4  0
  9 12  3  0
  9 19  3  0
 10 14  3  0
 10 20  1  0
 11 15  1  0
 11 16  3  0
 11 18  3  0
 12 15  1  0
 12 17  2  0
 12 18  4  0
 12 19  2  0
 13 15  3  0
 14 18  1  0
 15 20  4  0
 16 20  1  0
 17 19  2  0
 18 19  1  0
M  END
$$$$

 Created by Python create_sdf_string function

 26 11  0  0  0  0  0  0  0  0999 V2000
   12.3204    8.1903   19.8352 C   0  0  0  0  0  0  0  0  0  0  0  0
   10.3818   12.3713   20.4903 O   0  0  0  0  0  0  0  0  0  0  0  0
    9.3602    3.3812   20.2580 O   0  0  0  0  0  0  0  0  0  0  0  0
   10.7144   12.0265   18.6549 O   0  0  0  0  0  0  0  0  0  0  0  0
   12.5784   12.7690   17.5506 O   0  0  0  0  0  0  0  0  0  0  0  0
   10.8899    9.4624   21.7308 C   0  0  0  0  0  0  0  0  0  0  0  0
    9.3119    7.0025   22.0136 C   0  0  0  0  0  0  0  0  0  0  0  0
   12.4738   13.4111   18.9523 C   0  0  0  0  0  0  0  0  0  0  0  0
    7.7173    3.7618   21.1273 C   0  0  0  0  0  0  0  0  0  0  0  0
    7.4576    5.4873   21.4768 C   0  0  0  0  0  0  0  0  0  0  0  0
   11.2245   12.4819   18.8540 C   0  0  0  0  0  0  0  0  0  0  0  0
   11.8149    5.4231   20.2048 C   0  0  0  0  0  0  0  0  0  0  0  0
    9.0139    8.4774   20.9742 O   0  0  0  0  0  0  0  0  0  0  0  0
    9.1457    5.0579   21.2729 C   0  0  0  0  0  0  0  0  0  0  0  0
   11.9613   10.9712   19.3623 C   0  0  0  0  0  0  0  0  0  0  0  0
   11.4522    7.4908   20.4075 C   0  0  0  0  0  0  0  0  0  0  0  0
   12.9516    6.8564   18.6595 C   0  0  0  0  0  0  0  0  0  0  0  0
   11.8854   13.5738   19.0689 C   0  0  0  0  0  0  0  0  0  0  0  0
    8.8407    4.3651   20.9149 C   0  0  0  0  0  0  0  0  0  0  0  0
   11.2811    6.2197   20.7485 C   0  0  0  0  0  0  0  0  0  0  0  0
   12.2701   11.4514   19.9722 N   0  0  0  0  0  0  0  0  0  0  0  0
   10.8150    9.3363   20.9276 C   0  0  0  0  0  0  0  0  0  0  0  0
   12.6786    6.0580   19.3472 C   0  0  0  0  0  0  0  0  0  0  0  0
   10.8907   10.8471   20.6580 C   0  0  0  0  0  0  0  0  0  0  0  0
    9.1684    9.8224   21.5077 C   0  0  0  0  0  0  0  0  0  0  0  0
    9.6972    5.8850   21.1433 C   0  0  0  0  0  0  0  0  0  0  0  0
  1 16  4  0
  1 17  4  0
  3 19  1  0
  6 22  1  0
  8 18  1  0
 12 20  4  0
 12 23  4  0
 13 25  1  0
 16 20  4  0
 17 23  4  0
 22 24  1  0
M  END
$$$$

 Created by Python create_sdf_string function

 26 39  0  0  0  0  0  0  0  0999 V2000
   12.7818    8.2539   21.4929 C   0  0  0  0  0  0  0  0  0  0  0  0
   11.4332   12.0820   20.7593 O   0  0  0  0  0  0  0  0  0  0  0  0
    7.7160    4.3101   22.0094 F   0  0  0  0  0  0  0  0  0  0  0  0
   11.7083   11.5659   18.1755 O   0  0  0  0  0  0  0  0  0  0  0  0
   11.0902   13.5537   17.9918 O   0  0  0  0  0  0  0  0  0  0  0  0
    7.4588    3.7188   21.3277 C   0  0  0  0  0  0  0  0  0  0  0  0
    7.2858    5.4318   21.7780 C   0  0  0  0  0  0  0  0  0  0  0  0
   11.3817   13.0643   20.1096 N   0  0  0  0  0  0  0  0  0  0  0  0
   11.6574   11.5385   19.3252 B   0  0  0  0  0  0  0  0  0  0  0  0
   11.2970    6.0545   22.2517 C   0  0  0  0  0  0  0  0  0  0  0  0
   12.9358    7.1265   19.2902 C   0  0  0  0  0  0  0  0  0  0  0  0
   11.9587   11.8120   18.9271 Cl  0  0  0  0  0  0  0  0  0  0  0  0
    8.5570    5.5451   20.8183 C   0  0  0  0  0  0  0  0  0  0  0  0
   13.6269    9.8153   20.7466 F   0  0  0  0  0  0  0  0  0  0  0  0
   12.1448    9.6385   20.3836 P   0  0  0  0  0  0  0  0  0  0  0  0
   12.6761    6.1597   20.2468 S   0  0  0  0  0  0  0  0  0  0  0  0
    9.2917    9.4716   21.1957 Cl  0  0  0  0  0  0  0  0  0  0  0  0
   11.9367    8.1997   22.8963 He  0  0  0  0  0  0  0  0  0  0  0  0
    9.5648    6.1775   21.7582 He  0  0  0  0  0  0  0  0  0  0  0  0
   11.2155   12.4338   17.6104 He  0  0  0  0  0  0  0  0  0  0  0  0
   13.4527    7.0085   21.4846 He  0  0  0  0  0  0  0  0  0  0  0  0
    8.4033    7.8918   19.7678 He  0  0  0  0  0  0  0  0  0  0  0  0
    9.7900    5.1945   21.7935 He  0  0  0  0  0  0  0  0  0  0  0  0
   11.3101    6.8365   20.9687 He  0  0  0  0  0  0  0  0  0  0  0  0
   10.9045   10.4680   21.1256 He  0  0  0  0  0  0  0  0  0  0  0  0
    9.1606    7.4286   22.2797 He  0  0  0  0  0  0  0  0  0  0  0  0
  1  4  2  0
  1  9  3  0
  1 12  3  0
  1 13  1  0
  1 17  1  0
  2 10  2  0
  3  5  2  0
  3  9  2  0
  3 13  4  0
  3 14  3  0
  3 17  2  0
  4  6  2  0
  4  8  2  0
  4 15  1  0
  4 17  2  0
  5  7  4  0
  5 10  1  0
  5 12  3  0
  5 14  3  0
  5 15  1  0
  6  8  3  0
  6  9  4  0
  6 12  2  0
  7 10  4  0
  7 12  4  0
  7 14  3  0
  8 10  2  0
  8 15  3  0
  9 11  2  0
  9 12  3  0
  9 15  1  0
  9 16  3  0
 10 13  3  0
 10 17  2  0
 11 16  4  0
 12 15  3  0
 13 17  4  0
 14 17  3  0
 15 16  1  0
M  END
$$$$

 Created by Python create_sdf_string function

 26 20  0  0  0  0  0  0  0  0999 V2000
   12.7014    8.4285   21.4587 C   0  0  0  0  0  0  0  0  0  0  0  0
   11.1163   11.8767   21.3064 O   0  0  0  0  0  0  0  0  0  0  0  0
    7.9873    4.4209   21.6717 C   0  0  0  0  0  0  0  0  0  0  0  0
   11.6678   11.4936   17.6017 O   0  0  0  0  0  0  0  0  0  0  0  0
   11.2161   13.3532   17.9621 O   0  0  0  0  0  0  0  0  0  0  0  0
   11.8711    7.9438   22.5125 O   0  0  0  0  0  0  0  0  0  0  0  0
    9.4334    6.0446   21.7196 C   0  0  0  0  0  0  0  0  0  0  0  0
   11.4453   12.3336   17.9022 P   0  0  0  0  0  0  0  0  0  0  0  0
    7.4931    3.8607   21.6711 C   0  0  0  0  0  0  0  0  0  0  0  0
    6.9852    5.6275   21.3697 C   0  0  0  0  0  0  0  0  0  0  0  0
   11.0970   12.7927   20.2593 O   0  0  0  0  0  0  0  0  0  0  0  0
   13.4525    7.2949   21.1052 C   0  0  0  0  0  0  0  0  0  0  0  0
    8.4540    7.8217   20.6919 C   0  0  0  0  0  0  0  0  0  0  0  0
    9.5821    4.9752   21.9886 C   0  0  0  0  0  0  0  0  0  0  0  0
   11.7124   11.3739   19.1943 O   0  0  0  0  0  0  0  0  0  0  0  0
   11.1987    6.6264   22.0044 C   0  0  0  0  0  0  0  0  0  0  0  0
   12.8091    7.1856   20.0314 C   0  0  0  0  0  0  0  0  0  0  0  0
   11.8180   11.7857   18.7601 O   0  0  0  0  0  0  0  0  0  0  0  0
    7.8755    5.9397   21.3237 C   0  0  0  0  0  0  0  0  0  0  0  0
   11.3549    6.8436   21.2387 C   0  0  0  0  0  0  0  0  0  0  0  0
   13.4802    9.6382   20.5981 O   0  0  0  0  0  0  0  0  0  0  0  0
   12.1561    9.9158   20.5553 O   0  0  0  0  0  0  0  0  0  0  0  0
   12.8664    6.1068   20.0863 O   0  0  0  0  0  0  0  0  0  0  0  0
   11.1273   11.0087   21.0534 P   0  0  0  0  0  0  0  0  0  0  0  0
    9.4999    9.4213   20.9651 C   0  0  0  0  0  0  0  0  0  0  0  0
    9.2255    6.9999   21.6209 C   0  0  0  0  0  0  0  0  0  0  0  0
  1  6  1  0
  1 12  1  0
  1 21  1  0
  2 24  2  0
  3  9  4  0
  3 14  4  0
  3 19  4  0
  4  8  1  0
  5  8  1  0
  6 16  1  0
  7 14  4  0
  7 26  4  0
  8 15  1  0
  8 18  1  0
 10 19  4  0
 12 17  1  0
 15 18  1  0
 16 20  1  0
 17 20  1  0
 17 23  1  0
M  END
$$$$

 Created by Python create_sdf_string function

 26 63  0  0  0  0  0  0  0  0999 V2000
   11.8709    8.5042   20.8773 C   0  0  0  0  0  0  0  0  0  0  0  0
    8.0117    5.4146   21.4978 F   0  0  0  0  0  0  0  0  0  0  0  0
   12.4278   11.6403   18.0618 F   0  0  0  0  0  0  0  0  0  0  0  0
   12.0462   10.8998   18.2601 O   0  0  0  0  0  0  0  0  0  0  0  0
    8.6139    5.5038   21.5680 O   0  0  0  0  0  0  0  0  0  0  0  0
   11.7598   11.5295   17.9757 P   0  0  0  0  0  0  0  0  0  0  0  0
    6.9236    3.1982   20.8668 C   0  0  0  0  0  0  0  0  0  0  0  0
   10.5351   12.7661   20.9565 O   0  0  0  0  0  0  0  0  0  0  0  0
   14.1487    6.9403   20.0423 N   0  0  0  0  0  0  0  0  0  0  0  0
    8.6249    8.1523   22.1082 C   0  0  0  0  0  0  0  0  0  0  0  0
    9.6419    4.5732   22.2183 Cl  0  0  0  0  0  0  0  0  0  0  0  0
   10.8758   12.1324   18.8059 P   0  0  0  0  0  0  0  0  0  0  0  0
   11.8691    6.2174   22.1076 Cl  0  0  0  0  0  0  0  0  0  0  0  0
   12.9899    6.3499   20.1045 C   0  0  0  0  0  0  0  0  0  0  0  0
   11.9661   11.7631   19.5876 N   0  0  0  0  0  0  0  0  0  0  0  0
    7.1887    5.8293   21.5575 C   0  0  0  0  0  0  0  0  0  0  0  0
   12.9673    8.9562   21.7673 N   0  0  0  0  0  0  0  0  0  0  0  0
   12.8790    6.2148   19.1795 O   0  0  0  0  0  0  0  0  0  0  0  0
   11.4453    9.4360   20.4986 Cl  0  0  0  0  0  0  0  0  0  0  0  0
    9.8592    9.4108   20.5994 C   0  0  0  0  0  0  0  0  0  0  0  0
    9.2498    5.9362   22.4003 O   0  0  0  0  0  0  0  0  0  0  0  0
   10.7382   10.7496   23.3842 He  0  0  0  0  0  0  0  0  0  0  0  0
   12.3276    9.4053   22.5988 He  0  0  0  0  0  0  0  0  0  0  0  0
    7.0181    5.3137   21.7942 He  0  0  0  0  0  0  0  0  0  0  0  0
   11.4810    6.5757   21.7834 He  0  0  0  0  0  0  0  0  0  0  0  0
   13.4314    9.5906   21.6477 He  0  0  0  0  0  0  0  0  0  0  0  0
  1  9  1  0
  1 11  2  0
  2  3  4  0
  2  7  4  0
  2 11  4  0
  2 15  1  0
  2 16  4  0
  2 20  1  0
  3  6  3  0
  3  7  3  0
  3  9  2  0
  3 10  2  0
  3 11  1  0
  3 13  2  0
  3 16  3  0
  3 17  2  0
  3 18  3  0
  4  5  2  0
  4  6  3  0
  4  9  4  0
  4 11  2  0
  4 16  2  0
  4 19  2  0
  5 13  1  0
  5 19  3  0
  6  9  4  0
  6 10  1  0
  6 12  2  0
  6 15  1  0
  6 18  3  0
  6 19  3  0
  7 10  4  0
  7 11  2  0
  7 12  3  0
  7 13  1  0
  7 18  1  0
  7 21  3  0
  8  9  2  0
  8 12  3  0
  8 14  3  0
  8 16  2  0
  9 10  2  0
  9 13  1  0
  9 14  3  0
  9 15  2  0
  9 18  4  0
 10 13  3  0
 10 19  3  0
 10 21  3  0
 11 13  4  0
 11 17  2  0
 11 20  1  0
 12 18  3  0
 12 21  4  0
 13 20  2  0
 14 16  4  0
 14 18  1  0
 14 20  1  0
 15 19  4  0
 16 17  3  0
 16 18  2  0
 18 19  2  0
 19 20  2  0
M  END
$$$$

 Created by Python create_sdf_string function

 26 21  0  0  0  0  0  0  0  0999 V2000
   12.2938    7.9361   21.2977 C   0  0  0  0  0  0  0  0  0  0  0  0
   11.1592   11.0964   22.6636 O   0  0  0  0  0  0  0  0  0  0  0  0
    7.9866    4.8221   21.5482 C   0  0  0  0  0  0  0  0  0  0  0  0
   13.0329   12.2320   17.9139 O   0  0  0  0  0  0  0  0  0  0  0  0
   11.7351   10.2438   17.7791 O   0  0  0  0  0  0  0  0  0  0  0  0
   12.4789    8.9593   22.4845 O   0  0  0  0  0  0  0  0  0  0  0  0
    9.1307    5.8051   21.8527 C   0  0  0  0  0  0  0  0  0  0  0  0
   11.8414   11.5933   18.4197 P   0  0  0  0  0  0  0  0  0  0  0  0
    7.1573    3.7811   21.2646 C   0  0  0  0  0  0  0  0  0  0  0  0
    6.3279    5.8740   21.8349 O   0  0  0  0  0  0  0  0  0  0  0  0
   10.3674   12.1286   21.4447 O   0  0  0  0  0  0  0  0  0  0  0  0
   13.7860    7.3842   20.4916 C   0  0  0  0  0  0  0  0  0  0  0  0
    8.7516    7.3456   21.8924 C   0  0  0  0  0  0  0  0  0  0  0  0
    9.5544    4.6344   21.7438 N   0  0  0  0  0  0  0  0  0  0  0  0
   10.6673   12.3615   18.4591 O   0  0  0  0  0  0  0  0  0  0  0  0
   11.0813    6.0149   21.9047 C   0  0  0  0  0  0  0  0  0  0  0  0
   12.6817    6.5371   20.1966 C   0  0  0  0  0  0  0  0  0  0  0  0
   12.0608   11.1713   19.9037 O   0  0  0  0  0  0  0  0  0  0  0  0
    7.1730    5.6888   21.7408 C   0  0  0  0  0  0  0  0  0  0  0  0
   11.5208    6.5272   21.3728 C   0  0  0  0  0  0  0  0  0  0  0  0
   12.4939    9.0680   21.7859 C   0  0  0  0  0  0  0  0  0  0  0  0
   13.0868    9.6688   20.9727 C   0  0  0  0  0  0  0  0  0  0  0  0
   12.7122    6.1760   19.3868 O   0  0  0  0  0  0  0  0  0  0  0  0
   11.3766   10.4493   21.1483 P   0  0  0  0  0  0  0  0  0  0  0  0
   10.0125    9.7401   20.9987 O   0  0  0  0  0  0  0  0  0  0  0  0
    9.4198    6.3264   22.0338 C   0  0  0  0  0  0  0  0  0  0  0  0
  1  6  1  0
  1 12  1  0
  1 20  1  0
  1 21  1  0
  3 14  4  0
  3 19  4  0
  4  8  1  0
  5  8  1  0
  6 21  1  0
  7 26  4  0
  8 15  2  0
  8 18  1  0
 10 19  2  0
 13 26  4  0
 14 16  4  0
 16 20  4  0
 17 20  1  0
 17 23  1  0
 18 24  1  0
 21 22  1  0
 22 24  1  0
M  END
$$$$

 Created by Python create_sdf_string function

 26 26  0  0  0  0  0  0  0  0999 V2000
   11.8767    7.5190   21.7404 O   0  0  0  0  0  0  0  0  0  0  0  0
    7.5059    5.2006   20.5816 C   0  0  0  0  0  0  0  0  0  0  0  0
   12.3596   10.4538   17.6764 O   0  0  0  0  0  0  0  0  0  0  0  0
   12.4874   10.8965   17.3735 O   0  0  0  0  0  0  0  0  0  0  0  0
   13.0852    8.2325   22.8965 O   0  0  0  0  0  0  0  0  0  0  0  0
    8.2183    5.4819   22.5793 C   0  0  0  0  0  0  0  0  0  0  0  0
    6.5988    7.1929   21.8879 O   0  0  0  0  0  0  0  0  0  0  0  0
    8.8618    8.1662   22.9863 I   0  0  0  0  0  0  0  0  0  0  0  0
    9.1309    3.8807   21.8944 N   0  0  0  0  0  0  0  0  0  0  0  0
   10.0729   13.4931   17.7928 O   0  0  0  0  0  0  0  0  0  0  0  0
   11.6446    6.8170   21.7468 B   0  0  0  0  0  0  0  0  0  0  0  0
   11.3016   11.6590   20.0558 O   0  0  0  0  0  0  0  0  0  0  0  0
   10.8783    6.3683   22.9195 F   0  0  0  0  0  0  0  0  0  0  0  0
   13.1534    8.3114   23.0944 C   0  0  0  0  0  0  0  0  0  0  0  0
    9.4868    5.7320   22.9455 C   0  0  0  0  0  0  0  0  0  0  0  0
   11.3015   10.7780   21.8899 He  0  0  0  0  0  0  0  0  0  0  0  0
   12.8828   11.4826   18.8424 He  0  0  0  0  0  0  0  0  0  0  0  0
    7.0505    3.9692   21.0411 He  0  0  0  0  0  0  0  0  0  0  0  0
   10.2231   12.1249   21.5928 He  0  0  0  0  0  0  0  0  0  0  0  0
   13.9216    6.5444   20.6255 He  0  0  0  0  0  0  0  0  0  0  0  0
   13.2900    5.9001   18.9431 He  0  0  0  0  0  0  0  0  0  0  0  0
    7.3786    5.2432   23.8070 He  0  0  0  0  0  0  0  0  0  0  0  0
   13.5462    8.5872   19.8478 He  0  0  0  0  0  0  0  0  0  0  0  0
   11.2575    5.7561   19.2564 He  0  0  0  0  0  0  0  0  0  0  0  0
   12.0953   10.1214   20.4524 He  0  0  0  0  0  0  0  0  0  0  0  0
    8.9991    8.3370   22.0240 He  0  0  0  0  0  0  0  0  0  0  0  0
  1  2  3  0
  1  3  2  0
  1  5  2  0
  1  8  2  0
  1  9  1  0
  1 12  2  0
  2  8  2  0
  2 10  3  0
  2 11  3  0
  3  4  2  0
  3  5  3  0
  3 12  1  0
  4 11  3  0
  4 12  1  0
  5 12  3  0
  6  7  3  0
  6  8  4  0
  6 10  1  0
  6 11  2  0
  6 15  4  0
  7 12  1  0
  8 10  1  0
 10 12  1  0
 11 13  4  0
 11 15  4  0
 12 14  2  0
M  END
$$$$

 Created by Python create_sdf_string function

 26 20  0  0  0  0  0  0  0  0999 V2000
   12.3970    7.7914   21.1960 C   0  0  0  0  0  0  0  0  0  0  0  0
   11.4670   10.7061   21.2824 O   0  0  0  0  0  0  0  0  0  0  0  0
    7.6025    4.5927   21.7012 C   0  0  0  0  0  0  0  0  0  0  0  0
   12.3349   10.5823   18.2773 O   0  0  0  0  0  0  0  0  0  0  0  0
   12.4076   10.9465   17.7891 O   0  0  0  0  0  0  0  0  0  0  0  0
   12.9885    8.2578   22.5712 O   0  0  0  0  0  0  0  0  0  0  0  0
    8.4821    6.3167   22.6104 C   0  0  0  0  0  0  0  0  0  0  0  0
   12.2227   11.2480   18.8768 O   0  0  0  0  0  0  0  0  0  0  0  0
    7.4883    4.3286   21.5956 N   0  0  0  0  0  0  0  0  0  0  0  0
    6.0513    6.7779   22.4863 O   0  0  0  0  0  0  0  0  0  0  0  0
   10.4555   11.9591   20.8493 O   0  0  0  0  0  0  0  0  0  0  0  0
   13.8297    6.6112   20.5816 O   0  0  0  0  0  0  0  0  0  0  0  0
    8.6497    7.7032   22.8663 N   0  0  0  0  0  0  0  0  0  0  0  0
    9.0529    4.4438   21.4597 N   0  0  0  0  0  0  0  0  0  0  0  0
   10.7268   12.6976   18.3955 O   0  0  0  0  0  0  0  0  0  0  0  0
   11.1884    6.7620   21.8556 N   0  0  0  0  0  0  0  0  0  0  0  0
   13.0251    6.5123   19.4926 C   0  0  0  0  0  0  0  0  0  0  0  0
   11.1748   11.6226   19.6378 P   0  0  0  0  0  0  0  0  0  0  0  0
    7.2973    5.9494   22.4870 C   0  0  0  0  0  0  0  0  0  0  0  0
   10.7439    6.8259   22.1937 N   0  0  0  0  0  0  0  0  0  0  0  0
   13.1358    8.4992   22.5645 C   0  0  0  0  0  0  0  0  0  0  0  0
   13.0495    8.4172   19.9484 C   0  0  0  0  0  0  0  0  0  0  0  0
   12.0178    6.0817   19.7374 C   0  0  0  0  0  0  0  0  0  0  0  0
   12.3038    9.7375   20.7684 O   0  0  0  0  0  0  0  0  0  0  0  0
    9.8822    8.0165   22.5546 C   0  0  0  0  0  0  0  0  0  0  0  0
    9.6837    5.9526   22.1809 C   0  0  0  0  0  0  0  0  0  0  0  0
  1 22  1  0
  2 24  1  0
  3  9  4  0
  3 14  4  0
  4  5  2  0
  4  8  1  0
  5  8  1  0
  6 21  1  0
  7 13  4  0
  7 19  4  0
  7 26  4  0
 10 19  2  0
 11 18  1  0
 12 17  1  0
 13 25  4  0
 15 18  1  0
 16 20  4  0
 17 23  1  0
 20 25  4  0
 20 26  4  0
M  END
$$$$

 Created by Python create_sdf_string function

 26 46  0  0  0  0  0  0  0  0999 V2000
   13.4006    7.3930   20.4246 C   0  0  0  0  0  0  0  0  0  0  0  0
    7.3880    4.6463   22.2949 C   0  0  0  0  0  0  0  0  0  0  0  0
   12.6699   11.0653   17.9440 O   0  0  0  0  0  0  0  0  0  0  0  0
   13.1444   11.3976   17.2825 O   0  0  0  0  0  0  0  0  0  0  0  0
   13.1138    8.1613   23.2914 O   0  0  0  0  0  0  0  0  0  0  0  0
    8.5848    6.2384   21.9291 C   0  0  0  0  0  0  0  0  0  0  0  0
    4.7889    7.5294   22.3581 N   0  0  0  0  0  0  0  0  0  0  0  0
   14.3034    6.5102   19.9409 P   0  0  0  0  0  0  0  0  0  0  0  0
    8.9407    8.1141   23.7287 N   0  0  0  0  0  0  0  0  0  0  0  0
   10.0342    5.4281   21.3923 N   0  0  0  0  0  0  0  0  0  0  0  0
   10.7322   12.5342   18.6793 O   0  0  0  0  0  0  0  0  0  0  0  0
   11.6047   11.5510   19.1616 P   0  0  0  0  0  0  0  0  0  0  0  0
   11.2762    7.4241   22.0636 N   0  0  0  0  0  0  0  0  0  0  0  0
   13.7970    8.5405   18.9241 S   0  0  0  0  0  0  0  0  0  0  0  0
   11.8878    8.8541   20.9002 N   0  0  0  0  0  0  0  0  0  0  0  0
    9.1522    8.1130   22.1715 O   0  0  0  0  0  0  0  0  0  0  0  0
   11.1814   10.9997   21.2171 He  0  0  0  0  0  0  0  0  0  0  0  0
   12.5182   11.0042   18.4288 He  0  0  0  0  0  0  0  0  0  0  0  0
    7.9082    4.3589   21.7111 He  0  0  0  0  0  0  0  0  0  0  0  0
   11.7005   11.9963   19.9014 He  0  0  0  0  0  0  0  0  0  0  0  0
   10.6791    7.4990   22.0491 He  0  0  0  0  0  0  0  0  0  0  0  0
   12.9180    6.2250   19.1242 He  0  0  0  0  0  0  0  0  0  0  0  0
    6.7857    6.7070   22.3950 He  0  0  0  0  0  0  0  0  0  0  0  0
   12.8486    8.6942   22.2605 He  0  0  0  0  0  0  0  0  0  0  0  0
   11.4694    6.5385   19.4566 He  0  0  0  0  0  0  0  0  0  0  0  0
   10.4044    5.3637   21.9770 He  0  0  0  0  0  0  0  0  0  0  0  0
  1  4  4  0
  1  5  4  0
  1  8  1  0
  1 11  3  0
  1 14  2  0
  1 16  2  0
  2  4  4  0
  2  5  1  0
  2  8  2  0
  2 10  4  0
  2 11  4  0
  3  4  2  0
  3  7  1  0
  3  9  1  0
  3 12  3  0
  3 14  3  0
  3 15  4  0
  4  5  2  0
  4  6  1  0
  4  7  1  0
  4  8  2  0
  4  9  4  0
  4 12  1  0
  4 13  3  0
  4 14  3  0
  5  7  2  0
  5 10  2  0
  5 12  4  0
  5 13  2  0
  6  9  4  0
  6 12  1  0
  6 15  3  0
  7 10  2  0
  7 12  1  0
  7 14  3  0
  8 10  2  0
  8 13  4  0
  8 14  3  0
  8 15  2  0
 10 13  2  0
 10 15  4  0
 11 12  1  0
 11 13  1  0
 12 15  2  0
 13 16  3  0
 14 16  2  0
M  END
$$$$

 Created by Python create_sdf_string function

 26 24  0  0  0  0  0  0  0  0999 V2000
   13.5445    7.4338   20.5745 C   0  0  0  0  0  0  0  0  0  0  0  0
   11.7777   10.3564   21.1629 C   0  0  0  0  0  0  0  0  0  0  0  0
    7.7395    4.6633   21.9178 C   0  0  0  0  0  0  0  0  0  0  0  0
   12.3450   11.1204   17.6353 O   0  0  0  0  0  0  0  0  0  0  0  0
   12.7757   11.3575   18.0773 O   0  0  0  0  0  0  0  0  0  0  0  0
   13.2162    8.0063   22.6639 O   0  0  0  0  0  0  0  0  0  0  0  0
    8.2820    6.6111   22.4681 C   0  0  0  0  0  0  0  0  0  0  0  0
   12.7941   10.4618   18.6182 O   0  0  0  0  0  0  0  0  0  0  0  0
    7.4404    4.8345   21.9888 N   0  0  0  0  0  0  0  0  0  0  0  0
    5.6552    6.6872   22.7656 N   0  0  0  0  0  0  0  0  0  0  0  0
   11.7484   11.7024   20.1243 O   0  0  0  0  0  0  0  0  0  0  0  0
   14.2630    6.8609   20.3018 O   0  0  0  0  0  0  0  0  0  0  0  0
    8.2507    7.8558   22.7636 N   0  0  0  0  0  0  0  0  0  0  0  0
    9.4365    4.9611   21.6163 N   0  0  0  0  0  0  0  0  0  0  0  0
   10.8625   12.5200   18.4629 O   0  0  0  0  0  0  0  0  0  0  0  0
   10.3192    7.5927   22.1651 C   0  0  0  0  0  0  0  0  0  0  0  0
   12.6063    6.7392   19.4563 C   0  0  0  0  0  0  0  0  0  0  0  0
   11.7361   11.7549   18.8970 P   0  0  0  0  0  0  0  0  0  0  0  0
    6.8246    6.2464   22.4969 C   0  0  0  0  0  0  0  0  0  0  0  0
   10.9169    7.2201   21.7874 N   0  0  0  0  0  0  0  0  0  0  0  0
   12.7716    8.3492   21.9080 C   0  0  0  0  0  0  0  0  0  0  0  0
   13.3655    8.5337   18.9787 C   0  0  0  0  0  0  0  0  0  0  0  0
   12.0232    6.8123   19.8242 O   0  0  0  0  0  0  0  0  0  0  0  0
   12.1359    8.8639   20.9280 C   0  0  0  0  0  0  0  0  0  0  0  0
    9.4453    8.3997   22.3235 C   0  0  0  0  0  0  0  0  0  0  0  0
    9.4968    6.0113   21.9539 C   0  0  0  0  0  0  0  0  0  0  0  0
  1 12  1  0
  1 21  1  0
  2 11  1  0
  2 24  1  0
  3  9  4  0
  3 14  4  0
  5  8  1  0
  5 18  1  0
  6 21  1  0
  7 13  4  0
  7 19  4  0
  7 26  4  0
  8 22  1  0
  9 19  4  0
 10 19  1  0
 11 18  1  0
 13 25  4  0
 14 26  4  0
 15 18  1  0
 16 20  4  0
 16 25  4  0
 17 23  1  0
 20 26  4  0
 21 24  1  0
M  END
$$$$

 Created by Python create_sdf_string function

 26 42  0  0  0  0  0  0  0  0999 V2000
    9.8186   10.0230   20.5847 N   0  0  0  0  0  0  0  0  0  0  0  0
   14.0605    7.9354   21.7296 F   0  0  0  0  0  0  0  0  0  0  0  0
    8.3620    6.5283   22.7877 Cl  0  0  0  0  0  0  0  0  0  0  0  0
   13.2485    8.4553   17.8427 N   0  0  0  0  0  0  0  0  0  0  0  0
    6.1447    5.7399   21.3614 N   0  0  0  0  0  0  0  0  0  0  0  0
   12.5200   12.2968   20.6094 O   0  0  0  0  0  0  0  0  0  0  0  0
   14.7249    6.4304   21.8232 O   0  0  0  0  0  0  0  0  0  0  0  0
    7.8192    7.3273   23.5114 N   0  0  0  0  0  0  0  0  0  0  0  0
   10.1070    4.1402   21.0477 N   0  0  0  0  0  0  0  0  0  0  0  0
   10.9059    7.4118   22.1642 C   0  0  0  0  0  0  0  0  0  0  0  0
   11.6123   11.9913   17.9091 N   0  0  0  0  0  0  0  0  0  0  0  0
    7.2933    6.5639   22.5933 C   0  0  0  0  0  0  0  0  0  0  0  0
   10.1110    7.4316   22.5565 N   0  0  0  0  0  0  0  0  0  0  0  0
   12.2810    7.6013   22.3006 O   0  0  0  0  0  0  0  0  0  0  0  0
   11.4324    8.5564   20.4386 C   0  0  0  0  0  0  0  0  0  0  0  0
    9.4965    9.2763   22.1419 C   0  0  0  0  0  0  0  0  0  0  0  0
   13.3742    8.4595   21.3913 He  0  0  0  0  0  0  0  0  0  0  0  0
    7.0852    5.1261   22.2073 He  0  0  0  0  0  0  0  0  0  0  0  0
   13.0772   12.4474   16.8108 He  0  0  0  0  0  0  0  0  0  0  0  0
   12.8720   10.5086   16.9425 He  0  0  0  0  0  0  0  0  0  0  0  0
    7.4090    6.0915   21.9727 He  0  0  0  0  0  0  0  0  0  0  0  0
   10.2828   13.2560   18.7594 He  0  0  0  0  0  0  0  0  0  0  0  0
   12.6472    7.4819   19.4888 He  0  0  0  0  0  0  0  0  0  0  0  0
   12.9942    8.2674   19.1683 He  0  0  0  0  0  0  0  0  0  0  0  0
   13.0506    5.8964   19.2768 He  0  0  0  0  0  0  0  0  0  0  0  0
    9.9745    7.3423   22.4836 He  0  0  0  0  0  0  0  0  0  0  0  0
  1  3  4  0
  1  4  4  0
  1  6  1  0
  1  9  1  0
  1 10  4  0
  1 12  1  0
  1 13  2  0
  1 14  4  0
  1 15  1  0
  2  4  4  0
  2 16  1  0
  3  6  3  0
  3 10  4  0
  3 11  1  0
  3 12  4  0
  3 14  2  0
  3 15  1  0
  4  8  4  0
  4 10  2  0
  5  6  2  0
  5 13  4  0
  5 14  3  0
  5 15  3  0
  6  9  3  0
  6 12  3  0
  6 13  3  0
  6 16  1  0
  7 11  2  0
  8  9  4  0
  9 10  1  0
 10 11  3  0
 10 12  3  0
 10 13  4  0
 10 14  4  0
 10 15  2  0
 11 12  3  0
 11 14  3  0
 11 16  4  0
 12 14  2  0
 12 16  2  0
 13 14  4  0
 14 15  1  0
M  END
$$$$

 Created by Python create_sdf_string function

 26 21  0  0  0  0  0  0  0  0999 V2000
   13.2878    8.1335   21.2155 C   0  0  0  0  0  0  0  0  0  0  0  0
   10.9503    9.7776   20.1421 O   0  0  0  0  0  0  0  0  0  0  0  0
    7.9852    4.7171   21.6295 N   0  0  0  0  0  0  0  0  0  0  0  0
   12.7387   12.3884   17.2807 O   0  0  0  0  0  0  0  0  0  0  0  0
   12.3840   10.4317   17.9151 O   0  0  0  0  0  0  0  0  0  0  0  0
   13.9540    7.3486   21.1010 C   0  0  0  0  0  0  0  0  0  0  0  0
    8.2429    6.8140   22.5850 C   0  0  0  0  0  0  0  0  0  0  0  0
   12.9310    8.7773   18.3439 C   0  0  0  0  0  0  0  0  0  0  0  0
    8.0932    5.4865   22.0277 N   0  0  0  0  0  0  0  0  0  0  0  0
    6.0282    5.9411   22.2327 N   0  0  0  0  0  0  0  0  0  0  0  0
   12.3643   12.0141   19.7357 O   0  0  0  0  0  0  0  0  0  0  0  0
   14.5284    6.5768   21.5523 O   0  0  0  0  0  0  0  0  0  0  0  0
    7.6372    7.7795   22.8029 N   0  0  0  0  0  0  0  0  0  0  0  0
    9.1208    4.7280   21.5988 N   0  0  0  0  0  0  0  0  0  0  0  0
   10.6892   12.6066   18.3412 O   0  0  0  0  0  0  0  0  0  0  0  0
   10.5784    7.2583   22.2355 C   0  0  0  0  0  0  0  0  0  0  0  0
   13.0049    7.5129   19.4449 C   0  0  0  0  0  0  0  0  0  0  0  0
   11.8586   11.9097   18.3262 P   0  0  0  0  0  0  0  0  0  0  0  0
    7.0210    6.3790   22.4054 C   0  0  0  0  0  0  0  0  0  0  0  0
   10.2952    7.2403   22.2213 N   0  0  0  0  0  0  0  0  0  0  0  0
   12.3511    7.6994   21.9730 O   0  0  0  0  0  0  0  0  0  0  0  0
   12.9692    8.3708   19.0469 C   0  0  0  0  0  0  0  0  0  0  0  0
   13.3567    6.2466   19.2761 O   0  0  0  0  0  0  0  0  0  0  0  0
   11.8552    8.9045   20.4873 C   0  0  0  0  0  0  0  0  0  0  0  0
    9.2693    8.7313   22.3227 C   0  0  0  0  0  0  0  0  0  0  0  0
    9.8393    7.2479   22.3106 C   0  0  0  0  0  0  0  0  0  0  0  0
  1  6  1  0
  1 21  1  0
  2 24  1  0
  3 14  4  0
  4 18  1  0
  5 18  1  0
  6 12  1  0
  7 13  4  0
  7 19  4  0
  8 17  1  0
  8 22  1  0
  9 14  4  0
 10 19  1  0
 11 18  1  0
 13 19  4  0
 13 25  4  0
 15 18  1  0
 16 20  4  0
 17 22  1  0
 17 23  1  0
 20 26  4  0
M  END
$$$$

 Created by Python create_sdf_string function

 26 17  0  0  0  0  0  0  0  0999 V2000
   14.2911    7.8862   20.3550 P   0  0  0  0  0  0  0  0  0  0  0  0
   11.2244    8.6541   20.0477 O   0  0  0  0  0  0  0  0  0  0  0  0
   12.9481    8.3766   18.3849 N   0  0  0  0  0  0  0  0  0  0  0  0
   14.7989    6.2430   21.3866 F   0  0  0  0  0  0  0  0  0  0  0  0
    7.3501    7.6839   22.8808 S   0  0  0  0  0  0  0  0  0  0  0  0
   10.8116   10.9627   18.5689 O   0  0  0  0  0  0  0  0  0  0  0  0
   13.1573    6.0250   20.0892 P   0  0  0  0  0  0  0  0  0  0  0  0
   13.1990   11.4486   18.9967 P   0  0  0  0  0  0  0  0  0  0  0  0
    7.0331    6.3561   21.1329 C   0  0  0  0  0  0  0  0  0  0  0  0
   10.9003    7.6173   22.1734 N   0  0  0  0  0  0  0  0  0  0  0  0
   12.7725    8.3022   22.4028 C   0  0  0  0  0  0  0  0  0  0  0  0
   11.7970    8.2171   22.2128 C   0  0  0  0  0  0  0  0  0  0  0  0
    9.7263    7.4926   22.2011 C   0  0  0  0  0  0  0  0  0  0  0  0
    7.8129    4.2974   20.6269 He  0  0  0  0  0  0  0  0  0  0  0  0
   12.4405   12.9965   18.0729 He  0  0  0  0  0  0  0  0  0  0  0  0
   11.5857   10.2607   17.6572 He  0  0  0  0  0  0  0  0  0  0  0  0
   13.7081    7.1259   21.1462 He  0  0  0  0  0  0  0  0  0  0  0  0
    7.9650    6.9162   22.8226 He  0  0  0  0  0  0  0  0  0  0  0  0
    9.5017    4.6941   23.1401 He  0  0  0  0  0  0  0  0  0  0  0  0
    5.8806    5.9495   22.9877 He  0  0  0  0  0  0  0  0  0  0  0  0
   13.1145   11.4753   19.2854 He  0  0  0  0  0  0  0  0  0  0  0  0
    8.7677    4.7968   21.5426 He  0  0  0  0  0  0  0  0  0  0  0  0
    8.9056    8.5840   23.0257 He  0  0  0  0  0  0  0  0  0  0  0  0
   12.2869    8.1096   18.3673 He  0  0  0  0  0  0  0  0  0  0  0  0
   14.2574    6.5470   18.8966 He  0  0  0  0  0  0  0  0  0  0  0  0
    7.8726    8.2912   22.7357 He  0  0  0  0  0  0  0  0  0  0  0  0
  1  3  4  0
  1  4  2  0
  1  8  2  0
  1 11  1  0
  1 13  3  0
  2  8  3  0
  3  7  1  0
  3  9  3  0
  3 12  1  0
  4  7  4  0
  4  8  1  0
  5  9  3  0
  6 11  2  0
  8 11  1  0
  8 13  3  0
  9 12  4  0
 10 11  4  0
M  END
$$$$

 Created by Python create_sdf_string function

 26 17  0  0  0  0  0  0  0  0999 V2000
   13.6658    8.0578   20.8938 C   0  0  0  0  0  0  0  0  0  0  0  0
   11.4271    8.4991   20.5215 O   0  0  0  0  0  0  0  0  0  0  0  0
    7.9358    4.5227   21.4545 N   0  0  0  0  0  0  0  0  0  0  0  0
   12.3909   12.5649   18.1273 O   0  0  0  0  0  0  0  0  0  0  0  0
   12.0216   10.4272   17.5313 O   0  0  0  0  0  0  0  0  0  0  0  0
   13.7510    6.9467   21.1337 C   0  0  0  0  0  0  0  0  0  0  0  0
    7.7781    6.9608   22.4980 C   0  0  0  0  0  0  0  0  0  0  0  0
   12.8068    8.5288   18.9542 C   0  0  0  0  0  0  0  0  0  0  0  0
    9.7402    5.4674   22.1396 N   0  0  0  0  0  0  0  0  0  0  0  0
    5.7943    6.0330   22.3503 N   0  0  0  0  0  0  0  0  0  0  0  0
   12.9674   11.3884   18.9402 O   0  0  0  0  0  0  0  0  0  0  0  0
   14.6176    6.3325   21.3894 O   0  0  0  0  0  0  0  0  0  0  0  0
    7.3318    7.5668   22.7595 C   0  0  0  0  0  0  0  0  0  0  0  0
    8.7017    5.0676   21.7495 N   0  0  0  0  0  0  0  0  0  0  0  0
   10.8758   11.1248   18.8164 O   0  0  0  0  0  0  0  0  0  0  0  0
    9.0583    8.4515   22.8574 N   0  0  0  0  0  0  0  0  0  0  0  0
   13.2703    6.6032   19.5515 C   0  0  0  0  0  0  0  0  0  0  0  0
   12.7897   11.2630   18.7399 P   0  0  0  0  0  0  0  0  0  0  0  0
    7.0072    5.9461   22.0521 C   0  0  0  0  0  0  0  0  0  0  0  0
   10.6187    7.1528   22.0835 N   0  0  0  0  0  0  0  0  0  0  0  0
   12.9693    8.1067   22.1594 C   0  0  0  0  0  0  0  0  0  0  0  0
   12.8841    8.0569   18.9495 C   0  0  0  0  0  0  0  0  0  0  0  0
   14.1147    6.4210   18.8084 O   0  0  0  0  0  0  0  0  0  0  0  0
   11.6316    8.1418   21.9835 C   0  0  0  0  0  0  0  0  0  0  0  0
    7.8480    7.9351   22.8085 C   0  0  0  0  0  0  0  0  0  0  0  0
   10.0042    7.5647   22.3478 C   0  0  0  0  0  0  0  0  0  0  0  0
  1  6  1  0
  1 21  1  0
  2 24  1  0
  3 14  4  0
  5 18  1  0
  6 12  1  0
  6 17  1  0
  7 13  4  0
  7 19  4  0
  8 22  1  0
  9 14  4  0
 11 18  2  0
 16 26  4  0
 17 22  1  0
 17 23  1  0
 20 26  4  0
 21 24  1  0
M  END
$$$$

 Created by Python create_sdf_string function

 26 35  0  0  0  0  0  0  0  0999 V2000
   13.2754    9.3079   21.0022 C   0  0  0  0  0  0  0  0  0  0  0  0
   10.0841    8.3417   19.6700 C   0  0  0  0  0  0  0  0  0  0  0  0
   12.0640   12.3239   18.8948 C   0  0  0  0  0  0  0  0  0  0  0  0
    8.7305    8.0703   22.8579 B   0  0  0  0  0  0  0  0  0  0  0  0
   13.5121   10.4900   19.1331 F   0  0  0  0  0  0  0  0  0  0  0  0
   10.4628    4.8151   22.2682 C   0  0  0  0  0  0  0  0  0  0  0  0
   14.1668    5.5735   21.4027 C   0  0  0  0  0  0  0  0  0  0  0  0
    8.4628    3.5190   21.5668 F   0  0  0  0  0  0  0  0  0  0  0  0
    9.5213    8.5525   22.9800 Cl  0  0  0  0  0  0  0  0  0  0  0  0
   12.9700    7.3724   19.0091 C   0  0  0  0  0  0  0  0  0  0  0  0
   12.0853    9.7268   18.3922 N   0  0  0  0  0  0  0  0  0  0  0  0
    5.6156    6.4555   21.3431 N   0  0  0  0  0  0  0  0  0  0  0  0
    9.4441    5.6864   22.7974 N   0  0  0  0  0  0  0  0  0  0  0  0
   12.7474    7.5671   22.0501 C   0  0  0  0  0  0  0  0  0  0  0  0
   13.1891    9.5385   20.0625 N   0  0  0  0  0  0  0  0  0  0  0  0
   10.0469    7.5318   22.1661 Cl  0  0  0  0  0  0  0  0  0  0  0  0
    8.2818    5.1168   20.6037 He  0  0  0  0  0  0  0  0  0  0  0  0
   12.1873   10.9805   17.9143 He  0  0  0  0  0  0  0  0  0  0  0  0
   14.1036    5.5069   21.7366 He  0  0  0  0  0  0  0  0  0  0  0  0
    5.5483    6.2954   21.6690 He  0  0  0  0  0  0  0  0  0  0  0  0
   12.6616   11.1086   18.8335 He  0  0  0  0  0  0  0  0  0  0  0  0
    6.2969    8.0125   21.9905 He  0  0  0  0  0  0  0  0  0  0  0  0
   11.3951   10.2823   18.6174 He  0  0  0  0  0  0  0  0  0  0  0  0
   15.0088    7.0592   18.8219 He  0  0  0  0  0  0  0  0  0  0  0  0
   10.6912    9.1705   21.3036 He  0  0  0  0  0  0  0  0  0  0  0  0
    9.5659    9.6951   22.5031 He  0  0  0  0  0  0  0  0  0  0  0  0
  1  4  4  0
  1  5  1  0
  1 13  1  0
  1 14  3  0
  2  5  4  0
  2  6  3  0
  2 15  4  0
  3  4  1  0
  3 10  3  0
  3 12  2  0
  3 16  4  0
  4 11  2  0
  4 12  4  0
  4 13  4  0
  4 14  1  0
  5  7  2  0
  5 13  4  0
  5 16  3  0
  6  8  3  0
  6  9  3  0
  6 14  1  0
  7 10  1  0
  7 13  2  0
  8  9  1  0
  8 14  3  0
  9 16  4  0
 10 13  2  0
 10 14  3  0
 10 15  1  0
 11 15  1  0
 12 13  3  0
 12 14  2  0
 13 16  4  0
 14 16  4  0
 15 16  1  0
M  END
$$$$

 Created by Python create_sdf_string function

 26 17  0  0  0  0  0  0  0  0999 V2000
   13.2536    9.0515   20.7503 C   0  0  0  0  0  0  0  0  0  0  0  0
   10.4737    8.7218   19.8175 C   0  0  0  0  0  0  0  0  0  0  0  0
    7.9286    5.2796   21.5354 C   0  0  0  0  0  0  0  0  0  0  0  0
   12.0982   12.1688   18.5511 C   0  0  0  0  0  0  0  0  0  0  0  0
   12.0225   11.1098   17.8992 C   0  0  0  0  0  0  0  0  0  0  0  0
   13.7294    5.9019   21.1897 C   0  0  0  0  0  0  0  0  0  0  0  0
    8.1700    7.5267   22.4086 C   0  0  0  0  0  0  0  0  0  0  0  0
   13.5472   10.3812   19.3674 C   0  0  0  0  0  0  0  0  0  0  0  0
   10.7564    5.5342   22.0868 C   0  0  0  0  0  0  0  0  0  0  0  0
    6.3151    6.0552   21.6175 C   0  0  0  0  0  0  0  0  0  0  0  0
   13.0147   11.1256   18.9506 C   0  0  0  0  0  0  0  0  0  0  0  0
   13.9225    6.0084   20.8051 C   0  0  0  0  0  0  0  0  0  0  0  0
    6.9198    7.5690   22.0860 C   0  0  0  0  0  0  0  0  0  0  0  0
    8.4210    4.4438   21.5988 C   0  0  0  0  0  0  0  0  0  0  0  0
   11.2393   10.3067   18.8532 C   0  0  0  0  0  0  0  0  0  0  0  0
    9.5758    8.3438   22.4459 C   0  0  0  0  0  0  0  0  0  0  0  0
   13.5902    7.3562   19.7668 C   0  0  0  0  0  0  0  0  0  0  0  0
   12.3400    9.7915   18.7042 C   0  0  0  0  0  0  0  0  0  0  0  0
    6.4628    6.5737   21.7959 N   0  0  0  0  0  0  0  0  0  0  0  0
    9.2311    6.4038   22.3242 C   0  0  0  0  0  0  0  0  0  0  0  0
   12.1994    7.4127   21.7168 C   0  0  0  0  0  0  0  0  0  0  0  0
   12.9105    8.6561   19.8170 N   0  0  0  0  0  0  0  0  0  0  0  0
   14.5550    6.9463   19.1095 O   0  0  0  0  0  0  0  0  0  0  0  0
   10.8857    8.9366   20.9216 C   0  0  0  0  0  0  0  0  0  0  0  0
    9.6392    9.2873   22.4635 C   0  0  0  0  0  0  0  0  0  0  0  0
    9.9924    7.4182   22.2490 C   0  0  0  0  0  0  0  0  0  0  0  0
  1 22  1  0
  2 24  1  0
  3 14  4  0
  4  5  1  0
  5 18  1  0
  6 12  1  0
  7 13  4  0
  7 20  4  0
  8 11  1  0
 10 19  4  0
 12 17  1  0
 16 25  4  0
 16 26  4  0
 17 22  1  0
 17 23  1  0
 18 22  1  0
 20 26  4  0
M  END
$$$$

 Created by Python create_sdf_string function

 26 32  0  0  0  0  0  0  0  0999 V2000
   13.9835    7.9695   20.6298 C   0  0  0  0  0  0  0  0  0  0  0  0
   10.7114    8.6667   19.2066 C   0  0  0  0  0  0  0  0  0  0  0  0
   12.3027   12.5335   19.3087 C   0  0  0  0  0  0  0  0  0  0  0  0
   12.8198    5.2383   20.4443 C   0  0  0  0  0  0  0  0  0  0  0  0
    8.7325    6.8830   22.8005 P   0  0  0  0  0  0  0  0  0  0  0  0
   13.1763   10.1072   19.2769 S   0  0  0  0  0  0  0  0  0  0  0  0
   10.6488    6.7806   22.0889 F   0  0  0  0  0  0  0  0  0  0  0  0
   13.6836    5.5634   20.0546 C   0  0  0  0  0  0  0  0  0  0  0  0
    7.4804    6.1962   22.0451 N   0  0  0  0  0  0  0  0  0  0  0  0
    9.7908    7.8118   22.7905 C   0  0  0  0  0  0  0  0  0  0  0  0
   16.0539    7.3564   18.7969 C   0  0  0  0  0  0  0  0  0  0  0  0
    9.5587    5.4365   22.3910 C   0  0  0  0  0  0  0  0  0  0  0  0
   11.0196    7.3379   21.4402 C   0  0  0  0  0  0  0  0  0  0  0  0
   14.0051    7.7179   19.4042 F   0  0  0  0  0  0  0  0  0  0  0  0
    9.7900    9.8176   22.3810 O   0  0  0  0  0  0  0  0  0  0  0  0
    9.4777    7.0772   22.4670 S   0  0  0  0  0  0  0  0  0  0  0  0
    7.9656    5.4092   21.5096 He  0  0  0  0  0  0  0  0  0  0  0  0
   11.9058   10.5763   18.8752 He  0  0  0  0  0  0  0  0  0  0  0  0
    5.5139    7.3078   21.5197 He  0  0  0  0  0  0  0  0  0  0  0  0
   12.9877   11.1900   19.0208 He  0  0  0  0  0  0  0  0  0  0  0  0
    6.8926    2.9408   21.9420 He  0  0  0  0  0  0  0  0  0  0  0  0
   11.1734   10.0133   19.4823 He  0  0  0  0  0  0  0  0  0  0  0  0
   12.7842   10.2767   18.8307 He  0  0  0  0  0  0  0  0  0  0  0  0
    6.3453    7.0338   20.9406 He  0  0  0  0  0  0  0  0  0  0  0  0
   15.3700    6.4885   19.4251 He  0  0  0  0  0  0  0  0  0  0  0  0
   11.5355    9.8502   21.7254 He  0  0  0  0  0  0  0  0  0  0  0  0
  1  2  2  0
  1 10  2  0
  1 14  1  0
  2  7  4  0
  2  9  2  0
  2 11  1  0
  2 15  4  0
  3  7  2  0
  3 13  2  0
  3 14  2  0
  3 16  3  0
  4  5  3  0
  4  6  1  0
  4  8  4  0
  4  9  3  0
  4 11  2  0
  5  9  4  0
  5 12  4  0
  5 13  2  0
  6 11  2  0
  6 12  3  0
  6 15  1  0
  7 15  1  0
  7 16  4  0
  8 11  1  0
  9 10  1  0
  9 13  3  0
 10 15  3  0
 10 16  1  0
 12 15  1  0
 12 16  4  0
 14 15  4  0
M  END
$$$$

 Created by Python create_sdf_string function

 26 22  0  0  0  0  0  0  0  0999 V2000
   13.3556    7.7213   20.0635 C   0  0  0  0  0  0  0  0  0  0  0  0
   11.1767    8.6246   20.0546 C   0  0  0  0  0  0  0  0  0  0  0  0
    7.4175    5.3473   21.9420 C   0  0  0  0  0  0  0  0  0  0  0  0
   12.2194   12.2592   19.0956 C   0  0  0  0  0  0  0  0  0  0  0  0
   11.8824   11.0911   18.3609 C   0  0  0  0  0  0  0  0  0  0  0  0
   13.4682    6.0409   20.4475 C   0  0  0  0  0  0  0  0  0  0  0  0
    8.1571    6.3926   22.4424 C   0  0  0  0  0  0  0  0  0  0  0  0
   13.3779    9.9864   19.2209 C   0  0  0  0  0  0  0  0  0  0  0  0
   10.6409    6.4733   22.2236 C   0  0  0  0  0  0  0  0  0  0  0  0
    5.9564    6.9558   21.4584 C   0  0  0  0  0  0  0  0  0  0  0  0
   13.1609   11.9616   18.9702 C   0  0  0  0  0  0  0  0  0  0  0  0
   14.2220    5.6924   20.1940 C   0  0  0  0  0  0  0  0  0  0  0  0
    7.5473    6.0616   21.9204 N   0  0  0  0  0  0  0  0  0  0  0  0
    7.3102    3.7129   21.9822 C   0  0  0  0  0  0  0  0  0  0  0  0
   11.5205   10.2071   19.6963 C   0  0  0  0  0  0  0  0  0  0  0  0
    9.9384    8.1342   22.2984 C   0  0  0  0  0  0  0  0  0  0  0  0
   15.3464    7.0974   19.0960 C   0  0  0  0  0  0  0  0  0  0  0  0
   12.5007   10.2049   19.0589 C   0  0  0  0  0  0  0  0  0  0  0  0
    6.2066    6.8737   21.2944 C   0  0  0  0  0  0  0  0  0  0  0  0
    9.4861    5.5543   22.5568 C   0  0  0  0  0  0  0  0  0  0  0  0
   11.2524    7.8191   21.5122 C   0  0  0  0  0  0  0  0  0  0  0  0
   14.0997    8.0530   19.5983 C   0  0  0  0  0  0  0  0  0  0  0  0
   15.5423    6.2444   19.3495 C   0  0  0  0  0  0  0  0  0  0  0  0
   11.5835    9.1932   21.0149 N   0  0  0  0  0  0  0  0  0  0  0  0
    9.7469    9.4394   22.3931 O   0  0  0  0  0  0  0  0  0  0  0  0
    9.6569    7.0077   22.3108 C   0  0  0  0  0  0  0  0  0  0  0  0
  1  6  4  0
  1 22  4  0
  3 13  4  0
  4  5  1  0
  4 11  1  0
  5 18  1  0
  6 12  4  0
  7 13  4  0
  7 20  4  0
  8 18  1  0
  9 20  4  0
  9 26  4  0
 10 19  1  0
 12 23  4  0
 15 18  1  0
 16 21  4  0
 16 25  2  0
 16 26  1  0
 17 22  4  0
 17 23  4  0
 20 26  4  0
 21 24  1  0
M  END
$$$$

 Created by Python create_sdf_string function

 26 38  0  0  0  0  0  0  0  0999 V2000
   13.4063    8.5224   19.8830 C   0  0  0  0  0  0  0  0  0  0  0  0
   12.0311   13.1486   17.8335 C   0  0  0  0  0  0  0  0  0  0  0  0
   12.8148   11.7346   18.4020 O   0  0  0  0  0  0  0  0  0  0  0  0
   13.8366    5.6405   20.6398 O   0  0  0  0  0  0  0  0  0  0  0  0
    8.6914    7.3391   21.8587 Br  0  0  0  0  0  0  0  0  0  0  0  0
   10.9019    6.1482   22.7239 C   0  0  0  0  0  0  0  0  0  0  0  0
    5.1338    7.1653   21.1319 F   0  0  0  0  0  0  0  0  0  0  0  0
   14.1284    6.8671   19.3935 F   0  0  0  0  0  0  0  0  0  0  0  0
    7.7549    3.8251   21.0078 C   0  0  0  0  0  0  0  0  0  0  0  0
   10.1485   10.8110   20.4387 C   0  0  0  0  0  0  0  0  0  0  0  0
    9.0449    8.2070   22.1332 C   0  0  0  0  0  0  0  0  0  0  0  0
   12.4547   10.3791   19.3888 O   0  0  0  0  0  0  0  0  0  0  0  0
    6.7562    7.0374   21.4604 C   0  0  0  0  0  0  0  0  0  0  0  0
    9.1920    5.6394   22.9970 S   0  0  0  0  0  0  0  0  0  0  0  0
   10.0666    6.4542   21.8208 C   0  0  0  0  0  0  0  0  0  0  0  0
   16.2358    6.9932   18.9710 B   0  0  0  0  0  0  0  0  0  0  0  0
   10.8343    7.8718   22.1955 N   0  0  0  0  0  0  0  0  0  0  0  0
   10.4860    8.5661   19.8298 He  0  0  0  0  0  0  0  0  0  0  0  0
    7.8462    4.3107   21.7421 He  0  0  0  0  0  0  0  0  0  0  0  0
   13.1086    9.5976   19.6662 He  0  0  0  0  0  0  0  0  0  0  0  0
   13.3141   12.1795   20.4406 He  0  0  0  0  0  0  0  0  0  0  0  0
    7.4768    5.3189   21.0069 He  0  0  0  0  0  0  0  0  0  0  0  0
   16.1054    6.9358   19.9311 He  0  0  0  0  0  0  0  0  0  0  0  0
   14.5068    7.5245   19.9707 He  0  0  0  0  0  0  0  0  0  0  0  0
    8.1266    9.7247   20.9765 He  0  0  0  0  0  0  0  0  0  0  0  0
    9.4145    6.3616   22.6851 He  0  0  0  0  0  0  0  0  0  0  0  0
  1  3  1  0
  1  4  4  0
  1 11  2  0
  1 12  2  0
  1 13  2  0
  1 14  3  0
  2  3  3  0
  2  6  2  0
  3  6  3  0
  3 12  4  0
  3 13  3  0
  4  5  1  0
  4  6  4  0
  4  8  4  0
  4 10  4  0
  4 11  2  0
  4 12  1  0
  4 13  2  0
  4 15  3  0
  5  6  1  0
  5 15  2  0
  5 16  3  0
  5 17  3  0
  6  9  2  0
  6 13  3  0
  6 14  2  0
  7 17  2  0
  8 16  4  0
  9 17  4  0
 10 12  1  0
 10 13  1  0
 11 15  3  0
 12 13  3  0
 12 17  2  0
 13 14  3  0
 13 16  3  0
 14 16  4  0
 15 17  1  0
M  END
$$$$

 Created by Python create_sdf_string function

 26 20  0  0  0  0  0  0  0  0999 V2000
   13.5768    8.4084   19.8882 C   0  0  0  0  0  0  0  0  0  0  0  0
   10.5343    9.0512   19.8257 O   0  0  0  0  0  0  0  0  0  0  0  0
    7.7296    4.4879   21.6867 C   0  0  0  0  0  0  0  0  0  0  0  0
   12.0807   12.4082   18.2479 C   0  0  0  0  0  0  0  0  0  0  0  0
   12.5210   11.7185   19.0155 C   0  0  0  0  0  0  0  0  0  0  0  0
   13.7334    6.3141   20.1826 C   0  0  0  0  0  0  0  0  0  0  0  0
    8.0733    6.9290   21.5492 C   0  0  0  0  0  0  0  0  0  0  0  0
   12.8575    9.4623   19.7629 C   0  0  0  0  0  0  0  0  0  0  0  0
   10.9022    6.0665   23.0882 C   0  0  0  0  0  0  0  0  0  0  0  0
    5.8779    7.0428   21.1318 O   0  0  0  0  0  0  0  0  0  0  0  0
   13.3183   12.1950   20.0129 O   0  0  0  0  0  0  0  0  0  0  0  0
   13.9538    6.6599   19.6449 C   0  0  0  0  0  0  0  0  0  0  0  0
    7.6011    5.3271   21.4158 C   0  0  0  0  0  0  0  0  0  0  0  0
    7.4820    4.0008   21.1864 C   0  0  0  0  0  0  0  0  0  0  0  0
   11.0420    9.9502   20.0699 C   0  0  0  0  0  0  0  0  0  0  0  0
    9.0677    8.5725   21.5105 C   0  0  0  0  0  0  0  0  0  0  0  0
   15.6377    7.0655   19.7847 C   0  0  0  0  0  0  0  0  0  0  0  0
   12.2922   10.3201   19.5169 N   0  0  0  0  0  0  0  0  0  0  0  0
    6.8802    7.2558   21.2965 C   0  0  0  0  0  0  0  0  0  0  0  0
    9.5981    5.3300   22.8580 C   0  0  0  0  0  0  0  0  0  0  0  0
    9.3791    7.1141   21.9490 C   0  0  0  0  0  0  0  0  0  0  0  0
   14.5839    8.2563   19.9107 C   0  0  0  0  0  0  0  0  0  0  0  0
   15.6861    6.7013   19.4167 C   0  0  0  0  0  0  0  0  0  0  0  0
   10.7167    7.9918   21.4745 N   0  0  0  0  0  0  0  0  0  0  0  0
    8.3515    9.3228   21.1959 O   0  0  0  0  0  0  0  0  0  0  0  0
    9.5201    5.8689   22.5444 C   0  0  0  0  0  0  0  0  0  0  0  0
  1  8  1  0
  1 22  4  0
  2 15  1  0
  3 13  1  0
  4  5  1  0
  5 11  1  0
  5 18  1  0
  6 12  4  0
  7 13  1  0
  7 19  1  0
  7 21  4  0
  8 18  1  0
 10 19  1  0
 12 23  4  0
 15 18  1  0
 16 25  1  0
 17 22  4  0
 17 23  4  0
 20 26  1  0
 21 24  1  0
M  END
$$$$

 Created by Python create_sdf_string function

 26 57  0  0  0  0  0  0  0  0999 V2000
   13.4823    9.0540   19.4219 Cl  0  0  0  0  0  0  0  0  0  0  0  0
   11.4123    9.5027   20.1715 N   0  0  0  0  0  0  0  0  0  0  0  0
    6.4882    4.8922   20.7424 C   0  0  0  0  0  0  0  0  0  0  0  0
   11.5235   11.3079   18.0962 C   0  0  0  0  0  0  0  0  0  0  0  0
   12.2126   12.0404   20.2858 Cl  0  0  0  0  0  0  0  0  0  0  0  0
   13.1596    6.0462   20.8395 F   0  0  0  0  0  0  0  0  0  0  0  0
    8.6578    7.0604   21.8623 C   0  0  0  0  0  0  0  0  0  0  0  0
   13.4293    9.5262   19.6079 C   0  0  0  0  0  0  0  0  0  0  0  0
   11.0386    6.4272   23.3169 C   0  0  0  0  0  0  0  0  0  0  0  0
   11.9883   12.5492   19.8398 O   0  0  0  0  0  0  0  0  0  0  0  0
    7.1727    5.5805   22.3006 C   0  0  0  0  0  0  0  0  0  0  0  0
   12.0855    9.8804   19.4814 N   0  0  0  0  0  0  0  0  0  0  0  0
    7.2487    7.0756   22.0835 C   0  0  0  0  0  0  0  0  0  0  0  0
    9.9844    4.5606   21.6426 C   0  0  0  0  0  0  0  0  0  0  0  0
   10.3698    6.9302   21.7220 Cl  0  0  0  0  0  0  0  0  0  0  0  0
   14.7084    7.7823   19.2391 C   0  0  0  0  0  0  0  0  0  0  0  0
   15.8372    6.4743   19.1231 C   0  0  0  0  0  0  0  0  0  0  0  0
    9.1135    9.5686   21.1030 O   0  0  0  0  0  0  0  0  0  0  0  0
    9.3937    6.1729   23.6637 C   0  0  0  0  0  0  0  0  0  0  0  0
    5.0388    6.9124   21.2002 He  0  0  0  0  0  0  0  0  0  0  0  0
   14.8805    5.9890   19.2325 He  0  0  0  0  0  0  0  0  0  0  0  0
    7.9273    3.1287   20.8475 He  0  0  0  0  0  0  0  0  0  0  0  0
   11.4241   10.2213   20.6522 He  0  0  0  0  0  0  0  0  0  0  0  0
    9.6286    8.7857   22.5784 He  0  0  0  0  0  0  0  0  0  0  0  0
   16.3294    7.3751   20.2427 He  0  0  0  0  0  0  0  0  0  0  0  0
   11.0679    8.3912   21.1687 He  0  0  0  0  0  0  0  0  0  0  0  0
  1  3  4  0
  1  4  1  0
  1  8  1  0
  1 11  1  0
  1 16  4  0
  1 17  4  0
  1 19  4  0
  2  3  2  0
  2  6  3  0
  2 14  4  0
  2 15  1  0
  2 18  4  0
  3  5  3  0
  3  6  2  0
  3  9  1  0
  3 13  2  0
  3 14  3  0
  3 17  4  0
  4  7  4  0
  4  8  3  0
  4 11  3  0
  4 13  1  0
  4 16  1  0
  5  6  3  0
  5  9  2  0
  5 10  3  0
  5 13  2  0
  5 14  2  0
  5 16  1  0
  6  7  2  0
  6 10  3  0
  6 13  2  0
  6 16  3  0
  7 11  4  0
  7 15  4  0
  7 18  1  0
  7 19  1  0
  8  9  4  0
  8 12  1  0
  8 14  1  0
  8 16  3  0
  9 14  1  0
  9 16  2  0
  9 17  4  0
 11 16  1  0
 11 17  1  0
 12 15  2  0
 12 16  3  0
 13 14  4  0
 13 19  3  0
 14 15  3  0
 14 19  1  0
 15 16  2  0
 15 18  2  0
 15 19  3  0
 16 17  3  0
 16 18  2  0
M  END
$$$$

 Created by Python create_sdf_string function

 26 25  0  0  0  0  0  0  0  0999 V2000
   13.9125    8.3066   19.6720 C   0  0  0  0  0  0  0  0  0  0  0  0
   11.2293    8.9730   20.7514 N   0  0  0  0  0  0  0  0  0  0  0  0
    6.0154    5.2238   21.0368 C   0  0  0  0  0  0  0  0  0  0  0  0
   11.8420   11.4374   18.3839 C   0  0  0  0  0  0  0  0  0  0  0  0
   11.9517   11.9239   19.8153 C   0  0  0  0  0  0  0  0  0  0  0  0
   13.5863    6.5531   20.0252 C   0  0  0  0  0  0  0  0  0  0  0  0
    8.0711    6.2690   22.1316 C   0  0  0  0  0  0  0  0  0  0  0  0
   13.2546    9.5750   19.3490 C   0  0  0  0  0  0  0  0  0  0  0  0
   11.0129    6.2204   22.7740 C   0  0  0  0  0  0  0  0  0  0  0  0
    5.8289    6.4225   21.2998 C   0  0  0  0  0  0  0  0  0  0  0  0
   12.0286   12.5484   19.8344 O   0  0  0  0  0  0  0  0  0  0  0  0
   14.5764    5.8870   19.8874 C   0  0  0  0  0  0  0  0  0  0  0  0
    7.7817    5.1884   21.7365 C   0  0  0  0  0  0  0  0  0  0  0  0
    7.5247    4.0046   21.3180 C   0  0  0  0  0  0  0  0  0  0  0  0
   11.3781   10.5519   20.6055 C   0  0  0  0  0  0  0  0  0  0  0  0
    9.8313    8.5972   21.9096 C   0  0  0  0  0  0  0  0  0  0  0  0
   16.0736    7.2417   19.5570 C   0  0  0  0  0  0  0  0  0  0  0  0
   12.3164   10.0391   19.8076 N   0  0  0  0  0  0  0  0  0  0  0  0
    7.0307    7.0148   21.8689 C   0  0  0  0  0  0  0  0  0  0  0  0
   10.0679    5.1186   22.4877 C   0  0  0  0  0  0  0  0  0  0  0  0
   10.2461    7.3900   22.0098 N   0  0  0  0  0  0  0  0  0  0  0  0
   14.8852    8.2782   19.6675 C   0  0  0  0  0  0  0  0  0  0  0  0
   15.7437    6.1922   19.5133 C   0  0  0  0  0  0  0  0  0  0  0  0
   11.2397    8.4288   21.0538 C   0  0  0  0  0  0  0  0  0  0  0  0
    9.2920    9.6314   21.4368 O   0  0  0  0  0  0  0  0  0  0  0  0
    9.2977    6.1862   22.8520 C   0  0  0  0  0  0  0  0  0  0  0  0
  1  6  4  0
  1  8  1  0
  1 22  4  0
  2 24  1  0
  3 10  4  0
  4  5  1  0
  5 11  1  0
  6 12  4  0
  7 13  4  0
  7 19  4  0
  7 26  1  0
  8 18  1  0
  9 20  1  0
  9 21  1  0
 10 19  4  0
 12 23  4  0
 13 14  4  0
 15 18  1  0
 16 21  1  0
 16 25  2  0
 17 22  4  0
 17 23  4  0
 20 26  1  0
 21 24  1  0
 21 26  1  0
M  END
$$$$

 Created by Python create_sdf_string function

 26 42  0  0  0  0  0  0  0  0999 V2000
   10.9640    9.0969   20.4748 N   0  0  0  0  0  0  0  0  0  0  0  0
   10.8944   12.7225   18.5567 F   0  0  0  0  0  0  0  0  0  0  0  0
   13.7046    7.3748   20.8536 C   0  0  0  0  0  0  0  0  0  0  0  0
   12.2683    9.4400   18.9354 C   0  0  0  0  0  0  0  0  0  0  0  0
   10.1527    6.9941   23.3116 C   0  0  0  0  0  0  0  0  0  0  0  0
    5.2760    6.2213   21.9659 S   0  0  0  0  0  0  0  0  0  0  0  0
   14.3750    5.7537   19.8717 C   0  0  0  0  0  0  0  0  0  0  0  0
    7.5944    4.8410   20.4198 O   0  0  0  0  0  0  0  0  0  0  0  0
    8.2680    4.1746   20.4169 N   0  0  0  0  0  0  0  0  0  0  0  0
    9.6828    7.6910   21.3797 N   0  0  0  0  0  0  0  0  0  0  0  0
   15.4473    7.5211   19.8764 C   0  0  0  0  0  0  0  0  0  0  0  0
    6.0730    7.1485   21.4569 C   0  0  0  0  0  0  0  0  0  0  0  0
   10.5341    4.8946   22.8339 C   0  0  0  0  0  0  0  0  0  0  0  0
   10.4835    7.5777   21.6414 S   0  0  0  0  0  0  0  0  0  0  0  0
   15.1237    8.0289   19.9677 C   0  0  0  0  0  0  0  0  0  0  0  0
   11.5633    8.6679   20.5083 C   0  0  0  0  0  0  0  0  0  0  0  0
   10.3800   10.0938   21.5587 O   0  0  0  0  0  0  0  0  0  0  0  0
    9.6438    5.6683   23.3141 P   0  0  0  0  0  0  0  0  0  0  0  0
   13.8874    7.3636   19.7459 He  0  0  0  0  0  0  0  0  0  0  0  0
    4.9178    4.9254   21.6201 He  0  0  0  0  0  0  0  0  0  0  0  0
   11.1351   11.9267   19.6421 He  0  0  0  0  0  0  0  0  0  0  0  0
    8.6113    6.0291   22.2570 He  0  0  0  0  0  0  0  0  0  0  0  0
   11.1555   12.7825   19.5157 He  0  0  0  0  0  0  0  0  0  0  0  0
   10.8440    9.7849   20.7625 He  0  0  0  0  0  0  0  0  0  0  0  0
   11.8464    9.6459   18.7167 He  0  0  0  0  0  0  0  0  0  0  0  0
   15.9586    6.9914   19.5415 He  0  0  0  0  0  0  0  0  0  0  0  0
  1  3  1  0
  1  6  2  0
  1  7  4  0
  1  8  4  0
  1 11  1  0
  1 16  4  0
  2  6  3  0
  2 11  1  0
  2 13  3  0
  2 15  1  0
  2 16  3  0
  3  7  4  0
  3  9  2  0
  4  9  2  0
  4 12  3  0
  4 17  1  0
  5  7  4  0
  5 13  1  0
  5 14  1  0
  5 18  4  0
  6  7  1  0
  6 10  2  0
  6 12  4  0
  6 14  3  0
  6 15  3  0
  7  8  2  0
  7 15  3  0
  7 17  2  0
  8  9  4  0
  8 10  2  0
  8 14  3  0
  9 11  1  0
  9 13  3  0
 10 16  2  0
 10 17  2  0
 11 15  1  0
 11 18  4  0
 12 15  1  0
 12 17  2  0
 13 18  1  0
 14 18  1  0
 16 18  1  0
M  END
$$$$

 Created by Python create_sdf_string function

 26 25  0  0  0  0  0  0  0  0999 V2000
   13.5563    8.2900   19.8009 C   0  0  0  0  0  0  0  0  0  0  0  0
   11.2445    8.7427   20.6959 N   0  0  0  0  0  0  0  0  0  0  0  0
    5.7090    4.9665   21.0851 C   0  0  0  0  0  0  0  0  0  0  0  0
   10.9983   12.3900   18.4557 C   0  0  0  0  0  0  0  0  0  0  0  0
   11.3078   11.5335   19.2273 C   0  0  0  0  0  0  0  0  0  0  0  0
   13.2926    7.1086   20.3970 C   0  0  0  0  0  0  0  0  0  0  0  0
    8.0775    5.9955   21.9034 C   0  0  0  0  0  0  0  0  0  0  0  0
   12.7532    9.4803   19.3071 C   0  0  0  0  0  0  0  0  0  0  0  0
   10.4755    6.8330   23.1983 C   0  0  0  0  0  0  0  0  0  0  0  0
    5.6897    6.1294   21.6649 C   0  0  0  0  0  0  0  0  0  0  0  0
   11.0655   12.4414   19.6302 C   0  0  0  0  0  0  0  0  0  0  0  0
   14.5044    6.1600   20.3050 C   0  0  0  0  0  0  0  0  0  0  0  0
    7.8445    4.8372   21.1655 C   0  0  0  0  0  0  0  0  0  0  0  0
    6.9539    4.3576   20.8734 C   0  0  0  0  0  0  0  0  0  0  0  0
   11.3576    9.6781   20.3164 C   0  0  0  0  0  0  0  0  0  0  0  0
    9.8168    8.1185   21.3817 N   0  0  0  0  0  0  0  0  0  0  0  0
   15.4651    7.3369   19.6498 C   0  0  0  0  0  0  0  0  0  0  0  0
   12.1919   10.2613   19.0231 C   0  0  0  0  0  0  0  0  0  0  0  0
    6.8726    6.6651   22.0017 C   0  0  0  0  0  0  0  0  0  0  0  0
   10.2459    5.3450   23.0437 C   0  0  0  0  0  0  0  0  0  0  0  0
   10.2205    7.4875   21.9392 C   0  0  0  0  0  0  0  0  0  0  0  0
   15.0029    8.2411   19.5307 C   0  0  0  0  0  0  0  0  0  0  0  0
   16.1655    6.6926   19.5336 C   0  0  0  0  0  0  0  0  0  0  0  0
   11.0665    8.8140   20.7144 C   0  0  0  0  0  0  0  0  0  0  0  0
   10.0112   10.2440   21.6397 O   0  0  0  0  0  0  0  0  0  0  0  0
    9.1999    5.8856   22.7095 C   0  0  0  0  0  0  0  0  0  0  0  0
  1  6  4  0
  1  8  4  0
  1 22  4  0
  2 24  4  0
  3 10  4  0
  3 14  4  0
  4  5  1  0
  5 11  1  0
  5 18  4  0
  6 12  4  0
  7 13  4  0
  7 19  4  0
  7 26  1  0
  8 15  4  0
  8 18  4  0
  9 20  1  0
  9 21  1  0
 10 19  4  0
 13 14  4  0
 15 24  4  0
 16 21  1  0
 17 22  4  0
 17 23  2  0
 20 26  1  0
 21 26  1  0
M  END
$$$$

 Created by Python create_sdf_string function

 26 46  0  0  0  0  0  0  0  0999 V2000
   13.2581    8.3195   19.9935 C   0  0  0  0  0  0  0  0  0  0  0  0
   10.3803    8.7839   19.8832 S   0  0  0  0  0  0  0  0  0  0  0  0
    4.3597    4.0835   21.6142 C   0  0  0  0  0  0  0  0  0  0  0  0
   11.3066   11.8092   18.6805 Se  0  0  0  0  0  0  0  0  0  0  0  0
   11.7775   11.1295   18.9560 C   0  0  0  0  0  0  0  0  0  0  0  0
   13.4250    6.6789   20.6843 C   0  0  0  0  0  0  0  0  0  0  0  0
   11.8401    9.0386   18.6492 C   0  0  0  0  0  0  0  0  0  0  0  0
   10.1784    6.2868   23.1717 C   0  0  0  0  0  0  0  0  0  0  0  0
    6.2923    5.5346   22.5380 C   0  0  0  0  0  0  0  0  0  0  0  0
   11.0241   12.9235   18.8426 P   0  0  0  0  0  0  0  0  0  0  0  0
   13.8072    5.7484   20.6945 F   0  0  0  0  0  0  0  0  0  0  0  0
    7.8651    4.7537   20.0654 O   0  0  0  0  0  0  0  0  0  0  0  0
   11.1563    9.5381   20.3143 C   0  0  0  0  0  0  0  0  0  0  0  0
    9.4190    8.1787   22.3483 N   0  0  0  0  0  0  0  0  0  0  0  0
   12.2926    9.6232   19.3497 C   0  0  0  0  0  0  0  0  0  0  0  0
   10.1999    4.7317   22.9483 O   0  0  0  0  0  0  0  0  0  0  0  0
   11.7614    7.7544   21.1931 C   0  0  0  0  0  0  0  0  0  0  0  0
   11.0941    8.0839   19.9800 F   0  0  0  0  0  0  0  0  0  0  0  0
   10.8821   10.6439   21.9974 O   0  0  0  0  0  0  0  0  0  0  0  0
    7.0896    5.6726   21.8899 He  0  0  0  0  0  0  0  0  0  0  0  0
    7.8111    4.1922   21.5883 He  0  0  0  0  0  0  0  0  0  0  0  0
   14.7546    7.1368   20.0228 He  0  0  0  0  0  0  0  0  0  0  0  0
    7.5833    6.5378   22.2158 He  0  0  0  0  0  0  0  0  0  0  0  0
   15.8057    8.9594   19.0668 He  0  0  0  0  0  0  0  0  0  0  0  0
   16.7036    6.2467   19.2388 He  0  0  0  0  0  0  0  0  0  0  0  0
    9.6106    5.7108   24.7423 He  0  0  0  0  0  0  0  0  0  0  0  0
  1  2  2  0
  1  5  2  0
  1  6  3  0
  1  7  2  0
  1  8  1  0
  2  3  3  0
  2 13  1  0
  2 14  2  0
  2 18  4  0
  3  9  4  0
  3 11  1  0
  3 13  4  0
  3 16  4  0
  4  5  1  0
  4  8  3  0
  5  6  3  0
  5  7  2  0
  5 12  2  0
  5 15  2  0
  5 17  2  0
  5 19  2  0
  6  9  1  0
  6 16  2  0
  6 17  1  0
  7 11  2  0
  7 13  4  0
  7 16  4  0
  7 19  2  0
  8 10  2  0
  8 16  1  0
  9 13  4  0
  9 14  4  0
  9 18  2  0
 10 11  1  0
 10 18  4  0
 10 19  3  0
 11 18  3  0
 11 19  3  0
 12 16  4  0
 12 17  4  0
 13 17  1  0
 14 17  4  0
 14 19  2  0
 15 16  4  0
 15 17  4  0
 16 18  2  0
M  END
$$$$

 Created by Python create_sdf_string function

 26 22  0  0  0  0  0  0  0  0999 V2000
   13.5996    8.1755   19.6527 C   0  0  0  0  0  0  0  0  0  0  0  0
   10.5289    9.0671   20.4226 C   0  0  0  0  0  0  0  0  0  0  0  0
    5.7126    4.6890   21.5601 C   0  0  0  0  0  0  0  0  0  0  0  0
   11.2998   11.7595   18.7781 C   0  0  0  0  0  0  0  0  0  0  0  0
   11.6480   11.1018   19.0739 C   0  0  0  0  0  0  0  0  0  0  0  0
   13.0200    7.1112   20.6340 C   0  0  0  0  0  0  0  0  0  0  0  0
    8.0016    5.6518   22.3202 C   0  0  0  0  0  0  0  0  0  0  0  0
   12.4601    9.2132   19.3397 C   0  0  0  0  0  0  0  0  0  0  0  0
    9.7353    6.1894   22.8829 C   0  0  0  0  0  0  0  0  0  0  0  0
    5.8078    5.5527   22.3870 C   0  0  0  0  0  0  0  0  0  0  0  0
   11.0307   12.6287   19.0970 O   0  0  0  0  0  0  0  0  0  0  0  0
   13.9967    6.2329   20.5464 C   0  0  0  0  0  0  0  0  0  0  0  0
    7.5081    4.6215   21.3388 C   0  0  0  0  0  0  0  0  0  0  0  0
    7.2117    4.6140   20.7270 C   0  0  0  0  0  0  0  0  0  0  0  0
   11.0993    9.4908   20.2953 C   0  0  0  0  0  0  0  0  0  0  0  0
   10.0629    7.4806   22.1407 N   0  0  0  0  0  0  0  0  0  0  0  0
   15.0528    7.0241   19.7277 C   0  0  0  0  0  0  0  0  0  0  0  0
   12.6641    9.8490   18.8544 C   0  0  0  0  0  0  0  0  0  0  0  0
    7.1406    6.1814   22.7347 C   0  0  0  0  0  0  0  0  0  0  0  0
   10.4216    5.2746   23.0320 O   0  0  0  0  0  0  0  0  0  0  0  0
   11.7331    7.4343   21.2252 C   0  0  0  0  0  0  0  0  0  0  0  0
   15.1276    8.4871   19.1541 O   0  0  0  0  0  0  0  0  0  0  0  0
   16.0966    6.3943   19.4950 O   0  0  0  0  0  0  0  0  0  0  0  0
   10.8443    8.0044   20.1407 C   0  0  0  0  0  0  0  0  0  0  0  0
   10.5326   10.6841   21.3373 O   0  0  0  0  0  0  0  0  0  0  0  0
    9.4192    6.1553   24.0824 C   0  0  0  0  0  0  0  0  0  0  0  0
  1  6  1  0
  1  8  1  0
  1 22  1  0
  2 15  1  0
  3 10  4  0
  3 14  4  0
  4  5  1  0
  4 11  1  0
  5 18  1  0
  6 12  1  0
  6 21  1  0
  7  9  1  0
  7 13  4  0
  7 19  4  0
  8 18  1  0
  9 16  1  0
  9 20  1  0
  9 26  1  0
 10 19  4  0
 12 17  1  0
 13 14  4  0
 17 23  1  0
M  END
$$$$

 Created by Python create_sdf_string function

 26 52  0  0  0  0  0  0  0  0999 V2000
   13.9038    7.6718   19.7071 C   0  0  0  0  0  0  0  0  0  0  0  0
   10.1050    8.7543   20.5436 C   0  0  0  0  0  0  0  0  0  0  0  0
   11.1590   12.3784   18.8833 F   0  0  0  0  0  0  0  0  0  0  0  0
   12.5365    6.5708   20.1649 S   0  0  0  0  0  0  0  0  0  0  0  0
    7.7696    5.4867   22.2215 C   0  0  0  0  0  0  0  0  0  0  0  0
   12.6375    8.9339   18.1333 C   0  0  0  0  0  0  0  0  0  0  0  0
    6.2581    5.5299   22.2533 F   0  0  0  0  0  0  0  0  0  0  0  0
   12.0048   12.0358   19.7395 O   0  0  0  0  0  0  0  0  0  0  0  0
   14.1024    5.3864   21.0898 C   0  0  0  0  0  0  0  0  0  0  0  0
    7.8332    5.4068   20.7924 C   0  0  0  0  0  0  0  0  0  0  0  0
    7.2790    5.2864   20.8619 C   0  0  0  0  0  0  0  0  0  0  0  0
   11.3917    9.2490   20.8933 S   0  0  0  0  0  0  0  0  0  0  0  0
    8.9911    7.6542   22.0545 O   0  0  0  0  0  0  0  0  0  0  0  0
   12.9260   10.7029   19.7541 C   0  0  0  0  0  0  0  0  0  0  0  0
    7.2023    6.5544   23.4148 C   0  0  0  0  0  0  0  0  0  0  0  0
   11.4488    5.6021   22.6294 O   0  0  0  0  0  0  0  0  0  0  0  0
   12.8190    6.6853   21.0522 B   0  0  0  0  0  0  0  0  0  0  0  0
   15.7044    5.8625   19.0032 O   0  0  0  0  0  0  0  0  0  0  0  0
   10.7324    7.9396   19.8702 C   0  0  0  0  0  0  0  0  0  0  0  0
   10.9911   10.2341   21.8452 O   0  0  0  0  0  0  0  0  0  0  0  0
    5.4187    4.8895   21.1577 He  0  0  0  0  0  0  0  0  0  0  0  0
   12.5598    9.8367   19.4710 He  0  0  0  0  0  0  0  0  0  0  0  0
    9.3631    6.5723   23.2025 He  0  0  0  0  0  0  0  0  0  0  0  0
   15.5043    6.7654   20.2251 He  0  0  0  0  0  0  0  0  0  0  0  0
   14.6270    8.4047   18.8497 He  0  0  0  0  0  0  0  0  0  0  0  0
    9.4451    6.2549   25.0969 He  0  0  0  0  0  0  0  0  0  0  0  0
  1  2  1  0
  1  4  1  0
  1  5  1  0
  1  6  4  0
  1  7  1  0
  1 12  1  0
  1 13  4  0
  1 15  2  0
  1 17  1  0
  1 20  2  0
  2 10  2  0
  2 12  1  0
  2 20  1  0
  3 14  1  0
  3 16  1  0
  3 20  1  0
  4 10  1  0
  4 18  3  0
  5  9  3  0
  5 11  1  0
  5 15  4  0
  5 17  4  0
  5 19  4  0
  6  7  2  0
  6  8  3  0
  6 13  1  0
  6 14  1  0
  6 15  4  0
  6 16  3  0
  6 17  4  0
  7  8  4  0
  7 10  1  0
  8  9  4  0
  8 10  3  0
  8 11  2  0
  8 13  3  0
  8 17  3  0
  8 20  4  0
  9 13  1  0
  9 15  1  0
  9 18  4  0
 10 11  4  0
 10 12  2  0
 10 18  3  0
 11 15  4  0
 12 17  2  0
 13 16  2  0
 13 17  1  0
 15 17  1  0
 16 18  1  0
 17 19  3  0
 18 20  4  0
M  END
$$$$

 Created by Python create_sdf_string function

 26 28  0  0  0  0  0  0  0  0999 V2000
   13.5580    7.9234   19.4418 C   0  0  0  0  0  0  0  0  0  0  0  0
   10.4899    8.8965   21.2898 C   0  0  0  0  0  0  0  0  0  0  0  0
    5.6932    5.1206   21.3635 C   0  0  0  0  0  0  0  0  0  0  0  0
   11.5959   11.6804   19.4608 C   0  0  0  0  0  0  0  0  0  0  0  0
   12.0919    9.9134   19.7052 C   0  0  0  0  0  0  0  0  0  0  0  0
   12.6718    6.8768   20.0993 C   0  0  0  0  0  0  0  0  0  0  0  0
    8.0526    6.0095   22.3321 C   0  0  0  0  0  0  0  0  0  0  0  0
   12.8934    9.1877   18.4350 C   0  0  0  0  0  0  0  0  0  0  0  0
    9.6118    6.5521   23.0681 P   0  0  0  0  0  0  0  0  0  0  0  0
    5.7748    5.5200   22.4914 C   0  0  0  0  0  0  0  0  0  0  0  0
   11.8051   12.1351   19.8286 O   0  0  0  0  0  0  0  0  0  0  0  0
   14.3877    5.6205   20.7533 C   0  0  0  0  0  0  0  0  0  0  0  0
    7.6906    5.4978   20.9853 C   0  0  0  0  0  0  0  0  0  0  0  0
    7.0452    5.2571   20.7073 C   0  0  0  0  0  0  0  0  0  0  0  0
   11.2932    9.0856   20.4907 C   0  0  0  0  0  0  0  0  0  0  0  0
    9.6888    7.8511   22.2981 O   0  0  0  0  0  0  0  0  0  0  0  0
   15.1230    6.3422   19.8726 C   0  0  0  0  0  0  0  0  0  0  0  0
   12.8263   10.5359   18.9798 C   0  0  0  0  0  0  0  0  0  0  0  0
    6.9689    6.0282   23.0643 C   0  0  0  0  0  0  0  0  0  0  0  0
   10.7585    5.7293   22.7017 O   0  0  0  0  0  0  0  0  0  0  0  0
   12.6854    6.7689   20.5175 C   0  0  0  0  0  0  0  0  0  0  0  0
   14.6909    8.0583   19.1504 C   0  0  0  0  0  0  0  0  0  0  0  0
   15.9734    5.9704   19.4126 O   0  0  0  0  0  0  0  0  0  0  0  0
   11.0760    7.5260   20.0364 C   0  0  0  0  0  0  0  0  0  0  0  0
   10.4311   10.1488   21.5389 O   0  0  0  0  0  0  0  0  0  0  0  0
    9.4083    6.5385   24.4427 O   0  0  0  0  0  0  0  0  0  0  0  0
  1  6  1  0
  1  8  1  0
  1 22  1  0
  2 15  1  0
  2 16  1  0
  2 25  1  0
  3 10  4  0
  3 14  4  0
  4 11  1  0
  4 18  1  0
  5  8  1  0
  5 15  1  0
  5 18  1  0
  6 21  1  0
  6 24  1  0
  7  9  1  0
  7 13  4  0
  7 19  4  0
  8 18  1  0
  9 16  1  0
  9 20  1  0
  9 26  2  0
 10 19  4  0
 12 17  1  0
 13 14  4  0
 15 24  1  0
 17 22  1  0
 17 23  2  0
M  END
$$$$

 Created by Python create_sdf_string function

 26 24  0  0  0  0  0  0  0  0999 V2000
   10.2353   10.0566   21.0955 C   0  0  0  0  0  0  0  0  0  0  0  0
    5.0183    6.0036   20.4605 Se  0  0  0  0  0  0  0  0  0  0  0  0
   13.0367   11.4410   19.6739 C   0  0  0  0  0  0  0  0  0  0  0  0
   10.2352    5.9064   23.3638 P   0  0  0  0  0  0  0  0  0  0  0  0
    5.0947    6.2057   22.5410 C   0  0  0  0  0  0  0  0  0  0  0  0
   14.1437    5.9589   20.4708 C   0  0  0  0  0  0  0  0  0  0  0  0
    7.1419    5.1298   20.0609 C   0  0  0  0  0  0  0  0  0  0  0  0
   10.0456    7.0648   22.5576 O   0  0  0  0  0  0  0  0  0  0  0  0
   12.1369   10.4785   18.2689 N   0  0  0  0  0  0  0  0  0  0  0  0
    6.1672    5.3472   22.6407 C   0  0  0  0  0  0  0  0  0  0  0  0
    9.9641    5.4485   22.8015 O   0  0  0  0  0  0  0  0  0  0  0  0
   11.8214    7.4296   20.3864 C   0  0  0  0  0  0  0  0  0  0  0  0
   10.6476   10.5803   21.1158 O   0  0  0  0  0  0  0  0  0  0  0  0
   10.2887    6.6027   24.6191 C   0  0  0  0  0  0  0  0  0  0  0  0
   13.3967    8.2661   19.0822 He  0  0  0  0  0  0  0  0  0  0  0  0
   12.1308    9.3976   19.3007 He  0  0  0  0  0  0  0  0  0  0  0  0
   12.7969    6.8463   20.0431 He  0  0  0  0  0  0  0  0  0  0  0  0
    7.7403    6.2013   23.1370 He  0  0  0  0  0  0  0  0  0  0  0  0
   12.2906    9.3474   18.7191 He  0  0  0  0  0  0  0  0  0  0  0  0
   11.0902   11.8960   19.7920 He  0  0  0  0  0  0  0  0  0  0  0  0
    8.5876    4.4931   21.4639 He  0  0  0  0  0  0  0  0  0  0  0  0
   10.9949    9.1816   20.9648 He  0  0  0  0  0  0  0  0  0  0  0  0
   13.7789    5.1505   19.8944 He  0  0  0  0  0  0  0  0  0  0  0  0
   13.3555    7.2860   20.1193 He  0  0  0  0  0  0  0  0  0  0  0  0
   15.1925    7.9252   19.6277 He  0  0  0  0  0  0  0  0  0  0  0  0
   15.4799    6.3599   18.7643 He  0  0  0  0  0  0  0  0  0  0  0  0
  1  4  1  0
  1  7  1  0
  1  8  1  0
  1  9  2  0
  1 13  1  0
  2  3  2  0
  2  5  4  0
  2  8  4  0
  2  9  2  0
  2 12  4  0
  2 14  2  0
  3  4  1  0
  3  5  3  0
  3  7  4  0
  3  9  4  0
  3 12  1  0
  4  8  1  0
  4 13  2  0
  5  7  4  0
  5  9  3  0
  7 10  1  0
  8  9  3  0
  8 12  3  0
  9 10  1  0
M  END
$$$$

 Created by Python create_sdf_string function

 26 27  0  0  0  0  0  0  0  0999 V2000
   13.6538    8.1762   19.0540 C   0  0  0  0  0  0  0  0  0  0  0  0
   10.6068   10.4007   20.8579 C   0  0  0  0  0  0  0  0  0  0  0  0
    5.7115    5.6876   20.9809 C   0  0  0  0  0  0  0  0  0  0  0  0
   12.3235   11.5810   19.4874 C   0  0  0  0  0  0  0  0  0  0  0  0
   11.8895    9.4272   19.5024 C   0  0  0  0  0  0  0  0  0  0  0  0
   12.4515    7.0813   20.3456 C   0  0  0  0  0  0  0  0  0  0  0  0
    8.0694    5.8329   22.4419 C   0  0  0  0  0  0  0  0  0  0  0  0
   12.7316    9.2201   18.7859 C   0  0  0  0  0  0  0  0  0  0  0  0
    9.8304    6.2150   23.1047 P   0  0  0  0  0  0  0  0  0  0  0  0
    5.6546    5.9911   22.2200 C   0  0  0  0  0  0  0  0  0  0  0  0
   11.2500   11.7569   20.0273 C   0  0  0  0  0  0  0  0  0  0  0  0
   14.5699    5.6421   20.2362 C   0  0  0  0  0  0  0  0  0  0  0  0
    7.9791    5.2537   21.2962 C   0  0  0  0  0  0  0  0  0  0  0  0
    6.8377    5.2297   20.5644 C   0  0  0  0  0  0  0  0  0  0  0  0
   11.1273    9.0266   20.6230 C   0  0  0  0  0  0  0  0  0  0  0  0
   10.1562    7.2764   22.1380 O   0  0  0  0  0  0  0  0  0  0  0  0
   14.1107    5.4107   20.3553 O   0  0  0  0  0  0  0  0  0  0  0  0
   12.3407   10.3502   18.5181 C   0  0  0  0  0  0  0  0  0  0  0  0
    6.7104    5.9610   22.9288 C   0  0  0  0  0  0  0  0  0  0  0  0
   10.4329    4.9882   22.8956 O   0  0  0  0  0  0  0  0  0  0  0  0
   13.2393    6.8270   20.0202 C   0  0  0  0  0  0  0  0  0  0  0  0
   14.9593    7.5181   18.9551 C   0  0  0  0  0  0  0  0  0  0  0  0
   15.4242    6.4554   19.2916 C   0  0  0  0  0  0  0  0  0  0  0  0
   11.3841    7.5278   20.9521 C   0  0  0  0  0  0  0  0  0  0  0  0
   10.1931   10.6932   21.4119 O   0  0  0  0  0  0  0  0  0  0  0  0
    9.9324    6.5682   24.3913 O   0  0  0  0  0  0  0  0  0  0  0  0
  1  8  1  0
  2 11  1  0
  2 15  1  0
  2 25  1  0
  3 10  4  0
  3 14  4  0
  4 11  1  0
  4 18  1  0
  5  8  1  0
  5 15  1  0
  5 18  1  0
  6 21  1  0
  6 24  1  0
  7  9  1  0
  7 13  4  0
  7 19  4  0
  8 18  1  0
  9 16  1  0
  9 20  2  0
  9 26  2  0
 10 19  4  0
 12 17  4  0
 12 23  4  0
 13 14  4  0
 15 24  1  0
 16 24  1  0
 22 23  4  0
M  END
$$$$

 Created by Python create_sdf_string function

 26 44  0  0  0  0  0  0  0  0999 V2000
   13.8480    8.0634   19.0616 C   0  0  0  0  0  0  0  0  0  0  0  0
   10.9966   10.9143   19.9536 N   0  0  0  0  0  0  0  0  0  0  0  0
    6.4069    5.2439   20.4994 F   0  0  0  0  0  0  0  0  0  0  0  0
   12.5648   10.2614   18.2036 C   0  0  0  0  0  0  0  0  0  0  0  0
   12.6043    6.9140   20.8405 C   0  0  0  0  0  0  0  0  0  0  0  0
    8.2559    5.2499   21.5792 C   0  0  0  0  0  0  0  0  0  0  0  0
   13.2117    9.5346   18.3670 C   0  0  0  0  0  0  0  0  0  0  0  0
    4.9223    6.2811   22.6941 C   0  0  0  0  0  0  0  0  0  0  0  0
   11.3815   10.8911   19.0882 C   0  0  0  0  0  0  0  0  0  0  0  0
   15.0207    5.5964   20.2446 C   0  0  0  0  0  0  0  0  0  0  0  0
    6.1143    4.4019   21.1435 C   0  0  0  0  0  0  0  0  0  0  0  0
   10.5247    9.4807   20.1648 C   0  0  0  0  0  0  0  0  0  0  0  0
   14.6038    4.6547   19.8997 O   0  0  0  0  0  0  0  0  0  0  0  0
   12.8050   11.0813   19.8955 C   0  0  0  0  0  0  0  0  0  0  0  0
   10.6747    4.8736   23.4560 O   0  0  0  0  0  0  0  0  0  0  0  0
   13.1642    7.2523   20.7320 C   0  0  0  0  0  0  0  0  0  0  0  0
   15.7099    7.6210   19.2599 C   0  0  0  0  0  0  0  0  0  0  0  0
   10.5458    7.6958   21.1206 N   0  0  0  0  0  0  0  0  0  0  0  0
    9.4184   10.1642   21.8341 F   0  0  0  0  0  0  0  0  0  0  0  0
    9.5828    7.2265   24.1303 O   0  0  0  0  0  0  0  0  0  0  0  0
   11.4313   10.9254   18.7929 He  0  0  0  0  0  0  0  0  0  0  0  0
    9.3729    5.9479   22.1806 He  0  0  0  0  0  0  0  0  0  0  0  0
    7.8731    5.2829   21.4813 He  0  0  0  0  0  0  0  0  0  0  0  0
   10.3904    7.4333   22.9074 He  0  0  0  0  0  0  0  0  0  0  0  0
    6.7533    6.6598   23.5340 He  0  0  0  0  0  0  0  0  0  0  0  0
   15.3714    6.4860   18.4244 He  0  0  0  0  0  0  0  0  0  0  0  0
  1  4  4  0
  1  5  4  0
  1 10  2  0
  1 20  1  0
  2  7  1  0
  2 12  1  0
  2 19  1  0
  3  8  4  0
  3  9  4  0
  3 13  2  0
  3 14  2  0
  3 17  3  0
  4  7  1  0
  4 16  3  0
  4 17  1  0
  5 11  2  0
  5 12  2  0
  5 15  3  0
  5 18  1  0
  6  9  4  0
  6 13  1  0
  6 16  4  0
  6 19  1  0
  7  8  4  0
  7 18  1  0
  8  9  3  0
  8 10  4  0
  8 14  3  0
  9 16  2  0
  9 20  4  0
 10 13  4  0
 11 13  3  0
 11 16  2  0
 12 18  1  0
 12 20  4  0
 13 14  3  0
 14 17  1  0
 14 19  4  0
 14 20  2  0
 16 17  3  0
 16 18  2  0
 16 19  3  0
 17 18  2  0
 17 19  2  0
M  END
$$$$

 Created by Python create_sdf_string function

 26 26  0  0  0  0  0  0  0  0999 V2000
   13.6692    8.1165   19.2669 C   0  0  0  0  0  0  0  0  0  0  0  0
   10.8019   10.1555   20.2902 N   0  0  0  0  0  0  0  0  0  0  0  0
    5.6072    5.3092   21.4464 C   0  0  0  0  0  0  0  0  0  0  0  0
   11.4106   11.0899   19.3147 N   0  0  0  0  0  0  0  0  0  0  0  0
   12.8015    9.9905   18.2519 C   0  0  0  0  0  0  0  0  0  0  0  0
   12.8339    7.1443   20.4773 C   0  0  0  0  0  0  0  0  0  0  0  0
    8.1161    5.8592   22.3005 C   0  0  0  0  0  0  0  0  0  0  0  0
   12.9943    9.6753   18.7153 C   0  0  0  0  0  0  0  0  0  0  0  0
    9.6482    6.2601   22.7724 S   0  0  0  0  0  0  0  0  0  0  0  0
    5.6959    6.1796   22.4164 C   0  0  0  0  0  0  0  0  0  0  0  0
   11.2488   10.9873   18.4047 C   0  0  0  0  0  0  0  0  0  0  0  0
   14.7109    5.8656   20.0235 C   0  0  0  0  0  0  0  0  0  0  0  0
    7.8677    4.8873   21.3239 C   0  0  0  0  0  0  0  0  0  0  0  0
    6.5381    4.6985   20.9603 C   0  0  0  0  0  0  0  0  0  0  0  0
   10.8035    9.0830   20.6481 C   0  0  0  0  0  0  0  0  0  0  0  0
   10.2953    7.3415   21.9726 N   0  0  0  0  0  0  0  0  0  0  0  0
   14.5372    5.2418   20.5211 C   0  0  0  0  0  0  0  0  0  0  0  0
   12.8617   11.1829   19.6943 C   0  0  0  0  0  0  0  0  0  0  0  0
    7.0355    6.5088   22.9138 C   0  0  0  0  0  0  0  0  0  0  0  0
   10.3063    5.0971   22.9061 O   0  0  0  0  0  0  0  0  0  0  0  0
   12.6067    7.4407   20.4426 C   0  0  0  0  0  0  0  0  0  0  0  0
   14.8860    7.7055   18.7621 C   0  0  0  0  0  0  0  0  0  0  0  0
   15.4065    6.5240   19.1618 C   0  0  0  0  0  0  0  0  0  0  0  0
   10.8785    7.9991   21.2258 N   0  0  0  0  0  0  0  0  0  0  0  0
    9.7892   10.1450   21.3938 O   0  0  0  0  0  0  0  0  0  0  0  0
    9.5072    7.2702   23.9611 O   0  0  0  0  0  0  0  0  0  0  0  0
  1  6  4  0
  1  8  1  0
  1 22  4  0
  2  4  1  0
  2 15  1  0
  2 25  1  0
  3 10  4  0
  3 14  4  0
  4 11  1  0
  4 18  1  0
  5  8  1  0
  5 11  1  0
  6 21  4  0
  7  9  1  0
  7 13  4  0
  7 19  4  0
  9 16  1  0
  9 20  2  0
  9 26  2  0
 10 19  4  0
 12 17  4  0
 12 23  4  0
 13 14  4  0
 15 24  1  0
 16 24  1  0
 22 23  4  0
M  END
$$$$

 Created by Python create_sdf_string function

 26 20  0  0  0  0  0  0  0  0999 V2000
   10.5697    9.9487   20.2362 N   0  0  0  0  0  0  0  0  0  0  0  0
    6.3690    5.6273   21.2483 C   0  0  0  0  0  0  0  0  0  0  0  0
   12.8666    7.1000   20.8925 S   0  0  0  0  0  0  0  0  0  0  0  0
    7.9773    5.7876   22.0495 P   0  0  0  0  0  0  0  0  0  0  0  0
    5.6563    5.4181   22.8625 C   0  0  0  0  0  0  0  0  0  0  0  0
    8.7868    4.1347   20.9560 C   0  0  0  0  0  0  0  0  0  0  0  0
   10.9601    8.6640   20.9226 C   0  0  0  0  0  0  0  0  0  0  0  0
   11.0552    7.5980   23.1412 N   0  0  0  0  0  0  0  0  0  0  0  0
   11.6817   10.9408   19.5342 C   0  0  0  0  0  0  0  0  0  0  0  0
    6.2429    6.3634   22.7795 Cl  0  0  0  0  0  0  0  0  0  0  0  0
   15.3420    8.1337   18.6326 C   0  0  0  0  0  0  0  0  0  0  0  0
   15.0374    6.6974   19.2369 N   0  0  0  0  0  0  0  0  0  0  0  0
   10.2267    7.8518   21.2673 N   0  0  0  0  0  0  0  0  0  0  0  0
   13.2391    8.7128   19.3679 He  0  0  0  0  0  0  0  0  0  0  0  0
   11.3135   10.9358   18.9676 He  0  0  0  0  0  0  0  0  0  0  0  0
   12.5941   10.5898   19.1594 He  0  0  0  0  0  0  0  0  0  0  0  0
   12.4401    9.8365   18.1378 He  0  0  0  0  0  0  0  0  0  0  0  0
   10.4102    5.0687   23.1739 He  0  0  0  0  0  0  0  0  0  0  0  0
   12.0190   10.4282   18.9033 He  0  0  0  0  0  0  0  0  0  0  0  0
   14.2127    5.1786   20.3293 He  0  0  0  0  0  0  0  0  0  0  0  0
    6.4074    4.5175   20.6663 He  0  0  0  0  0  0  0  0  0  0  0  0
   13.9147    4.8478   21.3200 He  0  0  0  0  0  0  0  0  0  0  0  0
   10.1336    5.3492   22.9705 He  0  0  0  0  0  0  0  0  0  0  0  0
   12.3516    8.5060   19.8681 He  0  0  0  0  0  0  0  0  0  0  0  0
    9.7775   10.1402   21.6493 He  0  0  0  0  0  0  0  0  0  0  0  0
    9.5665    7.0281   23.7143 He  0  0  0  0  0  0  0  0  0  0  0  0
  1 12  3  0
  2  5  4  0
  2 12  3  0
  2 13  3  0
  3  7  1  0
  4  5  1  0
  4  6  4  0
  4  9  3  0
  4 13  2  0
  5  7  2  0
  5  9  4  0
  5 10  4  0
  6 12  2  0
  7  9  3  0
  7 13  1  0
  8 12  1  0
 10 11  4  0
 10 12  3  0
 10 13  3  0
 12 13  3  0
M  END
$$$$

 Created by Python create_sdf_string function

 26 24  0  0  0  0  0  0  0  0999 V2000
   13.4660    8.0920   19.4070 C   0  0  0  0  0  0  0  0  0  0  0  0
   10.5524    9.9910   20.3880 N   0  0  0  0  0  0  0  0  0  0  0  0
    5.8288    5.0999   21.2919 C   0  0  0  0  0  0  0  0  0  0  0  0
   11.0078   10.9302   19.4631 C   0  0  0  0  0  0  0  0  0  0  0  0
   12.6673   10.6475   18.8418 C   0  0  0  0  0  0  0  0  0  0  0  0
   12.9549    7.1353   20.4341 C   0  0  0  0  0  0  0  0  0  0  0  0
    8.2219    5.5597   22.3871 C   0  0  0  0  0  0  0  0  0  0  0  0
   12.9026    9.6624   18.4740 C   0  0  0  0  0  0  0  0  0  0  0  0
   10.1050    5.7283   23.1923 S   0  0  0  0  0  0  0  0  0  0  0  0
    5.8810    5.8495   22.3685 C   0  0  0  0  0  0  0  0  0  0  0  0
   12.1996   10.5486   18.4989 C   0  0  0  0  0  0  0  0  0  0  0  0
   14.1312    5.9822   20.3517 C   0  0  0  0  0  0  0  0  0  0  0  0
    8.1139    4.7342   21.2859 C   0  0  0  0  0  0  0  0  0  0  0  0
    6.8659    4.5279   20.7653 C   0  0  0  0  0  0  0  0  0  0  0  0
   11.1411    8.5814   20.8309 C   0  0  0  0  0  0  0  0  0  0  0  0
   11.0874    7.1215   22.7232 N   0  0  0  0  0  0  0  0  0  0  0  0
   13.8465    5.1066   20.9874 O   0  0  0  0  0  0  0  0  0  0  0  0
   11.2391   11.4821   19.4858 C   0  0  0  0  0  0  0  0  0  0  0  0
    7.0670    6.1451   22.9508 C   0  0  0  0  0  0  0  0  0  0  0  0
    9.9369    5.6787   22.9984 C   0  0  0  0  0  0  0  0  0  0  0  0
   12.2645    7.9537   20.3501 C   0  0  0  0  0  0  0  0  0  0  0  0
   14.5941    7.6823   18.8867 C   0  0  0  0  0  0  0  0  0  0  0  0
   15.0083    6.4737   19.4462 C   0  0  0  0  0  0  0  0  0  0  0  0
   10.2976    8.3498   21.5755 N   0  0  0  0  0  0  0  0  0  0  0  0
    9.7353    9.9786   21.2256 C   0  0  0  0  0  0  0  0  0  0  0  0
    9.7009    6.6450   24.0448 O   0  0  0  0  0  0  0  0  0  0  0  0
  1  6  4  0
  1  8  1  0
  1 22  4  0
  2  4  1  0
  2 25  1  0
  3 10  4  0
  3 14  4  0
  4 18  1  0
  5 11  1  0
  6 12  4  0
  6 21  4  0
  7 13  4  0
  7 19  4  0
  7 20  1  0
  9 20  1  0
  9 26  2  0
 10 19  4  0
 12 17  1  0
 12 23  4  0
 13 14  4  0
 15 21  4  0
 15 24  1  0
 16 24  1  0
 22 23  4  0
M  END
$$$$

 Created by Python create_sdf_string function

 26 49  0  0  0  0  0  0  0  0999 V2000
   13.9648    8.1608   18.9725 Cl  0  0  0  0  0  0  0  0  0  0  0  0
   10.8283   10.8123   20.3594 B   0  0  0  0  0  0  0  0  0  0  0  0
    6.0079    5.4087   20.7949 S   0  0  0  0  0  0  0  0  0  0  0  0
   12.4343   10.3682   18.0931 O   0  0  0  0  0  0  0  0  0  0  0  0
    8.2347    5.8622   22.3027 C   0  0  0  0  0  0  0  0  0  0  0  0
   13.3071   10.1350   18.8621 C   0  0  0  0  0  0  0  0  0  0  0  0
    5.7312    5.7103   22.0474 C   0  0  0  0  0  0  0  0  0  0  0  0
   14.2787    5.4872   19.9069 F   0  0  0  0  0  0  0  0  0  0  0  0
    7.3767    5.0519   21.1495 C   0  0  0  0  0  0  0  0  0  0  0  0
    6.6920    4.2655   20.8020 C   0  0  0  0  0  0  0  0  0  0  0  0
   10.7750    8.8137   20.0088 C   0  0  0  0  0  0  0  0  0  0  0  0
   11.2835    7.5726   22.4660 N   0  0  0  0  0  0  0  0  0  0  0  0
   13.1883    5.4260   21.0687 O   0  0  0  0  0  0  0  0  0  0  0  0
   11.5324   11.1568   20.5059 C   0  0  0  0  0  0  0  0  0  0  0  0
    9.5796    5.6462   22.0207 C   0  0  0  0  0  0  0  0  0  0  0  0
   12.1360    7.7246   20.5877 C   0  0  0  0  0  0  0  0  0  0  0  0
   13.6989    7.5248   19.3977 N   0  0  0  0  0  0  0  0  0  0  0  0
   15.1977    6.4839   19.0343 C   0  0  0  0  0  0  0  0  0  0  0  0
    9.8311    6.2511   24.3221 O   0  0  0  0  0  0  0  0  0  0  0  0
   10.7544   10.8803   19.2303 He  0  0  0  0  0  0  0  0  0  0  0  0
   11.5134    7.1994   19.9713 He  0  0  0  0  0  0  0  0  0  0  0  0
    9.9248    4.9627   23.2170 He  0  0  0  0  0  0  0  0  0  0  0  0
   12.0903   10.2403   18.9886 He  0  0  0  0  0  0  0  0  0  0  0  0
    7.5691    6.8360   23.1704 He  0  0  0  0  0  0  0  0  0  0  0  0
   10.5868    8.5424   21.6298 He  0  0  0  0  0  0  0  0  0  0  0  0
    9.9638    9.7241   21.4678 He  0  0  0  0  0  0  0  0  0  0  0  0
  1  2  3  0
  1  6  1  0
  1  9  2  0
  1 13  3  0
  1 16  4  0
  1 17  4  0
  1 19  2  0
  2  6  2  0
  2 13  2  0
  2 19  1  0
  3  7  4  0
  3 10  4  0
  3 15  1  0
  3 18  1  0
  4  7  1  0
  4 11  1  0
  4 13  4  0
  4 16  4  0
  4 17  4  0
  5  9  1  0
  5 10  2  0
  5 11  3  0
  5 12  3  0
  5 13  2  0
  5 15  1  0
  5 17  3  0
  5 18  4  0
  6 10  1  0
  6 13  4  0
  6 14  2  0
  6 17  1  0
  8 13  1  0
  8 17  1  0
  8 18  4  0
  9 10  4  0
  9 12  1  0
  9 15  1  0
 11 16  4  0
 12 13  3  0
 12 19  2  0
 13 15  3  0
 13 17  1  0
 13 18  3  0
 13 19  4  0
 14 17  1  0
 14 18  4  0
 14 19  4  0
 16 19  4  0
 17 18  4  0
M  END
$$$$

 Created by Python create_sdf_string function

 26 28  0  0  0  0  0  0  0  0999 V2000
   13.5285    8.2409   19.1674 C   0  0  0  0  0  0  0  0  0  0  0  0
   10.2499   10.9950   20.7739 C   0  0  0  0  0  0  0  0  0  0  0  0
    5.7050    5.2367   21.2203 C   0  0  0  0  0  0  0  0  0  0  0  0
   10.6295   11.5799   19.6829 O   0  0  0  0  0  0  0  0  0  0  0  0
   12.5213   10.8232   17.7702 O   0  0  0  0  0  0  0  0  0  0  0  0
   12.5835    6.7888   20.3440 C   0  0  0  0  0  0  0  0  0  0  0  0
    8.2506    5.7942   22.2085 C   0  0  0  0  0  0  0  0  0  0  0  0
   13.3052    9.5563   18.5966 C   0  0  0  0  0  0  0  0  0  0  0  0
   10.3446    5.2009   23.1210 C   0  0  0  0  0  0  0  0  0  0  0  0
    5.8713    6.1168   22.1745 C   0  0  0  0  0  0  0  0  0  0  0  0
   12.1775   10.0558   19.1717 C   0  0  0  0  0  0  0  0  0  0  0  0
   13.8045    5.7372   20.0892 C   0  0  0  0  0  0  0  0  0  0  0  0
    8.0112    4.7900   21.1746 C   0  0  0  0  0  0  0  0  0  0  0  0
    6.7669    4.5597   20.7247 C   0  0  0  0  0  0  0  0  0  0  0  0
   11.5346    8.8909   20.3769 C   0  0  0  0  0  0  0  0  0  0  0  0
   10.4637    7.3530   22.3057 N   0  0  0  0  0  0  0  0  0  0  0  0
   13.0384    5.1395   20.7181 O   0  0  0  0  0  0  0  0  0  0  0  0
   11.1033   10.8844   19.7759 C   0  0  0  0  0  0  0  0  0  0  0  0
    7.1465    6.4330   22.7222 C   0  0  0  0  0  0  0  0  0  0  0  0
    9.6201    6.1039   22.7036 C   0  0  0  0  0  0  0  0  0  0  0  0
   12.4557    7.8652   20.1024 C   0  0  0  0  0  0  0  0  0  0  0  0
   14.5594    7.5220   18.8621 C   0  0  0  0  0  0  0  0  0  0  0  0
   14.8240    6.3605   19.2724 C   0  0  0  0  0  0  0  0  0  0  0  0
   10.6836    8.2048   21.3386 C   0  0  0  0  0  0  0  0  0  0  0  0
   10.0418    9.9484   21.5675 C   0  0  0  0  0  0  0  0  0  0  0  0
    9.9147    6.4419   24.1653 O   0  0  0  0  0  0  0  0  0  0  0  0
  1  8  4  0
  1 21  4  0
  1 22  4  0
  2  4  4  0
  2 25  4  0
  3 10  4  0
  3 14  4  0
  4 18  4  0
  5 11  1  0
  6 12  4  0
  6 21  4  0
  7 13  4  0
  7 19  4  0
  7 20  1  0
  8 11  4  0
  9 20  1  0
 10 19  4  0
 11 15  4  0
 11 18  4  0
 12 17  1  0
 12 23  4  0
 13 14  4  0
 15 21  4  0
 15 24  1  0
 16 20  1  0
 16 24  1  0
 20 26  2  0
 22 23  4  0
M  END
$$$$

 Created by Python create_sdf_string function

 26 24  0  0  0  0  0  0  0  0999 V2000
   10.8406   10.1081   20.3334 C   0  0  0  0  0  0  0  0  0  0  0  0
    5.4456    5.0778   21.4296 O   0  0  0  0  0  0  0  0  0  0  0  0
   10.9735   12.0016   19.0998 O   0  0  0  0  0  0  0  0  0  0  0  0
   12.2846   10.9207   17.0864 O   0  0  0  0  0  0  0  0  0  0  0  0
    8.6866    5.4038   22.1252 S   0  0  0  0  0  0  0  0  0  0  0  0
    5.9147    4.4445   22.1805 O   0  0  0  0  0  0  0  0  0  0  0  0
   11.4188    9.5807   19.6183 C   0  0  0  0  0  0  0  0  0  0  0  0
    7.4208    4.9720   20.7099 C   0  0  0  0  0  0  0  0  0  0  0  0
    6.3614    4.6172   21.0023 C   0  0  0  0  0  0  0  0  0  0  0  0
   11.0886    8.4304   21.4166 O   0  0  0  0  0  0  0  0  0  0  0  0
   10.6258    7.2009   21.7704 N   0  0  0  0  0  0  0  0  0  0  0  0
    7.7427    5.8034   22.9807 C   0  0  0  0  0  0  0  0  0  0  0  0
   10.1697    6.0576   22.0640 C   0  0  0  0  0  0  0  0  0  0  0  0
   12.0075    8.4406   20.4923 C   0  0  0  0  0  0  0  0  0  0  0  0
   14.8806    6.6604   18.9913 C   0  0  0  0  0  0  0  0  0  0  0  0
   14.9887    6.7435   19.0185 P   0  0  0  0  0  0  0  0  0  0  0  0
   10.2818    8.6472   22.1254 C   0  0  0  0  0  0  0  0  0  0  0  0
   13.0608    7.7009   19.6153 He  0  0  0  0  0  0  0  0  0  0  0  0
   11.8784    5.2598   20.1243 He  0  0  0  0  0  0  0  0  0  0  0  0
   13.2462    9.6301   19.2320 He  0  0  0  0  0  0  0  0  0  0  0  0
   10.4232    4.6281   22.6954 He  0  0  0  0  0  0  0  0  0  0  0  0
   13.7842    5.7586   20.3428 He  0  0  0  0  0  0  0  0  0  0  0  0
   12.7688    5.0315   20.3166 He  0  0  0  0  0  0  0  0  0  0  0  0
    9.7231   11.7784   19.6506 He  0  0  0  0  0  0  0  0  0  0  0  0
   10.5578   10.2359   21.8888 He  0  0  0  0  0  0  0  0  0  0  0  0
   10.4839    6.0580   24.1122 He  0  0  0  0  0  0  0  0  0  0  0  0
  1  3  4  0
  1  4  2  0
  2  9  4  0
  3  4  1  0
  3  5  2  0
  3 11  3  0
  3 14  4  0
  3 16  3  0
  3 17  3  0
  4 16  2  0
  5  8  4  0
  5 10  3  0
  5 13  3  0
  6  7  3  0
  6 12  4  0
  8  9  4  0
  8 14  3  0
  9 11  2  0
  9 16  4  0
 10 17  3  0
 12 13  4  0
 12 16  1  0
 13 16  3  0
 15 16  4  0
M  END
$$$$

 Created by Python create_sdf_string function

 26 23  0  0  0  0  0  0  0  0999 V2000
   12.9400    7.9563   19.7517 C   0  0  0  0  0  0  0  0  0  0  0  0
   11.1650   10.2603   20.0154 C   0  0  0  0  0  0  0  0  0  0  0  0
    5.6521    4.7793   21.5591 C   0  0  0  0  0  0  0  0  0  0  0  0
   10.9970   11.4634   18.9371 O   0  0  0  0  0  0  0  0  0  0  0  0
   11.8272   11.3113   17.7924 O   0  0  0  0  0  0  0  0  0  0  0  0
   11.8273    5.2357   20.6968 C   0  0  0  0  0  0  0  0  0  0  0  0
    8.3041    5.3124   22.0416 C   0  0  0  0  0  0  0  0  0  0  0  0
   12.8777    9.1857   19.0597 C   0  0  0  0  0  0  0  0  0  0  0  0
   10.4136    4.6187   22.0152 C   0  0  0  0  0  0  0  0  0  0  0  0
    6.0340    5.0035   22.8006 C   0  0  0  0  0  0  0  0  0  0  0  0
   11.8369    9.9296   19.5802 C   0  0  0  0  0  0  0  0  0  0  0  0
   13.2506    5.6753   20.1544 C   0  0  0  0  0  0  0  0  0  0  0  0
    7.8576    5.0794   20.8130 C   0  0  0  0  0  0  0  0  0  0  0  0
    6.5274    4.8665   20.5999 C   0  0  0  0  0  0  0  0  0  0  0  0
   11.2382    8.5284   21.1393 C   0  0  0  0  0  0  0  0  0  0  0  0
   10.2998    7.0832   22.1298 N   0  0  0  0  0  0  0  0  0  0  0  0
   12.9929    5.0116   20.4807 C   0  0  0  0  0  0  0  0  0  0  0  0
   10.1212   11.9312   19.3553 O   0  0  0  0  0  0  0  0  0  0  0  0
    7.4220    5.3033   23.0673 C   0  0  0  0  0  0  0  0  0  0  0  0
    9.8514    5.8991   22.3303 C   0  0  0  0  0  0  0  0  0  0  0  0
   12.1193    7.8993   20.5343 C   0  0  0  0  0  0  0  0  0  0  0  0
   14.4379    6.7844   19.2188 C   0  0  0  0  0  0  0  0  0  0  0  0
   14.7599    6.5820   19.0761 O   0  0  0  0  0  0  0  0  0  0  0  0
   10.3937    8.4716   22.0909 C   0  0  0  0  0  0  0  0  0  0  0  0
   10.2615   10.2721   21.4516 C   0  0  0  0  0  0  0  0  0  0  0  0
   10.2038    6.1091   23.7626 O   0  0  0  0  0  0  0  0  0  0  0  0
  1  8  4  0
  1 21  4  0
  2  4  1  0
  2 11  4  0
  3 10  4  0
  3 14  4  0
  4  5  1  0
  4 18  2  0
  6 12  1  0
  7 13  4  0
  7 19  4  0
  7 20  1  0
  8 11  4  0
  9 20  1  0
 10 19  4  0
 12 17  1  0
 13 14  4  0
 15 21  4  0
 15 24  4  0
 16 20  1  0
 16 24  1  0
 20 26  2  0
 22 23  4  0
M  END
$$$$

 Created by Python create_sdf_string function

 26 36  0  0  0  0  0  0  0  0999 V2000
   12.5960    7.3094   20.6295 Cl  0  0  0  0  0  0  0  0  0  0  0  0
   11.3660   10.9360   19.9427 F   0  0  0  0  0  0  0  0  0  0  0  0
   10.4623   11.7741   19.0241 O   0  0  0  0  0  0  0  0  0  0  0  0
   12.5641    4.7506   19.8729 N   0  0  0  0  0  0  0  0  0  0  0  0
    8.3367    5.4064   21.2958 C   0  0  0  0  0  0  0  0  0  0  0  0
   13.5694    9.1639   18.9298 C   0  0  0  0  0  0  0  0  0  0  0  0
   10.1378    4.7364   22.2891 C   0  0  0  0  0  0  0  0  0  0  0  0
    7.0110    4.5956   23.0790 N   0  0  0  0  0  0  0  0  0  0  0  0
   11.4026    9.0648   19.5916 B   0  0  0  0  0  0  0  0  0  0  0  0
   12.8092    5.2106   20.1656 O   0  0  0  0  0  0  0  0  0  0  0  0
   11.3561    7.2989   21.0248 C   0  0  0  0  0  0  0  0  0  0  0  0
   10.0079    7.0047   22.4466 N   0  0  0  0  0  0  0  0  0  0  0  0
   12.0012    5.2509   20.1994 C   0  0  0  0  0  0  0  0  0  0  0  0
   10.3780   12.3072   19.3556 O   0  0  0  0  0  0  0  0  0  0  0  0
    9.2063    6.5537   23.1044 O   0  0  0  0  0  0  0  0  0  0  0  0
   12.1593    8.3320   20.5780 C   0  0  0  0  0  0  0  0  0  0  0  0
   14.7920    6.9886   18.9495 O   0  0  0  0  0  0  0  0  0  0  0  0
   13.7676    6.5561   18.8950 O   0  0  0  0  0  0  0  0  0  0  0  0
   10.2675    8.6269   21.6899 C   0  0  0  0  0  0  0  0  0  0  0  0
   10.1879   10.5120   21.6061 C   0  0  0  0  0  0  0  0  0  0  0  0
    5.6290    4.4656   21.3745 He  0  0  0  0  0  0  0  0  0  0  0  0
   11.1086   11.6007   17.7843 He  0  0  0  0  0  0  0  0  0  0  0  0
    7.9476    5.0724   20.9757 He  0  0  0  0  0  0  0  0  0  0  0  0
    6.6423    3.8069   19.8519 He  0  0  0  0  0  0  0  0  0  0  0  0
    7.0878    5.0666   23.4609 He  0  0  0  0  0  0  0  0  0  0  0  0
   10.5003    5.6944   24.1569 He  0  0  0  0  0  0  0  0  0  0  0  0
  1  6  4  0
  1  8  3  0
  1 18  4  0
  2  3  1  0
  2 19  4  0
  3  7  4  0
  3  9  3  0
  3 14  2  0
  3 15  1  0
  4  6  1  0
  4 10  1  0
  4 14  4  0
  5 14  3  0
  5 15  1  0
  6  7  3  0
  6  9  4  0
  6 11  1  0
  6 12  1  0
  7  9  1  0
  7 15  1  0
  7 18  2  0
  8 13  3  0
  9 18  2  0
  9 20  1  0
 10 13  1  0
 10 16  1  0
 11 14  2  0
 11 16  1  0
 11 17  3  0
 11 19  4  0
 12 19  1  0
 15 17  2  0
 15 19  1  0
 15 20  2  0
 16 20  1  0
 17 18  4  0
M  END
$$$$

 Created by Python create_sdf_string function

 26 26  0  0  0  0  0  0  0  0999 V2000
   12.8140    7.7073   19.7555 C   0  0  0  0  0  0  0  0  0  0  0  0
   11.6298   11.2447   19.8191 C   0  0  0  0  0  0  0  0  0  0  0  0
    5.8983    4.0710   21.4125 C   0  0  0  0  0  0  0  0  0  0  0  0
   10.8300   11.6510   19.0852 C   0  0  0  0  0  0  0  0  0  0  0  0
   11.0986   11.4465   17.8863 O   0  0  0  0  0  0  0  0  0  0  0  0
   12.5914    4.6211   19.9163 C   0  0  0  0  0  0  0  0  0  0  0  0
    8.2536    5.3561   22.0638 C   0  0  0  0  0  0  0  0  0  0  0  0
   12.9962    9.0976   19.2216 C   0  0  0  0  0  0  0  0  0  0  0  0
   10.5365    5.3038   22.5644 C   0  0  0  0  0  0  0  0  0  0  0  0
    6.1318    4.5262   22.6207 C   0  0  0  0  0  0  0  0  0  0  0  0
   11.5010    9.4827   20.1695 C   0  0  0  0  0  0  0  0  0  0  0  0
   12.7356    5.4669   19.9690 O   0  0  0  0  0  0  0  0  0  0  0  0
    7.9446    4.9414   20.8135 C   0  0  0  0  0  0  0  0  0  0  0  0
    6.7714    4.2835   20.4753 C   0  0  0  0  0  0  0  0  0  0  0  0
   11.2643    7.2265   20.9535 C   0  0  0  0  0  0  0  0  0  0  0  0
    9.7680    7.3099   22.3733 N   0  0  0  0  0  0  0  0  0  0  0  0
   11.7690    5.8127   20.9252 C   0  0  0  0  0  0  0  0  0  0  0  0
   10.0555   12.4067   19.4228 O   0  0  0  0  0  0  0  0  0  0  0  0
    7.2802    5.1288   22.9845 C   0  0  0  0  0  0  0  0  0  0  0  0
    9.4881    5.9730   22.5014 C   0  0  0  0  0  0  0  0  0  0  0  0
   11.9461    8.2599   20.2551 C   0  0  0  0  0  0  0  0  0  0  0  0
   14.6000    6.6712   18.7986 O   0  0  0  0  0  0  0  0  0  0  0  0
   13.6473    6.7013   19.4355 C   0  0  0  0  0  0  0  0  0  0  0  0
   10.3604    8.1627   21.6467 C   0  0  0  0  0  0  0  0  0  0  0  0
   10.3611   10.1353   20.8625 C   0  0  0  0  0  0  0  0  0  0  0  0
   10.4154    5.6415   24.0003 O   0  0  0  0  0  0  0  0  0  0  0  0
  1  8  4  0
  1 21  4  0
  1 23  4  0
  2  4  1  0
  3 10  4  0
  3 14  4  0
  4  5  1  0
  4 18  2  0
  6 12  1  0
  7 13  4  0
  7 19  4  0
  7 20  1  0
  8 11  4  0
  9 20  1  0
 10 19  4  0
 11 21  4  0
 11 25  1  0
 12 17  1  0
 12 23  4  0
 13 14  4  0
 15 17  4  0
 15 21  4  0
 15 24  4  0
 16 20  1  0
 16 24  1  0
 22 23  2  0
M  END
$$$$

 Created by Python create_sdf_string function

 26 61  0  0  0  0  0  0  0  0999 V2000
   12.6487    9.0150   19.4593 O   0  0  0  0  0  0  0  0  0  0  0  0
   11.8549   11.4238   20.0675 N   0  0  0  0  0  0  0  0  0  0  0  0
    5.9034    4.0065   20.9341 C   0  0  0  0  0  0  0  0  0  0  0  0
   11.2668   12.0169   19.4210 C   0  0  0  0  0  0  0  0  0  0  0  0
   11.2096   11.8739   17.4346 C   0  0  0  0  0  0  0  0  0  0  0  0
   12.6128    5.3740   20.7791 C   0  0  0  0  0  0  0  0  0  0  0  0
    8.1761    5.6470   22.5031 C   0  0  0  0  0  0  0  0  0  0  0  0
   12.7816    9.3722   18.6463 C   0  0  0  0  0  0  0  0  0  0  0  0
    6.5475    4.6241   22.7267 C   0  0  0  0  0  0  0  0  0  0  0  0
   12.6011    6.2077   19.8367 O   0  0  0  0  0  0  0  0  0  0  0  0
    6.7925    4.7498   20.2212 C   0  0  0  0  0  0  0  0  0  0  0  0
    6.4593    4.8959   20.2223 C   0  0  0  0  0  0  0  0  0  0  0  0
   11.6252    7.2118   21.0639 O   0  0  0  0  0  0  0  0  0  0  0  0
   10.2809    6.5880   23.0003 P   0  0  0  0  0  0  0  0  0  0  0  0
    8.7249   12.2805   19.9439 O   0  0  0  0  0  0  0  0  0  0  0  0
    7.4798    5.5248   22.2906 C   0  0  0  0  0  0  0  0  0  0  0  0
    9.1837    5.5513   22.1471 C   0  0  0  0  0  0  0  0  0  0  0  0
   12.6228    8.1104   20.3258 C   0  0  0  0  0  0  0  0  0  0  0  0
   14.7627    7.4588   18.8064 C   0  0  0  0  0  0  0  0  0  0  0  0
   13.5310    6.7031   19.4961 C   0  0  0  0  0  0  0  0  0  0  0  0
   10.2231    7.5553   21.3133 C   0  0  0  0  0  0  0  0  0  0  0  0
   10.1477    9.9965   20.4035 Se  0  0  0  0  0  0  0  0  0  0  0  0
   10.3734    5.8811   22.4220 He  0  0  0  0  0  0  0  0  0  0  0  0
   11.4978   10.4101   21.0020 He  0  0  0  0  0  0  0  0  0  0  0  0
   11.7417    6.4837   21.5225 He  0  0  0  0  0  0  0  0  0  0  0  0
   10.2199    6.0206   23.2966 He  0  0  0  0  0  0  0  0  0  0  0  0
  1  2  4  0
  1  6  2  0
  1  8  4  0
  1 13  3  0
  1 17  4  0
  1 18  4  0
  1 20  4  0
  2  4  1  0
  2  6  1  0
  2 12  3  0
  2 22  2  0
  3  4  1  0
  3  7  4  0
  3 10  4  0
  3 12  4  0
  3 19  4  0
  4  5  2  0
  4  6  3  0
  4  8  2  0
  4 15  2  0
  5  9  2  0
  5 22  3  0
  6  8  1  0
  6 10  4  0
  6 14  3  0
  6 18  4  0
  6 21  4  0
  7 11  4  0
  7 17  4  0
  7 21  1  0
  8 12  3  0
  8 13  2  0
  8 22  3  0
  9 11  3  0
  9 13  2  0
  9 14  2  0
  9 16  3  0
  9 22  3  0
 10 11  3  0
 10 13  2  0
 10 17  4  0
 10 20  4  0
 11 12  4  0
 11 18  3  0
 11 22  1  0
 12 13  2  0
 12 14  4  0
 12 18  3  0
 13 14  1  0
 13 18  4  0
 13 20  1  0
 13 21  4  0
 13 22  4  0
 14 17  1  0
 14 21  1  0
 15 16  2  0
 16 17  2  0
 17 21  2  0
 19 20  2  0
 19 22  2  0
 21 22  1  0
M  END
$$$$

 Created by Python create_sdf_string function

 26 28  0  0  0  0  0  0  0  0999 V2000
   12.9535    8.4118   19.4475 C   0  0  0  0  0  0  0  0  0  0  0  0
   11.6027   11.5339   20.0590 N   0  0  0  0  0  0  0  0  0  0  0  0
    5.6179    4.2125   21.1868 C   0  0  0  0  0  0  0  0  0  0  0  0
   10.6536   11.9267   19.1902 C   0  0  0  0  0  0  0  0  0  0  0  0
   10.9985   12.1474   17.9371 O   0  0  0  0  0  0  0  0  0  0  0  0
   12.5997    5.2396   20.6307 C   0  0  0  0  0  0  0  0  0  0  0  0
    7.8952    5.3530   21.7549 C   0  0  0  0  0  0  0  0  0  0  0  0
   12.8486    9.6218   18.9893 C   0  0  0  0  0  0  0  0  0  0  0  0
   10.1512    5.3550   22.3359 C   0  0  0  0  0  0  0  0  0  0  0  0
    5.9787    4.5293   22.4519 C   0  0  0  0  0  0  0  0  0  0  0  0
   11.4302    9.8552   20.2621 C   0  0  0  0  0  0  0  0  0  0  0  0
   13.3460    5.9732   19.8441 C   0  0  0  0  0  0  0  0  0  0  0  0
    7.5354    5.1345   20.4753 C   0  0  0  0  0  0  0  0  0  0  0  0
    6.3946    4.5789   20.2744 C   0  0  0  0  0  0  0  0  0  0  0  0
   11.4986    7.5258   21.0390 C   0  0  0  0  0  0  0  0  0  0  0  0
    9.8676    6.9932   22.6404 C   0  0  0  0  0  0  0  0  0  0  0  0
   11.6977    6.0696   21.2613 C   0  0  0  0  0  0  0  0  0  0  0  0
    9.5701   12.2034   19.6525 O   0  0  0  0  0  0  0  0  0  0  0  0
    7.0533    5.1467   22.6636 C   0  0  0  0  0  0  0  0  0  0  0  0
    9.1673    5.7225   22.4206 C   0  0  0  0  0  0  0  0  0  0  0  0
   12.0227    8.1939   20.3624 C   0  0  0  0  0  0  0  0  0  0  0  0
   14.6827    7.2881   18.4836 O   0  0  0  0  0  0  0  0  0  0  0  0
   13.6682    7.2020   19.2824 C   0  0  0  0  0  0  0  0  0  0  0  0
   10.4027    7.9904   21.7479 C   0  0  0  0  0  0  0  0  0  0  0  0
   10.5131    9.9141   20.8462 C   0  0  0  0  0  0  0  0  0  0  0  0
   10.2535    5.9476   23.6996 O   0  0  0  0  0  0  0  0  0  0  0  0
  1  8  4  0
  1 21  4  0
  1 23  4  0
  2  4  1  0
  2 11  1  0
  3 10  4  0
  3 14  4  0
  4  5  1  0
  4 18  2  0
  6 12  4  0
  6 17  4  0
  7 13  4  0
  7 19  4  0
  7 20  1  0
  8 11  4  0
  9 20  1  0
 10 19  4  0
 11 21  4  0
 11 25  4  0
 12 23  4  0
 13 14  4  0
 15 17  4  0
 15 21  4  0
 15 24  4  0
 16 20  1  0
 16 24  1  0
 22 23  2  0
 24 25  1  0
M  END
$$$$

 Created by Python create_sdf_string function

 26 32  0  0  0  0  0  0  0  0999 V2000
   12.6949    7.8283   20.0387 C   0  0  0  0  0  0  0  0  0  0  0  0
    5.5570    4.6543   21.3876 C   0  0  0  0  0  0  0  0  0  0  0  0
   10.3419   11.8106   19.0682 C   0  0  0  0  0  0  0  0  0  0  0  0
   11.0201   11.8509   18.1952 O   0  0  0  0  0  0  0  0  0  0  0  0
   13.5792   10.2702   19.4983 C   0  0  0  0  0  0  0  0  0  0  0  0
   10.9162    9.2748   19.9249 N   0  0  0  0  0  0  0  0  0  0  0  0
   12.6451    6.1505   19.5955 C   0  0  0  0  0  0  0  0  0  0  0  0
    6.2585    4.5034   20.6994 C   0  0  0  0  0  0  0  0  0  0  0  0
   10.0223    7.3106   22.5668 C   0  0  0  0  0  0  0  0  0  0  0  0
   11.4028    5.6583   21.5363 C   0  0  0  0  0  0  0  0  0  0  0  0
    8.1307    5.5436   23.0162 C   0  0  0  0  0  0  0  0  0  0  0  0
    8.8394    6.1276   22.6492 C   0  0  0  0  0  0  0  0  0  0  0  0
   11.6197    7.8972   20.4625 O   0  0  0  0  0  0  0  0  0  0  0  0
   13.2664    6.9729   19.4488 O   0  0  0  0  0  0  0  0  0  0  0  0
   13.5382    7.6121   19.6066 C   0  0  0  0  0  0  0  0  0  0  0  0
   10.6220    7.9838   21.2975 P   0  0  0  0  0  0  0  0  0  0  0  0
   10.1170    9.9838   20.6415 C   0  0  0  0  0  0  0  0  0  0  0  0
   11.9832   11.1250   19.9248 He  0  0  0  0  0  0  0  0  0  0  0  0
   12.5781    4.9462   21.1216 He  0  0  0  0  0  0  0  0  0  0  0  0
    7.9598    5.0322   21.8196 He  0  0  0  0  0  0  0  0  0  0  0  0
    9.9054    5.1866   22.1987 He  0  0  0  0  0  0  0  0  0  0  0  0
    5.8676    4.5726   21.8925 He  0  0  0  0  0  0  0  0  0  0  0  0
    7.7075    5.1617   20.5036 He  0  0  0  0  0  0  0  0  0  0  0  0
   11.6939    7.9458   20.9962 He  0  0  0  0  0  0  0  0  0  0  0  0
    9.5256   12.6457   19.3088 He  0  0  0  0  0  0  0  0  0  0  0  0
    9.0297    6.1420   23.3303 He  0  0  0  0  0  0  0  0  0  0  0  0
  1 13  4  0
  1 15  4  0
  2  5  3  0
  2 10  2  0
  2 17  2  0
  3  5  3  0
  3  8  4  0
  3 10  1  0
  3 11  2  0
  3 13  3  0
  3 16  1  0
  4 12  4  0
  4 13  2  0
  5 12  4  0
  6  7  2  0
  6  9  2  0
  6 13  1  0
  6 17  1  0
  7 13  2  0
  7 14  2  0
  7 15  4  0
  8 10  1  0
  8 15  3  0
  9 10  1  0
  9 11  1  0
  9 12  1  0
  9 16  1  0
  9 17  1  0
 12 13  2  0
 12 14  2  0
 14 15  4  0
 16 17  1  0
M  END
$$$$

 Created by Python create_sdf_string function

 26 30  0  0  0  0  0  0  0  0999 V2000
   12.9034    8.2119   19.6640 C   0  0  0  0  0  0  0  0  0  0  0  0
   11.5074   10.8682   19.7871 C   0  0  0  0  0  0  0  0  0  0  0  0
    5.5036    4.5169   21.3076 C   0  0  0  0  0  0  0  0  0  0  0  0
   10.5624   11.8763   19.0214 C   0  0  0  0  0  0  0  0  0  0  0  0
   10.9329   11.9844   17.8835 O   0  0  0  0  0  0  0  0  0  0  0  0
   12.2659    5.1814   20.6840 C   0  0  0  0  0  0  0  0  0  0  0  0
    7.8977    5.1330   21.8488 C   0  0  0  0  0  0  0  0  0  0  0  0
   13.1740   10.1892   19.3998 C   0  0  0  0  0  0  0  0  0  0  0  0
   10.1938    5.3641   22.0343 C   0  0  0  0  0  0  0  0  0  0  0  0
    5.8060    4.8443   22.4898 C   0  0  0  0  0  0  0  0  0  0  0  0
   11.2149    9.7436   20.1256 N   0  0  0  0  0  0  0  0  0  0  0  0
   13.2400    5.9093   19.8817 C   0  0  0  0  0  0  0  0  0  0  0  0
    7.6245    4.7453   20.5952 C   0  0  0  0  0  0  0  0  0  0  0  0
    6.3436    4.4953   20.3406 C   0  0  0  0  0  0  0  0  0  0  0  0
   11.2667    7.3856   21.0544 C   0  0  0  0  0  0  0  0  0  0  0  0
    9.6455    7.6161   22.5791 C   0  0  0  0  0  0  0  0  0  0  0  0
   11.2608    5.8709   21.2219 C   0  0  0  0  0  0  0  0  0  0  0  0
    9.6631   12.4527   19.4663 O   0  0  0  0  0  0  0  0  0  0  0  0
    7.1544    5.1936   22.8133 C   0  0  0  0  0  0  0  0  0  0  0  0
    9.3786    6.1913   22.6942 C   0  0  0  0  0  0  0  0  0  0  0  0
   11.8271    8.2050   20.3021 C   0  0  0  0  0  0  0  0  0  0  0  0
   14.1636    6.5773   18.8929 O   0  0  0  0  0  0  0  0  0  0  0  0
   13.4566    6.9988   19.4265 C   0  0  0  0  0  0  0  0  0  0  0  0
   10.2709    8.1993   21.7452 C   0  0  0  0  0  0  0  0  0  0  0  0
   10.2518    9.9991   20.6586 C   0  0  0  0  0  0  0  0  0  0  0  0
    9.1605    6.3762   23.7612 O   0  0  0  0  0  0  0  0  0  0  0  0
  1  8  1  0
  1 21  4  0
  1 23  4  0
  2  4  1  0
  2  8  1  0
  2 11  1  0
  2 25  1  0
  3 10  4  0
  3 14  4  0
  4  5  1  0
  4 18  2  0
  6 12  4  0
  6 17  4  0
  7 13  4  0
  7 19  4  0
  7 20  1  0
  9 17  1  0
  9 20  1  0
 10 19  4  0
 11 21  1  0
 11 25  1  0
 12 23  4  0
 13 14  4  0
 15 17  4  0
 15 21  4  0
 15 24  4  0
 16 20  1  0
 16 24  1  0
 20 26  1  0
 24 25  1  0
M  END
$$$$

 Created by Python create_sdf_string function

 26 48  0  0  0  0  0  0  0  0999 V2000
   12.1973    8.5596   19.8359 C   0  0  0  0  0  0  0  0  0  0  0  0
    5.2307    4.4173   21.5407 C   0  0  0  0  0  0  0  0  0  0  0  0
   10.2229   12.1551   18.9539 C   0  0  0  0  0  0  0  0  0  0  0  0
   10.8734   11.6453   18.1138 O   0  0  0  0  0  0  0  0  0  0  0  0
   12.2042    5.3937   20.7988 C   0  0  0  0  0  0  0  0  0  0  0  0
    8.3619    5.0613   21.5663 C   0  0  0  0  0  0  0  0  0  0  0  0
   13.1754   10.2126   19.3724 F   0  0  0  0  0  0  0  0  0  0  0  0
    5.8859    4.2782   23.0039 C   0  0  0  0  0  0  0  0  0  0  0  0
   11.3992    9.7511   20.2280 N   0  0  0  0  0  0  0  0  0  0  0  0
   14.0039    5.1685   20.4326 C   0  0  0  0  0  0  0  0  0  0  0  0
    7.6840    4.0875   20.6112 C   0  0  0  0  0  0  0  0  0  0  0  0
    6.2184    4.9073   20.9416 C   0  0  0  0  0  0  0  0  0  0  0  0
   11.2515    7.2559   22.3994 C   0  0  0  0  0  0  0  0  0  0  0  0
    9.3957   13.2855   19.1648 O   0  0  0  0  0  0  0  0  0  0  0  0
    7.9141    5.9424   22.4773 C   0  0  0  0  0  0  0  0  0  0  0  0
    8.7460    6.5352   22.1564 C   0  0  0  0  0  0  0  0  0  0  0  0
   11.4352    7.3629   20.1192 C   0  0  0  0  0  0  0  0  0  0  0  0
   14.6602    6.3235   18.2821 O   0  0  0  0  0  0  0  0  0  0  0  0
   13.1013    6.7236   19.7103 C   0  0  0  0  0  0  0  0  0  0  0  0
   10.1600    8.4282   21.3880 C   0  0  0  0  0  0  0  0  0  0  0  0
   11.8136   10.7388   19.1233 He  0  0  0  0  0  0  0  0  0  0  0  0
   10.1531    5.2290   22.6594 He  0  0  0  0  0  0  0  0  0  0  0  0
    9.6727    8.0779   22.0962 He  0  0  0  0  0  0  0  0  0  0  0  0
   11.3723    5.8228   20.9657 He  0  0  0  0  0  0  0  0  0  0  0  0
   10.3558    9.9767   20.9138 He  0  0  0  0  0  0  0  0  0  0  0  0
    9.5252    6.7766   24.5670 He  0  0  0  0  0  0  0  0  0  0  0  0
  1  6  4  0
  1  7  1  0
  1 15  4  0
  1 17  4  0
  2  4  4  0
  2  8  4  0
  3  4  1  0
  3  5  4  0
  3 14  2  0
  3 18  3  0
  3 19  3  0
  4  9  3  0
  5  7  4  0
  5  9  3  0
  5 10  4  0
  5 15  3  0
  5 18  2  0
  6  7  4  0
  6  8  4  0
  6 11  4  0
  6 15  4  0
  6 16  1  0
  7 12  2  0
  7 19  3  0
  8 11  2  0
  8 15  4  0
  8 16  2  0
  9 11  2  0
  9 16  1  0
  9 17  1  0
  9 19  1  0
 10 11  3  0
 10 12  2  0
 10 19  2  0
 11 16  1  0
 12 15  4  0
 12 17  3  0
 12 19  3  0
 13 16  2  0
 13 17  4  0
 13 18  3  0
 13 20  3  0
 14 16  3  0
 14 20  2  0
 15 16  3  0
 16 18  4  0
 17 18  4  0
 17 19  3  0
M  END
$$$$

 Created by Python create_sdf_string function

 26 30  0  0  0  0  0  0  0  0999 V2000
   12.3294    9.0639   19.7379 C   0  0  0  0  0  0  0  0  0  0  0  0
   11.4775   11.2840   19.4608 C   0  0  0  0  0  0  0  0  0  0  0  0
    5.5776    4.4117   21.5858 C   0  0  0  0  0  0  0  0  0  0  0  0
   10.4760   11.9232   18.9036 C   0  0  0  0  0  0  0  0  0  0  0  0
   10.5865   11.8701   17.6647 O   0  0  0  0  0  0  0  0  0  0  0  0
   12.3338    5.1064   21.1416 C   0  0  0  0  0  0  0  0  0  0  0  0
    8.2414    5.2156   21.9513 C   0  0  0  0  0  0  0  0  0  0  0  0
   13.1954    9.5095   19.0844 O   0  0  0  0  0  0  0  0  0  0  0  0
   10.0253    5.3391   22.1161 C   0  0  0  0  0  0  0  0  0  0  0  0
    5.9406    4.9335   22.7385 C   0  0  0  0  0  0  0  0  0  0  0  0
   11.2201    9.9459   20.0105 C   0  0  0  0  0  0  0  0  0  0  0  0
   13.2301    5.4767   20.1981 C   0  0  0  0  0  0  0  0  0  0  0  0
    7.6667    4.5733   20.7331 C   0  0  0  0  0  0  0  0  0  0  0  0
    6.4041    4.2918   20.6652 C   0  0  0  0  0  0  0  0  0  0  0  0
   11.1865    7.2614   21.0965 C   0  0  0  0  0  0  0  0  0  0  0  0
    9.6169    7.9641   22.2354 N   0  0  0  0  0  0  0  0  0  0  0  0
   11.3478    5.8872   21.4125 C   0  0  0  0  0  0  0  0  0  0  0  0
    9.7201   12.5986   19.4038 O   0  0  0  0  0  0  0  0  0  0  0  0
    7.3315    5.3991   22.9103 C   0  0  0  0  0  0  0  0  0  0  0  0
    9.3520    6.3996   22.7623 C   0  0  0  0  0  0  0  0  0  0  0  0
   12.2031    7.6703   20.2719 C   0  0  0  0  0  0  0  0  0  0  0  0
   14.3945    6.7046   18.6017 O   0  0  0  0  0  0  0  0  0  0  0  0
   13.2894    6.7226   19.7136 C   0  0  0  0  0  0  0  0  0  0  0  0
   10.3372    8.3203   21.4060 C   0  0  0  0  0  0  0  0  0  0  0  0
   10.2949    9.6798   20.7867 C   0  0  0  0  0  0  0  0  0  0  0  0
    9.3953    6.6599   24.1293 O   0  0  0  0  0  0  0  0  0  0  0  0
  1  8  1  0
  1 11  4  0
  1 21  4  0
  2  4  1  0
  2 11  1  0
  3 10  4  0
  3 14  4  0
  4  5  1  0
  4 18  2  0
  6 12  4  0
  6 17  4  0
  7  9  1  0
  7 13  4  0
  7 19  4  0
  7 20  1  0
  9 17  1  0
  9 20  1  0
 10 19  4  0
 11 25  4  0
 12 23  4  0
 13 14  4  0
 15 17  4  0
 15 21  4  0
 15 24  4  0
 16 20  1  0
 16 24  1  0
 20 26  2  0
 21 23  4  0
 22 23  1  0
 24 25  4  0
M  END
$$$$

 Created by Python create_sdf_string function

 26 32  0  0  0  0  0  0  0  0999 V2000
   11.4596   11.2562   19.2236 C   0  0  0  0  0  0  0  0  0  0  0  0
   11.2894   11.2542   18.5712 C   0  0  0  0  0  0  0  0  0  0  0  0
   11.1047   11.1766   17.3805 O   0  0  0  0  0  0  0  0  0  0  0  0
   13.0605   10.2686   19.4801 P   0  0  0  0  0  0  0  0  0  0  0  0
    5.2035    5.2652   22.6399 C   0  0  0  0  0  0  0  0  0  0  0  0
   11.3745   10.0898   19.9344 C   0  0  0  0  0  0  0  0  0  0  0  0
    8.4073    3.7318   20.8977 C   0  0  0  0  0  0  0  0  0  0  0  0
   11.2361    7.2324   20.6764 F   0  0  0  0  0  0  0  0  0  0  0  0
    9.3958    8.6237   21.9441 N   0  0  0  0  0  0  0  0  0  0  0  0
   11.7364    5.8683   20.7693 C   0  0  0  0  0  0  0  0  0  0  0  0
    7.1358    5.4797   22.8856 C   0  0  0  0  0  0  0  0  0  0  0  0
   10.0121    7.4434   22.5400 C   0  0  0  0  0  0  0  0  0  0  0  0
   14.3885    6.8934   18.5639 O   0  0  0  0  0  0  0  0  0  0  0  0
   13.6782    6.5282   19.1499 Cl  0  0  0  0  0  0  0  0  0  0  0  0
   10.4717    9.2898   20.8411 C   0  0  0  0  0  0  0  0  0  0  0  0
    9.1404    7.1391   24.4002 Cl  0  0  0  0  0  0  0  0  0  0  0  0
   12.4906    9.1876   19.6678 He  0  0  0  0  0  0  0  0  0  0  0  0
    5.4387    4.5937   21.2146 He  0  0  0  0  0  0  0  0  0  0  0  0
   12.9886    4.8290   20.7447 He  0  0  0  0  0  0  0  0  0  0  0  0
    8.1036    5.1913   21.1455 He  0  0  0  0  0  0  0  0  0  0  0  0
   10.1988    5.6250   22.6380 He  0  0  0  0  0  0  0  0  0  0  0  0
   13.0775    5.8648   20.0083 He  0  0  0  0  0  0  0  0  0  0  0  0
    6.3382    3.7434   20.4064 He  0  0  0  0  0  0  0  0  0  0  0  0
    9.9114   12.6477   19.3280 He  0  0  0  0  0  0  0  0  0  0  0  0
   12.0292    7.6982   20.6283 He  0  0  0  0  0  0  0  0  0  0  0  0
    9.7576    9.1295   21.8650 He  0  0  0  0  0  0  0  0  0  0  0  0
  1  2  1  0
  1  4  1  0
  1  6  1  0
  2  3  3  0
  2  5  2  0
  2  8  4  0
  2  9  3  0
  2 10  2  0
  2 14  2  0
  3  4  3  0
  3 10  1  0
  3 11  2  0
  3 13  3  0
  3 16  3  0
  4  5  1  0
  5 10  4  0
  5 11  4  0
  5 12  1  0
  5 16  1  0
  6 15  4  0
  8  9  3  0
  8 10  4  0
  8 12  3  0
  8 13  3  0
  8 15  1  0
  8 16  4  0
  9 12  1  0
  9 15  4  0
 11 12  2  0
 11 15  1  0
 12 13  4  0
 13 14  1  0
M  END
$$$$

 Created by Python create_sdf_string function

 26 29  0  0  0  0  0  0  0  0999 V2000
   12.4818    9.0813   19.6160 C   0  0  0  0  0  0  0  0  0  0  0  0
   11.6446   11.0377   19.4927 C   0  0  0  0  0  0  0  0  0  0  0  0
    5.5447    4.1912   21.2610 C   0  0  0  0  0  0  0  0  0  0  0  0
   10.8624   11.6334   18.5255 C   0  0  0  0  0  0  0  0  0  0  0  0
   11.0638   11.4647   17.3530 O   0  0  0  0  0  0  0  0  0  0  0  0
   12.5392    4.9926   20.6908 C   0  0  0  0  0  0  0  0  0  0  0  0
    8.0418    5.2004   21.9823 C   0  0  0  0  0  0  0  0  0  0  0  0
   13.0171   10.1154   19.1160 O   0  0  0  0  0  0  0  0  0  0  0  0
    9.4956    5.6469   22.2809 C   0  0  0  0  0  0  0  0  0  0  0  0
    5.6331    5.1703   22.2549 C   0  0  0  0  0  0  0  0  0  0  0  0
   11.3089    9.8165   20.0989 C   0  0  0  0  0  0  0  0  0  0  0  0
   13.2974    5.5485   19.9545 N   0  0  0  0  0  0  0  0  0  0  0  0
    7.8522    4.2225   20.9858 C   0  0  0  0  0  0  0  0  0  0  0  0
    6.6564    3.7721   20.6744 C   0  0  0  0  0  0  0  0  0  0  0  0
   11.4178    7.0957   20.9157 C   0  0  0  0  0  0  0  0  0  0  0  0
    9.9658    8.2230   21.7476 N   0  0  0  0  0  0  0  0  0  0  0  0
   11.6236    5.7371   21.2101 C   0  0  0  0  0  0  0  0  0  0  0  0
   10.0148   12.3619   18.9857 O   0  0  0  0  0  0  0  0  0  0  0  0
    6.8636    5.6748   22.6034 C   0  0  0  0  0  0  0  0  0  0  0  0
    9.6019    6.9903   22.6397 C   0  0  0  0  0  0  0  0  0  0  0  0
   12.3183    7.6595   20.1240 C   0  0  0  0  0  0  0  0  0  0  0  0
   14.2609    7.1964   18.6092 O   0  0  0  0  0  0  0  0  0  0  0  0
   13.3316    6.8296   19.5348 C   0  0  0  0  0  0  0  0  0  0  0  0
    9.9240    9.0652   21.4030 C   0  0  0  0  0  0  0  0  0  0  0  0
   10.6016    9.2365   20.8290 C   0  0  0  0  0  0  0  0  0  0  0  0
    9.3452    7.1057   24.0005 O   0  0  0  0  0  0  0  0  0  0  0  0
  1  8  1  0
  1 11  4  0
  1 21  4  0
  2  4  1  0
  2  8  1  0
  2 11  1  0
  3 10  4  0
  3 14  4  0
  4  5  1  0
  4 18  2  0
  6 12  4  0
  6 17  4  0
  7  9  1  0
  7 13  4  0
  7 19  4  0
  9 20  1  0
 10 19  4  0
 11 25  4  0
 12 23  4  0
 13 14  4  0
 15 17  4  0
 15 21  4  0
 16 20  1  0
 16 24  4  0
 16 25  4  0
 20 26  2  0
 21 23  4  0
 22 23  1  0
 24 25  4  0
M  END
$$$$

 Created by Python create_sdf_string function

 26 47  0  0  0  0  0  0  0  0999 V2000
   12.5378    8.9674   19.4505 C   0  0  0  0  0  0  0  0  0  0  0  0
    5.0514    3.6728   21.1794 C   0  0  0  0  0  0  0  0  0  0  0  0
   10.7520   11.8536   18.7381 C   0  0  0  0  0  0  0  0  0  0  0  0
   10.9864   11.9435   17.7048 O   0  0  0  0  0  0  0  0  0  0  0  0
   12.9863    5.0142   20.2965 N   0  0  0  0  0  0  0  0  0  0  0  0
   12.6614   10.5870   19.0268 O   0  0  0  0  0  0  0  0  0  0  0  0
    9.1976    6.4834   21.2218 Cl  0  0  0  0  0  0  0  0  0  0  0  0
    6.1411    4.9757   22.4224 C   0  0  0  0  0  0  0  0  0  0  0  0
   10.7738    9.6633   20.5329 C   0  0  0  0  0  0  0  0  0  0  0  0
   12.1529    5.1544   20.2644 N   0  0  0  0  0  0  0  0  0  0  0  0
    8.1319    4.1042   21.2901 C   0  0  0  0  0  0  0  0  0  0  0  0
    7.4375    3.9060   21.4798 I   0  0  0  0  0  0  0  0  0  0  0  0
   12.4283    7.2374   20.2641 Se  0  0  0  0  0  0  0  0  0  0  0  0
    7.0329    5.8391   22.2930 C   0  0  0  0  0  0  0  0  0  0  0  0
    9.3496    6.7870   22.8663 C   0  0  0  0  0  0  0  0  0  0  0  0
   12.7650    7.4554   19.7958 C   0  0  0  0  0  0  0  0  0  0  0  0
   14.6176    6.6945   19.0483 O   0  0  0  0  0  0  0  0  0  0  0  0
   13.6099    6.7835   19.9409 F   0  0  0  0  0  0  0  0  0  0  0  0
    9.5262    8.9820   21.3331 C   0  0  0  0  0  0  0  0  0  0  0  0
   10.3071    9.0517   20.9646 C   0  0  0  0  0  0  0  0  0  0  0  0
    9.5570    7.3280   24.6988 O   0  0  0  0  0  0  0  0  0  0  0  0
   11.9941   10.7675   19.8424 He  0  0  0  0  0  0  0  0  0  0  0  0
    8.0809    4.6527   21.6748 He  0  0  0  0  0  0  0  0  0  0  0  0
    9.6331    8.5414   22.1406 He  0  0  0  0  0  0  0  0  0  0  0  0
   12.1565    6.4120   21.5560 He  0  0  0  0  0  0  0  0  0  0  0  0
    9.4797   12.4719   18.8609 He  0  0  0  0  0  0  0  0  0  0  0  0
  1  4  4  0
  1  5  3  0
  1  6  1  0
  1  9  4  0
  1 15  3  0
  1 17  1  0
  1 18  1  0
  1 19  1  0
  2  5  4  0
  2  8  4  0
  2 12  4  0
  2 17  4  0
  2 21  4  0
  3  4  1  0
  3  9  3  0
  3 11  4  0
  3 12  4  0
  3 18  3  0
  4 14  3  0
  4 17  3  0
  5  9  3  0
  5 10  4  0
  5 14  3  0
  5 15  1  0
  5 19  3  0
  6 10  4  0
  6 13  3  0
  7  8  2  0
  7 13  2  0
  7 15  1  0
  7 21  1  0
  8 11  1  0
  8 12  3  0
  8 18  2  0
  9 20  4  0
 10 18  3  0
 11 12  4  0
 11 16  4  0
 12 16  4  0
 13 18  2  0
 13 20  4  0
 14 20  1  0
 15 17  3  0
 15 21  2  0
 16 18  3  0
 17 18  1  0
 18 19  1  0
M  END
$$$$

 Created by Python create_sdf_string function

 26 30  0  0  0  0  0  0  0  0999 V2000
   12.7051    9.1155   19.4530 C   0  0  0  0  0  0  0  0  0  0  0  0
   11.5077   10.9278   19.6480 C   0  0  0  0  0  0  0  0  0  0  0  0
    5.7976    3.7178   21.5771 C   0  0  0  0  0  0  0  0  0  0  0  0
   10.6432   11.8207   18.7727 C   0  0  0  0  0  0  0  0  0  0  0  0
   11.0918   12.0907   17.6318 O   0  0  0  0  0  0  0  0  0  0  0  0
   12.6048    5.0564   20.6387 N   0  0  0  0  0  0  0  0  0  0  0  0
    8.0158    5.3402   21.8895 C   0  0  0  0  0  0  0  0  0  0  0  0
   12.7196   10.4069   18.9012 O   0  0  0  0  0  0  0  0  0  0  0  0
    9.0714    6.0904   21.8230 N   0  0  0  0  0  0  0  0  0  0  0  0
    5.6383    4.8714   22.2986 C   0  0  0  0  0  0  0  0  0  0  0  0
   11.1254    9.6792   20.2596 C   0  0  0  0  0  0  0  0  0  0  0  0
   12.9161    5.3611   19.8623 N   0  0  0  0  0  0  0  0  0  0  0  0
    8.0236    4.0978   21.1891 C   0  0  0  0  0  0  0  0  0  0  0  0
    6.9650    3.3661   21.0559 C   0  0  0  0  0  0  0  0  0  0  0  0
   11.7941    7.4352   20.8555 C   0  0  0  0  0  0  0  0  0  0  0  0
    9.8796    8.3508   21.8993 C   0  0  0  0  0  0  0  0  0  0  0  0
   11.9323    6.3241   21.5389 N   0  0  0  0  0  0  0  0  0  0  0  0
    9.6181   12.2543   19.1219 O   0  0  0  0  0  0  0  0  0  0  0  0
    6.7923    5.6768   22.4732 C   0  0  0  0  0  0  0  0  0  0  0  0
    9.3497    7.0586   22.7156 C   0  0  0  0  0  0  0  0  0  0  0  0
   12.6246    7.7441   19.9293 C   0  0  0  0  0  0  0  0  0  0  0  0
   14.5334    6.5900   18.9283 O   0  0  0  0  0  0  0  0  0  0  0  0
   13.3961    6.6209   19.5310 C   0  0  0  0  0  0  0  0  0  0  0  0
    9.6580    9.1553   21.5260 C   0  0  0  0  0  0  0  0  0  0  0  0
   10.7686    8.9342   20.8435 C   0  0  0  0  0  0  0  0  0  0  0  0
    9.2826    7.0557   23.8630 O   0  0  0  0  0  0  0  0  0  0  0  0
  1  8  1  0
  1 11  4  0
  1 21  4  0
  2  4  1  0
  2  8  1  0
  2 11  1  0
  3 10  4  0
  3 14  4  0
  4  5  1  0
  4 18  2  0
  6 12  4  0
  6 17  4  0
  7  9  1  0
  7 13  4  0
  7 19  4  0
  9 20  1  0
 10 19  4  0
 11 25  4  0
 12 23  4  0
 13 14  4  0
 15 17  4  0
 15 21  4  0
 15 25  4  0
 16 20  1  0
 16 24  4  0
 16 25  4  0
 20 26  2  0
 21 23  4  0
 22 23  1  0
 24 25  1  0
M  END
$$$$

 Created by Python create_sdf_string function

 26 36  0  0  0  0  0  0  0  0999 V2000
   11.3958   10.8998   19.4704 C   0  0  0  0  0  0  0  0  0  0  0  0
   10.3835   12.3641   17.6602 C   0  0  0  0  0  0  0  0  0  0  0  0
    8.1432    5.4941   21.1516 C   0  0  0  0  0  0  0  0  0  0  0  0
   13.0393   11.5988   18.9589 O   0  0  0  0  0  0  0  0  0  0  0  0
    5.4823    5.5687   22.3750 C   0  0  0  0  0  0  0  0  0  0  0  0
   10.5916    9.9829   20.0071 C   0  0  0  0  0  0  0  0  0  0  0  0
   12.6353    5.3589   19.7985 N   0  0  0  0  0  0  0  0  0  0  0  0
    8.0442    4.7205   21.4147 C   0  0  0  0  0  0  0  0  0  0  0  0
    6.8590    2.8826   20.6251 C   0  0  0  0  0  0  0  0  0  0  0  0
   12.0902    7.2529   20.0739 C   0  0  0  0  0  0  0  0  0  0  0  0
    9.8712    8.6206   21.8677 C   0  0  0  0  0  0  0  0  0  0  0  0
   12.1293    6.6766   21.7498 N   0  0  0  0  0  0  0  0  0  0  0  0
    9.3369   11.6230   18.7520 O   0  0  0  0  0  0  0  0  0  0  0  0
    7.4241    5.2913   22.1138 C   0  0  0  0  0  0  0  0  0  0  0  0
    9.3519    7.1006   22.5193 C   0  0  0  0  0  0  0  0  0  0  0  0
   14.5377    6.7051   19.1574 O   0  0  0  0  0  0  0  0  0  0  0  0
   13.4479    6.8933   19.5456 N   0  0  0  0  0  0  0  0  0  0  0  0
    9.5213    8.9765   22.2955 C   0  0  0  0  0  0  0  0  0  0  0  0
   10.5137    9.5826   21.0511 C   0  0  0  0  0  0  0  0  0  0  0  0
    9.1636    7.4776   23.4794 O   0  0  0  0  0  0  0  0  0  0  0  0
   12.5012    9.1815   19.4853 He  0  0  0  0  0  0  0  0  0  0  0  0
    5.9107    2.8721   21.4477 He  0  0  0  0  0  0  0  0  0  0  0  0
   11.0952   11.7114   17.6875 He  0  0  0  0  0  0  0  0  0  0  0  0
   12.7439    4.9390   20.9216 He  0  0  0  0  0  0  0  0  0  0  0  0
    9.1433    6.3460   21.4097 He  0  0  0  0  0  0  0  0  0  0  0  0
   12.4682    7.4303   20.6075 He  0  0  0  0  0  0  0  0  0  0  0  0
  1  2  1  0
  1  5  4  0
  1  6  1  0
  1 20  3  0
  2  3  4  0
  2 13  2  0
  2 17  2  0
  3  7  2  0
  3  8  3  0
  3 11  2  0
  3 12  2  0
  3 19  1  0
  4  9  3  0
  4 12  4  0
  4 14  2  0
  5  6  2  0
  5  8  2  0
  5 10  1  0
  5 13  4  0
  5 17  2  0
  6 19  4  0
  7  9  4  0
  7 17  4  0
  8  9  4  0
  8 13  1  0
  8 18  1  0
 10 12  4  0
 10 19  4  0
 11 18  3  0
 11 19  4  0
 14 16  4  0
 14 19  2  0
 15 20  4  0
 16 17  3  0
 16 18  4  0
 18 19  4  0
M  END
$$$$

 Created by Python create_sdf_string function

 26 28  0  0  0  0  0  0  0  0999 V2000
   12.4362    9.1110   19.5804 N   0  0  0  0  0  0  0  0  0  0  0  0
   11.4628   11.0122   19.2370 C   0  0  0  0  0  0  0  0  0  0  0  0
    5.8929    3.4722   21.5481 C   0  0  0  0  0  0  0  0  0  0  0  0
   10.5046   11.6832   18.2607 C   0  0  0  0  0  0  0  0  0  0  0  0
   10.9979   12.0433   17.1847 O   0  0  0  0  0  0  0  0  0  0  0  0
   12.5010    5.1630   20.9406 C   0  0  0  0  0  0  0  0  0  0  0  0
    7.9229    5.4008   21.5916 C   0  0  0  0  0  0  0  0  0  0  0  0
   12.7726   11.3391   18.9441 O   0  0  0  0  0  0  0  0  0  0  0  0
    8.8627    6.3090   21.4963 N   0  0  0  0  0  0  0  0  0  0  0  0
    5.6912    4.6783   22.2582 C   0  0  0  0  0  0  0  0  0  0  0  0
   11.2272    9.7835   20.0306 C   0  0  0  0  0  0  0  0  0  0  0  0
   13.1332    5.5105   20.0117 N   0  0  0  0  0  0  0  0  0  0  0  0
    8.0197    4.1543   20.9161 C   0  0  0  0  0  0  0  0  0  0  0  0
    7.0249    3.2548   20.8667 C   0  0  0  0  0  0  0  0  0  0  0  0
   11.5971    7.2933   20.9840 C   0  0  0  0  0  0  0  0  0  0  0  0
   10.2920    8.2468   21.5813 C   0  0  0  0  0  0  0  0  0  0  0  0
   11.6511    5.9827   21.6237 N   0  0  0  0  0  0  0  0  0  0  0  0
    9.3966   11.8232   18.5864 O   0  0  0  0  0  0  0  0  0  0  0  0
    6.7088    5.5546   22.2649 C   0  0  0  0  0  0  0  0  0  0  0  0
    9.2645    7.3115   22.2799 C   0  0  0  0  0  0  0  0  0  0  0  0
   12.3823    7.7536   20.1287 C   0  0  0  0  0  0  0  0  0  0  0  0
   14.2811    7.0427   18.8062 O   0  0  0  0  0  0  0  0  0  0  0  0
   13.3406    6.7928   19.6431 C   0  0  0  0  0  0  0  0  0  0  0  0
    9.5650    9.3926   22.4841 C   0  0  0  0  0  0  0  0  0  0  0  0
   10.5135    9.2934   20.9346 C   0  0  0  0  0  0  0  0  0  0  0  0
    8.9312    7.3630   23.4087 O   0  0  0  0  0  0  0  0  0  0  0  0
  1 11  4  0
  1 21  4  0
  2  4  1  0
  2  8  1  0
  2 11  1  0
  3 10  4  0
  3 14  4  0
  4  5  1  0
  4 18  2  0
  6 12  4  0
  6 17  4  0
  7  9  1  0
  7 13  4  0
  7 19  4  0
  9 20  1  0
 10 19  4  0
 11 25  4  0
 12 23  4  0
 13 14  4  0
 15 16  4  0
 15 17  4  0
 15 21  4  0
 16 20  1  0
 16 24  1  0
 16 25  4  0
 20 26  2  0
 21 23  4  0
 22 23  2  0
M  END
$$$$

 Created by Python create_sdf_string function

 26 54  0  0  0  0  0  0  0  0999 V2000
   13.2304    9.1948   20.0110 N   0  0  0  0  0  0  0  0  0  0  0  0
   11.9663   11.1905   19.1921 C   0  0  0  0  0  0  0  0  0  0  0  0
    5.7026    3.2876   22.1698 C   0  0  0  0  0  0  0  0  0  0  0  0
   10.5311   11.6619   17.7889 C   0  0  0  0  0  0  0  0  0  0  0  0
   11.2876   12.0180   17.3448 O   0  0  0  0  0  0  0  0  0  0  0  0
   12.9482    4.6590   20.5645 C   0  0  0  0  0  0  0  0  0  0  0  0
   12.5965   10.7718   19.2117 N   0  0  0  0  0  0  0  0  0  0  0  0
    8.6712    6.4425   21.1875 N   0  0  0  0  0  0  0  0  0  0  0  0
    5.4995    4.5126   22.1131 Cl  0  0  0  0  0  0  0  0  0  0  0  0
   10.7092    9.5785   20.0124 C   0  0  0  0  0  0  0  0  0  0  0  0
   13.0170    5.0332   20.3913 N   0  0  0  0  0  0  0  0  0  0  0  0
    8.0711    4.3731   20.9070 C   0  0  0  0  0  0  0  0  0  0  0  0
    7.2033    2.7133   21.4294 C   0  0  0  0  0  0  0  0  0  0  0  0
   11.7102    5.8808   21.7139 N   0  0  0  0  0  0  0  0  0  0  0  0
   10.1815   11.5854   18.4692 O   0  0  0  0  0  0  0  0  0  0  0  0
    6.5908    5.5653   22.0210 C   0  0  0  0  0  0  0  0  0  0  0  0
    9.5561    6.9330   22.3550 C   0  0  0  0  0  0  0  0  0  0  0  0
   12.3237    7.3700   20.0256 C   0  0  0  0  0  0  0  0  0  0  0  0
   14.0503    6.6870   18.5159 Cl  0  0  0  0  0  0  0  0  0  0  0  0
   13.0981    6.5316   19.6483 C   0  0  0  0  0  0  0  0  0  0  0  0
    9.9294    9.1622   22.7032 F   0  0  0  0  0  0  0  0  0  0  0  0
   10.3900    9.5088   20.7631 C   0  0  0  0  0  0  0  0  0  0  0  0
    8.5479    5.2112   21.4278 He  0  0  0  0  0  0  0  0  0  0  0  0
   11.8700    6.9350   20.4772 He  0  0  0  0  0  0  0  0  0  0  0  0
   10.7395    8.8528   21.1092 He  0  0  0  0  0  0  0  0  0  0  0  0
    8.5321    7.8018   23.5919 He  0  0  0  0  0  0  0  0  0  0  0  0
  1  8  3  0
  1 10  4  0
  1 18  4  0
  2  4  1  0
  2  5  2  0
  2  6  4  0
  2  7  1  0
  2  9  1  0
  2 10  1  0
  2 17  4  0
  2 18  1  0
  2 21  4  0
  3  7  1  0
  3  9  4  0
  3 13  4  0
  3 14  3  0
  3 18  2  0
  3 19  1  0
  3 22  1  0
  4  5  1  0
  4 13  3  0
  5 10  4  0
  5 17  1  0
  5 20  2  0
  6 11  4  0
  6 14  4  0
  6 18  2  0
  7 17  2  0
  7 20  3  0
  8  9  3  0
  8 10  1  0
  8 12  4  0
  8 17  1  0
  8 18  2  0
  9 14  2  0
  9 16  4  0
  9 22  4  0
 10 15  2  0
 10 16  2  0
 10 21  2  0
 10 22  4  0
 11 14  3  0
 11 19  4  0
 11 20  4  0
 12 13  4  0
 12 18  4  0
 13 15  1  0
 13 17  2  0
 13 19  3  0
 16 18  2  0
 17 21  2  0
 18 20  2  0
 19 20  2  0
 19 21  4  0
M  END
$$$$

 Created by Python create_sdf_string function

 26 28  0  0  0  0  0  0  0  0999 V2000
   12.5421    8.8554   19.7007 N   0  0  0  0  0  0  0  0  0  0  0  0
   11.7862   11.0208   19.2117 C   0  0  0  0  0  0  0  0  0  0  0  0
    6.0017    3.3037   21.8296 C   0  0  0  0  0  0  0  0  0  0  0  0
   10.7925   11.6812   18.1043 C   0  0  0  0  0  0  0  0  0  0  0  0
   11.3013   12.2553   17.0650 O   0  0  0  0  0  0  0  0  0  0  0  0
   12.4873    4.8984   20.9618 C   0  0  0  0  0  0  0  0  0  0  0  0
    7.9123    5.3935   21.6205 C   0  0  0  0  0  0  0  0  0  0  0  0
   13.0106   11.2912   18.8067 N   0  0  0  0  0  0  0  0  0  0  0  0
    8.8210    6.3929   21.4499 N   0  0  0  0  0  0  0  0  0  0  0  0
    5.6808    4.5656   22.2303 C   0  0  0  0  0  0  0  0  0  0  0  0
   11.6547    9.7149   19.8347 C   0  0  0  0  0  0  0  0  0  0  0  0
   13.2337    5.2065   20.0752 N   0  0  0  0  0  0  0  0  0  0  0  0
    8.1498    4.0911   21.1783 C   0  0  0  0  0  0  0  0  0  0  0  0
    7.2605    3.1423   21.2812 C   0  0  0  0  0  0  0  0  0  0  0  0
   11.6006    7.1210   20.9690 C   0  0  0  0  0  0  0  0  0  0  0  0
   10.7108    8.3477   21.3397 N   0  0  0  0  0  0  0  0  0  0  0  0
   11.5761    5.7668   21.5032 N   0  0  0  0  0  0  0  0  0  0  0  0
    9.6542   11.6217   18.3429 O   0  0  0  0  0  0  0  0  0  0  0  0
    6.6515    5.5639   22.1370 C   0  0  0  0  0  0  0  0  0  0  0  0
    8.9702    7.2653   22.4699 C   0  0  0  0  0  0  0  0  0  0  0  0
   12.4609    7.5062   20.1103 C   0  0  0  0  0  0  0  0  0  0  0  0
   14.1359    6.7813   18.5984 O   0  0  0  0  0  0  0  0  0  0  0  0
   13.3307    6.4622   19.5307 C   0  0  0  0  0  0  0  0  0  0  0  0
   10.1652    8.6231   22.5066 C   0  0  0  0  0  0  0  0  0  0  0  0
   10.5886    9.4066   20.5588 C   0  0  0  0  0  0  0  0  0  0  0  0
    8.5756    7.3841   23.4188 O   0  0  0  0  0  0  0  0  0  0  0  0
  1 11  4  0
  1 21  4  0
  2  4  1  0
  2  8  1  0
  2 11  1  0
  3 10  4  0
  3 14  4  0
  4  5  1  0
  4 18  2  0
  6 12  4  0
  6 17  4  0
  7  9  1  0
  7 13  4  0
  7 19  4  0
  9 20  1  0
 10 19  4  0
 11 25  4  0
 12 23  4  0
 13 14  4  0
 15 16  4  0
 15 17  4  0
 15 21  4  0
 16 24  1  0
 16 25  4  0
 20 24  1  0
 20 26  2  0
 21 23  4  0
 22 23  2  0
M  END
$$$$

 Created by Python create_sdf_string function

 26 50  0  0  0  0  0  0  0  0999 V2000
   11.7804   10.4631   19.8572 C   0  0  0  0  0  0  0  0  0  0  0  0
    6.4047    2.9630   21.6601 C   0  0  0  0  0  0  0  0  0  0  0  0
   10.5152   11.8130   18.1676 C   0  0  0  0  0  0  0  0  0  0  0  0
   10.9971   12.6164   17.2608 O   0  0  0  0  0  0  0  0  0  0  0  0
   12.6182    5.1642   20.6683 C   0  0  0  0  0  0  0  0  0  0  0  0
    7.3498    5.5992   21.2406 F   0  0  0  0  0  0  0  0  0  0  0  0
    9.0736    6.8630   21.4782 N   0  0  0  0  0  0  0  0  0  0  0  0
    5.4978    4.5812   21.8490 C   0  0  0  0  0  0  0  0  0  0  0  0
   11.9519    9.4224   20.2308 C   0  0  0  0  0  0  0  0  0  0  0  0
   13.2718    4.7747   19.5876 N   0  0  0  0  0  0  0  0  0  0  0  0
    7.9661    3.6602   21.3161 B   0  0  0  0  0  0  0  0  0  0  0  0
    6.5899    2.5855   21.2207 C   0  0  0  0  0  0  0  0  0  0  0  0
   12.2412    6.6835   20.4974 C   0  0  0  0  0  0  0  0  0  0  0  0
   10.6912    8.6904   21.4227 N   0  0  0  0  0  0  0  0  0  0  0  0
   11.4253    5.6577   21.5501 O   0  0  0  0  0  0  0  0  0  0  0  0
    9.5543   11.8096   17.8596 O   0  0  0  0  0  0  0  0  0  0  0  0
    9.2976    7.0489   22.5732 C   0  0  0  0  0  0  0  0  0  0  0  0
   13.2165    8.1354   20.0374 C   0  0  0  0  0  0  0  0  0  0  0  0
   13.7167    7.1903   18.2871 F   0  0  0  0  0  0  0  0  0  0  0  0
   13.4772    6.9740   19.7683 C   0  0  0  0  0  0  0  0  0  0  0  0
    9.9012    8.8116   22.2402 C   0  0  0  0  0  0  0  0  0  0  0  0
    8.6927    7.6953   22.7596 O   0  0  0  0  0  0  0  0  0  0  0  0
   12.8416    8.8724   19.8194 He  0  0  0  0  0  0  0  0  0  0  0  0
   12.9510   11.0343   19.2734 He  0  0  0  0  0  0  0  0  0  0  0  0
    6.7304    5.0989   22.3776 He  0  0  0  0  0  0  0  0  0  0  0  0
   10.6832    9.8876   20.8903 He  0  0  0  0  0  0  0  0  0  0  0  0
  1  3  1  0
  1  9  1  0
  1 19  1  0
  2  8  4  0
  2 11  2  0
  2 12  4  0
  2 13  2  0
  2 18  3  0
  2 21  1  0
  3  4  1  0
  3  5  3  0
  3  9  2  0
  3 16  2  0
  3 18  2  0
  4  6  2  0
  4 14  3  0
  4 16  3  0
  4 22  1  0
  5  6  3  0
  5 10  4  0
  5 20  2  0
  6 11  4  0
  6 20  1  0
  7 12  2  0
  7 17  1  0
  7 21  2  0
  8 10  1  0
  8 20  1  0
  9 14  3  0
  9 15  1  0
  9 18  1  0
 10 11  1  0
 10 13  4  0
 10 20  2  0
 11 12  4  0
 12 20  2  0
 13 14  4  0
 13 18  4  0
 13 19  4  0
 14 21  1  0
 15 16  1  0
 16 17  1  0
 16 19  4  0
 17 21  2  0
 17 22  2  0
 18 19  2  0
 18 20  4  0
 18 22  2  0
 19 20  2  0
 19 22  4  0
M  END
$$$$

 Created by Python create_sdf_string function

 26 28  0  0  0  0  0  0  0  0999 V2000
   12.6597    9.0175   19.6878 N   0  0  0  0  0  0  0  0  0  0  0  0
   11.8977   11.0528   19.0574 C   0  0  0  0  0  0  0  0  0  0  0  0
    5.8904    3.2244   21.6220 C   0  0  0  0  0  0  0  0  0  0  0  0
   10.7004   11.7271   18.2678 C   0  0  0  0  0  0  0  0  0  0  0  0
   11.1106   12.6119   17.3978 O   0  0  0  0  0  0  0  0  0  0  0  0
   12.3916    5.1322   20.7430 C   0  0  0  0  0  0  0  0  0  0  0  0
    7.7600    5.2357   21.6488 C   0  0  0  0  0  0  0  0  0  0  0  0
   13.0300   11.5808   19.0207 C   0  0  0  0  0  0  0  0  0  0  0  0
    8.8115    6.2818   21.5611 N   0  0  0  0  0  0  0  0  0  0  0  0
    5.5947    4.4299   22.1520 C   0  0  0  0  0  0  0  0  0  0  0  0
   11.7541    9.7934   19.8422 C   0  0  0  0  0  0  0  0  0  0  0  0
   13.2254    5.3976   19.8896 N   0  0  0  0  0  0  0  0  0  0  0  0
    8.0415    4.0047   21.1432 C   0  0  0  0  0  0  0  0  0  0  0  0
    7.1235    3.0595   21.1033 C   0  0  0  0  0  0  0  0  0  0  0  0
   11.7030    7.3495   20.8414 C   0  0  0  0  0  0  0  0  0  0  0  0
   10.8356    8.4170   21.2770 N   0  0  0  0  0  0  0  0  0  0  0  0
   11.6012    5.9995   21.2532 N   0  0  0  0  0  0  0  0  0  0  0  0
    9.5800   11.4526   18.3964 O   0  0  0  0  0  0  0  0  0  0  0  0
    6.5355    5.4475   22.1641 C   0  0  0  0  0  0  0  0  0  0  0  0
    8.9145    7.3120   22.3205 C   0  0  0  0  0  0  0  0  0  0  0  0
   12.6505    7.6737   19.9943 C   0  0  0  0  0  0  0  0  0  0  0  0
   14.2505    6.9226   18.4598 N   0  0  0  0  0  0  0  0  0  0  0  0
   13.4324    6.5853   19.4079 C   0  0  0  0  0  0  0  0  0  0  0  0
   10.0937    8.3642   22.4014 C   0  0  0  0  0  0  0  0  0  0  0  0
   10.7290    9.6304   20.6582 C   0  0  0  0  0  0  0  0  0  0  0  0
    8.1996    7.4646   23.2526 O   0  0  0  0  0  0  0  0  0  0  0  0
  1 11  4  0
  1 21  4  0
  2  4  1  0
  2  8  1  0
  2 11  1  0
  3 10  4  0
  3 14  4  0
  4  5  1  0
  4 18  2  0
  6 12  4  0
  6 17  4  0
  7  9  1  0
  7 13  4  0
  7 19  4  0
  9 20  1  0
 10 19  4  0
 11 25  4  0
 12 23  4  0
 13 14  4  0
 15 16  4  0
 15 17  4  0
 15 21  4  0
 16 24  1  0
 16 25  4  0
 20 24  1  0
 20 26  2  0
 21 23  4  0
 22 23  2  0
M  END
$$$$

 Created by Python create_sdf_string function

 26 29  0  0  0  0  0  0  0  0999 V2000
   12.3148    9.4943   19.6738 N   0  0  0  0  0  0  0  0  0  0  0  0
   12.5517   10.9726   19.0256 C   0  0  0  0  0  0  0  0  0  0  0  0
   11.4522   12.5240   17.2474 O   0  0  0  0  0  0  0  0  0  0  0  0
   12.4519    4.8153   20.9632 C   0  0  0  0  0  0  0  0  0  0  0  0
    7.7131    5.4615   22.0363 C   0  0  0  0  0  0  0  0  0  0  0  0
   13.2305   11.9323   18.7315 C   0  0  0  0  0  0  0  0  0  0  0  0
    9.0704    5.8239   21.3058 N   0  0  0  0  0  0  0  0  0  0  0  0
   12.0488    9.7975   19.3803 C   0  0  0  0  0  0  0  0  0  0  0  0
   13.2946    5.6433   20.0957 N   0  0  0  0  0  0  0  0  0  0  0  0
    7.1581    3.4343   21.0757 C   0  0  0  0  0  0  0  0  0  0  0  0
   11.8327    7.9055   21.3361 C   0  0  0  0  0  0  0  0  0  0  0  0
   11.2648    8.8117   21.4800 N   0  0  0  0  0  0  0  0  0  0  0  0
   11.5381    6.1024   21.5563 N   0  0  0  0  0  0  0  0  0  0  0  0
    9.8851   11.2516   18.3482 O   0  0  0  0  0  0  0  0  0  0  0  0
    8.1729    6.7598   22.5638 C   0  0  0  0  0  0  0  0  0  0  0  0
   12.7706    7.0767   19.9484 C   0  0  0  0  0  0  0  0  0  0  0  0
   13.6096    7.2220   18.4035 N   0  0  0  0  0  0  0  0  0  0  0  0
   13.2432    7.0182   19.3061 C   0  0  0  0  0  0  0  0  0  0  0  0
   11.0976    9.1092   20.4584 C   0  0  0  0  0  0  0  0  0  0  0  0
    6.2377    2.8224   21.6372 He  0  0  0  0  0  0  0  0  0  0  0  0
   10.9199   11.5561   17.9994 He  0  0  0  0  0  0  0  0  0  0  0  0
    5.8557    5.1402   21.9737 He  0  0  0  0  0  0  0  0  0  0  0  0
    8.0484    4.2322   20.6188 He  0  0  0  0  0  0  0  0  0  0  0  0
    6.5085    5.4074   22.2304 He  0  0  0  0  0  0  0  0  0  0  0  0
   10.2598    8.0660   21.9789 He  0  0  0  0  0  0  0  0  0  0  0  0
    8.6846    7.5836   23.6487 He  0  0  0  0  0  0  0  0  0  0  0  0
  1  3  2  0
  1  8  4  0
  1 16  4  0
  2  6  1  0
  2  9  2  0
  3 17  2  0
  3 18  3  0
  4  9  4  0
  4 13  2  0
  5  7  1  0
  5 13  1  0
  5 15  1  0
  5 16  1  0
  7 15  4  0
  7 18  2  0
  7 19  3  0
  8 14  1  0
  9 15  4  0
  9 18  4  0
 10 18  4  0
 10 19  3  0
 11 12  3  0
 11 13  4  0
 11 14  1  0
 11 16  4  0
 11 17  2  0
 12 19  4  0
 16 18  3  0
 17 18  2  0
M  END
$$$$

 Created by Python create_sdf_string function

 26 27  0  0  0  0  0  0  0  0999 V2000
   12.7402    8.8983   19.3649 N   0  0  0  0  0  0  0  0  0  0  0  0
   12.1594   11.1143   18.9189 C   0  0  0  0  0  0  0  0  0  0  0  0
    6.2934    2.8414   21.2438 C   0  0  0  0  0  0  0  0  0  0  0  0
   10.9945   11.6637   18.0611 C   0  0  0  0  0  0  0  0  0  0  0  0
   11.2417   12.5559   17.1781 O   0  0  0  0  0  0  0  0  0  0  0  0
   12.6190    5.1489   21.0198 C   0  0  0  0  0  0  0  0  0  0  0  0
    7.8277    5.4122   21.7150 C   0  0  0  0  0  0  0  0  0  0  0  0
   13.3216   11.8127   18.7303 C   0  0  0  0  0  0  0  0  0  0  0  0
    8.9563    6.3156   21.6867 N   0  0  0  0  0  0  0  0  0  0  0  0
    5.6431    4.5881   22.0970 C   0  0  0  0  0  0  0  0  0  0  0  0
   12.0101    9.8968   19.6461 C   0  0  0  0  0  0  0  0  0  0  0  0
   13.3017    5.3553   19.9741 N   0  0  0  0  0  0  0  0  0  0  0  0
    7.9158    4.1930   20.9796 C   0  0  0  0  0  0  0  0  0  0  0  0
    6.9503    3.2671   21.0553 C   0  0  0  0  0  0  0  0  0  0  0  0
   11.7347    7.3293   20.9265 C   0  0  0  0  0  0  0  0  0  0  0  0
   10.9907    8.4690   21.1812 N   0  0  0  0  0  0  0  0  0  0  0  0
   11.8126    6.0718   21.5106 N   0  0  0  0  0  0  0  0  0  0  0  0
    9.8937   11.2621   18.2560 O   0  0  0  0  0  0  0  0  0  0  0  0
    6.5531    5.5022   22.2461 C   0  0  0  0  0  0  0  0  0  0  0  0
    8.9967    7.2957   22.5825 C   0  0  0  0  0  0  0  0  0  0  0  0
   12.6154    7.5824   19.9285 C   0  0  0  0  0  0  0  0  0  0  0  0
   14.0893    6.7731   18.3709 N   0  0  0  0  0  0  0  0  0  0  0  0
   13.4076    6.5456   19.3293 C   0  0  0  0  0  0  0  0  0  0  0  0
   10.0176    8.4147   22.3709 C   0  0  0  0  0  0  0  0  0  0  0  0
   11.0897    9.6669   20.6297 C   0  0  0  0  0  0  0  0  0  0  0  0
    8.3727    7.3908   23.5949 O   0  0  0  0  0  0  0  0  0  0  0  0
  1 11  4  0
  1 21  4  0
  2  4  1  0
  2  8  1  0
  2 11  1  0
  3 14  4  0
  4  5  1  0
  4 18  2  0
  6 12  4  0
  6 17  4  0
  7  9  1  0
  7 13  4  0
  7 19  4  0
  9 20  1  0
 10 19  4  0
 11 25  4  0
 12 23  4  0
 13 14  4  0
 15 16  4  0
 15 17  4  0
 15 21  4  0
 16 24  1  0
 16 25  4  0
 20 24  1  0
 20 26  2  0
 21 23  4  0
 22 23  2  0
M  END
$$$$

 Created by Python create_sdf_string function

 26 32  0  0  0  0  0  0  0  0999 V2000
    6.4503    2.6774   21.7185 C   0  0  0  0  0  0  0  0  0  0  0  0
   10.9323   11.4105   18.3070 C   0  0  0  0  0  0  0  0  0  0  0  0
   11.3580   12.3942   16.7796 O   0  0  0  0  0  0  0  0  0  0  0  0
   13.2510    6.1016   21.0955 C   0  0  0  0  0  0  0  0  0  0  0  0
   13.3083   11.3737   18.2480 C   0  0  0  0  0  0  0  0  0  0  0  0
    8.9157    6.4048   21.8638 N   0  0  0  0  0  0  0  0  0  0  0  0
    5.5723    4.2445   22.6739 C   0  0  0  0  0  0  0  0  0  0  0  0
   12.2855    9.9554   19.4997 C   0  0  0  0  0  0  0  0  0  0  0  0
   12.5493    4.7372   19.9495 N   0  0  0  0  0  0  0  0  0  0  0  0
    7.9988    4.7525   20.6136 C   0  0  0  0  0  0  0  0  0  0  0  0
   11.4038    7.0939   20.5675 C   0  0  0  0  0  0  0  0  0  0  0  0
    9.7807   10.9491   18.1094 Se  0  0  0  0  0  0  0  0  0  0  0  0
    5.9767    4.6119   22.2221 C   0  0  0  0  0  0  0  0  0  0  0  0
    9.6668    6.8093   22.4245 C   0  0  0  0  0  0  0  0  0  0  0  0
   12.7373    7.2599   19.8614 N   0  0  0  0  0  0  0  0  0  0  0  0
   14.0066    7.1405   18.3971 N   0  0  0  0  0  0  0  0  0  0  0  0
   12.8096    6.6166   18.9752 C   0  0  0  0  0  0  0  0  0  0  0  0
   11.2487   10.0839   20.6361 C   0  0  0  0  0  0  0  0  0  0  0  0
    8.1302    7.4574   23.4405 O   0  0  0  0  0  0  0  0  0  0  0  0
   12.3637    8.5832   18.9733 He  0  0  0  0  0  0  0  0  0  0  0  0
   12.2745   11.7218   19.2120 He  0  0  0  0  0  0  0  0  0  0  0  0
    7.9914    5.6097   22.0167 He  0  0  0  0  0  0  0  0  0  0  0  0
    7.3294    3.5733   20.6148 He  0  0  0  0  0  0  0  0  0  0  0  0
   11.3980    8.7027   20.6183 He  0  0  0  0  0  0  0  0  0  0  0  0
   11.7310    5.7942   21.8809 He  0  0  0  0  0  0  0  0  0  0  0  0
    9.2795    8.7986   22.5580 He  0  0  0  0  0  0  0  0  0  0  0  0
  1  2  3  0
  1 18  3  0
  2  3  1  0
  2 12  2  0
  3  7  1  0
  3 17  2  0
  4  5  1  0
  4  8  1  0
  4 14  4  0
  5 10  4  0
  5 12  4  0
  5 17  2  0
  5 19  2  0
  6 12  1  0
  6 14  1  0
  7 11  2  0
  7 13  4  0
  9 17  4  0
 10 14  3  0
 10 15  2  0
 10 18  2  0
 10 19  1  0
 11 12  4  0
 11 15  1  0
 13 14  3  0
 14 15  2  0
 14 16  2  0
 14 17  1  0
 14 19  2  0
 15 17  4  0
 15 18  3  0
 16 17  1  0
M  END
$$$$

 Created by Python create_sdf_string function

 26 28  0  0  0  0  0  0  0  0999 V2000
   12.5268    8.8488   19.0990 N   0  0  0  0  0  0  0  0  0  0  0  0
   12.0770   11.2647   18.8899 C   0  0  0  0  0  0  0  0  0  0  0  0
    6.1964    3.1568   21.4864 C   0  0  0  0  0  0  0  0  0  0  0  0
   10.9377   11.6006   18.0210 C   0  0  0  0  0  0  0  0  0  0  0  0
   11.1797   12.3868   17.0786 O   0  0  0  0  0  0  0  0  0  0  0  0
   12.6135    5.2442   21.0528 C   0  0  0  0  0  0  0  0  0  0  0  0
    7.8453    5.3903   21.7736 C   0  0  0  0  0  0  0  0  0  0  0  0
   13.3689   11.5662   18.3961 C   0  0  0  0  0  0  0  0  0  0  0  0
    8.8309    6.3445   21.7188 N   0  0  0  0  0  0  0  0  0  0  0  0
    5.9187    4.0903   22.4022 C   0  0  0  0  0  0  0  0  0  0  0  0
   11.9168    9.9029   19.5073 C   0  0  0  0  0  0  0  0  0  0  0  0
   13.1370    5.2943   19.9529 N   0  0  0  0  0  0  0  0  0  0  0  0
    8.0632    4.4210   20.8238 C   0  0  0  0  0  0  0  0  0  0  0  0
    7.2907    3.2669   20.6877 C   0  0  0  0  0  0  0  0  0  0  0  0
   11.7363    7.4009   20.8792 C   0  0  0  0  0  0  0  0  0  0  0  0
   10.9042    8.5328   21.1527 C   0  0  0  0  0  0  0  0  0  0  0  0
   11.8771    6.1626   21.5837 N   0  0  0  0  0  0  0  0  0  0  0  0
    9.9102   11.1680   18.1514 O   0  0  0  0  0  0  0  0  0  0  0  0
    6.6964    5.1435   22.5218 C   0  0  0  0  0  0  0  0  0  0  0  0
    8.9990    7.3154   22.4898 C   0  0  0  0  0  0  0  0  0  0  0  0
   12.4746    7.5463   19.7130 C   0  0  0  0  0  0  0  0  0  0  0  0
   13.7422    6.5826   18.0175 N   0  0  0  0  0  0  0  0  0  0  0  0
   13.1904    6.4451   19.2148 C   0  0  0  0  0  0  0  0  0  0  0  0
    9.9653    8.4994   22.2469 C   0  0  0  0  0  0  0  0  0  0  0  0
   11.0419    9.7329   20.5859 C   0  0  0  0  0  0  0  0  0  0  0  0
    8.2470    7.3608   23.5166 O   0  0  0  0  0  0  0  0  0  0  0  0
  1 11  4  0
  1 21  4  0
  2  4  1  0
  2  8  1  0
  2 11  1  0
  3 10  4  0
  3 14  4  0
  4  5  1  0
  4 18  2  0
  6 12  4  0
  6 17  4  0
  7  9  1  0
  7 13  4  0
  7 19  4  0
  9 20  1  0
 10 19  4  0
 11 25  4  0
 12 23  4  0
 13 14  4  0
 15 16  4  0
 15 17  4  0
 15 21  4  0
 16 24  1  0
 16 25  4  0
 20 24  1  0
 20 26  2  0
 21 23  4  0
 22 23  1  0
M  END
$$$$

 Created by Python create_sdf_string function

 26 31  0  0  0  0  0  0  0  0999 V2000
   12.5161    8.7408   19.4604 N   0  0  0  0  0  0  0  0  0  0  0  0
   12.5801   11.1864   18.8949 P   0  0  0  0  0  0  0  0  0  0  0  0
    5.8528    3.1489   21.6216 C   0  0  0  0  0  0  0  0  0  0  0  0
   10.7952   11.2546   17.8411 C   0  0  0  0  0  0  0  0  0  0  0  0
   11.0156   12.2751   17.2337 O   0  0  0  0  0  0  0  0  0  0  0  0
   12.9324    4.7879   20.9146 C   0  0  0  0  0  0  0  0  0  0  0  0
    8.2619    5.3198   21.8734 C   0  0  0  0  0  0  0  0  0  0  0  0
    8.9809    6.3118   21.3865 N   0  0  0  0  0  0  0  0  0  0  0  0
    5.8693    4.2210   22.0018 C   0  0  0  0  0  0  0  0  0  0  0  0
   11.1483   10.1909   19.3952 C   0  0  0  0  0  0  0  0  0  0  0  0
   13.2756    4.9696   20.5824 N   0  0  0  0  0  0  0  0  0  0  0  0
    8.4463    4.4784   21.0478 C   0  0  0  0  0  0  0  0  0  0  0  0
    7.7863    3.6038   20.6501 C   0  0  0  0  0  0  0  0  0  0  0  0
   11.9459    6.4125   22.1081 N   0  0  0  0  0  0  0  0  0  0  0  0
    9.8069   10.5762   18.4829 O   0  0  0  0  0  0  0  0  0  0  0  0
    6.7474    5.1953   22.4801 C   0  0  0  0  0  0  0  0  0  0  0  0
    9.5421    6.9949   22.2808 C   0  0  0  0  0  0  0  0  0  0  0  0
   13.0311    6.2577   19.0656 C   0  0  0  0  0  0  0  0  0  0  0  0
   10.7835    9.6443   20.2615 C   0  0  0  0  0  0  0  0  0  0  0  0
    7.9912    7.4253   23.3605 O   0  0  0  0  0  0  0  0  0  0  0  0
   13.5117   11.4135   18.1277 He  0  0  0  0  0  0  0  0  0  0  0  0
   11.8799    7.5044   21.1885 He  0  0  0  0  0  0  0  0  0  0  0  0
   11.1897    8.2552   20.4896 He  0  0  0  0  0  0  0  0  0  0  0  0
   12.5993    7.8986   20.4170 He  0  0  0  0  0  0  0  0  0  0  0  0
   13.6590    6.9772   18.4264 He  0  0  0  0  0  0  0  0  0  0  0  0
    9.1929    8.3056   22.4384 He  0  0  0  0  0  0  0  0  0  0  0  0
  1  3  1  0
  1 10  4  0
  1 18  3  0
  2  4  1  0
  2 10  1  0
  3  7  1  0
  3  9  4  0
  3 13  4  0
  3 17  1  0
  4  5  1  0
  4 15  2  0
  5 19  1  0
  6  8  2  0
  6 11  4  0
  6 14  4  0
  6 15  3  0
  6 17  3  0
  6 19  3  0
  7  8  1  0
  7 12  4  0
  7 16  4  0
  7 20  2  0
  8 20  1  0
  9 16  1  0
 10 18  4  0
 10 19  4  0
 11 13  3  0
 11 18  4  0
 12 13  4  0
 16 18  1  0
 17 20  2  0
M  END
$$$$

 Created by Python create_sdf_string function

 26 28  0  0  0  0  0  0  0  0999 V2000
   12.6619    8.7560   19.3177 N   0  0  0  0  0  0  0  0  0  0  0  0
   11.9985   11.1141   18.8745 N   0  0  0  0  0  0  0  0  0  0  0  0
    6.2206    3.2170   21.3171 C   0  0  0  0  0  0  0  0  0  0  0  0
   10.8059   11.4823   18.0040 C   0  0  0  0  0  0  0  0  0  0  0  0
   11.0003   12.3297   17.1156 O   0  0  0  0  0  0  0  0  0  0  0  0
   12.6978    5.1961   21.3525 C   0  0  0  0  0  0  0  0  0  0  0  0
    8.0398    5.3176   21.7352 C   0  0  0  0  0  0  0  0  0  0  0  0
   13.2217   11.3671   18.2367 C   0  0  0  0  0  0  0  0  0  0  0  0
    8.9521    6.2224   21.7137 N   0  0  0  0  0  0  0  0  0  0  0  0
    5.9096    4.2066   22.1819 C   0  0  0  0  0  0  0  0  0  0  0  0
   11.8641    9.7567   19.5103 C   0  0  0  0  0  0  0  0  0  0  0  0
   13.2781    5.2505   20.2296 N   0  0  0  0  0  0  0  0  0  0  0  0
    8.3516    4.2585   20.9260 C   0  0  0  0  0  0  0  0  0  0  0  0
    7.4570    3.2044   20.7126 C   0  0  0  0  0  0  0  0  0  0  0  0
   11.7197    7.3167   21.0175 C   0  0  0  0  0  0  0  0  0  0  0  0
   10.8417    8.4484   21.1576 N   0  0  0  0  0  0  0  0  0  0  0  0
   11.8850    6.1474   21.7999 N   0  0  0  0  0  0  0  0  0  0  0  0
    9.7592   10.9340   18.1027 O   0  0  0  0  0  0  0  0  0  0  0  0
    6.7866    5.2340   22.3826 C   0  0  0  0  0  0  0  0  0  0  0  0
    8.9749    7.3153   22.4073 C   0  0  0  0  0  0  0  0  0  0  0  0
   12.5637    7.5074   19.9591 C   0  0  0  0  0  0  0  0  0  0  0  0
   13.8944    6.5418   18.3468 N   0  0  0  0  0  0  0  0  0  0  0  0
   13.3013    6.4033   19.4594 C   0  0  0  0  0  0  0  0  0  0  0  0
    9.8805    8.4818   22.1975 C   0  0  0  0  0  0  0  0  0  0  0  0
   10.8771    9.5333   20.4079 C   0  0  0  0  0  0  0  0  0  0  0  0
    8.1787    7.4177   23.4074 O   0  0  0  0  0  0  0  0  0  0  0  0
  1 11  4  0
  1 21  4  0
  2  4  1  0
  2  8  1  0
  2 11  1  0
  3 10  4  0
  3 14  4  0
  4  5  1  0
  4 18  2  0
  6 12  4  0
  6 17  4  0
  7  9  1  0
  7 13  4  0
  7 19  4  0
  9 20  1  0
 10 19  4  0
 11 25  4  0
 12 23  4  0
 13 14  4  0
 15 16  4  0
 15 17  4  0
 15 21  4  0
 16 24  1  0
 16 25  4  0
 20 24  1  0
 20 26  2  0
 21 23  4  0
 22 23  1  0
M  END
$$$$

 Created by Python create_sdf_string function

 26 29  0  0  0  0  0  0  0  0999 V2000
   12.8556    8.6685   19.4841 N   0  0  0  0  0  0  0  0  0  0  0  0
   12.1531   11.2968   18.8013 F   0  0  0  0  0  0  0  0  0  0  0  0
    6.5507    3.2174   21.4562 C   0  0  0  0  0  0  0  0  0  0  0  0
   11.1155   11.3240   18.0567 N   0  0  0  0  0  0  0  0  0  0  0  0
   10.7894   12.2132   16.6594 O   0  0  0  0  0  0  0  0  0  0  0  0
   12.7764    5.3781   21.1003 C   0  0  0  0  0  0  0  0  0  0  0  0
    8.4059    5.6192   21.6907 C   0  0  0  0  0  0  0  0  0  0  0  0
    9.0945    5.9352   21.7180 N   0  0  0  0  0  0  0  0  0  0  0  0
   11.5949   10.3660   20.0205 C   0  0  0  0  0  0  0  0  0  0  0  0
   13.5079    4.9932   20.8719 N   0  0  0  0  0  0  0  0  0  0  0  0
    7.7478    3.2024   20.6926 C   0  0  0  0  0  0  0  0  0  0  0  0
   12.0873    5.8200   21.3263 N   0  0  0  0  0  0  0  0  0  0  0  0
    9.6901   11.1729   18.5743 O   0  0  0  0  0  0  0  0  0  0  0  0
    6.4256    5.2061   22.1449 C   0  0  0  0  0  0  0  0  0  0  0  0
    8.4822    7.5091   22.3762 C   0  0  0  0  0  0  0  0  0  0  0  0
   13.1054    7.9794   20.0338 C   0  0  0  0  0  0  0  0  0  0  0  0
   13.7281    6.5583   18.8181 N   0  0  0  0  0  0  0  0  0  0  0  0
   12.8520    6.1914   19.4060 C   0  0  0  0  0  0  0  0  0  0  0  0
   10.5796    9.4741   20.3674 C   0  0  0  0  0  0  0  0  0  0  0  0
    8.0821    7.0092   23.4855 S   0  0  0  0  0  0  0  0  0  0  0  0
   13.0670   11.2918   18.8255 He  0  0  0  0  0  0  0  0  0  0  0  0
    5.8051    4.8638   22.3040 He  0  0  0  0  0  0  0  0  0  0  0  0
    8.1758    4.4358   20.8060 He  0  0  0  0  0  0  0  0  0  0  0  0
   11.2013    7.5064   20.9636 He  0  0  0  0  0  0  0  0  0  0  0  0
   10.4284    8.1318   21.7533 He  0  0  0  0  0  0  0  0  0  0  0  0
    9.3508    8.7132   22.4487 He  0  0  0  0  0  0  0  0  0  0  0  0
  1  9  4  0
  1 16  4  0
  2  9  1  0
  2 13  4  0
  3  4  1  0
  3 11  4  0
  3 15  3  0
  4  5  1  0
  4  8  2  0
  4 16  1  0
  5 16  2  0
  5 19  4  0
  6 10  1  0
  6 12  4  0
  6 13  1  0
  6 18  4  0
  7  8  1  0
  7 11  3  0
  7 14  4  0
  8 11  4  0
  8 15  1  0
  8 17  4  0
  9 13  1  0
  9 19  3  0
 10 18  2  0
 15 16  1  0
 16 18  4  0
 17 18  1  0
 19 20  2  0
M  END
$$$$

 Created by Python create_sdf_string function

 26 28  0  0  0  0  0  0  0  0999 V2000
   12.6196    8.8729   19.4912 N   0  0  0  0  0  0  0  0  0  0  0  0
   11.8829   10.9151   18.8074 N   0  0  0  0  0  0  0  0  0  0  0  0
    6.3114    3.1684   21.2674 C   0  0  0  0  0  0  0  0  0  0  0  0
   10.8850   11.5038   18.0485 N   0  0  0  0  0  0  0  0  0  0  0  0
   11.0975   12.1922   16.8896 O   0  0  0  0  0  0  0  0  0  0  0  0
   12.8043    5.5601   20.7938 C   0  0  0  0  0  0  0  0  0  0  0  0
    7.9617    5.3874   21.6684 C   0  0  0  0  0  0  0  0  0  0  0  0
   13.0960   11.4964   18.5818 C   0  0  0  0  0  0  0  0  0  0  0  0
    8.8119    6.3428   21.7213 N   0  0  0  0  0  0  0  0  0  0  0  0
    5.8778    4.1644   22.0409 C   0  0  0  0  0  0  0  0  0  0  0  0
   11.7539    9.7981   19.6863 C   0  0  0  0  0  0  0  0  0  0  0  0
   13.4387    4.4721   20.9086 N   0  0  0  0  0  0  0  0  0  0  0  0
    8.3264    4.2498   20.9219 C   0  0  0  0  0  0  0  0  0  0  0  0
    7.5090    3.1904   20.7193 C   0  0  0  0  0  0  0  0  0  0  0  0
   11.5447    7.4226   20.9882 C   0  0  0  0  0  0  0  0  0  0  0  0
   10.5965    8.4699   21.3490 C   0  0  0  0  0  0  0  0  0  0  0  0
   11.7003    6.1559   21.4456 N   0  0  0  0  0  0  0  0  0  0  0  0
    9.7009   11.3352   18.4310 O   0  0  0  0  0  0  0  0  0  0  0  0
    6.6470    5.2439   22.2139 C   0  0  0  0  0  0  0  0  0  0  0  0
    8.7815    7.3716   22.6084 C   0  0  0  0  0  0  0  0  0  0  0  0
   12.4852    7.7101   20.0482 C   0  0  0  0  0  0  0  0  0  0  0  0
   13.9744    6.3827   18.7533 N   0  0  0  0  0  0  0  0  0  0  0  0
   13.1979    6.5662   19.8097 C   0  0  0  0  0  0  0  0  0  0  0  0
    9.6843    8.5037   22.3868 N   0  0  0  0  0  0  0  0  0  0  0  0
   10.6877    9.6188   20.6711 C   0  0  0  0  0  0  0  0  0  0  0  0
    7.9828    7.4274   23.5790 O   0  0  0  0  0  0  0  0  0  0  0  0
  1 11  4  0
  1 21  4  0
  2  4  1  0
  2  8  1  0
  2 11  1  0
  3 10  4  0
  3 14  4  0
  4  5  1  0
  4 18  2  0
  6 12  1  0
  6 17  4  0
  6 23  4  0
  7  9  1  0
  7 13  4  0
  7 19  4  0
  9 20  1  0
 10 19  4  0
 11 25  4  0
 13 14  4  0
 15 16  4  0
 15 17  4  0
 15 21  4  0
 16 24  1  0
 16 25  4  0
 20 24  1  0
 20 26  2  0
 21 23  4  0
 22 23  1  0
M  END
$$$$

 Created by Python create_sdf_string function

 26 39  0  0  0  0  0  0  0  0999 V2000
   12.3152    9.0196   19.8731 N   0  0  0  0  0  0  0  0  0  0  0  0
   12.1357   10.8603   19.1948 C   0  0  0  0  0  0  0  0  0  0  0  0
    5.9027    3.4661   20.6195 C   0  0  0  0  0  0  0  0  0  0  0  0
   10.6930   11.1239   18.5520 N   0  0  0  0  0  0  0  0  0  0  0  0
   11.2570   12.0625   16.5854 C   0  0  0  0  0  0  0  0  0  0  0  0
    7.8434    5.3630   21.9515 C   0  0  0  0  0  0  0  0  0  0  0  0
   13.1614   11.2833   18.3766 C   0  0  0  0  0  0  0  0  0  0  0  0
    8.8691    6.3119   21.6584 N   0  0  0  0  0  0  0  0  0  0  0  0
    5.5509    4.1069   22.1536 C   0  0  0  0  0  0  0  0  0  0  0  0
   11.7796    9.9001   19.3443 C   0  0  0  0  0  0  0  0  0  0  0  0
   13.2734    4.2354   21.1798 N   0  0  0  0  0  0  0  0  0  0  0  0
    7.9526    4.2417   20.9702 C   0  0  0  0  0  0  0  0  0  0  0  0
    7.4948    2.9532   20.5289 C   0  0  0  0  0  0  0  0  0  0  0  0
   10.3430    8.0996   21.5984 C   0  0  0  0  0  0  0  0  0  0  0  0
   12.0177    6.1127   21.6855 N   0  0  0  0  0  0  0  0  0  0  0  0
    9.9041   11.9969   18.7842 O   0  0  0  0  0  0  0  0  0  0  0  0
    6.3875    5.6739   22.4853 C   0  0  0  0  0  0  0  0  0  0  0  0
    8.9687    6.8664   22.7041 C   0  0  0  0  0  0  0  0  0  0  0  0
   12.5173    7.4691   20.2173 C   0  0  0  0  0  0  0  0  0  0  0  0
   13.0203    6.7235   20.0274 C   0  0  0  0  0  0  0  0  0  0  0  0
    9.7008    8.4804   22.2129 N   0  0  0  0  0  0  0  0  0  0  0  0
   10.6368    9.6041   20.8959 C   0  0  0  0  0  0  0  0  0  0  0  0
    8.0861    7.3851   23.4270 F   0  0  0  0  0  0  0  0  0  0  0  0
   13.4134    5.4917   20.9362 He  0  0  0  0  0  0  0  0  0  0  0  0
   11.1184    7.1445   21.0284 He  0  0  0  0  0  0  0  0  0  0  0  0
   14.1278    6.3285   18.7190 He  0  0  0  0  0  0  0  0  0  0  0  0
  1 10  4  0
  1 15  3  0
  1 16  2  0
  1 21  2  0
  2  4  1  0
  2  7  1  0
  2 10  3  0
  2 16  1  0
  2 19  3  0
  3 12  4  0
  3 13  4  0
  4  5  1  0
  4 13  4  0
  4 16  2  0
  5 23  3  0
  6  8  1  0
  6 18  1  0
  7 15  1  0
  7 20  2  0
  8 14  3  0
  8 18  1  0
  8 19  3  0
  9 10  1  0
  9 17  4  0
 10 22  4  0
 11 14  3  0
 11 17  4  0
 11 18  4  0
 11 21  4  0
 11 22  4  0
 12 13  1  0
 12 22  1  0
 14 21  1  0
 14 22  4  0
 15 21  3  0
 15 22  3  0
 18 21  2  0
 18 23  2  0
 22 23  3  0
M  END
$$$$

 Created by Python create_sdf_string function

 26 28  0  0  0  0  0  0  0  0999 V2000
   12.5850    8.7852   19.5389 N   0  0  0  0  0  0  0  0  0  0  0  0
   11.8859   10.9833   19.0074 N   0  0  0  0  0  0  0  0  0  0  0  0
    5.8891    3.2789   21.0775 C   0  0  0  0  0  0  0  0  0  0  0  0
   10.8279   11.5912   18.2747 C   0  0  0  0  0  0  0  0  0  0  0  0
   11.0999   11.9734   16.9846 C   0  0  0  0  0  0  0  0  0  0  0  0
   12.8673    5.4930   20.8900 C   0  0  0  0  0  0  0  0  0  0  0  0
    7.7954    5.2266   21.7575 C   0  0  0  0  0  0  0  0  0  0  0  0
   13.2032   11.3129   18.5486 C   0  0  0  0  0  0  0  0  0  0  0  0
    8.7710    6.0787   21.8837 N   0  0  0  0  0  0  0  0  0  0  0  0
    5.5351    4.2367   21.9121 C   0  0  0  0  0  0  0  0  0  0  0  0
   11.7000    9.7715   19.7601 C   0  0  0  0  0  0  0  0  0  0  0  0
   13.4855    4.3286   21.1775 N   0  0  0  0  0  0  0  0  0  0  0  0
    8.0901    4.1860   20.9303 C   0  0  0  0  0  0  0  0  0  0  0  0
    7.1580    3.2068   20.5397 C   0  0  0  0  0  0  0  0  0  0  0  0
   11.6073    7.3506   21.0979 C   0  0  0  0  0  0  0  0  0  0  0  0
   10.6467    8.3020   21.3765 C   0  0  0  0  0  0  0  0  0  0  0  0
   11.8378    6.0569   21.6082 N   0  0  0  0  0  0  0  0  0  0  0  0
    9.8651   11.7846   18.7823 O   0  0  0  0  0  0  0  0  0  0  0  0
    6.4634    5.2157   22.2997 C   0  0  0  0  0  0  0  0  0  0  0  0
    8.7477    7.2077   22.5951 C   0  0  0  0  0  0  0  0  0  0  0  0
   12.5474    7.5933   20.1494 C   0  0  0  0  0  0  0  0  0  0  0  0
   14.1999    6.3206   18.9834 C   0  0  0  0  0  0  0  0  0  0  0  0
   13.3114    6.4974   19.9241 C   0  0  0  0  0  0  0  0  0  0  0  0
    9.6851    8.2050   22.3684 N   0  0  0  0  0  0  0  0  0  0  0  0
   10.6932    9.4909   20.6566 C   0  0  0  0  0  0  0  0  0  0  0  0
    7.9509    7.3372   23.6222 O   0  0  0  0  0  0  0  0  0  0  0  0
  1 11  4  0
  1 21  4  0
  2  4  1  0
  2  8  1  0
  2 11  1  0
  3 10  4  0
  3 14  4  0
  4  5  1  0
  4 18  2  0
  6 12  1  0
  6 17  4  0
  6 23  4  0
  7  9  1  0
  7 13  4  0
  7 19  4  0
  9 20  1  0
 10 19  4  0
 11 25  4  0
 13 14  4  0
 15 16  4  0
 15 17  4  0
 15 21  4  0
 16 24  1  0
 16 25  4  0
 20 24  1  0
 20 26  2  0
 21 23  4  0
 22 23  1  0
M  END
$$$$

 Created by Python create_sdf_string function

 26 40  0  0  0  0  0  0  0  0999 V2000
   12.8948    8.6305   19.9948 N   0  0  0  0  0  0  0  0  0  0  0  0
   11.7037   11.4988   18.9271 N   0  0  0  0  0  0  0  0  0  0  0  0
    5.8584    3.2283   21.4888 C   0  0  0  0  0  0  0  0  0  0  0  0
   10.4936   11.3756   18.2655 C   0  0  0  0  0  0  0  0  0  0  0  0
   11.4197   11.8307   17.0758 C   0  0  0  0  0  0  0  0  0  0  0  0
   12.8353    5.6603   20.9712 C   0  0  0  0  0  0  0  0  0  0  0  0
    7.6059    5.3395   21.8552 C   0  0  0  0  0  0  0  0  0  0  0  0
   12.6337   11.4413   18.5969 C   0  0  0  0  0  0  0  0  0  0  0  0
    9.1967    6.3293   21.9286 N   0  0  0  0  0  0  0  0  0  0  0  0
    5.5908    4.8451   21.6771 C   0  0  0  0  0  0  0  0  0  0  0  0
   11.6911    9.6688   19.5365 C   0  0  0  0  0  0  0  0  0  0  0  0
   13.4213    4.6913   21.1423 N   0  0  0  0  0  0  0  0  0  0  0  0
    8.3457    4.1747   20.5666 C   0  0  0  0  0  0  0  0  0  0  0  0
    7.3079    2.8954   20.4936 C   0  0  0  0  0  0  0  0  0  0  0  0
   10.9027    8.1393   21.6617 B   0  0  0  0  0  0  0  0  0  0  0  0
   11.5679    5.3746   21.3245 N   0  0  0  0  0  0  0  0  0  0  0  0
   10.0759   12.1108   18.8136 O   0  0  0  0  0  0  0  0  0  0  0  0
    6.6903    5.4351   22.4692 C   0  0  0  0  0  0  0  0  0  0  0  0
   12.7869    7.4607   19.6447 C   0  0  0  0  0  0  0  0  0  0  0  0
   13.3596    6.5212   19.9164 C   0  0  0  0  0  0  0  0  0  0  0  0
   10.1727    8.4081   22.6897 N   0  0  0  0  0  0  0  0  0  0  0  0
   10.4684    9.9307   20.8589 C   0  0  0  0  0  0  0  0  0  0  0  0
    7.9891    7.4366   23.8442 F   0  0  0  0  0  0  0  0  0  0  0  0
   11.4454    6.9665   21.1476 He  0  0  0  0  0  0  0  0  0  0  0  0
    8.5983    6.9668   22.7546 He  0  0  0  0  0  0  0  0  0  0  0  0
   14.1173    6.0774   19.1243 He  0  0  0  0  0  0  0  0  0  0  0  0
  1  4  3  0
  1  9  3  0
  1 11  4  0
  1 19  4  0
  1 20  1  0
  2  4  1  0
  2  6  1  0
  2  8  1  0
  2 11  1  0
  2 16  4  0
  3  7  1  0
  3 10  4  0
  3 14  4  0
  3 19  3  0
  4  5  1  0
  4  6  1  0
  4 12  4  0
  4 15  3  0
  4 17  2  0
  5  9  4  0
  5 20  4  0
  6 12  1  0
  6 16  4  0
  6 20  4  0
  7  9  1  0
  7 13  4  0
  7 18  4  0
  7 23  2  0
  9 13  1  0
 10 17  2  0
 10 18  4  0
 11 15  3  0
 11 22  4  0
 14 17  4  0
 14 18  3  0
 14 21  4  0
 15 22  2  0
 15 23  2  0
 19 20  4  0
 19 22  1  0
M  END
$$$$

 Created by Python create_sdf_string function

 26 28  0  0  0  0  0  0  0  0999 V2000
   12.5806    8.7860   19.5555 N   0  0  0  0  0  0  0  0  0  0  0  0
   11.7861   10.9009   19.0100 N   0  0  0  0  0  0  0  0  0  0  0  0
    5.9543    3.3617   21.1547 C   0  0  0  0  0  0  0  0  0  0  0  0
   10.7454   11.6205   18.3659 C   0  0  0  0  0  0  0  0  0  0  0  0
   11.0586   11.9747   17.0080 C   0  0  0  0  0  0  0  0  0  0  0  0
   12.8044    5.4366   20.8130 C   0  0  0  0  0  0  0  0  0  0  0  0
    7.9012    5.2672   21.7336 C   0  0  0  0  0  0  0  0  0  0  0  0
   13.1526   11.5470   18.7212 C   0  0  0  0  0  0  0  0  0  0  0  0
    8.9149    6.1410   21.9637 N   0  0  0  0  0  0  0  0  0  0  0  0
    5.6374    4.4070   21.9336 C   0  0  0  0  0  0  0  0  0  0  0  0
   11.6997    9.7540   19.7770 C   0  0  0  0  0  0  0  0  0  0  0  0
   13.4447    4.3540   21.1312 N   0  0  0  0  0  0  0  0  0  0  0  0
    8.1833    4.1570   20.9617 C   0  0  0  0  0  0  0  0  0  0  0  0
    7.2113    3.2298   20.6553 C   0  0  0  0  0  0  0  0  0  0  0  0
   11.5611    7.2836   21.0271 C   0  0  0  0  0  0  0  0  0  0  0  0
   10.7166    8.3231   21.4351 C   0  0  0  0  0  0  0  0  0  0  0  0
   11.6534    5.9170   21.3915 N   0  0  0  0  0  0  0  0  0  0  0  0
    9.8038   11.9146   18.9197 O   0  0  0  0  0  0  0  0  0  0  0  0
    6.5763    5.3807   22.2044 C   0  0  0  0  0  0  0  0  0  0  0  0
    8.9094    7.2015   22.7543 C   0  0  0  0  0  0  0  0  0  0  0  0
   12.5434    7.5735   20.1282 C   0  0  0  0  0  0  0  0  0  0  0  0
   14.3658    6.2793   19.1556 O   0  0  0  0  0  0  0  0  0  0  0  0
   13.3177    6.4539   19.9405 C   0  0  0  0  0  0  0  0  0  0  0  0
    9.9290    8.1715   22.5770 N   0  0  0  0  0  0  0  0  0  0  0  0
   10.7476    9.5431   20.7488 C   0  0  0  0  0  0  0  0  0  0  0  0
    8.1013    7.4167   23.7138 O   0  0  0  0  0  0  0  0  0  0  0  0
  1 11  4  0
  1 21  4  0
  2  4  1  0
  2  8  1  0
  2 11  1  0
  3 10  4  0
  3 14  4  0
  4  5  1  0
  4 18  2  0
  6 12  1  0
  6 17  4  0
  6 23  4  0
  7  9  1  0
  7 13  4  0
  7 19  4  0
  9 20  1  0
 10 19  4  0
 11 25  4  0
 13 14  4  0
 15 16  4  0
 15 17  4  0
 15 21  4  0
 16 24  1  0
 16 25  4  0
 20 24  1  0
 20 26  2  0
 21 23  4  0
 22 23  1  0
M  END
$$$$

 Created by Python create_sdf_string function

 26 44  0  0  0  0  0  0  0  0999 V2000
   12.4797    8.5297   19.7350 N   0  0  0  0  0  0  0  0  0  0  0  0
   11.9819   10.4968   19.2762 N   0  0  0  0  0  0  0  0  0  0  0  0
    5.6104    3.5294   20.5654 C   0  0  0  0  0  0  0  0  0  0  0  0
   10.7695   11.7910   18.3528 C   0  0  0  0  0  0  0  0  0  0  0  0
   11.2780   11.6357   17.3620 C   0  0  0  0  0  0  0  0  0  0  0  0
   12.8252    5.6774   20.6107 C   0  0  0  0  0  0  0  0  0  0  0  0
    7.9386    5.3539   21.7288 C   0  0  0  0  0  0  0  0  0  0  0  0
   13.5058   11.3889   18.6395 C   0  0  0  0  0  0  0  0  0  0  0  0
    8.9765    6.3444   21.9851 N   0  0  0  0  0  0  0  0  0  0  0  0
    5.6216    4.5471   22.0632 C   0  0  0  0  0  0  0  0  0  0  0  0
   12.5804    9.2806   20.0962 C   0  0  0  0  0  0  0  0  0  0  0  0
   13.2572    4.2839   20.8340 N   0  0  0  0  0  0  0  0  0  0  0  0
    8.4275    3.8900   20.8918 C   0  0  0  0  0  0  0  0  0  0  0  0
    7.2476    3.0154   20.8093 O   0  0  0  0  0  0  0  0  0  0  0  0
   11.8597    7.6266   21.1701 C   0  0  0  0  0  0  0  0  0  0  0  0
   10.6939    8.2354   21.4569 C   0  0  0  0  0  0  0  0  0  0  0  0
   11.7726    5.9463   21.3857 N   0  0  0  0  0  0  0  0  0  0  0  0
    9.3769   12.3909   19.2609 O   0  0  0  0  0  0  0  0  0  0  0  0
    9.1630    6.8014   22.3979 C   0  0  0  0  0  0  0  0  0  0  0  0
   12.2744    7.5040   20.4286 C   0  0  0  0  0  0  0  0  0  0  0  0
   14.0801    6.1147   19.2109 O   0  0  0  0  0  0  0  0  0  0  0  0
   13.3609    6.6778   20.1460 C   0  0  0  0  0  0  0  0  0  0  0  0
    9.8255    8.0393   22.7042 N   0  0  0  0  0  0  0  0  0  0  0  0
   11.1089    9.6423   20.8763 C   0  0  0  0  0  0  0  0  0  0  0  0
    6.2505    5.4573   22.3682 He  0  0  0  0  0  0  0  0  0  0  0  0
    8.0162    7.7414   23.9329 He  0  0  0  0  0  0  0  0  0  0  0  0
  1 11  4  0
  1 20  4  0
  2  4  1  0
  2 11  1  0
  2 13  1  0
  2 14  1  0
  2 24  4  0
  3  4  1  0
  3 10  4  0
  3 14  4  0
  3 19  4  0
  4  5  1  0
  4 10  1  0
  4 13  1  0
  4 18  2  0
  4 23  4  0
  5 17  3  0
  5 21  4  0
  5 24  2  0
  6 12  1  0
  6 17  4  0
  6 22  4  0
  6 23  1  0
  7  9  1  0
  7 18  2  0
  7 24  2  0
  8 14  1  0
  8 17  4  0
  9 14  1  0
  9 23  4  0
 10 15  3  0
 10 21  4  0
 12 16  3  0
 12 18  2  0
 13 14  4  0
 15 16  4  0
 15 17  3  0
 15 18  3  0
 15 20  4  0
 16 23  1  0
 16 24  3  0
 17 23  4  0
 20 22  4  0
 21 22  1  0
M  END
$$$$

 Created by Python create_sdf_string function

 26 28  0  0  0  0  0  0  0  0999 V2000
   12.7841    8.7682   19.6658 N   0  0  0  0  0  0  0  0  0  0  0  0
   11.9688   10.8845   19.1977 N   0  0  0  0  0  0  0  0  0  0  0  0
    5.8970    3.4040   21.0134 C   0  0  0  0  0  0  0  0  0  0  0  0
   10.8411   11.6412   18.6722 C   0  0  0  0  0  0  0  0  0  0  0  0
   10.9871   11.9178   17.2883 C   0  0  0  0  0  0  0  0  0  0  0  0
   12.7181    5.4358   20.8570 C   0  0  0  0  0  0  0  0  0  0  0  0
    7.8260    5.2301   21.8181 C   0  0  0  0  0  0  0  0  0  0  0  0
   13.2695   11.3811   18.7540 C   0  0  0  0  0  0  0  0  0  0  0  0
    8.8182    6.0604   22.0376 N   0  0  0  0  0  0  0  0  0  0  0  0
    5.5399    4.4628   21.7759 C   0  0  0  0  0  0  0  0  0  0  0  0
   11.8462    9.6923   19.9011 C   0  0  0  0  0  0  0  0  0  0  0  0
   13.1574    4.1946   20.9879 N   0  0  0  0  0  0  0  0  0  0  0  0
    8.1585    4.1213   21.0494 C   0  0  0  0  0  0  0  0  0  0  0  0
    7.1814    3.1934   20.6154 C   0  0  0  0  0  0  0  0  0  0  0  0
   11.6276    7.3285   21.1088 C   0  0  0  0  0  0  0  0  0  0  0  0
   10.8077    8.3365   21.5256 C   0  0  0  0  0  0  0  0  0  0  0  0
   11.6665    6.0092   21.5402 N   0  0  0  0  0  0  0  0  0  0  0  0
    9.8931   11.9443   19.2915 O   0  0  0  0  0  0  0  0  0  0  0  0
    6.5020    5.3405   22.1872 C   0  0  0  0  0  0  0  0  0  0  0  0
    8.8815    7.1942   22.7187 C   0  0  0  0  0  0  0  0  0  0  0  0
   12.6512    7.5478   20.1848 C   0  0  0  0  0  0  0  0  0  0  0  0
   14.3050    6.1477   19.2216 O   0  0  0  0  0  0  0  0  0  0  0  0
   13.3262    6.3903   19.9552 C   0  0  0  0  0  0  0  0  0  0  0  0
    9.8959    8.1993   22.5424 N   0  0  0  0  0  0  0  0  0  0  0  0
   10.8881    9.5121   20.8640 C   0  0  0  0  0  0  0  0  0  0  0  0
    7.9499    7.4432   23.8184 S   0  0  0  0  0  0  0  0  0  0  0  0
  1 11  4  0
  1 21  4  0
  2  4  1  0
  2  8  1  0
  2 11  1  0
  3 10  4  0
  3 14  4  0
  4  5  1  0
  4 18  2  0
  6 12  1  0
  6 17  4  0
  6 23  4  0
  7  9  1  0
  7 13  4  0
  7 19  4  0
  9 20  1  0
 10 19  4  0
 11 25  4  0
 13 14  4  0
 15 16  4  0
 15 17  4  0
 15 21  4  0
 16 24  1  0
 16 25  4  0
 20 24  1  0
 20 26  2  0
 21 23  4  0
 22 23  1  0
M  END
$$$$

 Created by Python create_sdf_string function

 26 55  0  0  0  0  0  0  0  0999 V2000
   12.8198    8.6901   19.6091 N   0  0  0  0  0  0  0  0  0  0  0  0
   12.1300   10.2932   19.1750 N   0  0  0  0  0  0  0  0  0  0  0  0
    5.8994    3.4711   20.9390 C   0  0  0  0  0  0  0  0  0  0  0  0
   10.6516   11.3906   18.6860 C   0  0  0  0  0  0  0  0  0  0  0  0
   10.6804   12.1286   17.2675 C   0  0  0  0  0  0  0  0  0  0  0  0
   13.0443    5.5329   21.1133 C   0  0  0  0  0  0  0  0  0  0  0  0
    8.2909    5.0694   21.9396 C   0  0  0  0  0  0  0  0  0  0  0  0
   13.0449   11.6070   18.2724 C   0  0  0  0  0  0  0  0  0  0  0  0
    8.8205    6.1026   22.3302 N   0  0  0  0  0  0  0  0  0  0  0  0
    5.4181    3.8978   21.7477 C   0  0  0  0  0  0  0  0  0  0  0  0
   11.8602    9.5116   20.1909 S   0  0  0  0  0  0  0  0  0  0  0  0
   12.9231    3.8886   20.9259 N   0  0  0  0  0  0  0  0  0  0  0  0
    8.3283    4.0774   20.9569 C   0  0  0  0  0  0  0  0  0  0  0  0
    7.2765    3.1275   20.8727 C   0  0  0  0  0  0  0  0  0  0  0  0
   11.7542    7.1728   21.1967 C   0  0  0  0  0  0  0  0  0  0  0  0
   10.5556    7.8551   21.2603 N   0  0  0  0  0  0  0  0  0  0  0  0
   11.7481    6.2510   21.3689 N   0  0  0  0  0  0  0  0  0  0  0  0
   10.1334   12.1040   19.2039 O   0  0  0  0  0  0  0  0  0  0  0  0
    7.1173    5.7416   22.2171 C   0  0  0  0  0  0  0  0  0  0  0  0
    8.4408    7.4854   22.5279 C   0  0  0  0  0  0  0  0  0  0  0  0
   12.3670    7.6227   20.0138 C   0  0  0  0  0  0  0  0  0  0  0  0
   14.3745    6.3128   19.0020 O   0  0  0  0  0  0  0  0  0  0  0  0
   13.2712    6.3045   19.7807 C   0  0  0  0  0  0  0  0  0  0  0  0
    9.6451    8.1996   22.6626 N   0  0  0  0  0  0  0  0  0  0  0  0
    7.5447    7.2040   23.6483 S   0  0  0  0  0  0  0  0  0  0  0  0
   10.2066    9.9145   20.9180 He  0  0  0  0  0  0  0  0  0  0  0  0
  1 11  4  0
  1 20  2  0
  1 21  4  0
  2  4  1  0
  2  8  1  0
  2 23  3  0
  3  7  4  0
  3 10  4  0
  3 13  3  0
  3 14  4  0
  3 18  2  0
  4  5  1  0
  4  9  2  0
  4 18  2  0
  4 22  1  0
  5 13  4  0
  5 18  2  0
  5 25  4  0
  6 10  1  0
  6 12  1  0
  6 17  4  0
  7  9  1  0
  7 12  3  0
  7 13  4  0
  7 19  1  0
  7 25  2  0
  8  9  4  0
  8 11  2  0
  8 16  4  0
  9 10  4  0
  9 20  1  0
  9 21  1  0
  9 23  2  0
 10 12  2  0
 10 14  4  0
 10 19  4  0
 10 24  3  0
 11 19  1  0
 11 25  3  0
 13 14  4  0
 13 25  2  0
 15 16  4  0
 15 17  4  0
 15 18  3  0
 15 21  4  0
 16 22  2  0
 16 24  1  0
 17 18  2  0
 17 21  1  0
 17 23  1  0
 20 21  2  0
 20 22  3  0
 20 25  2  0
 21 23  4  0
 22 23  1  0
M  END
$$$$

 Created by Python create_sdf_string function

 26 28  0  0  0  0  0  0  0  0999 V2000
   12.6458    8.6943   19.5457 N   0  0  0  0  0  0  0  0  0  0  0  0
   11.8266   10.7932   19.0476 N   0  0  0  0  0  0  0  0  0  0  0  0
    6.1097    3.2004   20.9883 C   0  0  0  0  0  0  0  0  0  0  0  0
   10.7280   11.6198   18.6945 C   0  0  0  0  0  0  0  0  0  0  0  0
   10.7377   12.0723   17.3284 C   0  0  0  0  0  0  0  0  0  0  0  0
   12.7269    5.3798   20.7915 C   0  0  0  0  0  0  0  0  0  0  0  0
    7.9242    5.1615   21.8507 C   0  0  0  0  0  0  0  0  0  0  0  0
   13.1022   11.2907   18.4772 C   0  0  0  0  0  0  0  0  0  0  0  0
    8.8969    6.0416   22.0839 N   0  0  0  0  0  0  0  0  0  0  0  0
    5.6420    4.1950   21.7509 C   0  0  0  0  0  0  0  0  0  0  0  0
   11.7079    9.6190   19.8152 C   0  0  0  0  0  0  0  0  0  0  0  0
   13.1270    4.0970   20.9880 N   0  0  0  0  0  0  0  0  0  0  0  0
    8.2861    4.0648   21.1030 C   0  0  0  0  0  0  0  0  0  0  0  0
    7.4053    3.1211   20.6381 C   0  0  0  0  0  0  0  0  0  0  0  0
   11.5887    7.2689   21.0896 C   0  0  0  0  0  0  0  0  0  0  0  0
   10.6671    8.2722   21.4236 N   0  0  0  0  0  0  0  0  0  0  0  0
   11.6753    5.9921   21.4890 N   0  0  0  0  0  0  0  0  0  0  0  0
    9.9269   11.9597   19.4234 O   0  0  0  0  0  0  0  0  0  0  0  0
    6.5305    5.1657   22.2102 C   0  0  0  0  0  0  0  0  0  0  0  0
    8.7207    7.2131   22.7222 C   0  0  0  0  0  0  0  0  0  0  0  0
   12.5898    7.5286   20.1559 C   0  0  0  0  0  0  0  0  0  0  0  0
   14.2607    6.1950   19.0962 O   0  0  0  0  0  0  0  0  0  0  0  0
   13.3559    6.3748   19.9334 C   0  0  0  0  0  0  0  0  0  0  0  0
    9.6694    8.1741   22.4642 N   0  0  0  0  0  0  0  0  0  0  0  0
   10.7273    9.4552   20.7585 C   0  0  0  0  0  0  0  0  0  0  0  0
    7.6642    7.5357   23.6133 S   0  0  0  0  0  0  0  0  0  0  0  0
  1 11  4  0
  1 21  4  0
  2  4  1  0
  2  8  1  0
  2 11  1  0
  3 10  4  0
  3 14  4  0
  4  5  1  0
  4 18  2  0
  6 12  1  0
  6 17  4  0
  6 23  4  0
  7  9  1  0
  7 13  4  0
  7 19  4  0
  9 20  1  0
 10 19  4  0
 11 25  4  0
 13 14  4  0
 15 16  4  0
 15 17  4  0
 15 21  4  0
 16 24  1  0
 16 25  4  0
 20 24  1  0
 20 26  2  0
 21 23  4  0
 22 23  1  0
M  END
$$$$

 Created by Python create_sdf_string function

 26 45  0  0  0  0  0  0  0  0999 V2000
   12.6669    8.8228   19.8517 N   0  0  0  0  0  0  0  0  0  0  0  0
   11.6966   11.3210   18.6570 N   0  0  0  0  0  0  0  0  0  0  0  0
    5.6435    3.0099   20.5333 C   0  0  0  0  0  0  0  0  0  0  0  0
   10.7311   11.4380   18.8487 C   0  0  0  0  0  0  0  0  0  0  0  0
   10.8142   11.6779   17.4924 C   0  0  0  0  0  0  0  0  0  0  0  0
   12.7759    5.3276   20.7780 C   0  0  0  0  0  0  0  0  0  0  0  0
    8.1998    5.2508   21.6773 C   0  0  0  0  0  0  0  0  0  0  0  0
   13.2806   11.3796   18.2744 O   0  0  0  0  0  0  0  0  0  0  0  0
    8.9378    5.8655   22.1628 N   0  0  0  0  0  0  0  0  0  0  0  0
    5.4670    4.3628   21.6053 C   0  0  0  0  0  0  0  0  0  0  0  0
   11.7222    9.7117   20.1714 C   0  0  0  0  0  0  0  0  0  0  0  0
   12.8383    4.2099   21.1128 N   0  0  0  0  0  0  0  0  0  0  0  0
    6.7985    3.0251   21.1083 C   0  0  0  0  0  0  0  0  0  0  0  0
   11.3190    7.4659   20.8368 C   0  0  0  0  0  0  0  0  0  0  0  0
   10.7169    8.3681   22.0019 N   0  0  0  0  0  0  0  0  0  0  0  0
   11.2327    6.1140   21.5793 N   0  0  0  0  0  0  0  0  0  0  0  0
    9.9467   11.9651   19.2621 O   0  0  0  0  0  0  0  0  0  0  0  0
    6.9391    5.6286   22.4758 C   0  0  0  0  0  0  0  0  0  0  0  0
   12.0723    7.3344   20.3417 C   0  0  0  0  0  0  0  0  0  0  0  0
   14.3100    6.2732   18.5752 O   0  0  0  0  0  0  0  0  0  0  0  0
   13.0703    6.9576   19.9700 C   0  0  0  0  0  0  0  0  0  0  0  0
    9.8732    8.1235   22.2991 N   0  0  0  0  0  0  0  0  0  0  0  0
    7.7414    7.5387   23.4490 S   0  0  0  0  0  0  0  0  0  0  0  0
    8.1315    3.8619   20.7682 He  0  0  0  0  0  0  0  0  0  0  0  0
    8.5438    7.1557   22.6587 He  0  0  0  0  0  0  0  0  0  0  0  0
   10.7547    9.7806   20.9054 He  0  0  0  0  0  0  0  0  0  0  0  0
  1  2  3  0
  1 14  3  0
  1 19  4  0
  2  4  1  0
  2  8  1  0
  2 10  2  0
  3  8  4  0
  3 10  4  0
  3 12  2  0
  3 13  4  0
  4  5  1  0
  4 12  3  0
  4 13  3  0
  4 17  2  0
  4 18  1  0
  5 15  2  0
  5 16  2  0
  6  8  2  0
  6 12  1  0
  6 16  4  0
  6 22  1  0
  7  9  1  0
  7 18  4  0
  7 20  3  0
  7 21  1  0
  8 13  1  0
  8 23  1  0
  9 12  4  0
  9 14  4  0
  9 22  4  0
 10 17  1  0
 10 18  4  0
 10 21  1  0
 10 22  2  0
 12 13  3  0
 12 16  4  0
 12 23  2  0
 14 16  4  0
 14 17  3  0
 14 19  4  0
 15 20  2  0
 15 22  1  0
 19 21  4  0
 20 21  1  0
 21 22  4  0
M  END
$$$$

 Created by Python create_sdf_string function

 26 28  0  0  0  0  0  0  0  0999 V2000
   12.5896    8.8543   19.6210 N   0  0  0  0  0  0  0  0  0  0  0  0
   11.9089   11.0230   19.1391 N   0  0  0  0  0  0  0  0  0  0  0  0
    5.8366    3.2526   20.9424 C   0  0  0  0  0  0  0  0  0  0  0  0
   10.7001   11.6592   18.6860 C   0  0  0  0  0  0  0  0  0  0  0  0
   10.7040   11.9961   17.3171 C   0  0  0  0  0  0  0  0  0  0  0  0
   12.5801    5.4570   20.7146 C   0  0  0  0  0  0  0  0  0  0  0  0
    7.7625    5.0946   21.8161 C   0  0  0  0  0  0  0  0  0  0  0  0
   13.0543   11.2588   18.4353 C   0  0  0  0  0  0  0  0  0  0  0  0
    8.7909    5.9578   22.1092 N   0  0  0  0  0  0  0  0  0  0  0  0
    5.4623    4.3477   21.6669 C   0  0  0  0  0  0  0  0  0  0  0  0
   11.7530    9.8037   19.9315 C   0  0  0  0  0  0  0  0  0  0  0  0
   13.0549    4.2216   20.8935 N   0  0  0  0  0  0  0  0  0  0  0  0
    8.0982    3.9443   21.1151 C   0  0  0  0  0  0  0  0  0  0  0  0
    7.1420    3.0928   20.6169 C   0  0  0  0  0  0  0  0  0  0  0  0
   11.4672    7.3673   21.0994 C   0  0  0  0  0  0  0  0  0  0  0  0
   10.6575    8.3814   21.5022 N   0  0  0  0  0  0  0  0  0  0  0  0
   11.5100    6.0380   21.4283 N   0  0  0  0  0  0  0  0  0  0  0  0
    9.7986   11.9084   19.3854 O   0  0  0  0  0  0  0  0  0  0  0  0
    6.4301    5.2524   22.0573 C   0  0  0  0  0  0  0  0  0  0  0  0
    8.7062    7.1691   22.6583 C   0  0  0  0  0  0  0  0  0  0  0  0
   12.4582    7.6168   20.1688 C   0  0  0  0  0  0  0  0  0  0  0  0
   14.1017    6.3174   19.0272 O   0  0  0  0  0  0  0  0  0  0  0  0
   13.1769    6.4511   19.8705 C   0  0  0  0  0  0  0  0  0  0  0  0
    9.7024    8.1733   22.5193 N   0  0  0  0  0  0  0  0  0  0  0  0
   10.7724    9.6140   20.8942 C   0  0  0  0  0  0  0  0  0  0  0  0
    7.6650    7.5303   23.5731 S   0  0  0  0  0  0  0  0  0  0  0  0
  1 11  4  0
  1 21  4  0
  2  4  1  0
  2  8  1  0
  2 11  1  0
  3 10  4  0
  3 14  4  0
  4  5  1  0
  4 18  2  0
  6 12  1  0
  6 17  4  0
  6 23  4  0
  7  9  1  0
  7 13  4  0
  7 19  4  0
  9 20  1  0
 10 19  4  0
 11 25  4  0
 13 14  4  0
 15 16  4  0
 15 17  4  0
 15 21  4  0
 16 24  1  0
 16 25  4  0
 20 24  1  0
 20 26  2  0
 21 23  4  0
 22 23  1  0
M  END
$$$$

 Created by Python create_sdf_string function

 26 52  0  0  0  0  0  0  0  0999 V2000
   12.7320    8.7355   19.2589 N   0  0  0  0  0  0  0  0  0  0  0  0
   12.0003   10.8948   19.2441 N   0  0  0  0  0  0  0  0  0  0  0  0
   10.7281   12.0609   17.2090 C   0  0  0  0  0  0  0  0  0  0  0  0
   12.3382    5.7171   20.8252 C   0  0  0  0  0  0  0  0  0  0  0  0
    7.7008    5.4612   22.1193 C   0  0  0  0  0  0  0  0  0  0  0  0
   12.9275   10.7600   18.5365 C   0  0  0  0  0  0  0  0  0  0  0  0
    8.5723    5.7784   21.8784 N   0  0  0  0  0  0  0  0  0  0  0  0
    5.7383    3.9807   21.2839 C   0  0  0  0  0  0  0  0  0  0  0  0
   11.6058    9.6366   19.9223 C   0  0  0  0  0  0  0  0  0  0  0  0
   13.0261    4.3666   20.8637 N   0  0  0  0  0  0  0  0  0  0  0  0
    8.2997    4.0063   21.0179 P   0  0  0  0  0  0  0  0  0  0  0  0
    6.9784    2.9525   20.9357 C   0  0  0  0  0  0  0  0  0  0  0  0
   11.7824    7.1950   21.1161 Br  0  0  0  0  0  0  0  0  0  0  0  0
   10.7769    8.1634   21.3788 N   0  0  0  0  0  0  0  0  0  0  0  0
   11.5648    6.1123   21.1254 N   0  0  0  0  0  0  0  0  0  0  0  0
    9.6712   12.1142   19.2232 O   0  0  0  0  0  0  0  0  0  0  0  0
    6.6207    5.3234   22.0861 C   0  0  0  0  0  0  0  0  0  0  0  0
    8.3301    7.0513   22.8614 C   0  0  0  0  0  0  0  0  0  0  0  0
   12.5822    7.5684   20.0971 C   0  0  0  0  0  0  0  0  0  0  0  0
   14.0047    6.1871   19.1190 O   0  0  0  0  0  0  0  0  0  0  0  0
   13.4473    6.2577   20.1787 C   0  0  0  0  0  0  0  0  0  0  0  0
    9.4824    8.1885   22.6117 N   0  0  0  0  0  0  0  0  0  0  0  0
   10.9992    9.6754   20.7337 C   0  0  0  0  0  0  0  0  0  0  0  0
    7.7829    7.7048   23.7446 S   0  0  0  0  0  0  0  0  0  0  0  0
    5.8257    3.2169   21.1059 He  0  0  0  0  0  0  0  0  0  0  0  0
   10.3769   11.5552   19.2592 He  0  0  0  0  0  0  0  0  0  0  0  0
  1  9  4  0
  1 19  4  0
  1 20  1  0
  2  6  1  0
  2  8  3  0
  2  9  1  0
  2 22  2  0
  4  7  4  0
  4 10  1  0
  4 12  1  0
  4 13  1  0
  4 15  4  0
  4 16  1  0
  4 21  4  0
  5  7  1  0
  5  9  4  0
  5 11  4  0
  5 15  4  0
  5 17  4  0
  6 19  1  0
  6 24  3  0
  7 18  1  0
  7 19  3  0
  8 13  3  0
  8 17  4  0
  8 19  4  0
  9 10  3  0
  9 14  2  0
  9 20  3  0
 10 13  4  0
 10 16  1  0
 11 12  4  0
 12 14  1  0
 12 24  3  0
 13 14  1  0
 13 15  4  0
 13 19  3  0
 14 22  1  0
 14 23  1  0
 15 18  4  0
 16 22  3  0
 17 19  3  0
 17 22  4  0
 18 22  1  0
 18 24  2  0
 19 21  4  0
 19 23  4  0
 20 21  1  0
 20 23  4  0
 20 24  2  0
 21 22  2  0
 23 24  4  0
M  END
$$$$

 Created by Python create_sdf_string function

 26 28  0  0  0  0  0  0  0  0999 V2000
   12.6453    8.7762   19.5905 N   0  0  0  0  0  0  0  0  0  0  0  0
   11.7566   10.8783   19.0966 N   0  0  0  0  0  0  0  0  0  0  0  0
    5.9417    3.1205   21.0046 C   0  0  0  0  0  0  0  0  0  0  0  0
   10.6437   11.6848   18.7391 C   0  0  0  0  0  0  0  0  0  0  0  0
   10.6838   12.1689   17.4021 C   0  0  0  0  0  0  0  0  0  0  0  0
   12.5997    5.4297   20.7594 C   0  0  0  0  0  0  0  0  0  0  0  0
    7.7554    5.1017   21.7913 C   0  0  0  0  0  0  0  0  0  0  0  0
   13.0397   11.1779   18.3790 C   0  0  0  0  0  0  0  0  0  0  0  0
    8.7077    5.9861   22.0688 N   0  0  0  0  0  0  0  0  0  0  0  0
    5.5106    4.2121   21.6220 C   0  0  0  0  0  0  0  0  0  0  0  0
   11.6898    9.6998   19.8687 C   0  0  0  0  0  0  0  0  0  0  0  0
   12.9914    4.1630   20.9488 N   0  0  0  0  0  0  0  0  0  0  0  0
    8.1976    3.9372   21.1962 C   0  0  0  0  0  0  0  0  0  0  0  0
    7.2791    2.9958   20.7647 C   0  0  0  0  0  0  0  0  0  0  0  0
   11.5142    7.2874   21.0202 C   0  0  0  0  0  0  0  0  0  0  0  0
   10.6531    8.2651   21.4592 N   0  0  0  0  0  0  0  0  0  0  0  0
   11.5095    5.9848   21.4094 N   0  0  0  0  0  0  0  0  0  0  0  0
    9.7805   11.9212   19.4743 O   0  0  0  0  0  0  0  0  0  0  0  0
    6.3932    5.2147   21.9922 C   0  0  0  0  0  0  0  0  0  0  0  0
    8.6275    7.1604   22.6960 C   0  0  0  0  0  0  0  0  0  0  0  0
   12.5084    7.5456   20.1113 C   0  0  0  0  0  0  0  0  0  0  0  0
   14.2663    6.2280   19.2503 O   0  0  0  0  0  0  0  0  0  0  0  0
   13.2453    6.3810   19.9044 N   0  0  0  0  0  0  0  0  0  0  0  0
    9.6886    8.1203   22.5112 N   0  0  0  0  0  0  0  0  0  0  0  0
   10.7176    9.4863   20.8166 C   0  0  0  0  0  0  0  0  0  0  0  0
    7.6339    7.4868   23.6524 S   0  0  0  0  0  0  0  0  0  0  0  0
  1 11  4  0
  1 21  4  0
  2  4  1  0
  2  8  1  0
  2 11  1  0
  3 10  4  0
  3 14  4  0
  4  5  1  0
  4 18  2  0
  6 12  1  0
  6 17  4  0
  6 23  4  0
  7  9  1  0
  7 13  4  0
  7 19  4  0
  9 20  1  0
 10 19  4  0
 11 25  4  0
 13 14  4  0
 15 16  4  0
 15 17  4  0
 15 21  4  0
 16 24  1  0
 16 25  4  0
 20 24  1  0
 20 26  2  0
 21 23  4  0
 22 23  1  0
M  END
$$$$

 Created by Python create_sdf_string function

 26 27  0  0  0  0  0  0  0  0999 V2000
   12.6518    8.8866   19.7914 F   0  0  0  0  0  0  0  0  0  0  0  0
   11.9558   11.0158   18.6513 N   0  0  0  0  0  0  0  0  0  0  0  0
    5.9294    3.1589   21.1105 O   0  0  0  0  0  0  0  0  0  0  0  0
   12.4393    5.4557   20.8582 C   0  0  0  0  0  0  0  0  0  0  0  0
    7.6693    5.1871   22.0206 C   0  0  0  0  0  0  0  0  0  0  0  0
   13.4705   11.2630   18.4780 C   0  0  0  0  0  0  0  0  0  0  0  0
    9.0110    5.4382   21.8882 N   0  0  0  0  0  0  0  0  0  0  0  0
    5.4828    3.9807   21.4513 C   0  0  0  0  0  0  0  0  0  0  0  0
   12.9339    3.8256   20.9478 N   0  0  0  0  0  0  0  0  0  0  0  0
    8.1895    4.0702   21.5692 Br  0  0  0  0  0  0  0  0  0  0  0  0
    7.5950    3.2262   20.8255 C   0  0  0  0  0  0  0  0  0  0  0  0
   10.7560    8.3806   21.2404 N   0  0  0  0  0  0  0  0  0  0  0  0
   11.7834    6.2912   21.4669 N   0  0  0  0  0  0  0  0  0  0  0  0
    9.6379   11.7573   19.5420 O   0  0  0  0  0  0  0  0  0  0  0  0
    6.0911    5.0794   22.1966 C   0  0  0  0  0  0  0  0  0  0  0  0
    8.5519    7.2377   22.6210 C   0  0  0  0  0  0  0  0  0  0  0  0
   12.2059    7.2404   20.1866 C   0  0  0  0  0  0  0  0  0  0  0  0
   14.2295    5.8103   19.1663 O   0  0  0  0  0  0  0  0  0  0  0  0
   13.1030    6.1464   19.7558 N   0  0  0  0  0  0  0  0  0  0  0  0
    9.3900    8.1384   22.4976 N   0  0  0  0  0  0  0  0  0  0  0  0
   10.4516    9.6204   21.1357 C   0  0  0  0  0  0  0  0  0  0  0  0
    7.6658    7.4915   23.7602 S   0  0  0  0  0  0  0  0  0  0  0  0
   10.5507   11.8333   18.8459 He  0  0  0  0  0  0  0  0  0  0  0  0
   10.7885   11.6876   17.4644 He  0  0  0  0  0  0  0  0  0  0  0  0
   11.3627    9.5403   19.7675 He  0  0  0  0  0  0  0  0  0  0  0  0
   11.4510    7.1700   21.2234 He  0  0  0  0  0  0  0  0  0  0  0  0
  1  6  1  0
  1 17  4  0
  2  6  1  0
  2 15  2  0
  3 11  4  0
  3 21  4  0
  4  9  1  0
  4 13  4  0
  5  6  4  0
  5 10  4  0
  5 15  4  0
  7 13  2  0
  7 16  1  0
  8 12  1  0
  8 15  4  0
  9 21  1  0
 10 11  4  0
 10 19  2  0
 12 14  2  0
 12 20  3  0
 12 21  4  0
 14 17  4  0
 14 18  2  0
 14 19  4  0
 16 20  1  0
 16 22  2  0
 18 19  1  0
M  END
$$$$

 Created by Python create_sdf_string function

 26 28  0  0  0  0  0  0  0  0999 V2000
   12.4997    8.6546   19.5396 N   0  0  0  0  0  0  0  0  0  0  0  0
   11.8309   10.8448   19.0984 N   0  0  0  0  0  0  0  0  0  0  0  0
    6.0227    3.0781   20.9917 C   0  0  0  0  0  0  0  0  0  0  0  0
   10.6728   11.6008   18.6932 C   0  0  0  0  0  0  0  0  0  0  0  0
   10.6399   12.0023   17.4115 C   0  0  0  0  0  0  0  0  0  0  0  0
   12.5355    5.3555   20.8100 C   0  0  0  0  0  0  0  0  0  0  0  0
    7.7207    5.0631   21.9429 C   0  0  0  0  0  0  0  0  0  0  0  0
   13.1076   11.1701   18.4884 C   0  0  0  0  0  0  0  0  0  0  0  0
    8.7540    6.0116   22.1883 N   0  0  0  0  0  0  0  0  0  0  0  0
    5.5102    4.0953   21.6445 C   0  0  0  0  0  0  0  0  0  0  0  0
   11.6395    9.6755   19.8594 C   0  0  0  0  0  0  0  0  0  0  0  0
   12.9191    4.0447   20.9249 N   0  0  0  0  0  0  0  0  0  0  0  0
    8.2170    3.9373   21.3214 C   0  0  0  0  0  0  0  0  0  0  0  0
    7.3782    2.9885   20.8453 C   0  0  0  0  0  0  0  0  0  0  0  0
   11.4252    7.2692   21.0905 C   0  0  0  0  0  0  0  0  0  0  0  0
   10.6042    8.3051   21.3839 C   0  0  0  0  0  0  0  0  0  0  0  0
   11.4877    5.9744   21.5062 N   0  0  0  0  0  0  0  0  0  0  0  0
    9.7392   11.8493   19.4129 O   0  0  0  0  0  0  0  0  0  0  0  0
    6.2806    5.1016   22.1422 C   0  0  0  0  0  0  0  0  0  0  0  0
    8.6929    7.1535   22.6781 C   0  0  0  0  0  0  0  0  0  0  0  0
   12.4070    7.4750   20.1452 C   0  0  0  0  0  0  0  0  0  0  0  0
   14.0611    5.9947   19.1437 O   0  0  0  0  0  0  0  0  0  0  0  0
   13.1108    6.2998   19.9795 N   0  0  0  0  0  0  0  0  0  0  0  0
    9.6010    8.1674   22.4358 N   0  0  0  0  0  0  0  0  0  0  0  0
   10.6826    9.4827   20.7775 C   0  0  0  0  0  0  0  0  0  0  0  0
    7.5732    7.4060   23.6742 S   0  0  0  0  0  0  0  0  0  0  0  0
  1 11  4  0
  1 21  4  0
  2  4  1  0
  2  8  1  0
  2 11  1  0
  3 10  4  0
  3 14  4  0
  4  5  1  0
  4 18  2  0
  6 12  1  0
  6 17  4  0
  6 23  4  0
  7  9  1  0
  7 13  4  0
  7 19  4  0
  9 20  1  0
 10 19  4  0
 11 25  4  0
 13 14  4  0
 15 16  4  0
 15 17  4  0
 15 21  4  0
 16 24  1  0
 16 25  4  0
 20 24  1  0
 20 26  2  0
 21 23  4  0
 22 23  1  0
M  END
$$$$

 Created by Python create_sdf_string function

 26 32  0  0  0  0  0  0  0  0999 V2000
   12.6085    8.5107   19.5147 N   0  0  0  0  0  0  0  0  0  0  0  0
   11.9094   10.6637   18.8506 N   0  0  0  0  0  0  0  0  0  0  0  0
    5.9920    3.1284   21.0563 C   0  0  0  0  0  0  0  0  0  0  0  0
   10.7953   11.6107   18.6081 F   0  0  0  0  0  0  0  0  0  0  0  0
   12.2353    5.5500   20.9812 C   0  0  0  0  0  0  0  0  0  0  0  0
    7.4113    5.0961   21.9419 C   0  0  0  0  0  0  0  0  0  0  0  0
   13.0067   10.9557   18.7098 B   0  0  0  0  0  0  0  0  0  0  0  0
    5.3665    4.3860   21.6619 C   0  0  0  0  0  0  0  0  0  0  0  0
   12.1208    9.6066   20.0478 C   0  0  0  0  0  0  0  0  0  0  0  0
   13.1424    3.9187   20.7380 N   0  0  0  0  0  0  0  0  0  0  0  0
    8.3101    4.0463   21.4963 C   0  0  0  0  0  0  0  0  0  0  0  0
    7.4591    2.8380   20.5047 C   0  0  0  0  0  0  0  0  0  0  0  0
   11.5127    7.1183   21.1722 C   0  0  0  0  0  0  0  0  0  0  0  0
   10.5085    8.6482   21.4322 N   0  0  0  0  0  0  0  0  0  0  0  0
   11.4790    5.8900   21.9436 N   0  0  0  0  0  0  0  0  0  0  0  0
    9.7669   11.6883   19.6042 O   0  0  0  0  0  0  0  0  0  0  0  0
    6.4952    4.6577   22.3024 C   0  0  0  0  0  0  0  0  0  0  0  0
    8.6662    7.2071   22.4329 C   0  0  0  0  0  0  0  0  0  0  0  0
   12.3066    7.5146   19.9433 C   0  0  0  0  0  0  0  0  0  0  0  0
   13.1729    6.3340   20.1330 N   0  0  0  0  0  0  0  0  0  0  0  0
   10.9025    9.5522   20.9227 C   0  0  0  0  0  0  0  0  0  0  0  0
    7.6601    7.3120   23.9563 S   0  0  0  0  0  0  0  0  0  0  0  0
   10.3753   12.0303   17.6617 He  0  0  0  0  0  0  0  0  0  0  0  0
    8.8626    6.2003   22.1716 He  0  0  0  0  0  0  0  0  0  0  0  0
   13.8051    6.0114   19.2033 He  0  0  0  0  0  0  0  0  0  0  0  0
    9.5391    8.1014   22.5027 He  0  0  0  0  0  0  0  0  0  0  0  0
  1  5  1  0
  1  9  4  0
  1 19  4  0
  2  4  1  0
  2  5  1  0
  2  7  1  0
  2  9  1  0
  2 10  1  0
  2 12  3  0
  3  6  2  0
  3  8  4  0
  3 12  4  0
  4  5  3  0
  4 16  2  0
  5 10  1  0
  5 15  4  0
  5 18  3  0
  5 20  4  0
  6 17  4  0
  8 17  4  0
  9 15  4  0
  9 21  4  0
 11 12  4  0
 12 14  2  0
 12 15  3  0
 13 15  4  0
 13 19  4  0
 14 15  4  0
 14 19  4  0
 14 21  4  0
 17 20  3  0
 19 20  4  0
M  END
$$$$

 Created by Python create_sdf_string function

 26 28  0  0  0  0  0  0  0  0999 V2000
   12.5677    8.5713   19.6075 N   0  0  0  0  0  0  0  0  0  0  0  0
   11.8463   10.7280   18.9828 N   0  0  0  0  0  0  0  0  0  0  0  0
    5.9744    3.1103   20.9631 C   0  0  0  0  0  0  0  0  0  0  0  0
   10.6720   11.5650   18.7640 C   0  0  0  0  0  0  0  0  0  0  0  0
   10.5780   12.1078   17.5488 C   0  0  0  0  0  0  0  0  0  0  0  0
   12.4589    5.2976   20.9217 C   0  0  0  0  0  0  0  0  0  0  0  0
    7.7550    5.0241   21.9137 C   0  0  0  0  0  0  0  0  0  0  0  0
   13.0818   11.0962   18.4472 C   0  0  0  0  0  0  0  0  0  0  0  0
    8.6722    6.0825   22.1607 N   0  0  0  0  0  0  0  0  0  0  0  0
    5.5089    4.1036   21.7698 C   0  0  0  0  0  0  0  0  0  0  0  0
   11.7368    9.5869   19.8225 C   0  0  0  0  0  0  0  0  0  0  0  0
   12.9475    4.0426   20.9925 N   0  0  0  0  0  0  0  0  0  0  0  0
    8.2167    3.9427   21.2420 C   0  0  0  0  0  0  0  0  0  0  0  0
    7.3427    3.0002   20.7106 C   0  0  0  0  0  0  0  0  0  0  0  0
   11.4149    7.2535   21.1888 C   0  0  0  0  0  0  0  0  0  0  0  0
   10.6313    8.3390   21.5035 N   0  0  0  0  0  0  0  0  0  0  0  0
   11.4388    5.9135   21.6456 N   0  0  0  0  0  0  0  0  0  0  0  0
    9.8092   11.7601   19.5723 O   0  0  0  0  0  0  0  0  0  0  0  0
    6.3646    5.0399   22.2134 C   0  0  0  0  0  0  0  0  0  0  0  0
    8.6580    7.1892   22.7061 C   0  0  0  0  0  0  0  0  0  0  0  0
   12.3830    7.4407   20.2345 C   0  0  0  0  0  0  0  0  0  0  0  0
   13.9955    5.9783   19.1336 C   0  0  0  0  0  0  0  0  0  0  0  0
   13.0096    6.2346   20.0329 N   0  0  0  0  0  0  0  0  0  0  0  0
    9.6170    8.2339   22.4862 N   0  0  0  0  0  0  0  0  0  0  0  0
   10.8022    9.4743   20.8648 C   0  0  0  0  0  0  0  0  0  0  0  0
    7.6780    7.3598   23.7938 O   0  0  0  0  0  0  0  0  0  0  0  0
  1 11  4  0
  1 21  4  0
  2  4  1  0
  2  8  1  0
  2 11  1  0
  3 10  4  0
  3 14  4  0
  4  5  1  0
  4 18  2  0
  6 12  1  0
  6 17  4  0
  6 23  4  0
  7  9  1  0
  7 13  4  0
  7 19  4  0
  9 20  1  0
 10 19  4  0
 11 25  4  0
 13 14  4  0
 15 16  4  0
 15 17  4  0
 15 21  4  0
 16 24  1  0
 16 25  4  0
 20 24  1  0
 20 26  2  0
 21 23  4  0
 22 23  1  0
M  END
$$$$

 Created by Python create_sdf_string function

 26 40  0  0  0  0  0  0  0  0999 V2000
   12.5131    8.5571   19.7393 P   0  0  0  0  0  0  0  0  0  0  0  0
    5.8910    3.1519   21.1055 C   0  0  0  0  0  0  0  0  0  0  0  0
   10.8839   11.4528   18.9567 C   0  0  0  0  0  0  0  0  0  0  0  0
   11.0209   12.1312   17.5770 C   0  0  0  0  0  0  0  0  0  0  0  0
   12.2195    5.5626   21.3207 C   0  0  0  0  0  0  0  0  0  0  0  0
    7.8686    5.2354   21.7792 F   0  0  0  0  0  0  0  0  0  0  0  0
   12.9493   11.2732   18.1183 C   0  0  0  0  0  0  0  0  0  0  0  0
    8.9173    6.4323   22.2220 N   0  0  0  0  0  0  0  0  0  0  0  0
    5.6614    3.8707   21.9717 C   0  0  0  0  0  0  0  0  0  0  0  0
   11.9660    9.5125   19.9579 F   0  0  0  0  0  0  0  0  0  0  0  0
   12.9107    3.8553   21.2348 N   0  0  0  0  0  0  0  0  0  0  0  0
    8.3005    3.8943   21.5889 C   0  0  0  0  0  0  0  0  0  0  0  0
    7.4502    3.0929   20.6943 C   0  0  0  0  0  0  0  0  0  0  0  0
   11.6677    7.0907   21.5466 C   0  0  0  0  0  0  0  0  0  0  0  0
   10.7847    8.6744   21.5977 N   0  0  0  0  0  0  0  0  0  0  0  0
   11.6106    5.8765   21.8053 N   0  0  0  0  0  0  0  0  0  0  0  0
    9.7041   11.5645   19.5183 C   0  0  0  0  0  0  0  0  0  0  0  0
    6.2813    4.8196   22.5957 C   0  0  0  0  0  0  0  0  0  0  0  0
    8.9110    6.9991   22.6701 C   0  0  0  0  0  0  0  0  0  0  0  0
   13.9536    5.7230   19.4119 C   0  0  0  0  0  0  0  0  0  0  0  0
   13.2064    6.4153   19.9235 N   0  0  0  0  0  0  0  0  0  0  0  0
    9.4316    8.2080   22.6734 N   0  0  0  0  0  0  0  0  0  0  0  0
   10.6846    9.6057   20.9107 C   0  0  0  0  0  0  0  0  0  0  0  0
    7.5682    7.4008   23.6287 O   0  0  0  0  0  0  0  0  0  0  0  0
   11.6318   10.7090   18.8337 He  0  0  0  0  0  0  0  0  0  0  0  0
   12.5519    7.3299   20.3991 He  0  0  0  0  0  0  0  0  0  0  0  0
  1  6  2  0
  1 10  4  0
  2  9  1  0
  2 11  2  0
  2 13  4  0
  2 19  3  0
  3  4  1  0
  3 10  4  0
  3 17  2  0
  3 24  2  0
  4  6  4  0
  4 11  2  0
  5 11  1  0
  5 16  4  0
  5 21  4  0
  6  8  1  0
  6 12  4  0
  6 16  3  0
  6 18  4  0
  7 20  3  0
  7 24  2  0
  8 19  1  0
  8 20  4  0
  9 14  1  0
  9 18  4  0
  9 24  3  0
 10 12  3  0
 10 20  2  0
 10 24  1  0
 12 13  4  0
 12 15  2  0
 12 18  1  0
 13 18  2  0
 14 15  4  0
 14 16  4  0
 15 22  1  0
 15 23  4  0
 19 22  1  0
 19 24  2  0
 20 21  1  0
M  END
$$$$

 Created by Python create_sdf_string function

 26 28  0  0  0  0  0  0  0  0999 V2000
   12.5939    8.5645   19.6989 N   0  0  0  0  0  0  0  0  0  0  0  0
   11.8221   10.6777   19.0144 N   0  0  0  0  0  0  0  0  0  0  0  0
    6.0427    3.0838   21.1797 C   0  0  0  0  0  0  0  0  0  0  0  0
   10.7114   11.5424   18.8007 C   0  0  0  0  0  0  0  0  0  0  0  0
   10.8483   12.3163   17.6142 C   0  0  0  0  0  0  0  0  0  0  0  0
   12.4627    5.3089   21.1612 C   0  0  0  0  0  0  0  0  0  0  0  0
    7.8283    5.0386   21.9780 C   0  0  0  0  0  0  0  0  0  0  0  0
   13.0319   10.9917   18.2408 C   0  0  0  0  0  0  0  0  0  0  0  0
    8.7393    6.0783   22.1342 N   0  0  0  0  0  0  0  0  0  0  0  0
    5.6243    3.9981   22.0054 C   0  0  0  0  0  0  0  0  0  0  0  0
   11.7460    9.5713   19.8794 C   0  0  0  0  0  0  0  0  0  0  0  0
   12.8261    4.0540   21.2470 N   0  0  0  0  0  0  0  0  0  0  0  0
    8.2543    3.9980   21.2236 C   0  0  0  0  0  0  0  0  0  0  0  0
    7.3934    3.0299   20.7735 C   0  0  0  0  0  0  0  0  0  0  0  0
   11.4494    7.2681   21.3251 C   0  0  0  0  0  0  0  0  0  0  0  0
   10.6512    8.3375   21.6224 N   0  0  0  0  0  0  0  0  0  0  0  0
   11.4821    5.9726   21.8326 N   0  0  0  0  0  0  0  0  0  0  0  0
    9.7476   11.6616   19.4524 O   0  0  0  0  0  0  0  0  0  0  0  0
    6.4817    4.9800   22.4192 C   0  0  0  0  0  0  0  0  0  0  0  0
    8.6746    7.1947   22.7394 C   0  0  0  0  0  0  0  0  0  0  0  0
   12.4241    7.4058   20.3706 C   0  0  0  0  0  0  0  0  0  0  0  0
   14.0615    5.8796   19.3779 C   0  0  0  0  0  0  0  0  0  0  0  0
   13.0417    6.2212   20.2719 N   0  0  0  0  0  0  0  0  0  0  0  0
    9.6795    8.2195   22.6330 N   0  0  0  0  0  0  0  0  0  0  0  0
   10.7898    9.4763   20.8931 C   0  0  0  0  0  0  0  0  0  0  0  0
    7.7217    7.3969   23.5674 O   0  0  0  0  0  0  0  0  0  0  0  0
  1 11  4  0
  1 21  4  0
  2  4  1  0
  2  8  1  0
  2 11  1  0
  3 10  4  0
  3 14  4  0
  4  5  1  0
  4 18  2  0
  6 12  1  0
  6 17  4  0
  6 23  4  0
  7  9  1  0
  7 13  4  0
  7 19  4  0
  9 20  1  0
 10 19  4  0
 11 25  4  0
 13 14  4  0
 15 16  4  0
 15 17  4  0
 15 21  4  0
 16 24  1  0
 16 25  4  0
 20 24  1  0
 20 26  2  0
 21 23  4  0
 22 23  1  0
M  END
$$$$

 Created by Python create_sdf_string function

 26 34  0  0  0  0  0  0  0  0999 V2000
   12.2754    8.6383   19.7463 N   0  0  0  0  0  0  0  0  0  0  0  0
   11.6113   10.7199   19.1309 N   0  0  0  0  0  0  0  0  0  0  0  0
   10.7975   11.5510   18.6417 C   0  0  0  0  0  0  0  0  0  0  0  0
   10.8380   12.4312   17.8540 C   0  0  0  0  0  0  0  0  0  0  0  0
   12.4103    5.2016   21.1548 C   0  0  0  0  0  0  0  0  0  0  0  0
    7.7129    4.7269   22.1982 C   0  0  0  0  0  0  0  0  0  0  0  0
   12.6629   11.0884   18.3673 C   0  0  0  0  0  0  0  0  0  0  0  0
    8.7784    6.3756   22.0953 N   0  0  0  0  0  0  0  0  0  0  0  0
   11.9537    9.6129   19.7574 C   0  0  0  0  0  0  0  0  0  0  0  0
   12.9966    4.2993   20.9654 N   0  0  0  0  0  0  0  0  0  0  0  0
    8.4877    3.8999   21.3666 C   0  0  0  0  0  0  0  0  0  0  0  0
    7.6998    3.0906   20.5702 C   0  0  0  0  0  0  0  0  0  0  0  0
   11.4144    7.3874   21.3946 C   0  0  0  0  0  0  0  0  0  0  0  0
   10.4087    8.4543   21.6325 N   0  0  0  0  0  0  0  0  0  0  0  0
   11.2334    6.0944   21.6745 N   0  0  0  0  0  0  0  0  0  0  0  0
    9.8133   11.8261   19.4455 O   0  0  0  0  0  0  0  0  0  0  0  0
    6.5066    4.9811   22.4737 C   0  0  0  0  0  0  0  0  0  0  0  0
    8.7979    6.8906   22.5393 C   0  0  0  0  0  0  0  0  0  0  0  0
   12.5230    7.3347   20.0711 C   0  0  0  0  0  0  0  0  0  0  0  0
   14.4045    5.9277   19.1626 C   0  0  0  0  0  0  0  0  0  0  0  0
   12.9602    6.1072   20.2819 N   0  0  0  0  0  0  0  0  0  0  0  0
    9.7393    8.5142   22.8737 N   0  0  0  0  0  0  0  0  0  0  0  0
   10.5377    9.5761   20.8398 C   0  0  0  0  0  0  0  0  0  0  0  0
    7.6707    7.2676   23.5296 O   0  0  0  0  0  0  0  0  0  0  0  0
    6.0048    2.8358   21.3572 He  0  0  0  0  0  0  0  0  0  0  0  0
    5.4324    3.7431   22.1615 He  0  0  0  0  0  0  0  0  0  0  0  0
  1  9  4  0
  1 16  1  0
  1 19  4  0
  2  3  1  0
  2  7  1  0
  2  8  4  0
  2  9  1  0
  3  4  1  0
  3 16  2  0
  5 10  1  0
  5 11  2  0
  5 15  4  0
  5 21  4  0
  6  8  1  0
  6 11  4  0
  6 17  4  0
  6 20  2  0
  8 18  1  0
  8 19  3  0
  9 18  4  0
  9 23  4  0
 11 12  4  0
 11 20  2  0
 13 14  4  0
 13 15  4  0
 13 19  4  0
 14 22  1  0
 14 23  4  0
 15 19  2  0
 17 22  2  0
 18 19  3  0
 18 22  1  0
 18 24  2  0
 20 21  1  0
M  END
$$$$

 Created by Python create_sdf_string function

 26 28  0  0  0  0  0  0  0  0999 V2000
   12.4822    8.6045   19.6277 N   0  0  0  0  0  0  0  0  0  0  0  0
   11.7059   10.7175   19.0115 N   0  0  0  0  0  0  0  0  0  0  0  0
    6.1596    2.9112   21.2225 C   0  0  0  0  0  0  0  0  0  0  0  0
   10.6925   11.6636   18.8395 C   0  0  0  0  0  0  0  0  0  0  0  0
   10.8706   12.5200   17.7267 C   0  0  0  0  0  0  0  0  0  0  0  0
   12.4421    5.3563   21.0233 C   0  0  0  0  0  0  0  0  0  0  0  0
    7.8408    4.9788   21.9827 C   0  0  0  0  0  0  0  0  0  0  0  0
   12.8885   11.0350   18.2757 C   0  0  0  0  0  0  0  0  0  0  0  0
    8.7211    6.0357   22.1698 N   0  0  0  0  0  0  0  0  0  0  0  0
    5.6837    3.8098   22.0997 C   0  0  0  0  0  0  0  0  0  0  0  0
   11.6208    9.5816   19.8252 C   0  0  0  0  0  0  0  0  0  0  0  0
   12.9085    4.1099   21.1132 N   0  0  0  0  0  0  0  0  0  0  0  0
    8.3242    3.9223   21.2235 C   0  0  0  0  0  0  0  0  0  0  0  0
    7.4782    2.9074   20.8047 C   0  0  0  0  0  0  0  0  0  0  0  0
   11.3515    7.2961   21.2221 C   0  0  0  0  0  0  0  0  0  0  0  0
   10.5612    8.3692   21.5701 N   0  0  0  0  0  0  0  0  0  0  0  0
   11.3935    5.9861   21.6819 N   0  0  0  0  0  0  0  0  0  0  0  0
    9.7351   11.7669   19.4496 O   0  0  0  0  0  0  0  0  0  0  0  0
    6.5206    4.8615   22.4766 C   0  0  0  0  0  0  0  0  0  0  0  0
    8.6531    7.1552   22.7717 C   0  0  0  0  0  0  0  0  0  0  0  0
   12.3437    7.4606   20.2898 C   0  0  0  0  0  0  0  0  0  0  0  0
   14.1651    6.0053   19.3405 C   0  0  0  0  0  0  0  0  0  0  0  0
   13.0406    6.3006   20.1611 N   0  0  0  0  0  0  0  0  0  0  0  0
    9.6414    8.2593   22.6411 C   0  0  0  0  0  0  0  0  0  0  0  0
   10.6858    9.4897   20.8548 C   0  0  0  0  0  0  0  0  0  0  0  0
    7.7034    7.3147   23.5613 O   0  0  0  0  0  0  0  0  0  0  0  0
  1 11  4  0
  1 21  4  0
  2  4  1  0
  2  8  1  0
  2 11  1  0
  3 10  4  0
  3 14  4  0
  4  5  1  0
  4 18  2  0
  6 12  1  0
  6 17  4  0
  6 23  4  0
  7  9  1  0
  7 13  4  0
  7 19  4  0
  9 20  1  0
 10 19  4  0
 11 25  4  0
 13 14  4  0
 15 16  4  0
 15 17  4  0
 15 21  4  0
 16 24  1  0
 16 25  4  0
 20 24  1  0
 20 26  2  0
 21 23  4  0
 22 23  1  0
M  END
$$$$

 Created by Python create_sdf_string function

 26 38  0  0  0  0  0  0  0  0999 V2000
   12.5965    8.6312   19.3793 N   0  0  0  0  0  0  0  0  0  0  0  0
   11.7483   10.8677   19.0651 N   0  0  0  0  0  0  0  0  0  0  0  0
    6.0334    2.9972   21.2515 C   0  0  0  0  0  0  0  0  0  0  0  0
   10.8550   11.6727   18.7946 C   0  0  0  0  0  0  0  0  0  0  0  0
   10.8506   12.6645   17.7542 C   0  0  0  0  0  0  0  0  0  0  0  0
   12.3763    5.5330   21.0200 C   0  0  0  0  0  0  0  0  0  0  0  0
    7.7245    5.3270   21.9491 C   0  0  0  0  0  0  0  0  0  0  0  0
   12.8492   10.8399   18.2899 C   0  0  0  0  0  0  0  0  0  0  0  0
    8.7483    5.9597   22.1685 N   0  0  0  0  0  0  0  0  0  0  0  0
    5.5660    3.6805   22.1284 C   0  0  0  0  0  0  0  0  0  0  0  0
   11.4864    9.5847   19.7589 C   0  0  0  0  0  0  0  0  0  0  0  0
   12.7584    4.1134   21.3959 N   0  0  0  0  0  0  0  0  0  0  0  0
    8.2371    4.1070   21.2510 C   0  0  0  0  0  0  0  0  0  0  0  0
    7.2655    2.9730   20.7756 C   0  0  0  0  0  0  0  0  0  0  0  0
   11.5860    7.2834   21.3231 C   0  0  0  0  0  0  0  0  0  0  0  0
   10.7251    8.4779   21.5618 F   0  0  0  0  0  0  0  0  0  0  0  0
   11.2898    6.0283   22.0919 F   0  0  0  0  0  0  0  0  0  0  0  0
   10.0436   12.1230   19.2975 O   0  0  0  0  0  0  0  0  0  0  0  0
    6.4562    5.0285   22.3297 C   0  0  0  0  0  0  0  0  0  0  0  0
    8.4862    6.9610   22.5548 C   0  0  0  0  0  0  0  0  0  0  0  0
   12.3518    7.5963   20.3332 C   0  0  0  0  0  0  0  0  0  0  0  0
   13.9187    5.9514   19.5242 C   0  0  0  0  0  0  0  0  0  0  0  0
   13.1918    6.2913   20.2955 N   0  0  0  0  0  0  0  0  0  0  0  0
    9.6343    8.3461   22.8048 Cl  0  0  0  0  0  0  0  0  0  0  0  0
   10.6513    9.4573   20.5948 C   0  0  0  0  0  0  0  0  0  0  0  0
    7.4426    7.4224   23.9715 O   0  0  0  0  0  0  0  0  0  0  0  0
  1 11  4  0
  1 21  4  0
  2  4  1  0
  2  8  1  0
  2 11  1  0
  2 12  1  0
  2 23  4  0
  3  7  3  0
  3 10  4  0
  3 14  4  0
  4  5  1  0
  4  9  4  0
  4 18  2  0
  5  7  4  0
  6  9  2  0
  6 12  1  0
  6 23  4  0
  7 19  4  0
  7 26  2  0
  8 16  1  0
  8 23  2  0
  9 20  1  0
  9 26  4  0
 10 14  3  0
 10 19  4  0
 11 25  4  0
 12 20  3  0
 13 14  4  0
 14 22  3  0
 15 16  4  0
 15 17  4  0
 15 21  4  0
 16 24  1  0
 16 25  4  0
 20 24  3  0
 20 26  3  0
 21 23  2  0
 22 23  1  0
M  END
$$$$

 Created by Python create_sdf_string function

 26 28  0  0  0  0  0  0  0  0999 V2000
   12.4651    8.6229   19.5986 N   0  0  0  0  0  0  0  0  0  0  0  0
   11.7078   10.7393   18.9516 N   0  0  0  0  0  0  0  0  0  0  0  0
    6.0228    2.9727   21.2782 C   0  0  0  0  0  0  0  0  0  0  0  0
   10.7891   11.7879   18.8189 C   0  0  0  0  0  0  0  0  0  0  0  0
   10.9797   12.6608   17.6935 C   0  0  0  0  0  0  0  0  0  0  0  0
   12.4545    5.4166   21.2093 C   0  0  0  0  0  0  0  0  0  0  0  0
    7.7105    5.0523   21.9469 C   0  0  0  0  0  0  0  0  0  0  0  0
   12.9659   10.9085   18.1640 C   0  0  0  0  0  0  0  0  0  0  0  0
    8.6030    6.0997   22.1189 N   0  0  0  0  0  0  0  0  0  0  0  0
    5.5897    3.9244   22.0965 C   0  0  0  0  0  0  0  0  0  0  0  0
   11.6003    9.6310   19.7848 C   0  0  0  0  0  0  0  0  0  0  0  0
   12.7717    4.1737   21.3246 N   0  0  0  0  0  0  0  0  0  0  0  0
    8.1463    4.0415   21.1334 C   0  0  0  0  0  0  0  0  0  0  0  0
    7.3055    2.9921   20.7795 C   0  0  0  0  0  0  0  0  0  0  0  0
   11.3702    7.3583   21.2895 C   0  0  0  0  0  0  0  0  0  0  0  0
   10.5365    8.3949   21.5436 C   0  0  0  0  0  0  0  0  0  0  0  0
   11.4576    6.0954   21.8982 N   0  0  0  0  0  0  0  0  0  0  0  0
    9.8940   11.9780   19.5315 O   0  0  0  0  0  0  0  0  0  0  0  0
    6.4264    4.9468   22.4431 C   0  0  0  0  0  0  0  0  0  0  0  0
    8.5683    7.2117   22.8083 C   0  0  0  0  0  0  0  0  0  0  0  0
   12.3127    7.4977   20.3243 C   0  0  0  0  0  0  0  0  0  0  0  0
   14.0518    6.0012   19.4713 C   0  0  0  0  0  0  0  0  0  0  0  0
   12.9839    6.3155   20.2786 N   0  0  0  0  0  0  0  0  0  0  0  0
    9.5839    8.3091   22.6168 C   0  0  0  0  0  0  0  0  0  0  0  0
   10.6447    9.4973   20.7711 C   0  0  0  0  0  0  0  0  0  0  0  0
    7.6146    7.3613   23.6791 O   0  0  0  0  0  0  0  0  0  0  0  0
  1 11  4  0
  1 21  4  0
  2  4  1  0
  2  8  1  0
  2 11  1  0
  3 10  4  0
  3 14  4  0
  4  5  1  0
  4 18  2  0
  6 12  1  0
  6 17  4  0
  6 23  4  0
  7  9  1  0
  7 13  4  0
  7 19  4  0
  9 20  1  0
 10 19  4  0
 11 25  4  0
 13 14  4  0
 15 16  4  0
 15 17  4  0
 15 21  4  0
 16 24  1  0
 16 25  4  0
 20 24  1  0
 20 26  2  0
 21 23  4  0
 22 23  1  0
M  END
$$$$

 Created by Python create_sdf_string function

 26 37  0  0  0  0  0  0  0  0999 V2000
   12.4269    8.6661   19.4759 N   0  0  0  0  0  0  0  0  0  0  0  0
   11.4869   10.6550   18.7070 N   0  0  0  0  0  0  0  0  0  0  0  0
   10.8246   11.9657   18.6567 O   0  0  0  0  0  0  0  0  0  0  0  0
   11.0313   12.6134   17.5783 C   0  0  0  0  0  0  0  0  0  0  0  0
   12.3094    5.3989   21.1858 C   0  0  0  0  0  0  0  0  0  0  0  0
    7.7286    4.9026   22.1132 C   0  0  0  0  0  0  0  0  0  0  0  0
   12.9011   10.9324   18.3842 C   0  0  0  0  0  0  0  0  0  0  0  0
    5.4574    3.8545   22.1002 C   0  0  0  0  0  0  0  0  0  0  0  0
   11.8289   10.0115   19.9425 C   0  0  0  0  0  0  0  0  0  0  0  0
   12.7616    4.0934   21.4592 N   0  0  0  0  0  0  0  0  0  0  0  0
    8.2363    4.0078   21.2526 C   0  0  0  0  0  0  0  0  0  0  0  0
    7.4319    2.6330   20.7758 C   0  0  0  0  0  0  0  0  0  0  0  0
   11.2262    7.3561   21.2727 O   0  0  0  0  0  0  0  0  0  0  0  0
   10.3472    8.4155   21.5997 C   0  0  0  0  0  0  0  0  0  0  0  0
   11.7026    6.1154   21.8597 N   0  0  0  0  0  0  0  0  0  0  0  0
    9.9332   11.8375   19.5083 F   0  0  0  0  0  0  0  0  0  0  0  0
    6.5945    4.9289   22.5217 C   0  0  0  0  0  0  0  0  0  0  0  0
    8.8120    6.9419   22.7738 C   0  0  0  0  0  0  0  0  0  0  0  0
   12.2808    7.6305   20.1996 C   0  0  0  0  0  0  0  0  0  0  0  0
   14.2115    6.1745   19.3675 C   0  0  0  0  0  0  0  0  0  0  0  0
   12.9429    6.0458   20.2045 N   0  0  0  0  0  0  0  0  0  0  0  0
    9.7322    8.0934   22.7304 C   0  0  0  0  0  0  0  0  0  0  0  0
    7.7888    7.4470   23.4147 O   0  0  0  0  0  0  0  0  0  0  0  0
    6.1835    3.1621   21.3830 He  0  0  0  0  0  0  0  0  0  0  0  0
    8.5682    6.1482   22.2851 He  0  0  0  0  0  0  0  0  0  0  0  0
   10.8537    9.5589   20.7242 He  0  0  0  0  0  0  0  0  0  0  0  0
  1  2  3  0
  1  7  2  0
  1  9  4  0
  1 19  4  0
  2  3  1  0
  2  7  1  0
  2  9  1  0
  2 19  4  0
  3  4  1  0
  3  5  1  0
  3 14  1  0
  3 16  2  0
  4 12  2  0
  4 15  3  0
  5 10  1  0
  5 12  2  0
  5 15  4  0
  5 21  4  0
  6 11  4  0
  6 17  4  0
  7 23  3  0
  8 17  4  0
  8 22  4  0
 11 12  4  0
 12 16  3  0
 12 20  1  0
 13 14  4  0
 13 15  4  0
 13 19  4  0
 14 20  3  0
 14 22  1  0
 15 21  2  0
 17 19  3  0
 18 22  1  0
 18 23  2  0
 19 21  4  0
 20 21  1  0
M  END
$$$$

 Created by Python create_sdf_string function

 26 28  0  0  0  0  0  0  0  0999 V2000
   12.4299    8.6195   19.5556 N   0  0  0  0  0  0  0  0  0  0  0  0
   11.7131   10.7303   18.9165 N   0  0  0  0  0  0  0  0  0  0  0  0
    6.0860    2.9458   21.2981 C   0  0  0  0  0  0  0  0  0  0  0  0
   10.7747   11.7630   18.7682 C   0  0  0  0  0  0  0  0  0  0  0  0
   11.0114   12.6231   17.6482 C   0  0  0  0  0  0  0  0  0  0  0  0
   12.4274    5.4427   21.1558 C   0  0  0  0  0  0  0  0  0  0  0  0
    7.8131    4.9651   22.0154 C   0  0  0  0  0  0  0  0  0  0  0  0
   12.9789   10.9847   18.1775 C   0  0  0  0  0  0  0  0  0  0  0  0
    8.7153    5.9857   22.2664 N   0  0  0  0  0  0  0  0  0  0  0  0
    5.6226    3.8730   22.1139 C   0  0  0  0  0  0  0  0  0  0  0  0
   11.5816    9.6320   19.7554 C   0  0  0  0  0  0  0  0  0  0  0  0
   12.7899    4.1881   21.3488 N   0  0  0  0  0  0  0  0  0  0  0  0
    8.2523    3.9394   21.2552 C   0  0  0  0  0  0  0  0  0  0  0  0
    7.3797    2.9064   20.8618 C   0  0  0  0  0  0  0  0  0  0  0  0
   11.3786    7.3502   21.2614 C   0  0  0  0  0  0  0  0  0  0  0  0
   10.5632    8.4235   21.5859 C   0  0  0  0  0  0  0  0  0  0  0  0
   11.4289    6.0751   21.8111 N   0  0  0  0  0  0  0  0  0  0  0  0
    9.9158   11.9283   19.4740 O   0  0  0  0  0  0  0  0  0  0  0  0
    6.5054    4.9180   22.4660 C   0  0  0  0  0  0  0  0  0  0  0  0
    8.6797    7.1805   22.7857 C   0  0  0  0  0  0  0  0  0  0  0  0
   12.2944    7.5131   20.2907 C   0  0  0  0  0  0  0  0  0  0  0  0
   14.0576    6.0945   19.3761 C   0  0  0  0  0  0  0  0  0  0  0  0
   12.9744    6.3466   20.2234 N   0  0  0  0  0  0  0  0  0  0  0  0
    9.6850    8.2620   22.6615 N   0  0  0  0  0  0  0  0  0  0  0  0
   10.6654    9.5371   20.7901 N   0  0  0  0  0  0  0  0  0  0  0  0
    7.7355    7.3848   23.5004 O   0  0  0  0  0  0  0  0  0  0  0  0
  1 11  4  0
  1 21  4  0
  2  4  1  0
  2  8  1  0
  2 11  1  0
  3 10  4  0
  3 14  4  0
  4  5  1  0
  4 18  2  0
  6 12  1  0
  6 17  4  0
  6 23  4  0
  7  9  1  0
  7 13  4  0
  7 19  4  0
  9 20  1  0
 10 19  4  0
 11 25  4  0
 13 14  4  0
 15 16  4  0
 15 17  4  0
 15 21  4  0
 16 24  1  0
 16 25  4  0
 20 24  1  0
 20 26  2  0
 21 23  4  0
 22 23  1  0
M  END
$$$$

 Created by Python create_sdf_string function

 26 37  0  0  0  0  0  0  0  0999 V2000
   12.3864    8.8069   19.3762 N   0  0  0  0  0  0  0  0  0  0  0  0
   11.7385   10.4065   19.0085 N   0  0  0  0  0  0  0  0  0  0  0  0
    5.9977    3.0945   21.2861 C   0  0  0  0  0  0  0  0  0  0  0  0
   10.6878   11.7241   18.6935 C   0  0  0  0  0  0  0  0  0  0  0  0
   11.0005   12.7018   17.4949 C   0  0  0  0  0  0  0  0  0  0  0  0
   12.3197    5.3023   20.9378 C   0  0  0  0  0  0  0  0  0  0  0  0
    7.6663    4.8145   21.8286 C   0  0  0  0  0  0  0  0  0  0  0  0
   12.8673   11.0215   18.1438 C   0  0  0  0  0  0  0  0  0  0  0  0
    8.6388    5.9104   22.2566 N   0  0  0  0  0  0  0  0  0  0  0  0
    5.6555    3.7684   22.0353 C   0  0  0  0  0  0  0  0  0  0  0  0
   11.2482    9.5269   19.6742 C   0  0  0  0  0  0  0  0  0  0  0  0
   12.7771    4.0800   21.2781 N   0  0  0  0  0  0  0  0  0  0  0  0
    8.1909    3.8589   21.0384 C   0  0  0  0  0  0  0  0  0  0  0  0
    7.3589    2.9833   20.9512 C   0  0  0  0  0  0  0  0  0  0  0  0
   11.3408    7.3196   21.2178 C   0  0  0  0  0  0  0  0  0  0  0  0
   10.5072    8.4320   21.5155 C   0  0  0  0  0  0  0  0  0  0  0  0
   11.5596    6.1108   21.8400 N   0  0  0  0  0  0  0  0  0  0  0  0
    9.8591   11.9096   19.5341 O   0  0  0  0  0  0  0  0  0  0  0  0
    6.5228    4.9945   22.5011 F   0  0  0  0  0  0  0  0  0  0  0  0
    8.6112    7.1662   22.5027 C   0  0  0  0  0  0  0  0  0  0  0  0
   12.4431    7.6328   20.1901 C   0  0  0  0  0  0  0  0  0  0  0  0
   14.0527    5.8680   19.4047 C   0  0  0  0  0  0  0  0  0  0  0  0
   13.0014    6.0434   20.0687 N   0  0  0  0  0  0  0  0  0  0  0  0
    9.7362    8.2641   22.6196 N   0  0  0  0  0  0  0  0  0  0  0  0
   10.5388    9.5911   20.6039 N   0  0  0  0  0  0  0  0  0  0  0  0
    7.8245    7.1892   23.5911 O   0  0  0  0  0  0  0  0  0  0  0  0
  1 10  4  0
  1 11  4  0
  1 21  4  0
  2  8  1  0
  3 10  4  0
  3 14  4  0
  3 16  1  0
  4  5  1  0
  4 18  2  0
  4 25  2  0
  6 12  1  0
  6 18  2  0
  6 23  4  0
  7  8  3  0
  7 13  4  0
  7 19  4  0
  7 25  1  0
  7 26  4  0
  8 19  1  0
  9 20  1  0
 10 19  4  0
 11 20  3  0
 11 25  4  0
 12 15  2  0
 12 17  2  0
 13 18  4  0
 15 16  4  0
 15 17  4  0
 15 21  4  0
 15 24  3  0
 16 24  1  0
 16 25  4  0
 17 20  4  0
 20 24  1  0
 20 26  2  0
 21 23  4  0
 22 23  1  0
M  END
$$$$

 Created by Python create_sdf_string function

 26 28  0  0  0  0  0  0  0  0999 V2000
   12.3626    8.5779   19.4641 N   0  0  0  0  0  0  0  0  0  0  0  0
   11.6493   10.6854   18.8286 N   0  0  0  0  0  0  0  0  0  0  0  0
    6.0138    2.9326   21.2808 C   0  0  0  0  0  0  0  0  0  0  0  0
   10.7203   11.7497   18.6986 C   0  0  0  0  0  0  0  0  0  0  0  0
   10.9810   12.6435   17.5837 C   0  0  0  0  0  0  0  0  0  0  0  0
   12.4262    5.3979   21.0677 C   0  0  0  0  0  0  0  0  0  0  0  0
    7.7642    4.9390   21.9119 C   0  0  0  0  0  0  0  0  0  0  0  0
   12.8940   10.9729   18.0945 C   0  0  0  0  0  0  0  0  0  0  0  0
    8.6980    5.9621   22.0581 N   0  0  0  0  0  0  0  0  0  0  0  0
    5.6111    3.8985   22.0998 C   0  0  0  0  0  0  0  0  0  0  0  0
   11.5060    9.5907   19.6929 C   0  0  0  0  0  0  0  0  0  0  0  0
   12.7449    4.1144   21.1974 N   0  0  0  0  0  0  0  0  0  0  0  0
    8.1764    3.9054   21.1231 C   0  0  0  0  0  0  0  0  0  0  0  0
    7.2759    2.9207   20.7852 C   0  0  0  0  0  0  0  0  0  0  0  0
   11.3576    7.3214   21.1668 C   0  0  0  0  0  0  0  0  0  0  0  0
   10.4779    8.3905   21.4482 C   0  0  0  0  0  0  0  0  0  0  0  0
   11.4400    6.0725   21.7412 N   0  0  0  0  0  0  0  0  0  0  0  0
    9.8442   11.9147   19.4602 O   0  0  0  0  0  0  0  0  0  0  0  0
    6.4958    4.9249   22.4277 C   0  0  0  0  0  0  0  0  0  0  0  0
    8.6775    7.1204   22.7172 C   0  0  0  0  0  0  0  0  0  0  0  0
   12.2578    7.4656   20.1905 C   0  0  0  0  0  0  0  0  0  0  0  0
   14.0311    5.8830   19.3465 C   0  0  0  0  0  0  0  0  0  0  0  0
   12.9787    6.2678   20.1356 N   0  0  0  0  0  0  0  0  0  0  0  0
    9.5459    8.2236   22.4705 N   0  0  0  0  0  0  0  0  0  0  0  0
   10.5575    9.4964   20.6666 N   0  0  0  0  0  0  0  0  0  0  0  0
    7.7690    7.2874   23.5581 O   0  0  0  0  0  0  0  0  0  0  0  0
  1 11  4  0
  1 21  4  0
  2  4  1  0
  2  8  1  0
  2 11  1  0
  3 10  4  0
  3 14  4  0
  4  5  1  0
  4 18  2  0
  6 12  1  0
  6 17  4  0
  6 23  4  0
  7  9  1  0
  7 13  4  0
  7 19  4  0
  9 20  1  0
 10 19  4  0
 11 25  4  0
 13 14  4  0
 15 16  4  0
 15 17  4  0
 15 21  4  0
 16 24  1  0
 16 25  4  0
 20 24  1  0
 20 26  2  0
 21 23  4  0
 22 23  1  0
M  END
$$$$

 Created by Python create_sdf_string function

 26 32  0  0  0  0  0  0  0  0999 V2000
   12.2737    8.7627   19.4988 N   0  0  0  0  0  0  0  0  0  0  0  0
   11.6409   10.6614   18.6917 N   0  0  0  0  0  0  0  0  0  0  0  0
    6.1795    2.7284   21.3044 C   0  0  0  0  0  0  0  0  0  0  0  0
   10.7769   11.9650   18.7489 C   0  0  0  0  0  0  0  0  0  0  0  0
   10.8205   12.6539   17.5420 C   0  0  0  0  0  0  0  0  0  0  0  0
   12.3634    5.3510   20.8614 C   0  0  0  0  0  0  0  0  0  0  0  0
    7.9786    5.0190   21.8786 C   0  0  0  0  0  0  0  0  0  0  0  0
   12.9068   11.1060   18.1452 C   0  0  0  0  0  0  0  0  0  0  0  0
    8.7782    5.9874   21.8321 N   0  0  0  0  0  0  0  0  0  0  0  0
    5.6284    3.9215   22.0806 C   0  0  0  0  0  0  0  0  0  0  0  0
   11.6323    9.5230   19.7759 C   0  0  0  0  0  0  0  0  0  0  0  0
    7.2616    2.8335   20.6469 C   0  0  0  0  0  0  0  0  0  0  0  0
   11.4388    7.2206   21.0874 C   0  0  0  0  0  0  0  0  0  0  0  0
   10.5966    8.3645   21.2079 C   0  0  0  0  0  0  0  0  0  0  0  0
   11.3470    6.0455   21.6779 N   0  0  0  0  0  0  0  0  0  0  0  0
    9.6835   11.9083   19.5781 O   0  0  0  0  0  0  0  0  0  0  0  0
    6.6891    4.8049   22.4344 C   0  0  0  0  0  0  0  0  0  0  0  0
    8.7594    7.0326   22.7347 C   0  0  0  0  0  0  0  0  0  0  0  0
   12.3801    7.3428   20.5553 C   0  0  0  0  0  0  0  0  0  0  0  0
   14.3321    5.9518   19.3065 C   0  0  0  0  0  0  0  0  0  0  0  0
   12.9875    6.4891   20.1663 N   0  0  0  0  0  0  0  0  0  0  0  0
    9.4498    8.0753   22.6038 N   0  0  0  0  0  0  0  0  0  0  0  0
   10.5510    9.5390   20.3468 N   0  0  0  0  0  0  0  0  0  0  0  0
    7.7899    7.3903   23.4967 O   0  0  0  0  0  0  0  0  0  0  0  0
   12.8945    3.9372   21.4018 He  0  0  0  0  0  0  0  0  0  0  0  0
    8.3328    3.7766   21.0239 He  0  0  0  0  0  0  0  0  0  0  0  0
  1 11  4  0
  1 19  4  0
  2  8  1  0
  2 11  1  0
  3 10  4  0
  3 12  4  0
  3 17  4  0
  4  5  1  0
  4 16  2  0
  6 15  4  0
  6 21  4  0
  7 17  4  0
  8 14  4  0
  9 16  3  0
  9 18  1  0
  9 21  4  0
 10 13  3  0
 10 17  4  0
 11 12  2  0
 11 23  4  0
 12 24  3  0
 13 14  4  0
 13 15  4  0
 13 19  1  0
 14 22  1  0
 14 23  4  0
 15 23  3  0
 16 19  4  0
 18 22  1  0
 18 24  2  0
 19 21  4  0
 20 21  1  0
M  END
$$$$

 Created by Python create_sdf_string function

 26 28  0  0  0  0  0  0  0  0999 V2000
   12.4554    8.6372   19.5576 N   0  0  0  0  0  0  0  0  0  0  0  0
   11.6597   10.7475   18.8076 N   0  0  0  0  0  0  0  0  0  0  0  0
    6.0958    2.8638   21.2651 C   0  0  0  0  0  0  0  0  0  0  0  0
   10.6697   11.7879   18.7300 C   0  0  0  0  0  0  0  0  0  0  0  0
   10.8135   12.6941   17.6164 C   0  0  0  0  0  0  0  0  0  0  0  0
   12.4791    5.3884   20.9953 C   0  0  0  0  0  0  0  0  0  0  0  0
    7.8595    4.8874   21.8194 C   0  0  0  0  0  0  0  0  0  0  0  0
   12.9048   11.0377   18.1006 C   0  0  0  0  0  0  0  0  0  0  0  0
    8.7388    5.9164   21.9838 N   0  0  0  0  0  0  0  0  0  0  0  0
    5.7280    3.8248   22.1340 C   0  0  0  0  0  0  0  0  0  0  0  0
   11.5478    9.6088   19.6603 C   0  0  0  0  0  0  0  0  0  0  0  0
   12.8876    4.0520   21.2167 C   0  0  0  0  0  0  0  0  0  0  0  0
    8.2512    3.8399   20.9977 C   0  0  0  0  0  0  0  0  0  0  0  0
    7.3565    2.8331   20.7068 C   0  0  0  0  0  0  0  0  0  0  0  0
   11.3178    7.2726   21.0826 C   0  0  0  0  0  0  0  0  0  0  0  0
   10.4499    8.3642   21.3413 C   0  0  0  0  0  0  0  0  0  0  0  0
   11.3671    5.9582   21.5825 N   0  0  0  0  0  0  0  0  0  0  0  0
    9.7885   11.9111   19.5101 O   0  0  0  0  0  0  0  0  0  0  0  0
    6.5987    4.8518   22.4012 C   0  0  0  0  0  0  0  0  0  0  0  0
    8.6290    7.1033   22.6230 C   0  0  0  0  0  0  0  0  0  0  0  0
   12.3126    7.4805   20.2146 C   0  0  0  0  0  0  0  0  0  0  0  0
   14.1858    6.0792   19.4137 C   0  0  0  0  0  0  0  0  0  0  0  0
   13.0622    6.3330   20.1560 N   0  0  0  0  0  0  0  0  0  0  0  0
    9.4848    8.1989   22.3283 N   0  0  0  0  0  0  0  0  0  0  0  0
   10.5569    9.4920   20.5743 N   0  0  0  0  0  0  0  0  0  0  0  0
    7.7573    7.2657   23.5193 O   0  0  0  0  0  0  0  0  0  0  0  0
  1 11  4  0
  1 21  4  0
  2  4  1  0
  2  8  1  0
  2 11  1  0
  3 10  4  0
  3 14  4  0
  4  5  1  0
  4 18  2  0
  6 12  1  0
  6 17  4  0
  6 23  4  0
  7  9  1  0
  7 13  4  0
  7 19  4  0
  9 20  1  0
 10 19  4  0
 11 25  4  0
 13 14  4  0
 15 16  4  0
 15 17  4  0
 15 21  4  0
 16 24  1  0
 16 25  4  0
 20 24  1  0
 20 26  2  0
 21 23  4  0
 22 23  1  0
M  END
$$$$

 Created by Python create_sdf_string function

 26 40  0  0  0  0  0  0  0  0999 V2000
   12.7203    8.6285   19.4811 N   0  0  0  0  0  0  0  0  0  0  0  0
    6.0230    2.9119   21.3590 C   0  0  0  0  0  0  0  0  0  0  0  0
   10.7016   11.5678   18.5433 C   0  0  0  0  0  0  0  0  0  0  0  0
   10.7374   12.7384   17.4674 C   0  0  0  0  0  0  0  0  0  0  0  0
   12.5532    5.2411   21.0023 C   0  0  0  0  0  0  0  0  0  0  0  0
    7.8289    4.8528   21.8496 C   0  0  0  0  0  0  0  0  0  0  0  0
   12.9979   11.1855   18.1444 C   0  0  0  0  0  0  0  0  0  0  0  0
    8.8046    5.9544   22.0658 N   0  0  0  0  0  0  0  0  0  0  0  0
    5.7894    3.7683   22.0999 C   0  0  0  0  0  0  0  0  0  0  0  0
   11.5097    9.5621   19.7457 C   0  0  0  0  0  0  0  0  0  0  0  0
   12.9069    3.7901   21.1730 C   0  0  0  0  0  0  0  0  0  0  0  0
    8.2210    3.6669   20.8447 C   0  0  0  0  0  0  0  0  0  0  0  0
    7.4727    2.7574   20.7941 C   0  0  0  0  0  0  0  0  0  0  0  0
   11.3995    7.2308   21.0021 C   0  0  0  0  0  0  0  0  0  0  0  0
   10.3819    8.3732   21.3269 C   0  0  0  0  0  0  0  0  0  0  0  0
   11.3590    5.8554   21.4900 N   0  0  0  0  0  0  0  0  0  0  0  0
    9.6635   11.9482   19.5156 O   0  0  0  0  0  0  0  0  0  0  0  0
    6.4879    4.9488   22.4919 C   0  0  0  0  0  0  0  0  0  0  0  0
    8.6254    7.2057   22.6739 C   0  0  0  0  0  0  0  0  0  0  0  0
   12.2664    7.5379   20.2932 C   0  0  0  0  0  0  0  0  0  0  0  0
   13.8973    6.0410   19.1427 C   0  0  0  0  0  0  0  0  0  0  0  0
   13.0815    6.3567   20.1412 N   0  0  0  0  0  0  0  0  0  0  0  0
    9.4291    8.1064   22.2966 N   0  0  0  0  0  0  0  0  0  0  0  0
   10.9098    9.4263   20.4862 O   0  0  0  0  0  0  0  0  0  0  0  0
    7.7596    7.2874   23.6816 O   0  0  0  0  0  0  0  0  0  0  0  0
   11.5588   10.7316   18.8802 He  0  0  0  0  0  0  0  0  0  0  0  0
  1  8  3  0
  1 10  4  0
  1 13  2  0
  1 20  4  0
  2  9  4  0
  2 13  4  0
  3  4  1  0
  3  9  2  0
  3 17  2  0
  4 21  4  0
  5 11  1  0
  5 16  4  0
  5 22  4  0
  6  8  1  0
  6 12  4  0
  6 18  1  0
  7 11  3  0
  7 15  1  0
  7 18  3  0
  7 25  1  0
  9 18  4  0
  9 19  4  0
  9 22  4  0
 10 15  4  0
 10 17  2  0
 10 24  4  0
 11 25  4  0
 12 13  4  0
 13 19  1  0
 14 15  3  0
 14 16  4  0
 14 20  4  0
 15 22  1  0
 15 23  1  0
 15 24  4  0
 16 22  3  0
 19 23  1  0
 19 25  2  0
 20 22  4  0
 21 22  1  0
M  END
$$$$

 Created by Python create_sdf_string function

 26 28  0  0  0  0  0  0  0  0999 V2000
   12.5500    8.6071   19.5201 N   0  0  0  0  0  0  0  0  0  0  0  0
   11.6742   10.7253   18.7981 N   0  0  0  0  0  0  0  0  0  0  0  0
    6.0841    2.8356   21.3282 C   0  0  0  0  0  0  0  0  0  0  0  0
   10.6324   11.7082   18.6637 C   0  0  0  0  0  0  0  0  0  0  0  0
   10.7650   12.6242   17.5415 C   0  0  0  0  0  0  0  0  0  0  0  0
   12.4926    5.3061   20.9207 C   0  0  0  0  0  0  0  0  0  0  0  0
    7.8435    4.8843   21.8470 C   0  0  0  0  0  0  0  0  0  0  0  0
   12.9355   11.1258   18.1483 C   0  0  0  0  0  0  0  0  0  0  0  0
    8.7418    5.9155   22.0228 N   0  0  0  0  0  0  0  0  0  0  0  0
    5.7101    3.8227   22.1462 C   0  0  0  0  0  0  0  0  0  0  0  0
   11.6186    9.5783   19.6659 C   0  0  0  0  0  0  0  0  0  0  0  0
   12.9216    3.9858   21.1312 C   0  0  0  0  0  0  0  0  0  0  0  0
    8.2224    3.8268   21.0277 C   0  0  0  0  0  0  0  0  0  0  0  0
    7.3393    2.8149   20.7498 C   0  0  0  0  0  0  0  0  0  0  0  0
   11.3371    7.2231   21.0548 C   0  0  0  0  0  0  0  0  0  0  0  0
   10.4609    8.2960   21.2982 C   0  0  0  0  0  0  0  0  0  0  0  0
   11.3916    5.8902   21.5176 N   0  0  0  0  0  0  0  0  0  0  0  0
    9.7410   11.8427   19.4323 O   0  0  0  0  0  0  0  0  0  0  0  0
    6.5657    4.8669   22.4291 C   0  0  0  0  0  0  0  0  0  0  0  0
    8.6282    7.1058   22.6375 C   0  0  0  0  0  0  0  0  0  0  0  0
   12.3524    7.4347   20.1811 C   0  0  0  0  0  0  0  0  0  0  0  0
   14.0940    6.0274   19.2084 C   0  0  0  0  0  0  0  0  0  0  0  0
   13.0713    6.2537   20.0693 N   0  0  0  0  0  0  0  0  0  0  0  0
    9.4483    8.1539   22.2190 N   0  0  0  0  0  0  0  0  0  0  0  0
   10.6175    9.4298   20.5869 N   0  0  0  0  0  0  0  0  0  0  0  0
    7.7869    7.3054   23.5806 O   0  0  0  0  0  0  0  0  0  0  0  0
  1 11  4  0
  1 21  4  0
  2  4  1  0
  2  8  1  0
  2 11  1  0
  3 10  4  0
  3 14  4  0
  4  5  1  0
  4 18  2  0
  6 12  1  0
  6 17  4  0
  6 23  4  0
  7  9  1  0
  7 13  4  0
  7 19  4  0
  9 20  1  0
 10 19  4  0
 11 25  4  0
 13 14  4  0
 15 16  4  0
 15 17  4  0
 15 21  4  0
 16 24  1  0
 16 25  4  0
 20 24  1  0
 20 26  2  0
 21 23  4  0
 22 23  1  0
M  END
$$$$

 Created by Python create_sdf_string function

 26 30  0  0  0  0  0  0  0  0999 V2000
   12.5374    8.6778   19.4623 N   0  0  0  0  0  0  0  0  0  0  0  0
   11.5352   10.9177   19.0161 N   0  0  0  0  0  0  0  0  0  0  0  0
    6.0888    2.8818   21.4437 C   0  0  0  0  0  0  0  0  0  0  0  0
   10.8206   11.6030   18.4419 C   0  0  0  0  0  0  0  0  0  0  0  0
   10.7500   12.6346   17.4506 C   0  0  0  0  0  0  0  0  0  0  0  0
    7.7534    4.8876   21.9203 C   0  0  0  0  0  0  0  0  0  0  0  0
   12.9129   11.2278   18.1648 C   0  0  0  0  0  0  0  0  0  0  0  0
    8.8200    5.8372   21.9475 N   0  0  0  0  0  0  0  0  0  0  0  0
    5.6275    3.5769   22.1264 C   0  0  0  0  0  0  0  0  0  0  0  0
   11.5297    9.5087   19.8101 C   0  0  0  0  0  0  0  0  0  0  0  0
   12.9411    4.1608   21.1831 C   0  0  0  0  0  0  0  0  0  0  0  0
    7.3620    2.9297   20.7728 C   0  0  0  0  0  0  0  0  0  0  0  0
   11.2663    7.2558   21.1039 C   0  0  0  0  0  0  0  0  0  0  0  0
   10.6201    8.1716   21.2505 C   0  0  0  0  0  0  0  0  0  0  0  0
   11.1994    6.0529   21.5764 N   0  0  0  0  0  0  0  0  0  0  0  0
    9.5133   11.8603   19.2846 O   0  0  0  0  0  0  0  0  0  0  0  0
    6.3795    4.9733   22.4435 C   0  0  0  0  0  0  0  0  0  0  0  0
    8.6969    7.3995   22.7865 C   0  0  0  0  0  0  0  0  0  0  0  0
   12.1503    7.4758   20.2448 C   0  0  0  0  0  0  0  0  0  0  0  0
   14.0754    6.0664   19.1657 C   0  0  0  0  0  0  0  0  0  0  0  0
   13.2505    6.2004   20.0534 N   0  0  0  0  0  0  0  0  0  0  0  0
    9.3231    8.1991   22.1413 N   0  0  0  0  0  0  0  0  0  0  0  0
    7.8730    7.3862   23.6442 O   0  0  0  0  0  0  0  0  0  0  0  0
   12.5121    5.2967   20.8456 He  0  0  0  0  0  0  0  0  0  0  0  0
    8.2627    3.8128   20.9280 He  0  0  0  0  0  0  0  0  0  0  0  0
   10.5320    9.4255   20.4367 He  0  0  0  0  0  0  0  0  0  0  0  0
  1 10  4  0
  1 19  4  0
  1 22  4  0
  2  4  1  0
  2  7  1  0
  2 10  1  0
  3  9  4  0
  3 12  4  0
  4  5  1  0
  4 16  2  0
  5  8  4  0
  6  8  1  0
  6 15  4  0
  6 17  4  0
  8 18  1  0
  8 20  1  0
  9 17  4  0
 10 14  2  0
 11 17  3  0
 12 16  1  0
 12 22  4  0
 13 14  4  0
 13 15  4  0
 13 19  4  0
 14 23  4  0
 18 22  1  0
 18 23  2  0
 19 21  4  0
 20 21  1  0
 21 22  3  0
M  END
$$$$

 Created by Python create_sdf_string function

 26 28  0  0  0  0  0  0  0  0999 V2000
   12.4805    8.6490   19.4968 N   0  0  0  0  0  0  0  0  0  0  0  0
   11.6609   10.8181   18.8902 N   0  0  0  0  0  0  0  0  0  0  0  0
    6.0748    2.8363   21.3404 C   0  0  0  0  0  0  0  0  0  0  0  0
   10.5948   11.7279   18.6059 C   0  0  0  0  0  0  0  0  0  0  0  0
   10.7827   12.6097   17.4860 C   0  0  0  0  0  0  0  0  0  0  0  0
   12.5102    5.3651   20.9092 C   0  0  0  0  0  0  0  0  0  0  0  0
    7.7762    4.9259   21.8828 C   0  0  0  0  0  0  0  0  0  0  0  0
   12.9096   11.1702   18.2124 C   0  0  0  0  0  0  0  0  0  0  0  0
    8.6839    5.9337   22.0737 N   0  0  0  0  0  0  0  0  0  0  0  0
    5.6621    3.7851   22.1828 C   0  0  0  0  0  0  0  0  0  0  0  0
   11.5602    9.6270   19.6505 C   0  0  0  0  0  0  0  0  0  0  0  0
   12.9811    4.1145   21.1330 C   0  0  0  0  0  0  0  0  0  0  0  0
    8.1807    3.9170   21.0423 C   0  0  0  0  0  0  0  0  0  0  0  0
    7.3294    2.8820   20.7670 C   0  0  0  0  0  0  0  0  0  0  0  0
   11.2933    7.2467   21.0051 C   0  0  0  0  0  0  0  0  0  0  0  0
   10.4099    8.3058   21.2346 C   0  0  0  0  0  0  0  0  0  0  0  0
   11.3818    5.9263   21.4977 N   0  0  0  0  0  0  0  0  0  0  0  0
    9.5888   11.7840   19.2302 O   0  0  0  0  0  0  0  0  0  0  0  0
    6.4997    4.8516   22.4602 C   0  0  0  0  0  0  0  0  0  0  0  0
    8.5975    7.1472   22.6285 C   0  0  0  0  0  0  0  0  0  0  0  0
   12.3028    7.4738   20.1487 C   0  0  0  0  0  0  0  0  0  0  0  0
   14.1278    6.1187   19.2187 C   0  0  0  0  0  0  0  0  0  0  0  0
   13.0479    6.3184   20.0469 N   0  0  0  0  0  0  0  0  0  0  0  0
    9.4059    8.1805   22.1783 N   0  0  0  0  0  0  0  0  0  0  0  0
   10.5455    9.4506   20.5357 N   0  0  0  0  0  0  0  0  0  0  0  0
    7.8122    7.3374   23.5967 O   0  0  0  0  0  0  0  0  0  0  0  0
  1 11  4  0
  1 21  4  0
  2  4  1  0
  2  8  1  0
  2 11  1  0
  3 10  4  0
  3 14  4  0
  4  5  1  0
  4 18  2  0
  6 12  1  0
  6 17  4  0
  6 23  4  0
  7  9  1  0
  7 13  4  0
  7 19  4  0
  9 20  1  0
 10 19  4  0
 11 25  4  0
 13 14  4  0
 15 16  4  0
 15 17  4  0
 15 21  4  0
 16 24  1  0
 16 25  4  0
 20 24  1  0
 20 26  2  0
 21 23  4  0
 22 23  1  0
M  END
$$$$

 Created by Python create_sdf_string function

 26 37  0  0  0  0  0  0  0  0999 V2000
   12.6752    8.7636   19.5030 N   0  0  0  0  0  0  0  0  0  0  0  0
   11.8894   10.9575   18.9890 C   0  0  0  0  0  0  0  0  0  0  0  0
    5.9284    2.8246   21.3820 C   0  0  0  0  0  0  0  0  0  0  0  0
   10.5905   11.7205   18.6401 C   0  0  0  0  0  0  0  0  0  0  0  0
   10.7704   12.6026   17.4566 C   0  0  0  0  0  0  0  0  0  0  0  0
   12.3802    5.2469   20.8039 C   0  0  0  0  0  0  0  0  0  0  0  0
    7.7996    4.6715   21.9059 C   0  0  0  0  0  0  0  0  0  0  0  0
   13.0332   11.1309   18.3074 C   0  0  0  0  0  0  0  0  0  0  0  0
    8.7140    6.0970   21.8952 N   0  0  0  0  0  0  0  0  0  0  0  0
    5.5618    3.7968   22.1177 C   0  0  0  0  0  0  0  0  0  0  0  0
   11.5809    9.6460   19.7656 C   0  0  0  0  0  0  0  0  0  0  0  0
   13.1453    3.9936   21.1117 C   0  0  0  0  0  0  0  0  0  0  0  0
    8.0364    4.0449   21.2827 C   0  0  0  0  0  0  0  0  0  0  0  0
    7.4124    2.9358   20.6575 C   0  0  0  0  0  0  0  0  0  0  0  0
   11.2917    7.4353   21.1240 C   0  0  0  0  0  0  0  0  0  0  0  0
   10.4597    8.3561   21.2592 C   0  0  0  0  0  0  0  0  0  0  0  0
   11.3998    5.9656   21.5048 N   0  0  0  0  0  0  0  0  0  0  0  0
    9.4759   11.7243   19.1947 O   0  0  0  0  0  0  0  0  0  0  0  0
    6.3785    4.8916   22.3000 C   0  0  0  0  0  0  0  0  0  0  0  0
    8.5884    7.0019   22.6323 C   0  0  0  0  0  0  0  0  0  0  0  0
   14.1336    6.3748   19.0851 C   0  0  0  0  0  0  0  0  0  0  0  0
   13.1037    6.2576   20.0508 N   0  0  0  0  0  0  0  0  0  0  0  0
    9.3129    8.2862   22.0231 O   0  0  0  0  0  0  0  0  0  0  0  0
   10.5359    9.4076   20.4780 N   0  0  0  0  0  0  0  0  0  0  0  0
    7.7557    7.1761   23.7814 O   0  0  0  0  0  0  0  0  0  0  0  0
   12.3025    7.4943   20.3546 He  0  0  0  0  0  0  0  0  0  0  0  0
  1  6  3  0
  1 11  4  0
  1 24  3  0
  2  4  1  0
  2  8  1  0
  2 11  1  0
  2 21  4  0
  3 10  4  0
  3 14  1  0
  4  5  1  0
  4  7  3  0
  4 14  3  0
  4 18  2  0
  4 21  4  0
  6 12  1  0
  6 17  4  0
  6 22  4  0
  7  9  1  0
  7 13  4  0
  7 19  4  0
  7 21  3  0
  9 20  1  0
 10 16  1  0
 10 19  4  0
 11 24  4  0
 11 25  4  0
 12 15  2  0
 13 14  4  0
 13 16  1  0
 15 16  4  0
 15 17  4  0
 16 23  1  0
 16 24  4  0
 20 23  1  0
 20 25  2  0
 21 22  1  0
 22 23  1  0
M  END
$$$$

 Created by Python create_sdf_string function

 26 28  0  0  0  0  0  0  0  0999 V2000
   12.5616    8.7302   19.5805 N   0  0  0  0  0  0  0  0  0  0  0  0
   11.8241   10.9691   19.0744 N   0  0  0  0  0  0  0  0  0  0  0  0
    5.9945    2.8626   21.2839 C   0  0  0  0  0  0  0  0  0  0  0  0
   10.6188   11.7272   18.6237 C   0  0  0  0  0  0  0  0  0  0  0  0
   10.8009   12.5930   17.5036 C   0  0  0  0  0  0  0  0  0  0  0  0
   12.4985    5.3965   20.8689 C   0  0  0  0  0  0  0  0  0  0  0  0
    7.7173    4.9460   21.8759 C   0  0  0  0  0  0  0  0  0  0  0  0
   13.0247   11.1367   18.3052 C   0  0  0  0  0  0  0  0  0  0  0  0
    8.6429    5.9655   21.9763 N   0  0  0  0  0  0  0  0  0  0  0  0
    5.5668    3.8282   22.1204 C   0  0  0  0  0  0  0  0  0  0  0  0
   11.6232    9.6858   19.7426 C   0  0  0  0  0  0  0  0  0  0  0  0
   13.0384    4.0749   21.0482 C   0  0  0  0  0  0  0  0  0  0  0  0
    8.1171    3.8787   21.0941 C   0  0  0  0  0  0  0  0  0  0  0  0
    7.2773    2.8666   20.7731 C   0  0  0  0  0  0  0  0  0  0  0  0
   11.2667    7.2790   21.0212 C   0  0  0  0  0  0  0  0  0  0  0  0
   10.3766    8.3353   21.2336 C   0  0  0  0  0  0  0  0  0  0  0  0
   11.3672    5.9673   21.4520 N   0  0  0  0  0  0  0  0  0  0  0  0
    9.5581   11.6981   19.1787 O   0  0  0  0  0  0  0  0  0  0  0  0
    6.4214    4.8636   22.4265 C   0  0  0  0  0  0  0  0  0  0  0  0
    8.5648    7.1175   22.6203 C   0  0  0  0  0  0  0  0  0  0  0  0
   12.3257    7.5439   20.1821 C   0  0  0  0  0  0  0  0  0  0  0  0
   14.1266    6.2832   19.1826 C   0  0  0  0  0  0  0  0  0  0  0  0
   13.0799    6.3593   20.0494 N   0  0  0  0  0  0  0  0  0  0  0  0
    9.3389    8.2163   22.1092 N   0  0  0  0  0  0  0  0  0  0  0  0
   10.5411    9.4639   20.5641 N   0  0  0  0  0  0  0  0  0  0  0  0
    7.7887    7.1857   23.6398 O   0  0  0  0  0  0  0  0  0  0  0  0
  1 11  4  0
  1 21  4  0
  2  4  1  0
  2  8  1  0
  2 11  1  0
  3 10  4  0
  3 14  4  0
  4  5  1  0
  4 18  2  0
  6 12  1  0
  6 17  4  0
  6 23  4  0
  7  9  1  0
  7 13  4  0
  7 19  4  0
  9 20  1  0
 10 19  4  0
 11 25  4  0
 13 14  4  0
 15 16  4  0
 15 17  4  0
 15 21  4  0
 16 24  1  0
 16 25  4  0
 20 24  1  0
 20 26  2  0
 21 23  4  0
 22 23  1  0
M  END
$$$$

 Created by Python create_sdf_string function

 26 42  0  0  0  0  0  0  0  0999 V2000
   12.4570    8.7740   19.5177 N   0  0  0  0  0  0  0  0  0  0  0  0
   11.7214   10.9701   18.8946 N   0  0  0  0  0  0  0  0  0  0  0  0
    6.2943    2.9260   21.2347 C   0  0  0  0  0  0  0  0  0  0  0  0
   10.6552   11.7912   18.6335 C   0  0  0  0  0  0  0  0  0  0  0  0
   10.7423   12.5381   17.5601 C   0  0  0  0  0  0  0  0  0  0  0  0
   12.5354    5.2720   20.8913 C   0  0  0  0  0  0  0  0  0  0  0  0
    7.7101    4.8528   21.9912 C   0  0  0  0  0  0  0  0  0  0  0  0
   12.9483   11.1649   18.0989 C   0  0  0  0  0  0  0  0  0  0  0  0
    8.6848    6.1326   21.9609 N   0  0  0  0  0  0  0  0  0  0  0  0
    5.5805    3.7325   21.9483 C   0  0  0  0  0  0  0  0  0  0  0  0
   11.7098    9.6417   19.8562 C   0  0  0  0  0  0  0  0  0  0  0  0
   12.9268    4.1802   21.0772 C   0  0  0  0  0  0  0  0  0  0  0  0
    8.2437    3.8881   20.9732 C   0  0  0  0  0  0  0  0  0  0  0  0
    7.4161    2.8606   20.6911 C   0  0  0  0  0  0  0  0  0  0  0  0
   10.5032    8.2681   21.1067 C   0  0  0  0  0  0  0  0  0  0  0  0
   11.2727    5.9143   21.5813 O   0  0  0  0  0  0  0  0  0  0  0  0
    9.5449   11.5548   19.0643 O   0  0  0  0  0  0  0  0  0  0  0  0
    6.5499    4.8991   22.4279 O   0  0  0  0  0  0  0  0  0  0  0  0
    8.6258    7.0513   22.3608 Cl  0  0  0  0  0  0  0  0  0  0  0  0
   12.3138    7.6671   20.4601 C   0  0  0  0  0  0  0  0  0  0  0  0
   13.8457    6.3451   19.3683 C   0  0  0  0  0  0  0  0  0  0  0  0
   13.0700    6.2256   20.1895 N   0  0  0  0  0  0  0  0  0  0  0  0
    9.1528    8.1733   22.0111 N   0  0  0  0  0  0  0  0  0  0  0  0
   10.4828    9.4950   20.5533 C   0  0  0  0  0  0  0  0  0  0  0  0
   11.3319    7.2943   20.9744 He  0  0  0  0  0  0  0  0  0  0  0  0
    7.6710    7.2674   23.6104 He  0  0  0  0  0  0  0  0  0  0  0  0
  1 11  4  0
  1 20  4  0
  2  4  1  0
  2  8  1  0
  2 11  1  0
  2 20  2  0
  3  5  2  0
  3 10  4  0
  3 12  1  0
  3 14  4  0
  3 24  1  0
  4  5  1  0
  4  7  2  0
  4 17  2  0
  4 19  2  0
  5 12  3  0
  5 17  1  0
  6 10  4  0
  6 12  1  0
  6 16  4  0
  6 22  4  0
  7  9  1  0
  7 10  4  0
  7 13  3  0
  7 18  4  0
  8 22  3  0
  9 19  1  0
 10 18  4  0
 10 24  2  0
 11 18  2  0
 11 23  3  0
 11 24  4  0
 12 21  1  0
 13 14  4  0
 14 15  3  0
 15 23  1  0
 15 24  4  0
 16 18  4  0
 16 19  4  0
 19 23  1  0
 20 22  4  0
 21 22  1  0
M  END
$$$$

 Created by Python create_sdf_string function

 26 28  0  0  0  0  0  0  0  0999 V2000
   12.5046    8.7385   19.6495 N   0  0  0  0  0  0  0  0  0  0  0  0
   11.7434   10.8574   18.9407 N   0  0  0  0  0  0  0  0  0  0  0  0
    6.1105    2.8585   21.1829 C   0  0  0  0  0  0  0  0  0  0  0  0
   10.6318   11.6881   18.5982 C   0  0  0  0  0  0  0  0  0  0  0  0
   10.8327   12.6303   17.5448 C   0  0  0  0  0  0  0  0  0  0  0  0
   12.4605    5.4301   20.9305 C   0  0  0  0  0  0  0  0  0  0  0  0
    7.7984    4.8821   21.8023 C   0  0  0  0  0  0  0  0  0  0  0  0
   12.9617   11.1287   18.1813 C   0  0  0  0  0  0  0  0  0  0  0  0
    8.6365    5.9233   21.9763 N   0  0  0  0  0  0  0  0  0  0  0  0
    5.7001    3.7797   22.0271 C   0  0  0  0  0  0  0  0  0  0  0  0
   11.5825    9.6942   19.7109 C   0  0  0  0  0  0  0  0  0  0  0  0
   12.9254    4.1453   21.0875 C   0  0  0  0  0  0  0  0  0  0  0  0
    8.2381    3.8469   21.0113 C   0  0  0  0  0  0  0  0  0  0  0  0
    7.3813    2.8345   20.6760 C   0  0  0  0  0  0  0  0  0  0  0  0
   11.2244    7.3073   21.0299 C   0  0  0  0  0  0  0  0  0  0  0  0
   10.3206    8.3409   21.2174 C   0  0  0  0  0  0  0  0  0  0  0  0
   11.3156    5.9800   21.4993 N   0  0  0  0  0  0  0  0  0  0  0  0
    9.5783   11.6384   19.0953 O   0  0  0  0  0  0  0  0  0  0  0  0
    6.5216    4.8182   22.3541 C   0  0  0  0  0  0  0  0  0  0  0  0
    8.5169    7.1105   22.4932 C   0  0  0  0  0  0  0  0  0  0  0  0
   12.2763    7.5404   20.2387 C   0  0  0  0  0  0  0  0  0  0  0  0
   14.0975    6.2687   19.3595 C   0  0  0  0  0  0  0  0  0  0  0  0
   13.0213    6.4173   20.1432 N   0  0  0  0  0  0  0  0  0  0  0  0
    9.2205    8.1775   22.0482 N   0  0  0  0  0  0  0  0  0  0  0  0
   10.4898    9.4929   20.5406 C   0  0  0  0  0  0  0  0  0  0  0  0
    7.6548    7.2980   23.5271 S   0  0  0  0  0  0  0  0  0  0  0  0
  1 11  4  0
  1 21  4  0
  2  4  1  0
  2  8  1  0
  2 11  1  0
  3 10  4  0
  3 14  4  0
  4  5  1  0
  4 18  2  0
  6 12  1  0
  6 17  4  0
  6 23  4  0
  7  9  1  0
  7 13  4  0
  7 19  4  0
  9 20  1  0
 10 19  4  0
 11 25  4  0
 13 14  4  0
 15 16  4  0
 15 17  4  0
 15 21  4  0
 16 24  1  0
 16 25  4  0
 20 24  1  0
 20 26  2  0
 21 23  4  0
 22 23  1  0
M  END
$$$$

 Created by Python create_sdf_string function

 26 38  0  0  0  0  0  0  0  0999 V2000
   12.5595    8.6407   19.5982 N   0  0  0  0  0  0  0  0  0  0  0  0
   11.7881   10.8496   18.9595 N   0  0  0  0  0  0  0  0  0  0  0  0
    6.2155    2.7067   21.1541 C   0  0  0  0  0  0  0  0  0  0  0  0
   10.6425   11.8937   18.5236 C   0  0  0  0  0  0  0  0  0  0  0  0
   10.8214   12.5214   17.5125 C   0  0  0  0  0  0  0  0  0  0  0  0
   12.4863    5.2530   20.9153 C   0  0  0  0  0  0  0  0  0  0  0  0
    7.7184    4.9402   21.6419 C   0  0  0  0  0  0  0  0  0  0  0  0
   12.9694   11.0740   18.3040 C   0  0  0  0  0  0  0  0  0  0  0  0
    8.5943    5.9342   22.0626 N   0  0  0  0  0  0  0  0  0  0  0  0
    5.8742    3.7699   22.0115 C   0  0  0  0  0  0  0  0  0  0  0  0
   11.6418    9.7729   19.8074 C   0  0  0  0  0  0  0  0  0  0  0  0
   12.9403    4.1370   21.0909 C   0  0  0  0  0  0  0  0  0  0  0  0
    8.2404    3.8391   21.0323 C   0  0  0  0  0  0  0  0  0  0  0  0
    7.3598    2.9059   20.8041 C   0  0  0  0  0  0  0  0  0  0  0  0
   11.3065    7.3612   20.9667 C   0  0  0  0  0  0  0  0  0  0  0  0
   10.3481    8.3132   21.2173 C   0  0  0  0  0  0  0  0  0  0  0  0
   11.2621    6.0014   21.5258 N   0  0  0  0  0  0  0  0  0  0  0  0
    9.7146   11.6990   19.0804 O   0  0  0  0  0  0  0  0  0  0  0  0
    6.6463    4.7928   22.3775 C   0  0  0  0  0  0  0  0  0  0  0  0
    8.4044    7.1001   22.4127 C   0  0  0  0  0  0  0  0  0  0  0  0
   12.2908    7.5451   20.3275 C   0  0  0  0  0  0  0  0  0  0  0  0
   14.1373    6.3697   19.3606 C   0  0  0  0  0  0  0  0  0  0  0  0
   13.1946    6.3658   20.1353 N   0  0  0  0  0  0  0  0  0  0  0  0
    9.2262    8.2109   22.0827 N   0  0  0  0  0  0  0  0  0  0  0  0
   10.4222    9.4461   20.5915 C   0  0  0  0  0  0  0  0  0  0  0  0
    7.6343    7.4016   23.5287 S   0  0  0  0  0  0  0  0  0  0  0  0
  1 11  4  0
  1 21  4  0
  2  4  1  0
  2  8  1  0
  2 11  1  0
  3 10  4  0
  3 14  4  0
  4  5  1  0
  4 18  2  0
  4 26  3  0
  6 12  3  0
  6 17  4  0
  6 23  4  0
  7  9  1  0
  7 13  4  0
  7 19  4  0
  9 12  4  0
  9 20  1  0
 10 19  4  0
 10 22  1  0
 10 24  3  0
 11 25  4  0
 13 14  4  0
 13 20  2  0
 14 21  1  0
 14 24  2  0
 15 16  4  0
 15 17  4  0
 15 21  4  0
 15 26  3  0
 16 24  1  0
 16 25  4  0
 19 24  1  0
 20 24  1  0
 20 26  2  0
 21 23  4  0
 22 23  1  0
 24 26  1  0
M  END
$$$$

 Created by Python create_sdf_string function

 26 28  0  0  0  0  0  0  0  0999 V2000
   12.5149    8.7308   19.6421 N   0  0  0  0  0  0  0  0  0  0  0  0
   11.7631   10.8578   18.9511 N   0  0  0  0  0  0  0  0  0  0  0  0
    6.1850    2.7690   21.2130 C   0  0  0  0  0  0  0  0  0  0  0  0
   10.7010   11.7377   18.5814 C   0  0  0  0  0  0  0  0  0  0  0  0
   10.9254   12.5832   17.4770 C   0  0  0  0  0  0  0  0  0  0  0  0
   12.4522    5.4206   20.9277 C   0  0  0  0  0  0  0  0  0  0  0  0
    7.8006    4.8846   21.7644 C   0  0  0  0  0  0  0  0  0  0  0  0
   13.0046   11.1011   18.2939 C   0  0  0  0  0  0  0  0  0  0  0  0
    8.6101    5.9599   21.9170 N   0  0  0  0  0  0  0  0  0  0  0  0
    5.7501    3.7245   22.0515 C   0  0  0  0  0  0  0  0  0  0  0  0
   11.5674    9.6928   19.7323 C   0  0  0  0  0  0  0  0  0  0  0  0
   12.9201    4.1750   21.0768 C   0  0  0  0  0  0  0  0  0  0  0  0
    8.2499    3.8705   20.9728 C   0  0  0  0  0  0  0  0  0  0  0  0
    7.4490    2.8354   20.6906 C   0  0  0  0  0  0  0  0  0  0  0  0
   11.2256    7.2983   21.0253 C   0  0  0  0  0  0  0  0  0  0  0  0
   10.3075    8.3240   21.2310 C   0  0  0  0  0  0  0  0  0  0  0  0
   11.2969    5.9603   21.4532 N   0  0  0  0  0  0  0  0  0  0  0  0
    9.6940   11.7301   19.1227 O   0  0  0  0  0  0  0  0  0  0  0  0
    6.5280    4.7991   22.3324 C   0  0  0  0  0  0  0  0  0  0  0  0
    8.4916    7.1504   22.4822 C   0  0  0  0  0  0  0  0  0  0  0  0
   12.3146    7.5540   20.2342 C   0  0  0  0  0  0  0  0  0  0  0  0
   14.2147    6.3153   19.3912 C   0  0  0  0  0  0  0  0  0  0  0  0
   13.0928    6.3948   20.1530 N   0  0  0  0  0  0  0  0  0  0  0  0
    9.2208    8.1697   22.0599 N   0  0  0  0  0  0  0  0  0  0  0  0
   10.4829    9.4892   20.5693 C   0  0  0  0  0  0  0  0  0  0  0  0
    7.5287    7.4288   23.5542 S   0  0  0  0  0  0  0  0  0  0  0  0
  1 11  4  0
  1 21  4  0
  2  4  1  0
  2  8  1  0
  2 11  1  0
  3 10  4  0
  3 14  4  0
  4  5  1  0
  4 18  2  0
  6 12  1  0
  6 17  4  0
  6 23  4  0
  7  9  1  0
  7 13  4  0
  7 19  4  0
  9 20  1  0
 10 19  4  0
 11 25  4  0
 13 14  4  0
 15 16  4  0
 15 17  4  0
 15 21  4  0
 16 24  1  0
 16 25  4  0
 20 24  1  0
 20 26  2  0
 21 23  4  0
 22 23  1  0
M  END
$$$$

 Created by Python create_sdf_string function

 26 37  0  0  0  0  0  0  0  0999 V2000
   12.4932    8.7158   19.6071 N   0  0  0  0  0  0  0  0  0  0  0  0
   11.6263   10.8835   18.9256 N   0  0  0  0  0  0  0  0  0  0  0  0
   10.6992   11.8654   18.5719 C   0  0  0  0  0  0  0  0  0  0  0  0
   10.9282   12.6897   17.5381 C   0  0  0  0  0  0  0  0  0  0  0  0
   12.5249    5.4313   20.7739 C   0  0  0  0  0  0  0  0  0  0  0  0
    7.9588    5.0310   21.7441 C   0  0  0  0  0  0  0  0  0  0  0  0
   13.0383   11.1458   18.1098 C   0  0  0  0  0  0  0  0  0  0  0  0
    8.6627    6.1056   21.9863 N   0  0  0  0  0  0  0  0  0  0  0  0
    5.8003    3.7350   22.1477 C   0  0  0  0  0  0  0  0  0  0  0  0
   11.5954    9.6321   19.6788 C   0  0  0  0  0  0  0  0  0  0  0  0
   12.8885    4.1427   20.9929 C   0  0  0  0  0  0  0  0  0  0  0  0
    8.2028    3.9686   21.0406 C   0  0  0  0  0  0  0  0  0  0  0  0
    7.4434    2.8271   20.5919 C   0  0  0  0  0  0  0  0  0  0  0  0
   11.2035    7.2916   21.0644 C   0  0  0  0  0  0  0  0  0  0  0  0
   10.3575    8.2994   21.1704 C   0  0  0  0  0  0  0  0  0  0  0  0
   11.2251    5.8345   21.5154 N   0  0  0  0  0  0  0  0  0  0  0  0
    9.6840   11.7454   19.0998 O   0  0  0  0  0  0  0  0  0  0  0  0
    6.5389    4.8084   22.3248 C   0  0  0  0  0  0  0  0  0  0  0  0
    8.5788    7.1512   22.4208 C   0  0  0  0  0  0  0  0  0  0  0  0
   12.3222    7.6558   20.2859 C   0  0  0  0  0  0  0  0  0  0  0  0
   14.2186    6.2936   19.2973 C   0  0  0  0  0  0  0  0  0  0  0  0
   13.1358    6.3543   20.1658 N   0  0  0  0  0  0  0  0  0  0  0  0
    9.0708    8.1120   22.0530 N   0  0  0  0  0  0  0  0  0  0  0  0
   10.4394    9.4191   20.4476 C   0  0  0  0  0  0  0  0  0  0  0  0
    7.4484    7.3219   23.6633 S   0  0  0  0  0  0  0  0  0  0  0  0
    6.2273    2.7680   21.3171 He  0  0  0  0  0  0  0  0  0  0  0  0
  1 10  4  0
  1 18  2  0
  1 20  4  0
  2  3  4  0
  2  7  1  0
  2 10  1  0
  2 13  4  0
  2 18  2  0
  3  4  1  0
  3 17  2  0
  4 12  3  0
  4 14  3  0
  5 11  1  0
  5 14  1  0
  5 16  4  0
  5 22  4  0
  6  8  1  0
  6 12  4  0
  6 18  4  0
  7 25  4  0
  8 10  2  0
  8 19  1  0
  9 18  4  0
 10 24  4  0
 12 13  4  0
 12 21  1  0
 12 25  2  0
 14 15  4  0
 14 16  4  0
 14 17  4  0
 14 20  4  0
 15 23  1  0
 15 24  4  0
 16 19  1  0
 19 23  1  0
 20 22  4  0
 21 22  1  0
M  END
$$$$

 Created by Python create_sdf_string function

 26 28  0  0  0  0  0  0  0  0999 V2000
   12.5016    8.7553   19.5941 N   0  0  0  0  0  0  0  0  0  0  0  0
   11.7233   10.8578   18.8611 N   0  0  0  0  0  0  0  0  0  0  0  0
    6.1964    2.7480   21.2556 C   0  0  0  0  0  0  0  0  0  0  0  0
   10.6860   11.7981   18.5672 C   0  0  0  0  0  0  0  0  0  0  0  0
   10.9564   12.7493   17.5281 C   0  0  0  0  0  0  0  0  0  0  0  0
   12.4564    5.4267   20.8694 C   0  0  0  0  0  0  0  0  0  0  0  0
    7.8016    4.9086   21.7819 C   0  0  0  0  0  0  0  0  0  0  0  0
   12.9825   11.1178   18.1612 C   0  0  0  0  0  0  0  0  0  0  0  0
    8.6437    5.9695   21.9718 N   0  0  0  0  0  0  0  0  0  0  0  0
    5.7586    3.6866   22.1137 C   0  0  0  0  0  0  0  0  0  0  0  0
   11.5512    9.6889   19.6553 C   0  0  0  0  0  0  0  0  0  0  0  0
   12.8975    4.1360   20.9866 C   0  0  0  0  0  0  0  0  0  0  0  0
    8.2326    3.9096   20.9470 C   0  0  0  0  0  0  0  0  0  0  0  0
    7.4318    2.8385   20.6674 C   0  0  0  0  0  0  0  0  0  0  0  0
   11.2104    7.2857   20.9824 C   0  0  0  0  0  0  0  0  0  0  0  0
   10.2926    8.3034   21.1799 C   0  0  0  0  0  0  0  0  0  0  0  0
   11.2865    5.9255   21.4171 N   0  0  0  0  0  0  0  0  0  0  0  0
    9.6786   11.7775   19.1091 O   0  0  0  0  0  0  0  0  0  0  0  0
    6.5255    4.7861   22.3779 C   0  0  0  0  0  0  0  0  0  0  0  0
    8.4999    7.1657   22.4762 C   0  0  0  0  0  0  0  0  0  0  0  0
   12.3022    7.5634   20.2003 C   0  0  0  0  0  0  0  0  0  0  0  0
   14.2186    6.2910   19.3824 C   0  0  0  0  0  0  0  0  0  0  0  0
   13.0920    6.4175   20.1257 N   0  0  0  0  0  0  0  0  0  0  0  0
    9.2251    8.1494   22.0636 N   0  0  0  0  0  0  0  0  0  0  0  0
   10.4539    9.4571   20.4847 C   0  0  0  0  0  0  0  0  0  0  0  0
    7.4371    7.3933   23.6681 S   0  0  0  0  0  0  0  0  0  0  0  0
  1 11  4  0
  1 21  4  0
  2  4  1  0
  2  8  1  0
  2 11  1  0
  3 10  4  0
  3 14  4  0
  4  5  1  0
  4 18  2  0
  6 12  1  0
  6 17  4  0
  6 23  4  0
  7  9  1  0
  7 13  4  0
  7 19  4  0
  9 20  1  0
 10 19  4  0
 11 25  4  0
 13 14  4  0
 15 16  4  0
 15 17  4  0
 15 21  4  0
 16 24  1  0
 16 25  4  0
 20 24  1  0
 20 26  2  0
 21 23  4  0
 22 23  1  0
M  END
$$$$

 Created by Python create_sdf_string function

 26 41  0  0  0  0  0  0  0  0999 V2000
   12.5075    8.8383   19.5242 N   0  0  0  0  0  0  0  0  0  0  0  0
   11.7173   10.9159   18.8141 N   0  0  0  0  0  0  0  0  0  0  0  0
    6.2034    2.6680   21.2004 C   0  0  0  0  0  0  0  0  0  0  0  0
   10.6683   11.7517   18.4286 C   0  0  0  0  0  0  0  0  0  0  0  0
   10.8926   12.8029   17.4170 C   0  0  0  0  0  0  0  0  0  0  0  0
   12.4564    5.4778   20.9230 C   0  0  0  0  0  0  0  0  0  0  0  0
    7.7421    4.8830   21.7662 C   0  0  0  0  0  0  0  0  0  0  0  0
   13.0084   10.9761   18.1852 C   0  0  0  0  0  0  0  0  0  0  0  0
    8.7562    5.8204   21.9663 N   0  0  0  0  0  0  0  0  0  0  0  0
    5.9341    3.7521   22.0452 C   0  0  0  0  0  0  0  0  0  0  0  0
   11.4166    9.7260   19.7045 C   0  0  0  0  0  0  0  0  0  0  0  0
   12.8668    4.1524   20.8959 C   0  0  0  0  0  0  0  0  0  0  0  0
    8.2762    3.9278   20.8599 C   0  0  0  0  0  0  0  0  0  0  0  0
    7.5545    2.8490   20.7810 C   0  0  0  0  0  0  0  0  0  0  0  0
   11.1823    7.3391   20.8292 C   0  0  0  0  0  0  0  0  0  0  0  0
   10.1699    8.3167   21.1813 C   0  0  0  0  0  0  0  0  0  0  0  0
   11.1708    5.9200   21.4666 N   0  0  0  0  0  0  0  0  0  0  0  0
    9.7265   11.8236   19.1392 O   0  0  0  0  0  0  0  0  0  0  0  0
    6.4759    4.8129   22.3737 C   0  0  0  0  0  0  0  0  0  0  0  0
    8.6494    7.2161   22.4108 C   0  0  0  0  0  0  0  0  0  0  0  0
   12.3153    7.5871   20.1567 C   0  0  0  0  0  0  0  0  0  0  0  0
   14.1650    6.3152   19.4127 C   0  0  0  0  0  0  0  0  0  0  0  0
   13.0751    6.3433   20.1754 N   0  0  0  0  0  0  0  0  0  0  0  0
    9.1868    8.1868   22.0891 N   0  0  0  0  0  0  0  0  0  0  0  0
   10.4085    9.4915   20.4810 C   0  0  0  0  0  0  0  0  0  0  0  0
    7.4820    7.3392   23.7708 C   0  0  0  0  0  0  0  0  0  0  0  0
  1 11  4  0
  1 21  4  0
  2  4  1  0
  2  8  1  0
  2 11  1  0
  3  8  1  0
  3 10  4  0
  3 14  4  0
  4  5  1  0
  4 18  2  0
  4 19  3  0
  4 20  2  0
  5  9  1  0
  6  9  2  0
  6 12  1  0
  6 17  4  0
  6 23  4  0
  7  9  1  0
  7 13  4  0
  7 19  4  0
  9 20  1  0
 10 19  4  0
 11 24  1  0
 11 25  1  0
 11 26  3  0
 12 20  1  0
 13 14  4  0
 13 26  3  0
 14 24  3  0
 15 16  4  0
 15 17  4  0
 15 21  4  0
 16 23  3  0
 16 24  1  0
 16 25  4  0
 17 19  3  0
 18 25  2  0
 19 24  1  0
 20 24  4  0
 20 26  2  0
 22 23  1  0
M  END
$$$$

 Created by Python create_sdf_string function

 26 28  0  0  0  0  0  0  0  0999 V2000
   12.4546    8.7882   19.5233 N   0  0  0  0  0  0  0  0  0  0  0  0
   11.7016   10.8802   18.8002 N   0  0  0  0  0  0  0  0  0  0  0  0
    6.2384    2.7023   21.2237 C   0  0  0  0  0  0  0  0  0  0  0  0
   10.6926   11.7991   18.4965 C   0  0  0  0  0  0  0  0  0  0  0  0
   10.9192   12.7800   17.4187 C   0  0  0  0  0  0  0  0  0  0  0  0
   12.4221    5.4488   20.8593 C   0  0  0  0  0  0  0  0  0  0  0  0
    7.8098    4.8768   21.7741 C   0  0  0  0  0  0  0  0  0  0  0  0
   12.9928   11.0166   18.1715 C   0  0  0  0  0  0  0  0  0  0  0  0
    8.6755    5.9042   22.0171 N   0  0  0  0  0  0  0  0  0  0  0  0
    5.7852    3.6697   22.0461 C   0  0  0  0  0  0  0  0  0  0  0  0
   11.4905    9.7398   19.6176 C   0  0  0  0  0  0  0  0  0  0  0  0
   12.8895    4.1524   20.9459 C   0  0  0  0  0  0  0  0  0  0  0  0
    8.2647    3.8882   20.9338 C   0  0  0  0  0  0  0  0  0  0  0  0
    7.4980    2.8069   20.6756 C   0  0  0  0  0  0  0  0  0  0  0  0
   11.1831    7.3374   20.9321 C   0  0  0  0  0  0  0  0  0  0  0  0
   10.2582    8.3639   21.1459 C   0  0  0  0  0  0  0  0  0  0  0  0
   11.2520    5.9906   21.3645 N   0  0  0  0  0  0  0  0  0  0  0  0
    9.7041   11.8197   19.1130 O   0  0  0  0  0  0  0  0  0  0  0  0
    6.5216    4.7617   22.3358 C   0  0  0  0  0  0  0  0  0  0  0  0
    8.5275    7.1281   22.5032 C   0  0  0  0  0  0  0  0  0  0  0  0
   12.2612    7.6069   20.1546 C   0  0  0  0  0  0  0  0  0  0  0  0
   14.2133    6.2852   19.4399 C   0  0  0  0  0  0  0  0  0  0  0  0
   13.0658    6.4322   20.1225 N   0  0  0  0  0  0  0  0  0  0  0  0
    9.2042    8.1816   22.0660 N   0  0  0  0  0  0  0  0  0  0  0  0
   10.4049    9.5201   20.4597 C   0  0  0  0  0  0  0  0  0  0  0  0
    7.5425    7.3274   23.6450 S   0  0  0  0  0  0  0  0  0  0  0  0
  1 11  4  0
  1 21  4  0
  2  4  1  0
  2  8  1  0
  2 11  1  0
  3 10  4  0
  3 14  4  0
  4  5  1  0
  4 18  2  0
  6 12  1  0
  6 17  4  0
  6 23  4  0
  7  9  1  0
  7 13  4  0
  7 19  4  0
  9 20  1  0
 10 19  4  0
 11 25  4  0
 13 14  4  0
 15 16  4  0
 15 17  4  0
 15 21  4  0
 16 24  1  0
 16 25  4  0
 20 24  1  0
 20 26  2  0
 21 23  4  0
 22 23  1  0
M  END
$$$$

 Created by Python create_sdf_string function

 26 37  0  0  0  0  0  0  0  0999 V2000
   12.4877    8.7052   19.6232 N   0  0  0  0  0  0  0  0  0  0  0  0
   11.5359   10.9261   18.8442 N   0  0  0  0  0  0  0  0  0  0  0  0
    6.1915    2.8558   21.2095 C   0  0  0  0  0  0  0  0  0  0  0  0
   10.6869   11.7113   18.5985 C   0  0  0  0  0  0  0  0  0  0  0  0
   11.0243   12.8427   17.3877 C   0  0  0  0  0  0  0  0  0  0  0  0
   12.4651    5.3999   20.8723 C   0  0  0  0  0  0  0  0  0  0  0  0
    7.9009    4.9159   21.7305 C   0  0  0  0  0  0  0  0  0  0  0  0
    8.7396    5.8484   22.0058 N   0  0  0  0  0  0  0  0  0  0  0  0
    5.7627    3.6573   21.9304 C   0  0  0  0  0  0  0  0  0  0  0  0
   11.4921    9.7398   19.6626 C   0  0  0  0  0  0  0  0  0  0  0  0
   12.8292    4.1977   20.9637 C   0  0  0  0  0  0  0  0  0  0  0  0
    8.3575    3.8752   20.8873 C   0  0  0  0  0  0  0  0  0  0  0  0
    7.5401    2.8040   20.6700 C   0  0  0  0  0  0  0  0  0  0  0  0
   11.1300    7.2348   20.8764 C   0  0  0  0  0  0  0  0  0  0  0  0
   10.3096    8.2678   21.0729 C   0  0  0  0  0  0  0  0  0  0  0  0
   11.1266    6.0021   21.3465 N   0  0  0  0  0  0  0  0  0  0  0  0
    9.7338   11.8300   19.1288 O   0  0  0  0  0  0  0  0  0  0  0  0
    6.5273    4.7966   22.3178 C   0  0  0  0  0  0  0  0  0  0  0  0
    8.5358    7.0826   22.5231 C   0  0  0  0  0  0  0  0  0  0  0  0
   12.3097    7.5610   20.1816 C   0  0  0  0  0  0  0  0  0  0  0  0
   14.1752    6.2083   19.4025 C   0  0  0  0  0  0  0  0  0  0  0  0
   13.0589    6.5033   20.2273 N   0  0  0  0  0  0  0  0  0  0  0  0
    9.2181    8.0770   22.0632 N   0  0  0  0  0  0  0  0  0  0  0  0
   10.5991    9.5071   20.4558 C   0  0  0  0  0  0  0  0  0  0  0  0
    7.5407    7.3526   23.6736 S   0  0  0  0  0  0  0  0  0  0  0  0
   13.0604   10.9633   18.2388 He  0  0  0  0  0  0  0  0  0  0  0  0
  1  8  1  0
  1 10  4  0
  1 20  4  0
  2  4  1  0
  2  7  3  0
  2 10  1  0
  2 14  2  0
  3  9  4  0
  3 13  4  0
  3 21  4  0
  4  5  1  0
  4 17  2  0
  6 11  1  0
  6 12  2  0
  6 16  4  0
  6 22  4  0
  7  8  1  0
  7 12  3  0
  7 18  4  0
  8 19  1  0
  9 18  4  0
  9 23  4  0
 10 24  4  0
 12 13  4  0
 12 15  2  0
 12 19  4  0
 13 23  4  0
 14 15  4  0
 14 16  4  0
 14 17  1  0
 14 20  4  0
 15 23  1  0
 15 24  4  0
 19 23  1  0
 19 25  2  0
 20 22  4  0
 21 22  1  0
M  END
$$$$

 Created by Python create_sdf_string function

 26 28  0  0  0  0  0  0  0  0999 V2000
   12.4711    8.7378   19.5711 N   0  0  0  0  0  0  0  0  0  0  0  0
   11.7138   10.8455   18.8363 N   0  0  0  0  0  0  0  0  0  0  0  0
    6.2137    2.7458   21.1261 C   0  0  0  0  0  0  0  0  0  0  0  0
   10.7230   11.8067   18.5422 C   0  0  0  0  0  0  0  0  0  0  0  0
   11.0130   12.7822   17.4625 C   0  0  0  0  0  0  0  0  0  0  0  0
   12.3939    5.4301   20.8583 C   0  0  0  0  0  0  0  0  0  0  0  0
    7.8408    4.8401   21.7589 C   0  0  0  0  0  0  0  0  0  0  0  0
   12.9862   11.0118   18.2257 C   0  0  0  0  0  0  0  0  0  0  0  0
    8.6932    5.8771   22.0050 N   0  0  0  0  0  0  0  0  0  0  0  0
    5.7368    3.6913   21.9610 C   0  0  0  0  0  0  0  0  0  0  0  0
   11.5263    9.7038   19.6393 C   0  0  0  0  0  0  0  0  0  0  0  0
   12.8706    4.1738   20.9915 C   0  0  0  0  0  0  0  0  0  0  0  0
    8.2972    3.8388   20.9410 C   0  0  0  0  0  0  0  0  0  0  0  0
    7.4858    2.7913   20.6193 C   0  0  0  0  0  0  0  0  0  0  0  0
   11.1697    7.2788   20.9275 C   0  0  0  0  0  0  0  0  0  0  0  0
   10.2635    8.3135   21.1419 C   0  0  0  0  0  0  0  0  0  0  0  0
   11.1954    5.9273   21.3303 N   0  0  0  0  0  0  0  0  0  0  0  0
    9.7146   11.8196   19.1411 O   0  0  0  0  0  0  0  0  0  0  0  0
    6.5402    4.7669   22.2844 C   0  0  0  0  0  0  0  0  0  0  0  0
    8.5389    7.1040   22.4879 C   0  0  0  0  0  0  0  0  0  0  0  0
   12.2754    7.5554   20.1792 C   0  0  0  0  0  0  0  0  0  0  0  0
   14.2190    6.2395   19.4668 C   0  0  0  0  0  0  0  0  0  0  0  0
   13.0562    6.4259   20.1442 N   0  0  0  0  0  0  0  0  0  0  0  0
    9.2310    8.1311   22.0063 N   0  0  0  0  0  0  0  0  0  0  0  0
   10.4410    9.4776   20.4662 C   0  0  0  0  0  0  0  0  0  0  0  0
    7.5136    7.3728   23.6818 S   0  0  0  0  0  0  0  0  0  0  0  0
  1 11  4  0
  1 21  4  0
  2  4  1  0
  2  8  1  0
  2 11  1  0
  3 10  4  0
  3 14  4  0
  4  5  1  0
  4 18  2  0
  6 12  1  0
  6 17  4  0
  6 23  4  0
  7  9  1  0
  7 13  4  0
  7 19  4  0
  9 20  1  0
 10 19  4  0
 11 25  4  0
 13 14  4  0
 15 16  4  0
 15 17  4  0
 15 21  4  0
 16 24  1  0
 16 25  4  0
 20 24  1  0
 20 26  2  0
 21 23  4  0
 22 23  1  0
M  END
$$$$

 Created by Python create_sdf_string function

 26 36  0  0  0  0  0  0  0  0999 V2000
   12.4963    8.6984   19.5111 N   0  0  0  0  0  0  0  0  0  0  0  0
   11.6499   10.8784   18.8071 N   0  0  0  0  0  0  0  0  0  0  0  0
    6.0997    2.7870   21.0732 C   0  0  0  0  0  0  0  0  0  0  0  0
   10.7317   11.7961   18.4850 C   0  0  0  0  0  0  0  0  0  0  0  0
   11.0089   12.8373   17.4453 C   0  0  0  0  0  0  0  0  0  0  0  0
   12.3716    5.4234   20.8122 C   0  0  0  0  0  0  0  0  0  0  0  0
    7.7132    4.8826   21.6632 C   0  0  0  0  0  0  0  0  0  0  0  0
   12.9347   11.0715   18.2187 C   0  0  0  0  0  0  0  0  0  0  0  0
    8.6949    5.8665   22.0423 N   0  0  0  0  0  0  0  0  0  0  0  0
    5.7663    3.6548   22.0699 C   0  0  0  0  0  0  0  0  0  0  0  0
   11.5248    9.7047   19.6150 C   0  0  0  0  0  0  0  0  0  0  0  0
   12.8993    4.1973   20.9300 C   0  0  0  0  0  0  0  0  0  0  0  0
    8.2428    3.7629   20.9722 C   0  0  0  0  0  0  0  0  0  0  0  0
    7.5683    2.7111   20.7024 C   0  0  0  0  0  0  0  0  0  0  0  0
   11.1328    7.2287   20.9547 C   0  0  0  0  0  0  0  0  0  0  0  0
   10.3049    8.3488   21.1351 C   0  0  0  0  0  0  0  0  0  0  0  0
   11.2098    5.9152   21.2951 N   0  0  0  0  0  0  0  0  0  0  0  0
    9.6437   11.8249   19.0806 O   0  0  0  0  0  0  0  0  0  0  0  0
    6.5665    4.6881   22.2719 C   0  0  0  0  0  0  0  0  0  0  0  0
    8.5278    7.0004   22.4949 C   0  0  0  0  0  0  0  0  0  0  0  0
   12.2019    7.4843   20.1197 C   0  0  0  0  0  0  0  0  0  0  0  0
   14.2080    6.2309   19.4483 C   0  0  0  0  0  0  0  0  0  0  0  0
   13.0415    6.5013   20.1940 N   0  0  0  0  0  0  0  0  0  0  0  0
    9.2807    8.0064   21.9850 N   0  0  0  0  0  0  0  0  0  0  0  0
   10.3960    9.4760   20.4604 C   0  0  0  0  0  0  0  0  0  0  0  0
    7.5348    7.4396   23.6241 S   0  0  0  0  0  0  0  0  0  0  0  0
  1 11  4  0
  1 21  4  0
  2  8  1  0
  2 10  4  0
  2 11  1  0
  2 17  2  0
  3 10  4  0
  3 14  4  0
  3 15  1  0
  3 22  2  0
  4  5  1  0
  4 18  2  0
  5 13  4  0
  6 12  1  0
  6 17  4  0
  6 23  4  0
  7  9  1  0
  7 13  4  0
  7 19  4  0
  9 17  2  0
  9 20  1  0
 10 19  4  0
 10 24  4  0
 11 25  4  0
 13 14  4  0
 15 16  4  0
 15 17  4  0
 15 21  4  0
 15 25  4  0
 16 24  1  0
 16 25  4  0
 19 25  1  0
 20 24  1  0
 20 26  2  0
 21 23  4  0
 22 23  1  0
M  END
$$$$

 Created by Python create_sdf_string function

 26 28  0  0  0  0  0  0  0  0999 V2000
   12.4487    8.7220   19.4954 N   0  0  0  0  0  0  0  0  0  0  0  0
   11.6793   10.8597   18.8003 N   0  0  0  0  0  0  0  0  0  0  0  0
    6.1505    2.7110   21.1335 C   0  0  0  0  0  0  0  0  0  0  0  0
   10.6959   11.8145   18.5127 C   0  0  0  0  0  0  0  0  0  0  0  0
   11.0188   12.8243   17.4624 C   0  0  0  0  0  0  0  0  0  0  0  0
   12.3909    5.4259   20.8179 C   0  0  0  0  0  0  0  0  0  0  0  0
    7.7978    4.7997   21.7558 C   0  0  0  0  0  0  0  0  0  0  0  0
   12.9409   11.0829   18.2044 C   0  0  0  0  0  0  0  0  0  0  0  0
    8.6607    5.8558   21.9903 N   0  0  0  0  0  0  0  0  0  0  0  0
    5.7112    3.6559   21.9999 C   0  0  0  0  0  0  0  0  0  0  0  0
   11.5082    9.6974   19.5897 C   0  0  0  0  0  0  0  0  0  0  0  0
   12.9075    4.1659   20.9454 C   0  0  0  0  0  0  0  0  0  0  0  0
    8.2616    3.7912   20.9588 C   0  0  0  0  0  0  0  0  0  0  0  0
    7.4502    2.7330   20.6419 C   0  0  0  0  0  0  0  0  0  0  0  0
   11.1643    7.2713   20.8976 C   0  0  0  0  0  0  0  0  0  0  0  0
   10.2692    8.3077   21.1214 C   0  0  0  0  0  0  0  0  0  0  0  0
   11.2007    5.9164   21.3060 N   0  0  0  0  0  0  0  0  0  0  0  0
    9.6765   11.8131   19.0658 O   0  0  0  0  0  0  0  0  0  0  0  0
    6.5195    4.7224   22.2930 C   0  0  0  0  0  0  0  0  0  0  0  0
    8.5437    7.0890   22.4573 C   0  0  0  0  0  0  0  0  0  0  0  0
   12.2598    7.5350   20.1369 C   0  0  0  0  0  0  0  0  0  0  0  0
   14.2352    6.2497   19.4757 C   0  0  0  0  0  0  0  0  0  0  0  0
   13.0478    6.4120   20.1053 N   0  0  0  0  0  0  0  0  0  0  0  0
    9.2545    8.1043   22.0016 N   0  0  0  0  0  0  0  0  0  0  0  0
   10.4422    9.4844   20.4420 C   0  0  0  0  0  0  0  0  0  0  0  0
    7.4978    7.4047   23.6292 S   0  0  0  0  0  0  0  0  0  0  0  0
  1 11  4  0
  1 21  4  0
  2  4  1  0
  2  8  1  0
  2 11  1  0
  3 10  4  0
  3 14  4  0
  4  5  1  0
  4 18  2  0
  6 12  1  0
  6 17  4  0
  6 23  4  0
  7  9  1  0
  7 13  4  0
  7 19  4  0
  9 20  1  0
 10 19  4  0
 11 25  4  0
 13 14  4  0
 15 16  4  0
 15 17  4  0
 15 21  4  0
 16 24  1  0
 16 25  4  0
 20 24  1  0
 20 26  2  0
 21 23  4  0
 22 23  1  0
M  END
$$$$

 Created by Python create_sdf_string function

 26 28  0  0  0  0  0  0  0  0999 V2000
   12.5017    8.6918   19.4513 N   0  0  0  0  0  0  0  0  0  0  0  0
   11.7570   10.9355   18.7719 N   0  0  0  0  0  0  0  0  0  0  0  0
    6.1513    2.5702   21.1367 C   0  0  0  0  0  0  0  0  0  0  0  0
   10.7305   11.7873   18.5017 C   0  0  0  0  0  0  0  0  0  0  0  0
   10.9395   12.8784   17.4091 C   0  0  0  0  0  0  0  0  0  0  0  0
   12.3777    5.4811   20.8081 C   0  0  0  0  0  0  0  0  0  0  0  0
    7.8487    4.8783   21.7967 C   0  0  0  0  0  0  0  0  0  0  0  0
   13.0285   11.0106   18.2348 C   0  0  0  0  0  0  0  0  0  0  0  0
    8.6387    5.9491   22.0054 N   0  0  0  0  0  0  0  0  0  0  0  0
   11.5556    9.8159   19.5115 C   0  0  0  0  0  0  0  0  0  0  0  0
   12.8377    4.0789   21.0676 C   0  0  0  0  0  0  0  0  0  0  0  0
    8.2520    3.8861   21.0583 C   0  0  0  0  0  0  0  0  0  0  0  0
    7.4854    2.6773   20.6321 C   0  0  0  0  0  0  0  0  0  0  0  0
   11.2017    7.3946   20.7768 C   0  0  0  0  0  0  0  0  0  0  0  0
   10.2918    8.3187   21.0558 C   0  0  0  0  0  0  0  0  0  0  0  0
   11.2543    5.8983   21.3802 N   0  0  0  0  0  0  0  0  0  0  0  0
    9.6761   11.8030   19.0053 O   0  0  0  0  0  0  0  0  0  0  0  0
    6.4977    4.7371   22.3003 C   0  0  0  0  0  0  0  0  0  0  0  0
    8.5589    7.1657   22.4669 C   0  0  0  0  0  0  0  0  0  0  0  0
   12.2374    7.6071   20.0203 C   0  0  0  0  0  0  0  0  0  0  0  0
   14.2104    6.3644   19.4748 C   0  0  0  0  0  0  0  0  0  0  0  0
   13.0398    6.4669   20.1074 N   0  0  0  0  0  0  0  0  0  0  0  0
    9.2756    8.1535   21.9616 N   0  0  0  0  0  0  0  0  0  0  0  0
   10.3844    9.5613   20.3934 C   0  0  0  0  0  0  0  0  0  0  0  0
    7.5082    7.4746   23.5849 S   0  0  0  0  0  0  0  0  0  0  0  0
    5.6442    3.5907   22.0676 He  0  0  0  0  0  0  0  0  0  0  0  0
  1 10  4  0
  1 20  4  0
  2  4  1  0
  2  8  1  0
  2 10  1  0
  3 13  4  0
  4  5  1  0
  4 17  2  0
  6 11  1  0
  6 16  4  0
  6 20  2  0
  6 22  4  0
  7  9  1  0
  7 12  4  0
  7 14  1  0
  7 18  4  0
 10 24  4  0
 12 13  4  0
 14 15  4  0
 14 16  4  0
 14 20  4  0
 15 23  1  0
 15 24  4  0
 19 23  1  0
 19 25  2  0
 20 22  4  0
 21 22  1  0
 23 24  3  0
M  END
$$$$

 Created by Python create_sdf_string function

 26 28  0  0  0  0  0  0  0  0999 V2000
   12.4480    8.7489   19.4342 N   0  0  0  0  0  0  0  0  0  0  0  0
   11.7505   10.8966   18.7686 N   0  0  0  0  0  0  0  0  0  0  0  0
    6.1584    2.6274   21.1693 C   0  0  0  0  0  0  0  0  0  0  0  0
   10.7347   11.8131   18.4907 C   0  0  0  0  0  0  0  0  0  0  0  0
   10.9732   12.8465   17.4414 C   0  0  0  0  0  0  0  0  0  0  0  0
   12.3934    5.4651   20.8226 C   0  0  0  0  0  0  0  0  0  0  0  0
    7.7721    4.8161   21.7902 C   0  0  0  0  0  0  0  0  0  0  0  0
   13.0284   11.0521   18.2095 C   0  0  0  0  0  0  0  0  0  0  0  0
    8.6243    5.9001   22.0049 N   0  0  0  0  0  0  0  0  0  0  0  0
    5.6645    3.5954   22.0359 C   0  0  0  0  0  0  0  0  0  0  0  0
   11.5306    9.7399   19.5283 C   0  0  0  0  0  0  0  0  0  0  0  0
   12.8289    4.1164   21.0580 C   0  0  0  0  0  0  0  0  0  0  0  0
    8.2508    3.7848   20.9945 C   0  0  0  0  0  0  0  0  0  0  0  0
    7.4693    2.7012   20.6496 C   0  0  0  0  0  0  0  0  0  0  0  0
   11.1722    7.3171   20.8574 C   0  0  0  0  0  0  0  0  0  0  0  0
   10.2822    8.3547   21.0577 C   0  0  0  0  0  0  0  0  0  0  0  0
   11.2170    5.9824   21.3142 N   0  0  0  0  0  0  0  0  0  0  0  0
    9.6987   11.7813   19.0226 O   0  0  0  0  0  0  0  0  0  0  0  0
    6.4654    4.7007   22.3195 C   0  0  0  0  0  0  0  0  0  0  0  0
    8.5414    7.1500   22.4123 C   0  0  0  0  0  0  0  0  0  0  0  0
   12.2584    7.5696   20.0775 C   0  0  0  0  0  0  0  0  0  0  0  0
   14.2382    6.3373   19.4623 C   0  0  0  0  0  0  0  0  0  0  0  0
   13.0528    6.4258   20.0709 N   0  0  0  0  0  0  0  0  0  0  0  0
    9.2765    8.1730   21.9457 N   0  0  0  0  0  0  0  0  0  0  0  0
   10.4386    9.5382   20.3707 C   0  0  0  0  0  0  0  0  0  0  0  0
    7.4748    7.4480   23.5809 S   0  0  0  0  0  0  0  0  0  0  0  0
  1 11  4  0
  1 21  4  0
  2  4  1  0
  2  8  1  0
  2 11  1  0
  3 10  4  0
  3 14  4  0
  4  5  1  0
  4 18  2  0
  6 12  1  0
  6 17  4  0
  6 23  4  0
  7  9  1  0
  7 13  4  0
  7 19  4  0
  9 20  1  0
 10 19  4  0
 11 25  4  0
 13 14  4  0
 15 16  4  0
 15 17  4  0
 15 21  4  0
 16 24  1  0
 16 25  4  0
 20 24  1  0
 20 26  2  0
 21 23  4  0
 22 23  1  0
M  END
$$$$

 Created by Python create_sdf_string function

 26 33  0  0  0  0  0  0  0  0999 V2000
   12.4998    8.7246   19.4191 N   0  0  0  0  0  0  0  0  0  0  0  0
   11.7565   10.8903   18.6969 N   0  0  0  0  0  0  0  0  0  0  0  0
    6.1077    2.6479   21.1136 C   0  0  0  0  0  0  0  0  0  0  0  0
   10.7543   11.8497   18.4922 C   0  0  0  0  0  0  0  0  0  0  0  0
   10.9311   12.8516   17.5162 C   0  0  0  0  0  0  0  0  0  0  0  0
   12.4381    5.4449   20.7640 C   0  0  0  0  0  0  0  0  0  0  0  0
    7.8011    4.8950   21.7915 C   0  0  0  0  0  0  0  0  0  0  0  0
   12.9926   11.0568   18.2078 C   0  0  0  0  0  0  0  0  0  0  0  0
    8.5214    5.8384   22.0695 N   0  0  0  0  0  0  0  0  0  0  0  0
    5.6410    3.5965   21.9771 C   0  0  0  0  0  0  0  0  0  0  0  0
   11.5463    9.7681   19.4289 C   0  0  0  0  0  0  0  0  0  0  0  0
   12.8834    4.0749   21.0097 C   0  0  0  0  0  0  0  0  0  0  0  0
    8.2633    3.8670   20.9567 C   0  0  0  0  0  0  0  0  0  0  0  0
    7.5223    2.7329   20.6638 C   0  0  0  0  0  0  0  0  0  0  0  0
   11.1855    7.3485   20.8496 C   0  0  0  0  0  0  0  0  0  0  0  0
   10.2332    8.4229   21.0234 C   0  0  0  0  0  0  0  0  0  0  0  0
   11.1094    5.9253   21.3145 N   0  0  0  0  0  0  0  0  0  0  0  0
    9.7394   11.6944   19.0284 O   0  0  0  0  0  0  0  0  0  0  0  0
    6.5115    4.7451   22.3191 C   0  0  0  0  0  0  0  0  0  0  0  0
    8.5572    7.2102   22.3794 C   0  0  0  0  0  0  0  0  0  0  0  0
   12.2782    7.5961   20.2057 C   0  0  0  0  0  0  0  0  0  0  0  0
   14.1807    6.2753   19.4148 C   0  0  0  0  0  0  0  0  0  0  0  0
   13.0254    6.3545   20.0710 N   0  0  0  0  0  0  0  0  0  0  0  0
    9.3430    8.2278   21.9443 N   0  0  0  0  0  0  0  0  0  0  0  0
   10.3913    9.5821   20.4373 C   0  0  0  0  0  0  0  0  0  0  0  0
    7.4965    7.4254   23.6340 S   0  0  0  0  0  0  0  0  0  0  0  0
  1 11  4  0
  2  4  1  0
  2  8  1  0
  2 11  1  0
  2 13  2  0
  3 10  4  0
  3 14  4  0
  3 22  1  0
  4  5  1  0
  4 18  2  0
  6 12  1  0
  6 17  4  0
  6 23  4  0
  7  9  1  0
  7 13  4  0
  7 19  4  0
  8 13  1  0
  9 20  1  0
 10 19  4  0
 11 25  4  0
 13 14  4  0
 13 21  4  0
 15 16  4  0
 15 17  4  0
 15 21  4  0
 16 21  2  0
 16 24  1  0
 16 25  4  0
 18 19  3  0
 20 24  1  0
 20 26  2  0
 21 23  4  0
 22 23  1  0
M  END
$$$$

 Created by Python create_sdf_string function

 26 28  0  0  0  0  0  0  0  0999 V2000
   12.4579    8.7438   19.4499 N   0  0  0  0  0  0  0  0  0  0  0  0
   11.7426   10.8713   18.7210 N   0  0  0  0  0  0  0  0  0  0  0  0
    6.1463    2.6563   21.1185 C   0  0  0  0  0  0  0  0  0  0  0  0
   10.7420   11.8136   18.4843 C   0  0  0  0  0  0  0  0  0  0  0  0
   10.9747   12.8595   17.5166 C   0  0  0  0  0  0  0  0  0  0  0  0
   12.3690    5.4337   20.8068 C   0  0  0  0  0  0  0  0  0  0  0  0
    7.7505    4.8203   21.7826 C   0  0  0  0  0  0  0  0  0  0  0  0
   13.0094   11.0788   18.1644 C   0  0  0  0  0  0  0  0  0  0  0  0
    8.6011    5.8853   22.0059 N   0  0  0  0  0  0  0  0  0  0  0  0
    5.6463    3.6096   21.9771 C   0  0  0  0  0  0  0  0  0  0  0  0
   11.5329    9.7386   19.5137 C   0  0  0  0  0  0  0  0  0  0  0  0
   12.8659    4.1141   20.9917 C   0  0  0  0  0  0  0  0  0  0  0  0
    8.2411    3.8170   20.9734 C   0  0  0  0  0  0  0  0  0  0  0  0
    7.4632    2.7339   20.6334 C   0  0  0  0  0  0  0  0  0  0  0  0
   11.1450    7.3135   20.8707 C   0  0  0  0  0  0  0  0  0  0  0  0
   10.2704    8.3755   21.0689 C   0  0  0  0  0  0  0  0  0  0  0  0
   11.1813    5.9550   21.2936 N   0  0  0  0  0  0  0  0  0  0  0  0
    9.7344   11.7427   19.0243 O   0  0  0  0  0  0  0  0  0  0  0  0
    6.4492    4.6989   22.3095 C   0  0  0  0  0  0  0  0  0  0  0  0
    8.5303    7.1552   22.4240 C   0  0  0  0  0  0  0  0  0  0  0  0
   12.2432    7.5548   20.0924 C   0  0  0  0  0  0  0  0  0  0  0  0
   14.1981    6.2741   19.4237 C   0  0  0  0  0  0  0  0  0  0  0  0
   13.0321    6.4024   20.0794 N   0  0  0  0  0  0  0  0  0  0  0  0
    9.2398    8.2035   21.9515 N   0  0  0  0  0  0  0  0  0  0  0  0
   10.4407    9.5422   20.3608 C   0  0  0  0  0  0  0  0  0  0  0  0
    7.4732    7.4229   23.6034 S   0  0  0  0  0  0  0  0  0  0  0  0
  1 11  4  0
  1 21  4  0
  2  4  1  0
  2  8  1  0
  2 11  1  0
  3 10  4  0
  3 14  4  0
  4  5  1  0
  4 18  2  0
  6 12  1  0
  6 17  4  0
  6 23  4  0
  7  9  1  0
  7 13  4  0
  7 19  4  0
  9 20  1  0
 10 19  4  0
 11 25  4  0
 13 14  4  0
 15 16  4  0
 15 17  4  0
 15 21  4  0
 16 24  1  0
 16 25  4  0
 20 24  1  0
 20 26  2  0
 21 23  4  0
 22 23  1  0
M  END
$$$$

 Created by Python create_sdf_string function

 26 30  0  0  0  0  0  0  0  0999 V2000
   12.4180    8.7537   19.4748 N   0  0  0  0  0  0  0  0  0  0  0  0
   11.8298   10.8756   18.7365 N   0  0  0  0  0  0  0  0  0  0  0  0
    6.1780    2.6116   21.1703 C   0  0  0  0  0  0  0  0  0  0  0  0
   10.8015   11.7743   18.5286 C   0  0  0  0  0  0  0  0  0  0  0  0
   11.0071   12.9042   17.5626 C   0  0  0  0  0  0  0  0  0  0  0  0
   12.4027    5.3515   20.8631 C   0  0  0  0  0  0  0  0  0  0  0  0
    7.8416    4.8556   21.7869 C   0  0  0  0  0  0  0  0  0  0  0  0
   13.0232   11.0827   18.1845 C   0  0  0  0  0  0  0  0  0  0  0  0
    8.6989    5.8168   21.9641 N   0  0  0  0  0  0  0  0  0  0  0  0
    5.6234    3.5188   22.0439 C   0  0  0  0  0  0  0  0  0  0  0  0
   11.4479    9.6638   19.4876 C   0  0  0  0  0  0  0  0  0  0  0  0
   12.7889    4.0904   20.9840 C   0  0  0  0  0  0  0  0  0  0  0  0
    8.2461    3.9056   20.9793 C   0  0  0  0  0  0  0  0  0  0  0  0
    7.5292    2.7364   20.6707 C   0  0  0  0  0  0  0  0  0  0  0  0
   11.1762    7.2834   20.8810 C   0  0  0  0  0  0  0  0  0  0  0  0
   10.2208    8.4191   21.0818 C   0  0  0  0  0  0  0  0  0  0  0  0
   11.1510    5.9533   21.2476 N   0  0  0  0  0  0  0  0  0  0  0  0
    9.7088   11.7235   19.0604 O   0  0  0  0  0  0  0  0  0  0  0  0
    6.5186    4.6663   22.2852 C   0  0  0  0  0  0  0  0  0  0  0  0
    8.5372    7.1429   22.4777 C   0  0  0  0  0  0  0  0  0  0  0  0
   12.2920    7.4983   20.0772 C   0  0  0  0  0  0  0  0  0  0  0  0
   13.0878    6.3136   20.0471 N   0  0  0  0  0  0  0  0  0  0  0  0
    9.1965    8.2458   21.9185 N   0  0  0  0  0  0  0  0  0  0  0  0
   10.5102    9.5551   20.3735 C   0  0  0  0  0  0  0  0  0  0  0  0
    7.5248    7.3471   23.6258 S   0  0  0  0  0  0  0  0  0  0  0  0
   14.2454    6.2425   19.4167 He  0  0  0  0  0  0  0  0  0  0  0  0
  1 11  4  0
  1 21  4  0
  2  4  1  0
  2  8  1  0
  2 11  1  0
  3 10  4  0
  4  5  1  0
  4 18  2  0
  6  7  4  0
  6 12  1  0
  6 17  4  0
  6 22  4  0
  7  9  1  0
  7 13  4  0
  7 19  4  0
  8 23  2  0
  9 20  1  0
 10 19  4  0
 11 24  4  0
 12 23  3  0
 13 14  2  0
 14 19  3  0
 15 16  4  0
 15 17  4  0
 15 21  4  0
 16 23  1  0
 16 24  4  0
 20 23  1  0
 20 25  2  0
 21 22  4  0
M  END
$$$$

 Created by Python create_sdf_string function

 26 28  0  0  0  0  0  0  0  0999 V2000
   12.4311    8.7072   19.4379 N   0  0  0  0  0  0  0  0  0  0  0  0
   11.7766   10.8583   18.7405 N   0  0  0  0  0  0  0  0  0  0  0  0
    6.1929    2.6053   21.1579 C   0  0  0  0  0  0  0  0  0  0  0  0
   10.7858   11.8014   18.5133 C   0  0  0  0  0  0  0  0  0  0  0  0
   11.0420   12.8950   17.5662 C   0  0  0  0  0  0  0  0  0  0  0  0
   12.3758    5.4025   20.8088 C   0  0  0  0  0  0  0  0  0  0  0  0
    7.7730    4.8140   21.7910 C   0  0  0  0  0  0  0  0  0  0  0  0
   13.0326   11.0929   18.1586 C   0  0  0  0  0  0  0  0  0  0  0  0
    8.6925    5.8763   21.9856 N   0  0  0  0  0  0  0  0  0  0  0  0
    5.6711    3.5495   22.0285 C   0  0  0  0  0  0  0  0  0  0  0  0
   11.5370    9.7153   19.5200 C   0  0  0  0  0  0  0  0  0  0  0  0
   12.8143    4.0880   20.9826 C   0  0  0  0  0  0  0  0  0  0  0  0
    8.2300    3.8216   20.9729 C   0  0  0  0  0  0  0  0  0  0  0  0
    7.4739    2.7327   20.6511 C   0  0  0  0  0  0  0  0  0  0  0  0
   11.1580    7.3013   20.8500 C   0  0  0  0  0  0  0  0  0  0  0  0
   10.2633    8.3704   21.0569 C   0  0  0  0  0  0  0  0  0  0  0  0
   11.1780    5.9579   21.2758 N   0  0  0  0  0  0  0  0  0  0  0  0
    9.7455   11.7182   19.0589 O   0  0  0  0  0  0  0  0  0  0  0  0
    6.4694    4.6563   22.3208 C   0  0  0  0  0  0  0  0  0  0  0  0
    8.5475    7.1386   22.4235 C   0  0  0  0  0  0  0  0  0  0  0  0
   12.2719    7.5194   20.0734 C   0  0  0  0  0  0  0  0  0  0  0  0
   14.2290    6.2330   19.4291 C   0  0  0  0  0  0  0  0  0  0  0  0
   13.0717    6.3498   20.0616 N   0  0  0  0  0  0  0  0  0  0  0  0
    9.2216    8.2036   21.9308 N   0  0  0  0  0  0  0  0  0  0  0  0
   10.4546    9.5221   20.3647 C   0  0  0  0  0  0  0  0  0  0  0  0
    7.4950    7.3308   23.6078 S   0  0  0  0  0  0  0  0  0  0  0  0
  1 11  4  0
  1 21  4  0
  2  4  1  0
  2  8  1  0
  2 11  1  0
  3 10  4  0
  3 14  4  0
  4  5  1  0
  4 18  2  0
  6 12  1  0
  6 17  4  0
  6 23  4  0
  7  9  1  0
  7 13  4  0
  7 19  4  0
  9 20  1  0
 10 19  4  0
 11 25  4  0
 13 14  4  0
 15 16  4  0
 15 17  4  0
 15 21  4  0
 16 24  1  0
 16 25  4  0
 20 24  1  0
 20 26  2  0
 21 23  4  0
 22 23  1  0
M  END
$$$$

 Created by Python create_sdf_string function

 26 33  0  0  0  0  0  0  0  0999 V2000
   12.5026    8.6781   19.4792 N   0  0  0  0  0  0  0  0  0  0  0  0
   11.8165   10.8410   18.7892 N   0  0  0  0  0  0  0  0  0  0  0  0
    6.1670    2.6632   21.0868 C   0  0  0  0  0  0  0  0  0  0  0  0
   10.7501   11.7870   18.5124 C   0  0  0  0  0  0  0  0  0  0  0  0
   11.0557   12.9409   17.5701 C   0  0  0  0  0  0  0  0  0  0  0  0
   12.3277    5.3763   20.8223 C   0  0  0  0  0  0  0  0  0  0  0  0
    7.8240    4.7776   21.7778 C   0  0  0  0  0  0  0  0  0  0  0  0
   13.0606   11.0533   18.1780 C   0  0  0  0  0  0  0  0  0  0  0  0
    8.6605    5.8997   21.9830 N   0  0  0  0  0  0  0  0  0  0  0  0
    5.6623    3.5701   21.9441 C   0  0  0  0  0  0  0  0  0  0  0  0
   11.4921    9.6540   19.5193 C   0  0  0  0  0  0  0  0  0  0  0  0
   12.8655    4.0668   20.9881 C   0  0  0  0  0  0  0  0  0  0  0  0
    8.1427    3.8165   20.9048 C   0  0  0  0  0  0  0  0  0  0  0  0
    7.4696    2.7001   20.7556 C   0  0  0  0  0  0  0  0  0  0  0  0
   11.1615    7.3067   20.8435 C   0  0  0  0  0  0  0  0  0  0  0  0
   10.2944    8.3973   21.0821 C   0  0  0  0  0  0  0  0  0  0  0  0
   11.2456    5.9100   21.3794 N   0  0  0  0  0  0  0  0  0  0  0  0
    9.7671   11.7343   19.0248 O   0  0  0  0  0  0  0  0  0  0  0  0
    6.5423    4.7513   22.3268 C   0  0  0  0  0  0  0  0  0  0  0  0
    8.5878    7.2180   22.3618 C   0  0  0  0  0  0  0  0  0  0  0  0
   12.2975    7.5178   20.0547 C   0  0  0  0  0  0  0  0  0  0  0  0
   14.1927    6.2239   19.4222 C   0  0  0  0  0  0  0  0  0  0  0  0
   13.0550    6.4228   19.9809 N   0  0  0  0  0  0  0  0  0  0  0  0
   10.4020    9.4822   20.3613 C   0  0  0  0  0  0  0  0  0  0  0  0
    7.4476    7.3201   23.5343 S   0  0  0  0  0  0  0  0  0  0  0  0
    9.1904    8.1950   21.8892 He  0  0  0  0  0  0  0  0  0  0  0  0
  1  4  4  0
  1 11  4  0
  1 21  4  0
  2  4  1  0
  2  8  1  0
  2 11  1  0
  3 10  4  0
  3 13  2  0
  3 14  4  0
  3 21  3  0
  4  5  1  0
  4 14  2  0
  4 18  2  0
  5 10  2  0
  6 12  1  0
  6 17  4  0
  6 23  4  0
  7  9  1  0
  7 13  4  0
  7 19  4  0
  9 20  1  0
 10 19  4  0
 11 24  4  0
 13 14  4  0
 15 16  4  0
 15 17  4  0
 15 21  4  0
 16 19  3  0
 16 24  4  0
 18 25  2  0
 20 25  2  0
 21 23  4  0
 22 23  1  0
M  END
$$$$

 Created by Python create_sdf_string function

 26 28  0  0  0  0  0  0  0  0999 V2000
   12.4607    8.6925   19.4310 N   0  0  0  0  0  0  0  0  0  0  0  0
   11.7976   10.8486   18.7583 N   0  0  0  0  0  0  0  0  0  0  0  0
    6.1593    2.6527   21.1266 C   0  0  0  0  0  0  0  0  0  0  0  0
   10.7947   11.8091   18.5059 C   0  0  0  0  0  0  0  0  0  0  0  0
   11.1013   12.9185   17.5710 C   0  0  0  0  0  0  0  0  0  0  0  0
   12.3701    5.4059   20.8028 C   0  0  0  0  0  0  0  0  0  0  0  0
    7.7811    4.7968   21.7543 C   0  0  0  0  0  0  0  0  0  0  0  0
   13.0662   11.0661   18.1618 C   0  0  0  0  0  0  0  0  0  0  0  0
    8.6637    5.8582   21.9492 N   0  0  0  0  0  0  0  0  0  0  0  0
    5.6674    3.6006   21.9659 C   0  0  0  0  0  0  0  0  0  0  0  0
   11.5504    9.6863   19.5236 C   0  0  0  0  0  0  0  0  0  0  0  0
   12.8513    4.0919   20.9810 C   0  0  0  0  0  0  0  0  0  0  0  0
    8.2266    3.7870   20.9459 C   0  0  0  0  0  0  0  0  0  0  0  0
    7.4514    2.7025   20.6514 C   0  0  0  0  0  0  0  0  0  0  0  0
   11.1668    7.2972   20.8651 C   0  0  0  0  0  0  0  0  0  0  0  0
   10.2609    8.3607   21.0545 C   0  0  0  0  0  0  0  0  0  0  0  0
   11.2095    5.9527   21.3176 N   0  0  0  0  0  0  0  0  0  0  0  0
    9.7627   11.7371   19.0226 O   0  0  0  0  0  0  0  0  0  0  0  0
    6.4940    4.6857   22.3012 C   0  0  0  0  0  0  0  0  0  0  0  0
    8.5152    7.1370   22.3876 C   0  0  0  0  0  0  0  0  0  0  0  0
   12.2603    7.5197   20.0713 C   0  0  0  0  0  0  0  0  0  0  0  0
   14.2100    6.2095   19.4008 C   0  0  0  0  0  0  0  0  0  0  0  0
   13.0376    6.3632   20.0375 N   0  0  0  0  0  0  0  0  0  0  0  0
    9.2026    8.2109   21.9349 N   0  0  0  0  0  0  0  0  0  0  0  0
   10.4522    9.4982   20.3515 C   0  0  0  0  0  0  0  0  0  0  0  0
    7.4336    7.3101   23.5066 S   0  0  0  0  0  0  0  0  0  0  0  0
  1 11  4  0
  1 21  4  0
  2  4  1  0
  2  8  1  0
  2 11  1  0
  3 10  4  0
  3 14  4  0
  4  5  1  0
  4 18  2  0
  6 12  1  0
  6 17  4  0
  6 23  4  0
  7  9  1  0
  7 13  4  0
  7 19  4  0
  9 20  1  0
 10 19  4  0
 11 25  4  0
 13 14  4  0
 15 16  4  0
 15 17  4  0
 15 21  4  0
 16 24  1  0
 16 25  4  0
 20 24  1  0
 20 26  2  0
 21 23  4  0
 22 23  1  0
M  END
$$$$

 Created by Python create_sdf_string function

 26 31  0  0  0  0  0  0  0  0999 V2000
   12.4662    8.6964   19.4420 N   0  0  0  0  0  0  0  0  0  0  0  0
   11.7499   10.8214   18.7572 N   0  0  0  0  0  0  0  0  0  0  0  0
    6.1614    2.6636   21.1048 C   0  0  0  0  0  0  0  0  0  0  0  0
   10.7709   11.7407   18.5529 C   0  0  0  0  0  0  0  0  0  0  0  0
   11.1468   12.8870   17.5440 C   0  0  0  0  0  0  0  0  0  0  0  0
   12.4076    5.3856   20.8356 C   0  0  0  0  0  0  0  0  0  0  0  0
    7.8083    4.8069   21.7421 C   0  0  0  0  0  0  0  0  0  0  0  0
   13.0202   11.1301   18.1159 C   0  0  0  0  0  0  0  0  0  0  0  0
    8.6743    5.8633   21.9123 N   0  0  0  0  0  0  0  0  0  0  0  0
    5.6648    3.5289   21.9202 C   0  0  0  0  0  0  0  0  0  0  0  0
   11.5048    9.6481   19.5193 Br  0  0  0  0  0  0  0  0  0  0  0  0
   12.8493    4.1021   20.9699 C   0  0  0  0  0  0  0  0  0  0  0  0
    8.2388    3.7600   20.9201 C   0  0  0  0  0  0  0  0  0  0  0  0
    7.4780    2.7043   20.6397 C   0  0  0  0  0  0  0  0  0  0  0  0
   11.2037    7.2623   20.8626 C   0  0  0  0  0  0  0  0  0  0  0  0
   10.2830    8.4101   21.0133 C   0  0  0  0  0  0  0  0  0  0  0  0
   11.2038    5.9146   21.3389 N   0  0  0  0  0  0  0  0  0  0  0  0
    9.7322   11.6959   19.0390 O   0  0  0  0  0  0  0  0  0  0  0  0
    6.4343    4.7085   22.3202 C   0  0  0  0  0  0  0  0  0  0  0  0
    8.4840    7.1289   22.4013 C   0  0  0  0  0  0  0  0  0  0  0  0
   12.2317    7.5181   20.0771 C   0  0  0  0  0  0  0  0  0  0  0  0
   14.3106    6.2334   19.3660 C   0  0  0  0  0  0  0  0  0  0  0  0
   13.0339    6.3956   20.1026 N   0  0  0  0  0  0  0  0  0  0  0  0
    9.1820    8.2602   21.9840 N   0  0  0  0  0  0  0  0  0  0  0  0
   10.4382    9.4543   20.3340 C   0  0  0  0  0  0  0  0  0  0  0  0
    7.4479    7.2632   23.5226 S   0  0  0  0  0  0  0  0  0  0  0  0
  1 11  4  0
  1 21  4  0
  2  4  1  0
  2  8  1  0
  2 11  1  0
  3 10  4  0
  3 14  4  0
  4  5  1  0
  4 18  2  0
  6 12  1  0
  6 17  4  0
  6 23  4  0
  7  9  1  0
  7 13  4  0
  7 19  4  0
  9 20  1  0
  9 21  3  0
 10 19  4  0
 11 12  3  0
 11 15  2  0
 11 25  4  0
 13 14  4  0
 15 16  4  0
 15 17  4  0
 15 21  4  0
 16 24  1  0
 16 25  4  0
 20 24  1  0
 20 26  2  0
 21 23  4  0
 22 23  1  0
M  END
$$$$

 Created by Python create_sdf_string function

 26 28  0  0  0  0  0  0  0  0999 V2000
   12.4513    8.6855   19.4282 N   0  0  0  0  0  0  0  0  0  0  0  0
   11.7837   10.8163   18.7405 N   0  0  0  0  0  0  0  0  0  0  0  0
    6.1588    2.6286   21.0945 C   0  0  0  0  0  0  0  0  0  0  0  0
   10.7993   11.7827   18.5096 C   0  0  0  0  0  0  0  0  0  0  0  0
   11.1606   12.8659   17.5628 C   0  0  0  0  0  0  0  0  0  0  0  0
   12.3984    5.4123   20.8156 C   0  0  0  0  0  0  0  0  0  0  0  0
    7.7766    4.7794   21.7306 C   0  0  0  0  0  0  0  0  0  0  0  0
   13.0313   11.1264   18.1063 C   0  0  0  0  0  0  0  0  0  0  0  0
    8.6580    5.8536   21.9085 N   0  0  0  0  0  0  0  0  0  0  0  0
    5.6495    3.5647   21.9472 C   0  0  0  0  0  0  0  0  0  0  0  0
   11.5438    9.6760   19.5008 C   0  0  0  0  0  0  0  0  0  0  0  0
   12.8603    4.1004   20.9752 C   0  0  0  0  0  0  0  0  0  0  0  0
    8.2420    3.7501   20.9328 C   0  0  0  0  0  0  0  0  0  0  0  0
    7.4528    2.6777   20.6055 C   0  0  0  0  0  0  0  0  0  0  0  0
   11.1616    7.2843   20.8604 C   0  0  0  0  0  0  0  0  0  0  0  0
   10.2639    8.3426   21.0483 C   0  0  0  0  0  0  0  0  0  0  0  0
   11.1976    5.9451   21.3093 N   0  0  0  0  0  0  0  0  0  0  0  0
    9.7587   11.7040   19.0299 O   0  0  0  0  0  0  0  0  0  0  0  0
    6.4612    4.6620   22.2753 C   0  0  0  0  0  0  0  0  0  0  0  0
    8.4871    7.0959   22.3855 C   0  0  0  0  0  0  0  0  0  0  0  0
   12.2704    7.5112   20.0782 C   0  0  0  0  0  0  0  0  0  0  0  0
   14.2707    6.2410   19.3954 C   0  0  0  0  0  0  0  0  0  0  0  0
   13.0743    6.3643   20.0648 N   0  0  0  0  0  0  0  0  0  0  0  0
    9.2068    8.1841   21.9496 N   0  0  0  0  0  0  0  0  0  0  0  0
   10.4543    9.4860   20.3337 C   0  0  0  0  0  0  0  0  0  0  0  0
    7.4300    7.2560   23.4978 S   0  0  0  0  0  0  0  0  0  0  0  0
  1 11  4  0
  1 21  4  0
  2  4  1  0
  2  8  1  0
  2 11  1  0
  3 10  4  0
  3 14  4  0
  4  5  1  0
  4 18  2  0
  6 12  1  0
  6 17  4  0
  6 23  4  0
  7  9  1  0
  7 13  4  0
  7 19  4  0
  9 20  1  0
 10 19  4  0
 11 25  4  0
 13 14  4  0
 15 16  4  0
 15 17  4  0
 15 21  4  0
 16 24  1  0
 16 25  4  0
 20 24  1  0
 20 26  2  0
 21 23  4  0
 22 23  1  0
M  END
$$$$

 Created by Python create_sdf_string function

 26 31  0  0  0  0  0  0  0  0999 V2000
   12.4285    8.6961   19.4618 N   0  0  0  0  0  0  0  0  0  0  0  0
   11.7559   10.8173   18.7154 N   0  0  0  0  0  0  0  0  0  0  0  0
    6.1411    2.6150   21.0804 C   0  0  0  0  0  0  0  0  0  0  0  0
   10.8260   11.8241   18.5063 C   0  0  0  0  0  0  0  0  0  0  0  0
   11.1370   12.8814   17.5711 C   0  0  0  0  0  0  0  0  0  0  0  0
   12.4246    5.3837   20.7923 C   0  0  0  0  0  0  0  0  0  0  0  0
    7.7510    4.7920   21.6923 C   0  0  0  0  0  0  0  0  0  0  0  0
   13.0211   11.0906   18.0937 C   0  0  0  0  0  0  0  0  0  0  0  0
    8.6697    5.8902   21.9514 N   0  0  0  0  0  0  0  0  0  0  0  0
    5.6482    3.5524   21.9211 C   0  0  0  0  0  0  0  0  0  0  0  0
   11.5438    9.6335   19.5185 C   0  0  0  0  0  0  0  0  0  0  0  0
   12.9042    4.1105   20.9678 C   0  0  0  0  0  0  0  0  0  0  0  0
    8.2314    3.7195   20.9503 C   0  0  0  0  0  0  0  0  0  0  0  0
    7.5324    2.6851   20.6569 C   0  0  0  0  0  0  0  0  0  0  0  0
   11.1593    7.3449   20.8444 C   0  0  0  0  0  0  0  0  0  0  0  0
   10.2415    8.3551   21.0422 C   0  0  0  0  0  0  0  0  0  0  0  0
   11.2238    5.9241   21.3214 N   0  0  0  0  0  0  0  0  0  0  0  0
    9.7229   11.7037   19.0229 O   0  0  0  0  0  0  0  0  0  0  0  0
    6.5061    4.6714   22.2990 S   0  0  0  0  0  0  0  0  0  0  0  0
    8.4696    7.0708   22.3807 C   0  0  0  0  0  0  0  0  0  0  0  0
   12.2370    7.4539   20.1345 C   0  0  0  0  0  0  0  0  0  0  0  0
   14.2665    6.2516   19.4299 C   0  0  0  0  0  0  0  0  0  0  0  0
   13.0187    6.3470   20.0265 N   0  0  0  0  0  0  0  0  0  0  0  0
    9.2124    8.1498   21.9192 N   0  0  0  0  0  0  0  0  0  0  0  0
   10.4541    9.4325   20.2643 C   0  0  0  0  0  0  0  0  0  0  0  0
    7.4213    7.2629   23.5092 S   0  0  0  0  0  0  0  0  0  0  0  0
  1 11  4  0
  1 21  4  0
  2  4  1  0
  2  8  1  0
  2 11  1  0
  3 10  4  0
  3 14  4  0
  4  5  1  0
  4 14  2  0
  4 18  2  0
  6 12  1  0
  6 17  4  0
  6 21  1  0
  6 23  4  0
  7  9  1  0
  7 13  4  0
  7 19  4  0
  9 16  1  0
  9 20  1  0
 10 19  4  0
 11 25  4  0
 13 14  4  0
 15 16  4  0
 15 17  4  0
 15 21  4  0
 16 24  1  0
 16 25  4  0
 20 24  1  0
 20 26  2  0
 21 23  4  0
 22 23  1  0
M  END
$$$$

 Created by Python create_sdf_string function

 26 28  0  0  0  0  0  0  0  0999 V2000
   12.4494    8.6734   19.4380 N   0  0  0  0  0  0  0  0  0  0  0  0
   11.7801   10.8160   18.7154 N   0  0  0  0  0  0  0  0  0  0  0  0
    6.1616    2.6013   21.0806 C   0  0  0  0  0  0  0  0  0  0  0  0
   10.8178   11.7995   18.4961 C   0  0  0  0  0  0  0  0  0  0  0  0
   11.1576   12.8781   17.5769 C   0  0  0  0  0  0  0  0  0  0  0  0
   12.3972    5.4192   20.7907 C   0  0  0  0  0  0  0  0  0  0  0  0
    7.7668    4.7546   21.7209 C   0  0  0  0  0  0  0  0  0  0  0  0
   13.0261   11.0851   18.0883 C   0  0  0  0  0  0  0  0  0  0  0  0
    8.6371    5.8314   21.9041 N   0  0  0  0  0  0  0  0  0  0  0  0
    5.6634    3.5532   21.9199 C   0  0  0  0  0  0  0  0  0  0  0  0
   11.5417    9.6575   19.4936 C   0  0  0  0  0  0  0  0  0  0  0  0
   12.8884    4.1170   20.9697 C   0  0  0  0  0  0  0  0  0  0  0  0
    8.2533    3.7226   20.9436 C   0  0  0  0  0  0  0  0  0  0  0  0
    7.4717    2.6520   20.6166 C   0  0  0  0  0  0  0  0  0  0  0  0
   11.1456    7.2831   20.8535 C   0  0  0  0  0  0  0  0  0  0  0  0
   10.2484    8.3337   21.0227 C   0  0  0  0  0  0  0  0  0  0  0  0
   11.2116    5.9516   21.2957 N   0  0  0  0  0  0  0  0  0  0  0  0
    9.7679   11.7038   19.0175 O   0  0  0  0  0  0  0  0  0  0  0  0
    6.4643    4.6482   22.2594 C   0  0  0  0  0  0  0  0  0  0  0  0
    8.4882    7.0743   22.3618 C   0  0  0  0  0  0  0  0  0  0  0  0
   12.2501    7.5009   20.0735 C   0  0  0  0  0  0  0  0  0  0  0  0
   14.2656    6.2422   19.4147 C   0  0  0  0  0  0  0  0  0  0  0  0
   13.0637    6.3544   20.0377 N   0  0  0  0  0  0  0  0  0  0  0  0
    9.2043    8.1318   21.9059 N   0  0  0  0  0  0  0  0  0  0  0  0
   10.4490    9.4724   20.3030 C   0  0  0  0  0  0  0  0  0  0  0  0
    7.4074    7.2602   23.4862 S   0  0  0  0  0  0  0  0  0  0  0  0
  1 11  4  0
  1 21  4  0
  2  4  1  0
  2  8  1  0
  2 11  1  0
  3 10  4  0
  3 14  4  0
  4  5  1  0
  4 18  2  0
  6 12  1  0
  6 17  4  0
  6 23  4  0
  7  9  1  0
  7 13  4  0
  7 19  4  0
  9 20  1  0
 10 19  4  0
 11 25  4  0
 13 14  4  0
 15 16  4  0
 15 17  4  0
 15 21  4  0
 16 24  1  0
 16 25  4  0
 20 24  1  0
 20 26  2  0
 21 23  4  0
 22 23  1  0
M  END
$$$$

 Created by Python create_sdf_string function

 26 29  0  0  0  0  0  0  0  0999 V2000
   12.4980    8.6819   19.4207 N   0  0  0  0  0  0  0  0  0  0  0  0
   11.7976   10.8211   18.6685 N   0  0  0  0  0  0  0  0  0  0  0  0
    6.2013    2.6345   21.0723 C   0  0  0  0  0  0  0  0  0  0  0  0
   10.8651   11.7783   18.5257 C   0  0  0  0  0  0  0  0  0  0  0  0
   11.1431   12.8762   17.5893 C   0  0  0  0  0  0  0  0  0  0  0  0
   12.4139    5.4034   20.7819 C   0  0  0  0  0  0  0  0  0  0  0  0
    7.7914    4.7366   21.7095 C   0  0  0  0  0  0  0  0  0  0  0  0
   13.0390   11.0298   18.0809 C   0  0  0  0  0  0  0  0  0  0  0  0
    8.6480    5.8257   21.9024 N   0  0  0  0  0  0  0  0  0  0  0  0
    5.6530    3.5592   21.9179 C   0  0  0  0  0  0  0  0  0  0  0  0
   11.5261    9.6860   19.4942 C   0  0  0  0  0  0  0  0  0  0  0  0
   12.8985    4.1339   20.9520 C   0  0  0  0  0  0  0  0  0  0  0  0
    8.2189    3.7002   20.9436 C   0  0  0  0  0  0  0  0  0  0  0  0
    7.4382    2.6673   20.6156 C   0  0  0  0  0  0  0  0  0  0  0  0
   11.1400    7.3214   20.7965 C   0  0  0  0  0  0  0  0  0  0  0  0
   10.2374    8.3138   21.0421 C   0  0  0  0  0  0  0  0  0  0  0  0
   11.1998    6.0003   21.3261 N   0  0  0  0  0  0  0  0  0  0  0  0
    9.7229   11.7185   19.0272 O   0  0  0  0  0  0  0  0  0  0  0  0
    6.5326    4.6531   22.2600 C   0  0  0  0  0  0  0  0  0  0  0  0
    8.5183    7.0931   22.3708 C   0  0  0  0  0  0  0  0  0  0  0  0
   12.2167    7.5025   20.0154 C   0  0  0  0  0  0  0  0  0  0  0  0
   13.0703    6.3563   20.0039 N   0  0  0  0  0  0  0  0  0  0  0  0
    9.1858    8.1752   21.9033 N   0  0  0  0  0  0  0  0  0  0  0  0
   10.4582    9.3877   20.3135 C   0  0  0  0  0  0  0  0  0  0  0  0
    7.4301    7.2566   23.4432 S   0  0  0  0  0  0  0  0  0  0  0  0
   14.2913    6.2067   19.4060 He  0  0  0  0  0  0  0  0  0  0  0  0
  1 11  4  0
  1 13  3  0
  1 21  4  0
  2  4  1  0
  2  8  1  0
  2 11  1  0
  3 10  4  0
  3 14  4  0
  4  5  1  0
  4 18  2  0
  5 22  3  0
  6 12  1  0
  6 17  4  0
  6 22  4  0
  7  9  1  0
  7 13  4  0
  7 19  4  0
  9 20  1  0
 10 19  4  0
 11 24  4  0
 13 14  4  0
 15 16  4  0
 15 17  4  0
 15 21  4  0
 16 23  1  0
 16 24  4  0
 20 23  1  0
 20 25  2  0
 21 22  4  0
M  END
$$$$

 Created by Python create_sdf_string function

 26 28  0  0  0  0  0  0  0  0999 V2000
   12.4533    8.6792   19.3954 N   0  0  0  0  0  0  0  0  0  0  0  0
   11.7960   10.8140   18.6962 N   0  0  0  0  0  0  0  0  0  0  0  0
    6.1571    2.6219   21.0825 C   0  0  0  0  0  0  0  0  0  0  0  0
   10.8406   11.7873   18.5024 C   0  0  0  0  0  0  0  0  0  0  0  0
   11.1570   12.8735   17.5963 C   0  0  0  0  0  0  0  0  0  0  0  0
   12.3969    5.4251   20.7805 C   0  0  0  0  0  0  0  0  0  0  0  0
    7.7769    4.7271   21.7167 C   0  0  0  0  0  0  0  0  0  0  0  0
   13.0345   11.0295   18.0771 C   0  0  0  0  0  0  0  0  0  0  0  0
    8.6518    5.8025   21.8984 N   0  0  0  0  0  0  0  0  0  0  0  0
    5.6683    3.5636   21.9226 C   0  0  0  0  0  0  0  0  0  0  0  0
   11.5330    9.6761   19.4779 C   0  0  0  0  0  0  0  0  0  0  0  0
   12.9074    4.1306   20.9510 C   0  0  0  0  0  0  0  0  0  0  0  0
    8.2430    3.6982   20.9313 C   0  0  0  0  0  0  0  0  0  0  0  0
    7.4340    2.6489   20.5956 C   0  0  0  0  0  0  0  0  0  0  0  0
   11.1565    7.2860   20.8158 C   0  0  0  0  0  0  0  0  0  0  0  0
   10.2393    8.3164   21.0193 C   0  0  0  0  0  0  0  0  0  0  0  0
   11.2069    5.9658   21.2784 N   0  0  0  0  0  0  0  0  0  0  0  0
    9.7796   11.7030   19.0287 O   0  0  0  0  0  0  0  0  0  0  0  0
    6.4872    4.6340   22.2554 C   0  0  0  0  0  0  0  0  0  0  0  0
    8.5000    7.0655   22.3411 C   0  0  0  0  0  0  0  0  0  0  0  0
   12.2662    7.5076   20.0257 C   0  0  0  0  0  0  0  0  0  0  0  0
   14.2587    6.1995   19.4093 C   0  0  0  0  0  0  0  0  0  0  0  0
   13.0739    6.3526   20.0090 N   0  0  0  0  0  0  0  0  0  0  0  0
    9.2011    8.1400   21.8933 N   0  0  0  0  0  0  0  0  0  0  0  0
   10.4417    9.4619   20.3163 C   0  0  0  0  0  0  0  0  0  0  0  0
    7.4228    7.2493   23.4271 S   0  0  0  0  0  0  0  0  0  0  0  0
  1 11  4  0
  1 21  4  0
  2  4  1  0
  2  8  1  0
  2 11  1  0
  3 10  4  0
  3 14  4  0
  4  5  1  0
  4 18  2  0
  6 12  1  0
  6 17  4  0
  6 23  4  0
  7  9  1  0
  7 13  4  0
  7 19  4  0
  9 20  1  0
 10 19  4  0
 11 25  4  0
 13 14  4  0
 15 16  4  0
 15 17  4  0
 15 21  4  0
 16 24  1  0
 16 25  4  0
 20 24  1  0
 20 26  2  0
 21 23  4  0
 22 23  1  0
M  END
$$$$

 Created by Python create_sdf_string function

 26 30  0  0  0  0  0  0  0  0999 V2000
   12.4418    8.6757   19.3909 N   0  0  0  0  0  0  0  0  0  0  0  0
   11.8061   10.8263   18.6671 N   0  0  0  0  0  0  0  0  0  0  0  0
    6.1203    2.6200   21.0972 C   0  0  0  0  0  0  0  0  0  0  0  0
   10.8557   11.7921   18.4775 C   0  0  0  0  0  0  0  0  0  0  0  0
   11.1661   12.9268   17.5728 C   0  0  0  0  0  0  0  0  0  0  0  0
   12.4145    5.4321   20.8024 C   0  0  0  0  0  0  0  0  0  0  0  0
    7.7667    4.7027   21.6766 C   0  0  0  0  0  0  0  0  0  0  0  0
   13.0512   10.9789   18.0590 C   0  0  0  0  0  0  0  0  0  0  0  0
    8.6376    5.8274   21.9257 N   0  0  0  0  0  0  0  0  0  0  0  0
    5.6944    3.5652   21.8963 C   0  0  0  0  0  0  0  0  0  0  0  0
   11.5539    9.6724   19.4767 C   0  0  0  0  0  0  0  0  0  0  0  0
   12.9326    4.1625   20.9384 C   0  0  0  0  0  0  0  0  0  0  0  0
    8.2361    3.7100   20.9404 C   0  0  0  0  0  0  0  0  0  0  0  0
    7.3945    2.6509   20.5974 C   0  0  0  0  0  0  0  0  0  0  0  0
   11.1599    7.2843   20.8000 C   0  0  0  0  0  0  0  0  0  0  0  0
   10.2667    8.3243   20.9965 C   0  0  0  0  0  0  0  0  0  0  0  0
   11.2360    5.9599   21.2877 N   0  0  0  0  0  0  0  0  0  0  0  0
    9.7506   11.6944   19.0618 O   0  0  0  0  0  0  0  0  0  0  0  0
    6.5103    4.6296   22.2476 C   0  0  0  0  0  0  0  0  0  0  0  0
    8.4939    7.0478   22.3572 C   0  0  0  0  0  0  0  0  0  0  0  0
   12.2316    7.4897   20.0397 C   0  0  0  0  0  0  0  0  0  0  0  0
   14.2263    6.2187   19.3679 C   0  0  0  0  0  0  0  0  0  0  0  0
   13.0760    6.3965   20.0289 N   0  0  0  0  0  0  0  0  0  0  0  0
    9.2237    8.1476   21.8926 N   0  0  0  0  0  0  0  0  0  0  0  0
   10.4499    9.4700   20.3290 C   0  0  0  0  0  0  0  0  0  0  0  0
    7.4461    7.2105   23.3873 S   0  0  0  0  0  0  0  0  0  0  0  0
  1 11  4  0
  1 21  4  0
  2  4  1  0
  2  8  1  0
  2 11  1  0
  3 10  4  0
  3 14  4  0
  4  5  1  0
  4 10  1  0
  4 18  2  0
  4 22  3  0
  6 12  1  0
  6 17  4  0
  6 23  4  0
  7  9  1  0
  7 13  4  0
  7 19  4  0
  9 20  1  0
 10 19  4  0
 11 25  4  0
 13 14  4  0
 15 16  4  0
 15 17  4  0
 15 21  4  0
 16 24  1  0
 16 25  4  0
 20 24  1  0
 20 26  2  0
 21 23  4  0
 22 23  1  0
M  END
$$$$

 Created by Python create_sdf_string function

 26 28  0  0  0  0  0  0  0  0999 V2000
   12.4452    8.6726   19.3864 N   0  0  0  0  0  0  0  0  0  0  0  0
   11.8099   10.8196   18.6750 N   0  0  0  0  0  0  0  0  0  0  0  0
    6.1276    2.6047   21.0796 C   0  0  0  0  0  0  0  0  0  0  0  0
   10.8521   11.7969   18.4838 C   0  0  0  0  0  0  0  0  0  0  0  0
   11.1786   12.9207   17.5721 C   0  0  0  0  0  0  0  0  0  0  0  0
   12.4100    5.4314   20.7914 C   0  0  0  0  0  0  0  0  0  0  0  0
    7.7669    4.7126   21.7059 C   0  0  0  0  0  0  0  0  0  0  0  0
   13.0440   10.9844   18.0530 C   0  0  0  0  0  0  0  0  0  0  0  0
    8.6534    5.7781   21.8946 N   0  0  0  0  0  0  0  0  0  0  0  0
    5.6804    3.5728   21.9160 C   0  0  0  0  0  0  0  0  0  0  0  0
   11.5568    9.6827   19.4581 C   0  0  0  0  0  0  0  0  0  0  0  0
   12.9433    4.1512   20.9433 C   0  0  0  0  0  0  0  0  0  0  0  0
    8.2354    3.6732   20.9130 C   0  0  0  0  0  0  0  0  0  0  0  0
    7.3997    2.6347   20.5852 C   0  0  0  0  0  0  0  0  0  0  0  0
   11.1673    7.2777   20.8138 C   0  0  0  0  0  0  0  0  0  0  0  0
   10.2660    8.3233   21.0023 C   0  0  0  0  0  0  0  0  0  0  0  0
   11.2123    5.9566   21.2726 N   0  0  0  0  0  0  0  0  0  0  0  0
    9.7990   11.6862   19.0535 O   0  0  0  0  0  0  0  0  0  0  0  0
    6.4836    4.6189   22.2402 C   0  0  0  0  0  0  0  0  0  0  0  0
    8.4883    7.0432   22.3410 C   0  0  0  0  0  0  0  0  0  0  0  0
   12.2659    7.5095   20.0272 C   0  0  0  0  0  0  0  0  0  0  0  0
   14.2283    6.2139   19.3768 C   0  0  0  0  0  0  0  0  0  0  0  0
   13.0724    6.3714   20.0217 N   0  0  0  0  0  0  0  0  0  0  0  0
    9.2133    8.1255   21.8876 N   0  0  0  0  0  0  0  0  0  0  0  0
   10.4602    9.4831   20.3072 C   0  0  0  0  0  0  0  0  0  0  0  0
    7.4530    7.2077   23.3599 S   0  0  0  0  0  0  0  0  0  0  0  0
  1 11  4  0
  1 21  4  0
  2  4  1  0
  2  8  1  0
  2 11  1  0
  3 10  4  0
  3 14  4  0
  4  5  1  0
  4 18  2  0
  6 12  1  0
  6 17  4  0
  6 23  4  0
  7  9  1  0
  7 13  4  0
  7 19  4  0
  9 20  1  0
 10 19  4  0
 11 25  4  0
 13 14  4  0
 15 16  4  0
 15 17  4  0
 15 21  4  0
 16 24  1  0
 16 25  4  0
 20 24  1  0
 20 26  2  0
 21 23  4  0
 22 23  1  0
M  END
$$$$

 Created by Python create_sdf_string function

 26 29  0  0  0  0  0  0  0  0999 V2000
   12.4288    8.6630   19.4067 N   0  0  0  0  0  0  0  0  0  0  0  0
   11.7812   10.8572   18.6748 N   0  0  0  0  0  0  0  0  0  0  0  0
    6.1426    2.5887   21.1063 C   0  0  0  0  0  0  0  0  0  0  0  0
   10.8494   11.7849   18.4774 C   0  0  0  0  0  0  0  0  0  0  0  0
   11.1718   12.9435   17.5712 C   0  0  0  0  0  0  0  0  0  0  0  0
   12.3925    5.4491   20.8121 C   0  0  0  0  0  0  0  0  0  0  0  0
    7.7702    4.7041   21.7155 C   0  0  0  0  0  0  0  0  0  0  0  0
   13.0227   10.9757   18.0080 C   0  0  0  0  0  0  0  0  0  0  0  0
    8.6417    5.7806   21.8534 N   0  0  0  0  0  0  0  0  0  0  0  0
    5.6963    3.5647   21.8759 C   0  0  0  0  0  0  0  0  0  0  0  0
   11.5850    9.6876   19.4554 C   0  0  0  0  0  0  0  0  0  0  0  0
   12.9554    4.1447   20.9588 C   0  0  0  0  0  0  0  0  0  0  0  0
    8.2059    3.6750   20.9185 C   0  0  0  0  0  0  0  0  0  0  0  0
    7.4016    2.6409   20.6041 C   0  0  0  0  0  0  0  0  0  0  0  0
   11.1505    7.2925   20.8010 C   0  0  0  0  0  0  0  0  0  0  0  0
   10.2522    8.3144   20.9958 C   0  0  0  0  0  0  0  0  0  0  0  0
   11.2206    5.9522   21.3083 N   0  0  0  0  0  0  0  0  0  0  0  0
    9.7739   11.6825   19.0630 O   0  0  0  0  0  0  0  0  0  0  0  0
    6.5156    4.6359   22.2218 C   0  0  0  0  0  0  0  0  0  0  0  0
    8.4655    7.0397   22.3291 C   0  0  0  0  0  0  0  0  0  0  0  0
   12.2623    7.5255   20.0353 C   0  0  0  0  0  0  0  0  0  0  0  0
   14.2388    6.2058   19.3782 C   0  0  0  0  0  0  0  0  0  0  0  0
   13.0730    6.4112   20.0447 N   0  0  0  0  0  0  0  0  0  0  0  0
    9.2053    8.1047   21.8475 N   0  0  0  0  0  0  0  0  0  0  0  0
   10.4360    9.4579   20.3152 C   0  0  0  0  0  0  0  0  0  0  0  0
    7.4650    7.2152   23.3631 S   0  0  0  0  0  0  0  0  0  0  0  0
  1 10  3  0
  1 11  4  0
  1 21  4  0
  2  4  1  0
  2  8  1  0
  2 11  1  0
  3 10  4  0
  3 14  4  0
  4  5  1  0
  4 18  2  0
  6 12  1  0
  6 17  4  0
  6 23  4  0
  7  9  1  0
  7 13  4  0
  7 19  4  0
  9 20  1  0
 10 19  4  0
 11 25  4  0
 13 14  4  0
 15 16  4  0
 15 17  4  0
 15 21  4  0
 16 24  1  0
 16 25  4  0
 20 24  1  0
 20 26  2  0
 21 23  4  0
 22 23  1  0
M  END
$$$$

 Created by Python create_sdf_string function

 26 28  0  0  0  0  0  0  0  0999 V2000
   12.4394    8.6768   19.4033 N   0  0  0  0  0  0  0  0  0  0  0  0
   11.8030   10.8300   18.6756 N   0  0  0  0  0  0  0  0  0  0  0  0
    6.1351    2.5855   21.0931 C   0  0  0  0  0  0  0  0  0  0  0  0
   10.8531   11.8037   18.4787 C   0  0  0  0  0  0  0  0  0  0  0  0
   11.1856   12.9339   17.5710 C   0  0  0  0  0  0  0  0  0  0  0  0
   12.4058    5.4416   20.8027 C   0  0  0  0  0  0  0  0  0  0  0  0
    7.7657    4.6988   21.7001 C   0  0  0  0  0  0  0  0  0  0  0  0
   13.0162   10.9858   18.0052 C   0  0  0  0  0  0  0  0  0  0  0  0
    8.6524    5.7521   21.8621 N   0  0  0  0  0  0  0  0  0  0  0  0
    5.6860    3.5682   21.9002 C   0  0  0  0  0  0  0  0  0  0  0  0
   11.5547    9.6900   19.4560 C   0  0  0  0  0  0  0  0  0  0  0  0
   12.9589    4.1557   20.9569 C   0  0  0  0  0  0  0  0  0  0  0  0
    8.2248    3.6571   20.9081 C   0  0  0  0  0  0  0  0  0  0  0  0
    7.4044    2.6207   20.5927 C   0  0  0  0  0  0  0  0  0  0  0  0
   11.1607    7.2823   20.8147 C   0  0  0  0  0  0  0  0  0  0  0  0
   10.2505    8.3161   20.9919 C   0  0  0  0  0  0  0  0  0  0  0  0
   11.2031    5.9584   21.2804 N   0  0  0  0  0  0  0  0  0  0  0  0
    9.8127   11.6744   19.0581 O   0  0  0  0  0  0  0  0  0  0  0  0
    6.4794    4.6220   22.2253 C   0  0  0  0  0  0  0  0  0  0  0  0
    8.4707    7.0205   22.3120 C   0  0  0  0  0  0  0  0  0  0  0  0
   12.2691    7.5190   20.0357 C   0  0  0  0  0  0  0  0  0  0  0  0
   14.2431    6.2090   19.3849 C   0  0  0  0  0  0  0  0  0  0  0  0
   13.0734    6.3827   20.0368 N   0  0  0  0  0  0  0  0  0  0  0  0
    9.1931    8.0967   21.8471 N   0  0  0  0  0  0  0  0  0  0  0  0
   10.4447    9.4851   20.2989 C   0  0  0  0  0  0  0  0  0  0  0  0
    7.4658    7.2027   23.3310 S   0  0  0  0  0  0  0  0  0  0  0  0
  1 11  4  0
  1 21  4  0
  2  4  1  0
  2  8  1  0
  2 11  1  0
  3 10  4  0
  3 14  4  0
  4  5  1  0
  4 18  2  0
  6 12  1  0
  6 17  4  0
  6 23  4  0
  7  9  1  0
  7 13  4  0
  7 19  4  0
  9 20  1  0
 10 19  4  0
 11 25  4  0
 13 14  4  0
 15 16  4  0
 15 17  4  0
 15 21  4  0
 16 24  1  0
 16 25  4  0
 20 24  1  0
 20 26  2  0
 21 23  4  0
 22 23  1  0
M  END
$$$$

 Created by Python create_sdf_string function

 26 30  0  0  0  0  0  0  0  0999 V2000
   12.4361    8.6841   19.4121 N   0  0  0  0  0  0  0  0  0  0  0  0
   11.8259   10.8517   18.6802 N   0  0  0  0  0  0  0  0  0  0  0  0
    6.1439    2.5910   21.0941 C   0  0  0  0  0  0  0  0  0  0  0  0
   10.8556   11.8068   18.4817 C   0  0  0  0  0  0  0  0  0  0  0  0
   11.1725   12.9317   17.5787 C   0  0  0  0  0  0  0  0  0  0  0  0
   12.4026    5.4412   20.7979 C   0  0  0  0  0  0  0  0  0  0  0  0
    7.7680    4.6862   21.7166 C   0  0  0  0  0  0  0  0  0  0  0  0
   13.0245   10.9794   18.0086 C   0  0  0  0  0  0  0  0  0  0  0  0
    8.6444    5.7674   21.8708 N   0  0  0  0  0  0  0  0  0  0  0  0
    5.7006    3.5665   21.8960 C   0  0  0  0  0  0  0  0  0  0  0  0
   11.5494    9.6704   19.4660 C   0  0  0  0  0  0  0  0  0  0  0  0
   12.9459    4.1511   20.9408 C   0  0  0  0  0  0  0  0  0  0  0  0
    8.2116    3.6605   20.9118 C   0  0  0  0  0  0  0  0  0  0  0  0
    7.4149    2.6431   20.5899 C   0  0  0  0  0  0  0  0  0  0  0  0
   11.1618    7.2976   20.8039 C   0  0  0  0  0  0  0  0  0  0  0  0
   10.2537    8.3198   20.9970 C   0  0  0  0  0  0  0  0  0  0  0  0
   11.1628    5.9637   21.2755 N   0  0  0  0  0  0  0  0  0  0  0  0
    9.8193   11.6892   19.0524 O   0  0  0  0  0  0  0  0  0  0  0  0
    6.4834    4.6247   22.2326 C   0  0  0  0  0  0  0  0  0  0  0  0
    8.4860    7.0388   22.3152 C   0  0  0  0  0  0  0  0  0  0  0  0
   12.2802    7.5146   20.0036 C   0  0  0  0  0  0  0  0  0  0  0  0
   14.2514    6.2190   19.3830 C   0  0  0  0  0  0  0  0  0  0  0  0
   13.0671    6.3845   20.0447 N   0  0  0  0  0  0  0  0  0  0  0  0
    9.2050    8.0921   21.8726 N   0  0  0  0  0  0  0  0  0  0  0  0
   10.4497    9.4783   20.3042 C   0  0  0  0  0  0  0  0  0  0  0  0
    7.4622    7.1912   23.3033 S   0  0  0  0  0  0  0  0  0  0  0  0
  1 11  4  0
  1 21  4  0
  2  4  1  0
  2  8  1  0
  2 11  1  0
  3 10  4  0
  3 14  4  0
  4  5  1  0
  4 18  2  0
  5 17  2  0
  6 12  1  0
  6 17  4  0
  6 23  4  0
  7  9  1  0
  7 13  4  0
  7 19  4  0
  9 18  4  0
  9 20  1  0
 10 19  4  0
 11 25  4  0
 13 14  4  0
 15 16  4  0
 15 17  4  0
 15 21  4  0
 16 24  1  0
 16 25  4  0
 20 24  1  0
 20 26  2  0
 21 23  4  0
 22 23  1  0
M  END
$$$$

 Created by Python create_sdf_string function

 26 28  0  0  0  0  0  0  0  0999 V2000
   12.4475    8.6820   19.3969 N   0  0  0  0  0  0  0  0  0  0  0  0
   11.8157   10.8324   18.6842 N   0  0  0  0  0  0  0  0  0  0  0  0
    6.1392    2.5872   21.0856 C   0  0  0  0  0  0  0  0  0  0  0  0
   10.8660   11.8083   18.4864 C   0  0  0  0  0  0  0  0  0  0  0  0
   11.1907   12.9242   17.5784 C   0  0  0  0  0  0  0  0  0  0  0  0
   12.3927    5.4376   20.7913 C   0  0  0  0  0  0  0  0  0  0  0  0
    7.7630    4.6851   21.7060 C   0  0  0  0  0  0  0  0  0  0  0  0
   13.0192   10.9864   18.0068 C   0  0  0  0  0  0  0  0  0  0  0  0
    8.6532    5.7422   21.8790 N   0  0  0  0  0  0  0  0  0  0  0  0
    5.6848    3.5582   21.9077 C   0  0  0  0  0  0  0  0  0  0  0  0
   11.5615    9.6878   19.4564 C   0  0  0  0  0  0  0  0  0  0  0  0
   12.9517    4.1584   20.9385 C   0  0  0  0  0  0  0  0  0  0  0  0
    8.2289    3.6552   20.9098 C   0  0  0  0  0  0  0  0  0  0  0  0
    7.4086    2.6204   20.5809 C   0  0  0  0  0  0  0  0  0  0  0  0
   11.1597    7.2874   20.8019 C   0  0  0  0  0  0  0  0  0  0  0  0
   10.2540    8.3195   20.9941 C   0  0  0  0  0  0  0  0  0  0  0  0
   11.1826    5.9587   21.2566 N   0  0  0  0  0  0  0  0  0  0  0  0
    9.8427   11.6800   19.0574 O   0  0  0  0  0  0  0  0  0  0  0  0
    6.4761    4.6145   22.2318 C   0  0  0  0  0  0  0  0  0  0  0  0
    8.4736    7.0165   22.3097 C   0  0  0  0  0  0  0  0  0  0  0  0
   12.2734    7.5189   20.0263 C   0  0  0  0  0  0  0  0  0  0  0  0
   14.2547    6.2168   19.3876 C   0  0  0  0  0  0  0  0  0  0  0  0
   13.0741    6.3741   20.0309 N   0  0  0  0  0  0  0  0  0  0  0  0
    9.2043    8.0895   21.8590 N   0  0  0  0  0  0  0  0  0  0  0  0
   10.4563    9.4820   20.2974 C   0  0  0  0  0  0  0  0  0  0  0  0
    7.4776    7.1783   23.2615 S   0  0  0  0  0  0  0  0  0  0  0  0
  1 11  4  0
  1 21  4  0
  2  4  1  0
  2  8  1  0
  2 11  1  0
  3 10  4  0
  3 14  4  0
  4  5  1  0
  4 18  2  0
  6 12  1  0
  6 17  4  0
  6 23  4  0
  7  9  1  0
  7 13  4  0
  7 19  4  0
  9 20  1  0
 10 19  4  0
 11 25  4  0
 13 14  4  0
 15 16  4  0
 15 17  4  0
 15 21  4  0
 16 24  1  0
 16 25  4  0
 20 24  1  0
 20 26  2  0
 21 23  4  0
 22 23  1  0
M  END
$$$$

 Created by Python create_sdf_string function

 26 28  0  0  0  0  0  0  0  0999 V2000
   12.4403    8.6737   19.4046 N   0  0  0  0  0  0  0  0  0  0  0  0
   11.8040   10.8305   18.6878 N   0  0  0  0  0  0  0  0  0  0  0  0
    6.1374    2.5827   21.0813 C   0  0  0  0  0  0  0  0  0  0  0  0
   10.8617   11.8058   18.4902 C   0  0  0  0  0  0  0  0  0  0  0  0
   11.1918   12.9235   17.5714 C   0  0  0  0  0  0  0  0  0  0  0  0
   12.3900    5.4382   20.7833 C   0  0  0  0  0  0  0  0  0  0  0  0
    7.7634    4.7041   21.7108 C   0  0  0  0  0  0  0  0  0  0  0  0
   13.0096   10.9941   18.0094 C   0  0  0  0  0  0  0  0  0  0  0  0
    8.6589    5.7443   21.8808 N   0  0  0  0  0  0  0  0  0  0  0  0
    5.6844    3.5379   21.9038 C   0  0  0  0  0  0  0  0  0  0  0  0
   11.5704    9.6851   19.4694 C   0  0  0  0  0  0  0  0  0  0  0  0
   12.9450    4.1468   20.9261 C   0  0  0  0  0  0  0  0  0  0  0  0
    8.2252    3.6685   20.9005 C   0  0  0  0  0  0  0  0  0  0  0  0
    7.4085    2.6170   20.5672 C   0  0  0  0  0  0  0  0  0  0  0  0
   11.1831    7.2807   20.8092 C   0  0  0  0  0  0  0  0  0  0  0  0
   10.2628    8.3221   21.0079 C   0  0  0  0  0  0  0  0  0  0  0  0
   11.1733    5.9414   21.2595 N   0  0  0  0  0  0  0  0  0  0  0  0
    9.8409   11.6816   19.0553 O   0  0  0  0  0  0  0  0  0  0  0  0
    6.4867    4.6097   22.2290 C   0  0  0  0  0  0  0  0  0  0  0  0
    8.4872    7.0150   22.3044 C   0  0  0  0  0  0  0  0  0  0  0  0
   12.2700    7.5265   20.0263 C   0  0  0  0  0  0  0  0  0  0  0  0
   14.2499    6.2324   19.4006 C   0  0  0  0  0  0  0  0  0  0  0  0
   13.0728    6.3691   20.0393 N   0  0  0  0  0  0  0  0  0  0  0  0
    9.1964    8.0981   21.8595 N   0  0  0  0  0  0  0  0  0  0  0  0
   10.4689    9.4834   20.2949 C   0  0  0  0  0  0  0  0  0  0  0  0
    7.4869    7.1784   23.2601 S   0  0  0  0  0  0  0  0  0  0  0  0
  1 11  4  0
  1 21  4  0
  2  4  1  0
  2  8  1  0
  2 11  1  0
  3 10  4  0
  3 14  4  0
  4  5  1  0
  4 18  2  0
  6 12  1  0
  6 17  4  0
  6 23  4  0
  7  9  1  0
  7 13  4  0
  7 19  1  0
  9 20  1  0
 10 19  4  0
 11 25  4  0
 13 14  4  0
 15 16  4  0
 15 17  4  0
 15 21  4  0
 16 24  1  0
 16 25  4  0
 20 24  1  0
 20 26  2  0
 21 23  4  0
 22 23  1  0
M  END
$$$$

 Created by Python create_sdf_string function

 26 28  0  0  0  0  0  0  0  0999 V2000
   12.4525    8.6733   19.4047 N   0  0  0  0  0  0  0  0  0  0  0  0
   11.8183   10.8207   18.6826 N   0  0  0  0  0  0  0  0  0  0  0  0
    6.1246    2.5747   21.0777 C   0  0  0  0  0  0  0  0  0  0  0  0
   10.8801   11.8041   18.4878 C   0  0  0  0  0  0  0  0  0  0  0  0
   11.2022   12.9189   17.5725 C   0  0  0  0  0  0  0  0  0  0  0  0
   12.3858    5.4280   20.7813 C   0  0  0  0  0  0  0  0  0  0  0  0
    7.7642    4.6850   21.7007 C   0  0  0  0  0  0  0  0  0  0  0  0
   13.0085   11.0004   18.0052 C   0  0  0  0  0  0  0  0  0  0  0  0
    8.6798    5.7317   21.8815 N   0  0  0  0  0  0  0  0  0  0  0  0
    5.6777    3.5438   21.9137 C   0  0  0  0  0  0  0  0  0  0  0  0
   11.5733    9.6845   19.4592 C   0  0  0  0  0  0  0  0  0  0  0  0
   12.9483    4.1525   20.9238 C   0  0  0  0  0  0  0  0  0  0  0  0
    8.2264    3.6520   20.8964 C   0  0  0  0  0  0  0  0  0  0  0  0
    7.4037    2.6070   20.5629 C   0  0  0  0  0  0  0  0  0  0  0  0
   11.1572    7.2780   20.8110 C   0  0  0  0  0  0  0  0  0  0  0  0
   10.2616    8.3186   20.9992 C   0  0  0  0  0  0  0  0  0  0  0  0
   11.1694    5.9444   21.2497 N   0  0  0  0  0  0  0  0  0  0  0  0
    9.8599   11.6734   19.0629 O   0  0  0  0  0  0  0  0  0  0  0  0
    6.4688    4.5908   22.2246 C   0  0  0  0  0  0  0  0  0  0  0  0
    8.4806    7.0063   22.3032 C   0  0  0  0  0  0  0  0  0  0  0  0
   12.2717    7.5144   20.0366 C   0  0  0  0  0  0  0  0  0  0  0  0
   14.2476    6.2293   19.4054 C   0  0  0  0  0  0  0  0  0  0  0  0
   13.0703    6.3711   20.0327 N   0  0  0  0  0  0  0  0  0  0  0  0
    9.1994    8.0851   21.8526 N   0  0  0  0  0  0  0  0  0  0  0  0
   10.4721    9.4780   20.3041 C   0  0  0  0  0  0  0  0  0  0  0  0
    7.5171    7.1796   23.2174 O   0  0  0  0  0  0  0  0  0  0  0  0
  1 11  4  0
  1 21  4  0
  2  4  1  0
  2  8  1  0
  2 11  1  0
  3 10  4  0
  3 14  4  0
  4  5  1  0
  4 18  2  0
  6 12  1  0
  6 17  4  0
  6 23  4  0
  7  9  1  0
  7 13  4  0
  7 19  4  0
  9 20  1  0
 10 19  4  0
 11 25  4  0
 13 14  4  0
 15 16  4  0
 15 17  4  0
 15 21  4  0
 16 24  1  0
 16 25  4  0
 20 24  1  0
 20 26  2  0
 21 23  4  0
 22 23  1  0
M  END
$$$$

 Created by Python create_sdf_string function

 26 29  0  0  0  0  0  0  0  0999 V2000
   12.4677    8.6765   19.4018 N   0  0  0  0  0  0  0  0  0  0  0  0
   11.8201   10.8208   18.6857 N   0  0  0  0  0  0  0  0  0  0  0  0
    6.1202    2.5841   21.0814 C   0  0  0  0  0  0  0  0  0  0  0  0
   10.8864   11.8000   18.4847 C   0  0  0  0  0  0  0  0  0  0  0  0
   11.2003   12.9200   17.5673 C   0  0  0  0  0  0  0  0  0  0  0  0
   12.3783    5.4292   20.7931 C   0  0  0  0  0  0  0  0  0  0  0  0
    7.7659    4.6916   21.7091 C   0  0  0  0  0  0  0  0  0  0  0  0
   13.0169   11.0046   18.0183 C   0  0  0  0  0  0  0  0  0  0  0  0
    8.6640    5.7271   21.8805 N   0  0  0  0  0  0  0  0  0  0  0  0
    5.6796    3.5459   21.9129 C   0  0  0  0  0  0  0  0  0  0  0  0
   11.5684    9.6810   19.4483 C   0  0  0  0  0  0  0  0  0  0  0  0
   12.9511    4.1540   20.9342 C   0  0  0  0  0  0  0  0  0  0  0  0
    8.2350    3.6593   20.8892 C   0  0  0  0  0  0  0  0  0  0  0  0
    7.4055    2.6105   20.5577 C   0  0  0  0  0  0  0  0  0  0  0  0
   11.1494    7.2821   20.8169 C   0  0  0  0  0  0  0  0  0  0  0  0
   10.2586    8.3134   20.9849 C   0  0  0  0  0  0  0  0  0  0  0  0
   11.1639    5.9391   21.2483 N   0  0  0  0  0  0  0  0  0  0  0  0
    9.8612   11.6787   19.0612 O   0  0  0  0  0  0  0  0  0  0  0  0
    6.4649    4.5888   22.2227 C   0  0  0  0  0  0  0  0  0  0  0  0
    8.4750    7.0115   22.2988 C   0  0  0  0  0  0  0  0  0  0  0  0
   12.2857    7.5192   20.0463 C   0  0  0  0  0  0  0  0  0  0  0  0
   14.2562    6.2226   19.4142 C   0  0  0  0  0  0  0  0  0  0  0  0
   13.0610    6.3688   20.0392 N   0  0  0  0  0  0  0  0  0  0  0  0
    9.1917    8.0839   21.8574 N   0  0  0  0  0  0  0  0  0  0  0  0
   10.4723    9.4849   20.3056 C   0  0  0  0  0  0  0  0  0  0  0  0
    7.5218    7.1840   23.2128 O   0  0  0  0  0  0  0  0  0  0  0  0
  1 11  4  0
  1 21  4  0
  2  4  1  0
  2  8  1  0
  2 11  1  0
  3 10  4  0
  3 14  4  0
  4  5  1  0
  4 18  2  0
  6 12  1  0
  6 17  4  0
  6 23  4  0
  7  9  1  0
  7 13  4  0
  7 19  4  0
  9 13  1  0
  9 20  1  0
 10 19  4  0
 11 25  4  0
 13 14  4  0
 15 16  4  0
 15 17  4  0
 15 21  4  0
 16 24  1  0
 16 25  4  0
 20 24  1  0
 20 26  2  0
 21 23  4  0
 22 23  1  0
M  END
$$$$

 Created by Python create_sdf_string function

 26 28  0  0  0  0  0  0  0  0999 V2000
   12.4600    8.6707   19.4117 N   0  0  0  0  0  0  0  0  0  0  0  0
   11.8275   10.8136   18.6813 N   0  0  0  0  0  0  0  0  0  0  0  0
    6.1139    2.5652   21.0684 C   0  0  0  0  0  0  0  0  0  0  0  0
   10.8990   11.8002   18.4835 C   0  0  0  0  0  0  0  0  0  0  0  0
   11.2104   12.9171   17.5678 C   0  0  0  0  0  0  0  0  0  0  0  0
   12.3827    5.4247   20.7840 C   0  0  0  0  0  0  0  0  0  0  0  0
    7.7456    4.6709   21.7016 C   0  0  0  0  0  0  0  0  0  0  0  0
   13.0212   11.0081   18.0105 C   0  0  0  0  0  0  0  0  0  0  0  0
    8.6522    5.7279   21.8822 N   0  0  0  0  0  0  0  0  0  0  0  0
    5.6621    3.5334   21.9150 C   0  0  0  0  0  0  0  0  0  0  0  0
   11.5805    9.6816   19.4528 C   0  0  0  0  0  0  0  0  0  0  0  0
   12.9616    4.1521   20.9288 C   0  0  0  0  0  0  0  0  0  0  0  0
    8.2120    3.6329   20.8896 C   0  0  0  0  0  0  0  0  0  0  0  0
    7.3933    2.5828   20.5446 C   0  0  0  0  0  0  0  0  0  0  0  0
   11.1554    7.2791   20.8061 C   0  0  0  0  0  0  0  0  0  0  0  0
   10.2557    8.3214   20.9885 C   0  0  0  0  0  0  0  0  0  0  0  0
   11.1675    5.9403   21.2442 N   0  0  0  0  0  0  0  0  0  0  0  0
    9.8796   11.6732   19.0667 O   0  0  0  0  0  0  0  0  0  0  0  0
    6.4578    4.5899   22.2315 C   0  0  0  0  0  0  0  0  0  0  0  0
    8.4641    7.0083   22.3041 C   0  0  0  0  0  0  0  0  0  0  0  0
   12.2740    7.5129   20.0426 C   0  0  0  0  0  0  0  0  0  0  0  0
   14.2544    6.2165   19.4196 C   0  0  0  0  0  0  0  0  0  0  0  0
   13.0686    6.3699   20.0382 N   0  0  0  0  0  0  0  0  0  0  0  0
    9.1933    8.0907   21.8431 N   0  0  0  0  0  0  0  0  0  0  0  0
   10.4708    9.4843   20.2922 C   0  0  0  0  0  0  0  0  0  0  0  0
    7.5500    7.1559   23.1551 O   0  0  0  0  0  0  0  0  0  0  0  0
  1 11  4  0
  1 21  4  0
  2  4  1  0
  2  8  1  0
  2 11  1  0
  3 10  4  0
  3 14  4  0
  4  5  1  0
  4 18  2  0
  6 12  1  0
  6 17  4  0
  6 23  4  0
  7  9  1  0
  7 13  4  0
  7 19  4  0
  9 20  1  0
 10 19  4  0
 11 25  4  0
 13 14  4  0
 15 16  4  0
 15 17  4  0
 15 21  4  0
 16 24  1  0
 16 25  4  0
 20 24  1  0
 20 26  2  0
 21 23  4  0
 22 23  1  0
M  END
$$$$

 Created by Python create_sdf_string function

 26 28  0  0  0  0  0  0  0  0999 V2000
   12.4654    8.6731   19.4188 N   0  0  0  0  0  0  0  0  0  0  0  0
   11.8348   10.8171   18.6773 N   0  0  0  0  0  0  0  0  0  0  0  0
    6.1164    2.5628   21.0689 C   0  0  0  0  0  0  0  0  0  0  0  0
   10.8974   11.8051   18.4834 C   0  0  0  0  0  0  0  0  0  0  0  0
   11.2157   12.9134   17.5695 C   0  0  0  0  0  0  0  0  0  0  0  0
   12.3781    5.4219   20.7836 C   0  0  0  0  0  0  0  0  0  0  0  0
    7.7445    4.6707   21.7000 C   0  0  0  0  0  0  0  0  0  0  0  0
   13.0157   11.0087   18.0071 C   0  0  0  0  0  0  0  0  0  0  0  0
    8.6542    5.7234   21.8826 N   0  0  0  0  0  0  0  0  0  0  0  0
    5.6584    3.5301   21.9116 C   0  0  0  0  0  0  0  0  0  0  0  0
   11.5750    9.6812   19.4551 C   0  0  0  0  0  0  0  0  0  0  0  0
   12.9580    4.1532   20.9262 C   0  0  0  0  0  0  0  0  0  0  0  0
    8.2114    3.6320   20.8880 C   0  0  0  0  0  0  0  0  0  0  0  0
    7.3865    2.5798   20.5462 C   0  0  0  0  0  0  0  0  0  0  0  0
   11.1573    7.2804   20.8064 C   0  0  0  0  0  0  0  0  0  0  0  0
   10.2560    8.3201   20.9807 C   0  0  0  0  0  0  0  0  0  0  0  0
   11.1650    5.9396   21.2414 N   0  0  0  0  0  0  0  0  0  0  0  0
    9.8825   11.6746   19.0619 O   0  0  0  0  0  0  0  0  0  0  0  0
    6.4554    4.5891   22.2290 C   0  0  0  0  0  0  0  0  0  0  0  0
    8.4594    7.0071   22.3114 C   0  0  0  0  0  0  0  0  0  0  0  0
   12.2684    7.5174   20.0425 C   0  0  0  0  0  0  0  0  0  0  0  0
   14.2585    6.2190   19.4119 C   0  0  0  0  0  0  0  0  0  0  0  0
   13.0672    6.3744   20.0411 N   0  0  0  0  0  0  0  0  0  0  0  0
    9.1960    8.0943   21.8421 N   0  0  0  0  0  0  0  0  0  0  0  0
   10.4712    9.4845   20.2932 C   0  0  0  0  0  0  0  0  0  0  0  0
    7.5453    7.1511   23.1581 O   0  0  0  0  0  0  0  0  0  0  0  0
  1 11  4  0
  1 21  4  0
  2  4  1  0
  2  8  1  0
  2 11  1  0
  3 10  4  0
  3 14  4  0
  4  5  1  0
  4 18  2  0
  6 12  1  0
  6 17  4  0
  6 23  4  0
  7  9  1  0
  7 13  4  0
  7 19  4  0
  9 20  1  0
 10 19  4  0
 11 25  4  0
 13 14  4  0
 15 16  4  0
 15 17  4  0
 15 21  4  0
 16 24  1  0
 16 25  4  0
 20 24  1  0
 20 26  2  0
 21 23  4  0
 22 23  1  0
M  END
$$$$

 Created by Python create_sdf_string function

 26 28  0  0  0  0  0  0  0  0999 V2000
   12.4616    8.6700   19.4180 N   0  0  0  0  0  0  0  0  0  0  0  0
   11.8329   10.8148   18.6769 N   0  0  0  0  0  0  0  0  0  0  0  0
    6.1021    2.5564   21.0678 C   0  0  0  0  0  0  0  0  0  0  0  0
   10.9097   11.8051   18.4804 C   0  0  0  0  0  0  0  0  0  0  0  0
   11.2280   12.9135   17.5669 C   0  0  0  0  0  0  0  0  0  0  0  0
   12.3782    5.4231   20.7777 C   0  0  0  0  0  0  0  0  0  0  0  0
    7.7365    4.6508   21.6987 C   0  0  0  0  0  0  0  0  0  0  0  0
   13.0186   11.0102   18.0020 C   0  0  0  0  0  0  0  0  0  0  0  0
    8.6628    5.7088   21.8871 N   0  0  0  0  0  0  0  0  0  0  0  0
    5.6516    3.5258   21.9140 C   0  0  0  0  0  0  0  0  0  0  0  0
   11.5863    9.6815   19.4539 C   0  0  0  0  0  0  0  0  0  0  0  0
   12.9648    4.1543   20.9205 C   0  0  0  0  0  0  0  0  0  0  0  0
    8.2089    3.6265   20.8929 C   0  0  0  0  0  0  0  0  0  0  0  0
    7.3827    2.5724   20.5432 C   0  0  0  0  0  0  0  0  0  0  0  0
   11.1529    7.2750   20.8025 C   0  0  0  0  0  0  0  0  0  0  0  0
   10.2573    8.3215   20.9827 C   0  0  0  0  0  0  0  0  0  0  0  0
   11.1606    5.9378   21.2366 N   0  0  0  0  0  0  0  0  0  0  0  0
    9.8932   11.6736   19.0677 O   0  0  0  0  0  0  0  0  0  0  0  0
    6.4470    4.5850   22.2321 C   0  0  0  0  0  0  0  0  0  0  0  0
    8.4619    6.9895   22.2968 C   0  0  0  0  0  0  0  0  0  0  0  0
   12.2747    7.5102   20.0420 C   0  0  0  0  0  0  0  0  0  0  0  0
   14.2544    6.2142   19.4191 C   0  0  0  0  0  0  0  0  0  0  0  0
   13.0695    6.3705   20.0375 N   0  0  0  0  0  0  0  0  0  0  0  0
    9.1913    8.0876   21.8361 N   0  0  0  0  0  0  0  0  0  0  0  0
   10.4739    9.4813   20.2889 C   0  0  0  0  0  0  0  0  0  0  0  0
    7.5551    7.1270   23.1200 O   0  0  0  0  0  0  0  0  0  0  0  0
  1 11  4  0
  1 21  4  0
  2  4  1  0
  2  8  1  0
  2 11  1  0
  3 10  4  0
  3 14  4  0
  4  5  1  0
  4 18  2  0
  6 12  1  0
  6 17  4  0
  6 23  4  0
  7  9  1  0
  7 13  4  0
  7 19  4  0
  9 20  1  0
 10 19  4  0
 11 25  4  0
 13 14  4  0
 15 16  4  0
 15 17  4  0
 15 21  4  0
 16 24  1  0
 16 25  4  0
 20 24  1  0
 20 26  2  0
 21 23  4  0
 22 23  1  0
M  END
$$$$

 Created by Python create_sdf_string function

 26 28  0  0  0  0  0  0  0  0999 V2000
   12.4616    8.6700   19.4180 N   0  0  0  0  0  0  0  0  0  0  0  0
   11.8329   10.8148   18.6769 N   0  0  0  0  0  0  0  0  0  0  0  0
    6.1021    2.5564   21.0678 C   0  0  0  0  0  0  0  0  0  0  0  0
   10.9097   11.8051   18.4804 C   0  0  0  0  0  0  0  0  0  0  0  0
   11.2280   12.9135   17.5669 C   0  0  0  0  0  0  0  0  0  0  0  0
   12.3782    5.4231   20.7777 C   0  0  0  0  0  0  0  0  0  0  0  0
    7.7365    4.6508   21.6987 C   0  0  0  0  0  0  0  0  0  0  0  0
   13.0186   11.0102   18.0020 C   0  0  0  0  0  0  0  0  0  0  0  0
    8.6628    5.7088   21.8871 N   0  0  0  0  0  0  0  0  0  0  0  0
    5.6516    3.5258   21.9140 C   0  0  0  0  0  0  0  0  0  0  0  0
   11.5863    9.6815   19.4539 C   0  0  0  0  0  0  0  0  0  0  0  0
   12.9648    4.1543   20.9205 C   0  0  0  0  0  0  0  0  0  0  0  0
    8.2089    3.6265   20.8929 C   0  0  0  0  0  0  0  0  0  0  0  0
    7.3827    2.5724   20.5432 C   0  0  0  0  0  0  0  0  0  0  0  0
   11.1529    7.2750   20.8025 C   0  0  0  0  0  0  0  0  0  0  0  0
   10.2573    8.3215   20.9827 C   0  0  0  0  0  0  0  0  0  0  0  0
   11.1606    5.9378   21.2366 N   0  0  0  0  0  0  0  0  0  0  0  0
    9.8932   11.6736   19.0677 O   0  0  0  0  0  0  0  0  0  0  0  0
    6.4470    4.5850   22.2321 C   0  0  0  0  0  0  0  0  0  0  0  0
    8.4619    6.9895   22.2968 C   0  0  0  0  0  0  0  0  0  0  0  0
   12.2747    7.5102   20.0420 C   0  0  0  0  0  0  0  0  0  0  0  0
   14.2544    6.2142   19.4191 C   0  0  0  0  0  0  0  0  0  0  0  0
   13.0695    6.3705   20.0375 N   0  0  0  0  0  0  0  0  0  0  0  0
    9.1913    8.0876   21.8361 N   0  0  0  0  0  0  0  0  0  0  0  0
   10.4739    9.4813   20.2889 C   0  0  0  0  0  0  0  0  0  0  0  0
    7.5551    7.1270   23.1200 O   0  0  0  0  0  0  0  0  0  0  0  0
  1 11  4  0
  1 21  4  0
  2  4  1  0
  2  8  1  0
  2 11  1  0
  3 10  4  0
  3 14  4  0
  4  5  1  0
  4 18  2  0
  6 12  1  0
  6 17  4  0
  6 23  4  0
  7  9  1  0
  7 13  4  0
  7 19  4  0
  9 20  1  0
 10 19  4  0
 11 25  4  0
 13 14  4  0
 15 16  4  0
 15 17  4  0
 15 21  4  0
 16 24  1  0
 16 25  4  0
 20 24  1  0
 20 26  2  0
 21 23  4  0
 22 23  1  0
M  END
$$$$

 Created by Python create_sdf_string function

 26 28  0  0  0  0  0  0  0  0999 V2000
   12.4616    8.6700   19.4180 N   0  0  0  0  0  0  0  0  0  0  0  0
   11.8329   10.8148   18.6769 N   0  0  0  0  0  0  0  0  0  0  0  0
    6.1021    2.5564   21.0678 C   0  0  0  0  0  0  0  0  0  0  0  0
   10.9097   11.8051   18.4804 C   0  0  0  0  0  0  0  0  0  0  0  0
   11.2280   12.9135   17.5669 C   0  0  0  0  0  0  0  0  0  0  0  0
   12.3782    5.4231   20.7777 C   0  0  0  0  0  0  0  0  0  0  0  0
    7.7365    4.6508   21.6987 C   0  0  0  0  0  0  0  0  0  0  0  0
   13.0186   11.0102   18.0020 C   0  0  0  0  0  0  0  0  0  0  0  0
    8.6628    5.7088   21.8871 N   0  0  0  0  0  0  0  0  0  0  0  0
    5.6516    3.5258   21.9140 C   0  0  0  0  0  0  0  0  0  0  0  0
   11.5863    9.6815   19.4539 C   0  0  0  0  0  0  0  0  0  0  0  0
   12.9648    4.1543   20.9205 C   0  0  0  0  0  0  0  0  0  0  0  0
    8.2089    3.6265   20.8929 C   0  0  0  0  0  0  0  0  0  0  0  0
    7.3827    2.5724   20.5432 C   0  0  0  0  0  0  0  0  0  0  0  0
   11.1529    7.2750   20.8025 C   0  0  0  0  0  0  0  0  0  0  0  0
   10.2573    8.3215   20.9827 C   0  0  0  0  0  0  0  0  0  0  0  0
   11.1606    5.9378   21.2366 N   0  0  0  0  0  0  0  0  0  0  0  0
    9.8932   11.6736   19.0677 O   0  0  0  0  0  0  0  0  0  0  0  0
    6.4470    4.5850   22.2321 C   0  0  0  0  0  0  0  0  0  0  0  0
    8.4619    6.9895   22.2968 C   0  0  0  0  0  0  0  0  0  0  0  0
   12.2747    7.5102   20.0420 C   0  0  0  0  0  0  0  0  0  0  0  0
   14.2544    6.2142   19.4191 C   0  0  0  0  0  0  0  0  0  0  0  0
   13.0695    6.3705   20.0375 N   0  0  0  0  0  0  0  0  0  0  0  0
    9.1913    8.0876   21.8361 N   0  0  0  0  0  0  0  0  0  0  0  0
   10.4739    9.4813   20.2889 C   0  0  0  0  0  0  0  0  0  0  0  0
    7.5551    7.1270   23.1200 O   0  0  0  0  0  0  0  0  0  0  0  0
  1 11  4  0
  1 21  4  0
  2  4  1  0
  2  8  1  0
  2 11  1  0
  3 10  4  0
  3 14  4  0
  4  5  1  0
  4 18  2  0
  6 12  1  0
  6 17  4  0
  6 23  4  0
  7  9  1  0
  7 13  4  0
  7 19  4  0
  9 20  1  0
 10 19  4  0
 11 25  4  0
 13 14  4  0
 15 16  4  0
 15 17  4  0
 15 21  4  0
 16 24  1  0
 16 25  4  0
 20 24  1  0
 20 26  2  0
 21 23  4  0
 22 23  1  0
M  END
$$$$

 Created by Python create_sdf_string function

 26 28  0  0  0  0  0  0  0  0999 V2000
   12.4616    8.6700   19.4180 N   0  0  0  0  0  0  0  0  0  0  0  0
   11.8329   10.8148   18.6769 N   0  0  0  0  0  0  0  0  0  0  0  0
    6.1021    2.5564   21.0678 C   0  0  0  0  0  0  0  0  0  0  0  0
   10.9097   11.8051   18.4804 C   0  0  0  0  0  0  0  0  0  0  0  0
   11.2280   12.9135   17.5669 C   0  0  0  0  0  0  0  0  0  0  0  0
   12.3782    5.4231   20.7777 C   0  0  0  0  0  0  0  0  0  0  0  0
    7.7365    4.6508   21.6987 C   0  0  0  0  0  0  0  0  0  0  0  0
   13.0186   11.0102   18.0020 C   0  0  0  0  0  0  0  0  0  0  0  0
    8.6628    5.7088   21.8871 N   0  0  0  0  0  0  0  0  0  0  0  0
    5.6516    3.5258   21.9140 C   0  0  0  0  0  0  0  0  0  0  0  0
   11.5863    9.6815   19.4539 C   0  0  0  0  0  0  0  0  0  0  0  0
   12.9648    4.1543   20.9205 C   0  0  0  0  0  0  0  0  0  0  0  0
    8.2089    3.6265   20.8929 C   0  0  0  0  0  0  0  0  0  0  0  0
    7.3827    2.5724   20.5432 C   0  0  0  0  0  0  0  0  0  0  0  0
   11.1529    7.2750   20.8025 C   0  0  0  0  0  0  0  0  0  0  0  0
   10.2573    8.3215   20.9827 C   0  0  0  0  0  0  0  0  0  0  0  0
   11.1606    5.9378   21.2366 N   0  0  0  0  0  0  0  0  0  0  0  0
    9.8932   11.6736   19.0677 O   0  0  0  0  0  0  0  0  0  0  0  0
    6.4470    4.5850   22.2321 C   0  0  0  0  0  0  0  0  0  0  0  0
    8.4619    6.9895   22.2968 C   0  0  0  0  0  0  0  0  0  0  0  0
   12.2747    7.5102   20.0420 C   0  0  0  0  0  0  0  0  0  0  0  0
   14.2544    6.2142   19.4191 C   0  0  0  0  0  0  0  0  0  0  0  0
   13.0695    6.3705   20.0375 N   0  0  0  0  0  0  0  0  0  0  0  0
    9.1913    8.0876   21.8361 N   0  0  0  0  0  0  0  0  0  0  0  0
   10.4739    9.4813   20.2889 C   0  0  0  0  0  0  0  0  0  0  0  0
    7.5551    7.1270   23.1200 O   0  0  0  0  0  0  0  0  0  0  0  0
  1 11  4  0
  1 21  4  0
  2  4  1  0
  2  8  1  0
  2 11  1  0
  3 10  4  0
  3 14  4  0
  4  5  1  0
  4 18  2  0
  6 12  1  0
  6 17  4  0
  6 23  4  0
  7  9  1  0
  7 13  4  0
  7 19  4  0
  9 20  1  0
 10 19  4  0
 11 25  4  0
 13 14  4  0
 15 16  4  0
 15 17  4  0
 15 21  4  0
 16 24  1  0
 16 25  4  0
 20 24  1  0
 20 26  2  0
 21 23  4  0
 22 23  1  0
M  END
$$$$

 Created by Python create_sdf_string function

 26 28  0  0  0  0  0  0  0  0999 V2000
   12.4616    8.6700   19.4180 N   0  0  0  0  0  0  0  0  0  0  0  0
   11.8329   10.8148   18.6769 N   0  0  0  0  0  0  0  0  0  0  0  0
    6.1021    2.5564   21.0678 C   0  0  0  0  0  0  0  0  0  0  0  0
   10.9097   11.8051   18.4804 C   0  0  0  0  0  0  0  0  0  0  0  0
   11.2280   12.9135   17.5669 C   0  0  0  0  0  0  0  0  0  0  0  0
   12.3782    5.4231   20.7777 C   0  0  0  0  0  0  0  0  0  0  0  0
    7.7365    4.6508   21.6987 C   0  0  0  0  0  0  0  0  0  0  0  0
   13.0186   11.0102   18.0020 C   0  0  0  0  0  0  0  0  0  0  0  0
    8.6628    5.7088   21.8871 N   0  0  0  0  0  0  0  0  0  0  0  0
    5.6516    3.5258   21.9140 C   0  0  0  0  0  0  0  0  0  0  0  0
   11.5863    9.6815   19.4539 C   0  0  0  0  0  0  0  0  0  0  0  0
   12.9648    4.1543   20.9205 C   0  0  0  0  0  0  0  0  0  0  0  0
    8.2089    3.6265   20.8929 C   0  0  0  0  0  0  0  0  0  0  0  0
    7.3827    2.5724   20.5432 C   0  0  0  0  0  0  0  0  0  0  0  0
   11.1529    7.2750   20.8025 C   0  0  0  0  0  0  0  0  0  0  0  0
   10.2573    8.3215   20.9827 C   0  0  0  0  0  0  0  0  0  0  0  0
   11.1606    5.9378   21.2366 N   0  0  0  0  0  0  0  0  0  0  0  0
    9.8932   11.6736   19.0677 O   0  0  0  0  0  0  0  0  0  0  0  0
    6.4470    4.5850   22.2321 C   0  0  0  0  0  0  0  0  0  0  0  0
    8.4619    6.9895   22.2968 C   0  0  0  0  0  0  0  0  0  0  0  0
   12.2747    7.5102   20.0420 C   0  0  0  0  0  0  0  0  0  0  0  0
   14.2544    6.2142   19.4191 C   0  0  0  0  0  0  0  0  0  0  0  0
   13.0695    6.3705   20.0375 N   0  0  0  0  0  0  0  0  0  0  0  0
    9.1913    8.0876   21.8361 N   0  0  0  0  0  0  0  0  0  0  0  0
   10.4739    9.4813   20.2889 C   0  0  0  0  0  0  0  0  0  0  0  0
    7.5551    7.1270   23.1200 O   0  0  0  0  0  0  0  0  0  0  0  0
  1 11  4  0
  1 21  4  0
  2  4  1  0
  2  8  1  0
  2 11  1  0
  3 10  4  0
  3 14  4  0
  4  5  1  0
  4 18  2  0
  6 12  1  0
  6 17  4  0
  6 23  4  0
  7  9  1  0
  7 13  4  0
  7 19  4  0
  9 20  1  0
 10 19  4  0
 11 25  4  0
 13 14  4  0
 15 16  4  0
 15 17  4  0
 15 21  4  0
 16 24  1  0
 16 25  4  0
 20 24  1  0
 20 26  2  0
 21 23  4  0
 22 23  1  0
M  END
$$$$

 Created by Python create_sdf_string function

 26 28  0  0  0  0  0  0  0  0999 V2000
   12.4616    8.6700   19.4180 N   0  0  0  0  0  0  0  0  0  0  0  0
   11.8329   10.8148   18.6769 N   0  0  0  0  0  0  0  0  0  0  0  0
    6.1021    2.5564   21.0678 C   0  0  0  0  0  0  0  0  0  0  0  0
   10.9097   11.8051   18.4804 C   0  0  0  0  0  0  0  0  0  0  0  0
   11.2280   12.9135   17.5669 C   0  0  0  0  0  0  0  0  0  0  0  0
   12.3782    5.4231   20.7777 C   0  0  0  0  0  0  0  0  0  0  0  0
    7.7365    4.6508   21.6987 C   0  0  0  0  0  0  0  0  0  0  0  0
   13.0186   11.0102   18.0020 C   0  0  0  0  0  0  0  0  0  0  0  0
    8.6628    5.7088   21.8871 N   0  0  0  0  0  0  0  0  0  0  0  0
    5.6516    3.5258   21.9140 C   0  0  0  0  0  0  0  0  0  0  0  0
   11.5863    9.6815   19.4539 C   0  0  0  0  0  0  0  0  0  0  0  0
   12.9648    4.1543   20.9205 C   0  0  0  0  0  0  0  0  0  0  0  0
    8.2089    3.6265   20.8929 C   0  0  0  0  0  0  0  0  0  0  0  0
    7.3827    2.5724   20.5432 C   0  0  0  0  0  0  0  0  0  0  0  0
   11.1529    7.2750   20.8025 C   0  0  0  0  0  0  0  0  0  0  0  0
   10.2573    8.3215   20.9827 C   0  0  0  0  0  0  0  0  0  0  0  0
   11.1606    5.9378   21.2366 N   0  0  0  0  0  0  0  0  0  0  0  0
    9.8932   11.6736   19.0677 O   0  0  0  0  0  0  0  0  0  0  0  0
    6.4470    4.5850   22.2321 C   0  0  0  0  0  0  0  0  0  0  0  0
    8.4619    6.9895   22.2968 C   0  0  0  0  0  0  0  0  0  0  0  0
   12.2747    7.5102   20.0420 C   0  0  0  0  0  0  0  0  0  0  0  0
   14.2544    6.2142   19.4191 C   0  0  0  0  0  0  0  0  0  0  0  0
   13.0695    6.3705   20.0375 N   0  0  0  0  0  0  0  0  0  0  0  0
    9.1913    8.0876   21.8361 N   0  0  0  0  0  0  0  0  0  0  0  0
   10.4739    9.4813   20.2889 C   0  0  0  0  0  0  0  0  0  0  0  0
    7.5551    7.1270   23.1200 O   0  0  0  0  0  0  0  0  0  0  0  0
  1 11  4  0
  1 21  4  0
  2  4  1  0
  2  8  1  0
  2 11  1  0
  3 10  4  0
  3 14  4  0
  4  5  1  0
  4 18  2  0
  6 12  1  0
  6 17  4  0
  6 23  4  0
  7  9  1  0
  7 13  4  0
  7 19  4  0
  9 20  1  0
 10 19  4  0
 11 25  4  0
 13 14  4  0
 15 16  4  0
 15 17  4  0
 15 21  4  0
 16 24  1  0
 16 25  4  0
 20 24  1  0
 20 26  2  0
 21 23  4  0
 22 23  1  0
M  END
$$$$

 Created by Python create_sdf_string function

 26 28  0  0  0  0  0  0  0  0999 V2000
   12.4616    8.6700   19.4180 N   0  0  0  0  0  0  0  0  0  0  0  0
   11.8329   10.8148   18.6769 N   0  0  0  0  0  0  0  0  0  0  0  0
    6.1021    2.5564   21.0678 C   0  0  0  0  0  0  0  0  0  0  0  0
   10.9097   11.8051   18.4804 C   0  0  0  0  0  0  0  0  0  0  0  0
   11.2280   12.9135   17.5669 C   0  0  0  0  0  0  0  0  0  0  0  0
   12.3782    5.4231   20.7777 C   0  0  0  0  0  0  0  0  0  0  0  0
    7.7365    4.6508   21.6987 C   0  0  0  0  0  0  0  0  0  0  0  0
   13.0186   11.0102   18.0020 C   0  0  0  0  0  0  0  0  0  0  0  0
    8.6628    5.7088   21.8871 N   0  0  0  0  0  0  0  0  0  0  0  0
    5.6516    3.5258   21.9140 C   0  0  0  0  0  0  0  0  0  0  0  0
   11.5863    9.6815   19.4539 C   0  0  0  0  0  0  0  0  0  0  0  0
   12.9648    4.1543   20.9205 C   0  0  0  0  0  0  0  0  0  0  0  0
    8.2089    3.6265   20.8929 C   0  0  0  0  0  0  0  0  0  0  0  0
    7.3827    2.5724   20.5432 C   0  0  0  0  0  0  0  0  0  0  0  0
   11.1529    7.2750   20.8025 C   0  0  0  0  0  0  0  0  0  0  0  0
   10.2573    8.3215   20.9827 C   0  0  0  0  0  0  0  0  0  0  0  0
   11.1606    5.9378   21.2366 N   0  0  0  0  0  0  0  0  0  0  0  0
    9.8932   11.6736   19.0677 O   0  0  0  0  0  0  0  0  0  0  0  0
    6.4470    4.5850   22.2321 C   0  0  0  0  0  0  0  0  0  0  0  0
    8.4619    6.9895   22.2968 C   0  0  0  0  0  0  0  0  0  0  0  0
   12.2747    7.5102   20.0420 C   0  0  0  0  0  0  0  0  0  0  0  0
   14.2544    6.2142   19.4191 C   0  0  0  0  0  0  0  0  0  0  0  0
   13.0695    6.3705   20.0375 N   0  0  0  0  0  0  0  0  0  0  0  0
    9.1913    8.0876   21.8361 N   0  0  0  0  0  0  0  0  0  0  0  0
   10.4739    9.4813   20.2889 C   0  0  0  0  0  0  0  0  0  0  0  0
    7.5551    7.1270   23.1200 O   0  0  0  0  0  0  0  0  0  0  0  0
  1 11  4  0
  1 21  4  0
  2  4  1  0
  2  8  1  0
  2 11  1  0
  3 10  4  0
  3 14  4  0
  4  5  1  0
  4 18  2  0
  6 12  1  0
  6 17  4  0
  6 23  4  0
  7  9  1  0
  7 13  4  0
  7 19  4  0
  9 20  1  0
 10 19  4  0
 11 25  4  0
 13 14  4  0
 15 16  4  0
 15 17  4  0
 15 21  4  0
 16 24  1  0
 16 25  4  0
 20 24  1  0
 20 26  2  0
 21 23  4  0
 22 23  1  0
M  END
$$$$

 Created by Python create_sdf_string function

 26 28  0  0  0  0  0  0  0  0999 V2000
   12.4616    8.6700   19.4180 N   0  0  0  0  0  0  0  0  0  0  0  0
   11.8329   10.8148   18.6769 N   0  0  0  0  0  0  0  0  0  0  0  0
    6.1021    2.5564   21.0678 C   0  0  0  0  0  0  0  0  0  0  0  0
   10.9097   11.8051   18.4804 C   0  0  0  0  0  0  0  0  0  0  0  0
   11.2280   12.9135   17.5669 C   0  0  0  0  0  0  0  0  0  0  0  0
   12.3782    5.4231   20.7777 C   0  0  0  0  0  0  0  0  0  0  0  0
    7.7365    4.6508   21.6987 C   0  0  0  0  0  0  0  0  0  0  0  0
   13.0186   11.0102   18.0020 C   0  0  0  0  0  0  0  0  0  0  0  0
    8.6628    5.7088   21.8871 N   0  0  0  0  0  0  0  0  0  0  0  0
    5.6516    3.5258   21.9140 C   0  0  0  0  0  0  0  0  0  0  0  0
   11.5863    9.6815   19.4539 C   0  0  0  0  0  0  0  0  0  0  0  0
   12.9648    4.1543   20.9205 C   0  0  0  0  0  0  0  0  0  0  0  0
    8.2089    3.6265   20.8929 C   0  0  0  0  0  0  0  0  0  0  0  0
    7.3827    2.5724   20.5432 C   0  0  0  0  0  0  0  0  0  0  0  0
   11.1529    7.2750   20.8025 C   0  0  0  0  0  0  0  0  0  0  0  0
   10.2573    8.3215   20.9827 C   0  0  0  0  0  0  0  0  0  0  0  0
   11.1606    5.9378   21.2366 N   0  0  0  0  0  0  0  0  0  0  0  0
    9.8932   11.6736   19.0677 O   0  0  0  0  0  0  0  0  0  0  0  0
    6.4470    4.5850   22.2321 C   0  0  0  0  0  0  0  0  0  0  0  0
    8.4619    6.9895   22.2968 C   0  0  0  0  0  0  0  0  0  0  0  0
   12.2747    7.5102   20.0420 C   0  0  0  0  0  0  0  0  0  0  0  0
   14.2544    6.2142   19.4191 C   0  0  0  0  0  0  0  0  0  0  0  0
   13.0695    6.3705   20.0375 N   0  0  0  0  0  0  0  0  0  0  0  0
    9.1913    8.0876   21.8361 N   0  0  0  0  0  0  0  0  0  0  0  0
   10.4739    9.4813   20.2889 C   0  0  0  0  0  0  0  0  0  0  0  0
    7.5551    7.1270   23.1200 O   0  0  0  0  0  0  0  0  0  0  0  0
  1 11  4  0
  1 21  4  0
  2  4  1  0
  2  8  1  0
  2 11  1  0
  3 10  4  0
  3 14  4  0
  4  5  1  0
  4 18  2  0
  6 12  1  0
  6 17  4  0
  6 23  4  0
  7  9  1  0
  7 13  4  0
  7 19  4  0
  9 20  1  0
 10 19  4  0
 11 25  4  0
 13 14  4  0
 15 16  4  0
 15 17  4  0
 15 21  4  0
 16 24  1  0
 16 25  4  0
 20 24  1  0
 20 26  2  0
 21 23  4  0
 22 23  1  0
M  END
$$$$

 Created by Python create_sdf_string function

 26 28  0  0  0  0  0  0  0  0999 V2000
   12.4616    8.6700   19.4180 N   0  0  0  0  0  0  0  0  0  0  0  0
   11.8329   10.8148   18.6769 N   0  0  0  0  0  0  0  0  0  0  0  0
    6.1021    2.5564   21.0678 C   0  0  0  0  0  0  0  0  0  0  0  0
   10.9097   11.8051   18.4804 C   0  0  0  0  0  0  0  0  0  0  0  0
   11.2280   12.9135   17.5669 C   0  0  0  0  0  0  0  0  0  0  0  0
   12.3782    5.4231   20.7777 C   0  0  0  0  0  0  0  0  0  0  0  0
    7.7365    4.6508   21.6987 C   0  0  0  0  0  0  0  0  0  0  0  0
   13.0186   11.0102   18.0020 C   0  0  0  0  0  0  0  0  0  0  0  0
    8.6628    5.7088   21.8871 N   0  0  0  0  0  0  0  0  0  0  0  0
    5.6516    3.5258   21.9140 C   0  0  0  0  0  0  0  0  0  0  0  0
   11.5863    9.6815   19.4539 C   0  0  0  0  0  0  0  0  0  0  0  0
   12.9648    4.1543   20.9205 C   0  0  0  0  0  0  0  0  0  0  0  0
    8.2089    3.6265   20.8929 C   0  0  0  0  0  0  0  0  0  0  0  0
    7.3827    2.5724   20.5432 C   0  0  0  0  0  0  0  0  0  0  0  0
   11.1529    7.2750   20.8025 C   0  0  0  0  0  0  0  0  0  0  0  0
   10.2573    8.3215   20.9827 C   0  0  0  0  0  0  0  0  0  0  0  0
   11.1606    5.9378   21.2366 N   0  0  0  0  0  0  0  0  0  0  0  0
    9.8932   11.6736   19.0677 O   0  0  0  0  0  0  0  0  0  0  0  0
    6.4470    4.5850   22.2321 C   0  0  0  0  0  0  0  0  0  0  0  0
    8.4619    6.9895   22.2968 C   0  0  0  0  0  0  0  0  0  0  0  0
   12.2747    7.5102   20.0420 C   0  0  0  0  0  0  0  0  0  0  0  0
   14.2544    6.2142   19.4191 C   0  0  0  0  0  0  0  0  0  0  0  0
   13.0695    6.3705   20.0375 N   0  0  0  0  0  0  0  0  0  0  0  0
    9.1913    8.0876   21.8361 N   0  0  0  0  0  0  0  0  0  0  0  0
   10.4739    9.4813   20.2889 C   0  0  0  0  0  0  0  0  0  0  0  0
    7.5551    7.1270   23.1200 O   0  0  0  0  0  0  0  0  0  0  0  0
  1 11  4  0
  1 21  4  0
  2  4  1  0
  2  8  1  0
  2 11  1  0
  3 10  4  0
  3 14  4  0
  4  5  1  0
  4 18  2  0
  6 12  1  0
  6 17  4  0
  6 23  4  0
  7  9  1  0
  7 13  4  0
  7 19  4  0
  9 20  1  0
 10 19  4  0
 11 25  4  0
 13 14  4  0
 15 16  4  0
 15 17  4  0
 15 21  4  0
 16 24  1  0
 16 25  4  0
 20 24  1  0
 20 26  2  0
 21 23  4  0
 22 23  1  0
M  END
$$$$

 Created by Python create_sdf_string function

 26 28  0  0  0  0  0  0  0  0999 V2000
   12.4616    8.6700   19.4180 N   0  0  0  0  0  0  0  0  0  0  0  0
   11.8329   10.8148   18.6769 N   0  0  0  0  0  0  0  0  0  0  0  0
    6.1021    2.5564   21.0678 C   0  0  0  0  0  0  0  0  0  0  0  0
   10.9097   11.8051   18.4804 C   0  0  0  0  0  0  0  0  0  0  0  0
   11.2280   12.9135   17.5669 C   0  0  0  0  0  0  0  0  0  0  0  0
   12.3782    5.4231   20.7777 C   0  0  0  0  0  0  0  0  0  0  0  0
    7.7365    4.6508   21.6987 C   0  0  0  0  0  0  0  0  0  0  0  0
   13.0186   11.0102   18.0020 C   0  0  0  0  0  0  0  0  0  0  0  0
    8.6628    5.7088   21.8871 N   0  0  0  0  0  0  0  0  0  0  0  0
    5.6516    3.5258   21.9140 C   0  0  0  0  0  0  0  0  0  0  0  0
   11.5863    9.6815   19.4539 C   0  0  0  0  0  0  0  0  0  0  0  0
   12.9648    4.1543   20.9205 C   0  0  0  0  0  0  0  0  0  0  0  0
    8.2089    3.6265   20.8929 C   0  0  0  0  0  0  0  0  0  0  0  0
    7.3827    2.5724   20.5432 C   0  0  0  0  0  0  0  0  0  0  0  0
   11.1529    7.2750   20.8025 C   0  0  0  0  0  0  0  0  0  0  0  0
   10.2573    8.3215   20.9827 C   0  0  0  0  0  0  0  0  0  0  0  0
   11.1606    5.9378   21.2366 N   0  0  0  0  0  0  0  0  0  0  0  0
    9.8932   11.6736   19.0677 O   0  0  0  0  0  0  0  0  0  0  0  0
    6.4470    4.5850   22.2321 C   0  0  0  0  0  0  0  0  0  0  0  0
    8.4619    6.9895   22.2968 C   0  0  0  0  0  0  0  0  0  0  0  0
   12.2747    7.5102   20.0420 C   0  0  0  0  0  0  0  0  0  0  0  0
   14.2544    6.2142   19.4191 C   0  0  0  0  0  0  0  0  0  0  0  0
   13.0695    6.3705   20.0375 N   0  0  0  0  0  0  0  0  0  0  0  0
    9.1913    8.0876   21.8361 N   0  0  0  0  0  0  0  0  0  0  0  0
   10.4739    9.4813   20.2889 C   0  0  0  0  0  0  0  0  0  0  0  0
    7.5551    7.1270   23.1200 O   0  0  0  0  0  0  0  0  0  0  0  0
  1 11  4  0
  1 21  4  0
  2  4  1  0
  2  8  1  0
  2 11  1  0
  3 10  4  0
  3 14  4  0
  4  5  1  0
  4 18  2  0
  6 12  1  0
  6 17  4  0
  6 23  4  0
  7  9  1  0
  7 13  4  0
  7 19  4  0
  9 20  1  0
 10 19  4  0
 11 25  4  0
 13 14  4  0
 15 16  4  0
 15 17  4  0
 15 21  4  0
 16 24  1  0
 16 25  4  0
 20 24  1  0
 20 26  2  0
 21 23  4  0
 22 23  1  0
M  END
$$$$

 Created by Python create_sdf_string function

 26 28  0  0  0  0  0  0  0  0999 V2000
   12.4616    8.6700   19.4180 N   0  0  0  0  0  0  0  0  0  0  0  0
   11.8329   10.8148   18.6769 N   0  0  0  0  0  0  0  0  0  0  0  0
    6.1021    2.5564   21.0678 C   0  0  0  0  0  0  0  0  0  0  0  0
   10.9097   11.8051   18.4804 C   0  0  0  0  0  0  0  0  0  0  0  0
   11.2280   12.9135   17.5669 C   0  0  0  0  0  0  0  0  0  0  0  0
   12.3782    5.4231   20.7777 C   0  0  0  0  0  0  0  0  0  0  0  0
    7.7365    4.6508   21.6987 C   0  0  0  0  0  0  0  0  0  0  0  0
   13.0186   11.0102   18.0020 C   0  0  0  0  0  0  0  0  0  0  0  0
    8.6628    5.7088   21.8871 N   0  0  0  0  0  0  0  0  0  0  0  0
    5.6516    3.5258   21.9140 C   0  0  0  0  0  0  0  0  0  0  0  0
   11.5863    9.6815   19.4539 C   0  0  0  0  0  0  0  0  0  0  0  0
   12.9648    4.1543   20.9205 C   0  0  0  0  0  0  0  0  0  0  0  0
    8.2089    3.6265   20.8929 C   0  0  0  0  0  0  0  0  0  0  0  0
    7.3827    2.5724   20.5432 C   0  0  0  0  0  0  0  0  0  0  0  0
   11.1529    7.2750   20.8025 C   0  0  0  0  0  0  0  0  0  0  0  0
   10.2573    8.3215   20.9827 C   0  0  0  0  0  0  0  0  0  0  0  0
   11.1606    5.9378   21.2366 N   0  0  0  0  0  0  0  0  0  0  0  0
    9.8932   11.6736   19.0677 O   0  0  0  0  0  0  0  0  0  0  0  0
    6.4470    4.5850   22.2321 C   0  0  0  0  0  0  0  0  0  0  0  0
    8.4619    6.9895   22.2968 C   0  0  0  0  0  0  0  0  0  0  0  0
   12.2747    7.5102   20.0420 C   0  0  0  0  0  0  0  0  0  0  0  0
   14.2544    6.2142   19.4191 C   0  0  0  0  0  0  0  0  0  0  0  0
   13.0695    6.3705   20.0375 N   0  0  0  0  0  0  0  0  0  0  0  0
    9.1913    8.0876   21.8361 N   0  0  0  0  0  0  0  0  0  0  0  0
   10.4739    9.4813   20.2889 C   0  0  0  0  0  0  0  0  0  0  0  0
    7.5551    7.1270   23.1200 O   0  0  0  0  0  0  0  0  0  0  0  0
  1 11  4  0
  1 21  4  0
  2  4  1  0
  2  8  1  0
  2 11  1  0
  3 10  4  0
  3 14  4  0
  4  5  1  0
  4 18  2  0
  6 12  1  0
  6 17  4  0
  6 23  4  0
  7  9  1  0
  7 13  4  0
  7 19  4  0
  9 20  1  0
 10 19  4  0
 11 25  4  0
 13 14  4  0
 15 16  4  0
 15 17  4  0
 15 21  4  0
 16 24  1  0
 16 25  4  0
 20 24  1  0
 20 26  2  0
 21 23  4  0
 22 23  1  0
M  END
$$$$

 Created by Python create_sdf_string function

 26 28  0  0  0  0  0  0  0  0999 V2000
   12.4616    8.6700   19.4180 N   0  0  0  0  0  0  0  0  0  0  0  0
   11.8329   10.8148   18.6769 N   0  0  0  0  0  0  0  0  0  0  0  0
    6.1021    2.5564   21.0678 C   0  0  0  0  0  0  0  0  0  0  0  0
   10.9097   11.8051   18.4804 C   0  0  0  0  0  0  0  0  0  0  0  0
   11.2280   12.9135   17.5669 C   0  0  0  0  0  0  0  0  0  0  0  0
   12.3782    5.4231   20.7777 C   0  0  0  0  0  0  0  0  0  0  0  0
    7.7365    4.6508   21.6987 C   0  0  0  0  0  0  0  0  0  0  0  0
   13.0186   11.0102   18.0020 C   0  0  0  0  0  0  0  0  0  0  0  0
    8.6628    5.7088   21.8871 N   0  0  0  0  0  0  0  0  0  0  0  0
    5.6516    3.5258   21.9140 C   0  0  0  0  0  0  0  0  0  0  0  0
   11.5863    9.6815   19.4539 C   0  0  0  0  0  0  0  0  0  0  0  0
   12.9648    4.1543   20.9205 C   0  0  0  0  0  0  0  0  0  0  0  0
    8.2089    3.6265   20.8929 C   0  0  0  0  0  0  0  0  0  0  0  0
    7.3827    2.5724   20.5432 C   0  0  0  0  0  0  0  0  0  0  0  0
   11.1529    7.2750   20.8025 C   0  0  0  0  0  0  0  0  0  0  0  0
   10.2573    8.3215   20.9827 C   0  0  0  0  0  0  0  0  0  0  0  0
   11.1606    5.9378   21.2366 N   0  0  0  0  0  0  0  0  0  0  0  0
    9.8932   11.6736   19.0677 O   0  0  0  0  0  0  0  0  0  0  0  0
    6.4470    4.5850   22.2321 C   0  0  0  0  0  0  0  0  0  0  0  0
    8.4619    6.9895   22.2968 C   0  0  0  0  0  0  0  0  0  0  0  0
   12.2747    7.5102   20.0420 C   0  0  0  0  0  0  0  0  0  0  0  0
   14.2544    6.2142   19.4191 C   0  0  0  0  0  0  0  0  0  0  0  0
   13.0695    6.3705   20.0375 N   0  0  0  0  0  0  0  0  0  0  0  0
    9.1913    8.0876   21.8361 N   0  0  0  0  0  0  0  0  0  0  0  0
   10.4739    9.4813   20.2889 C   0  0  0  0  0  0  0  0  0  0  0  0
    7.5551    7.1270   23.1200 O   0  0  0  0  0  0  0  0  0  0  0  0
  1 11  4  0
  1 21  4  0
  2  4  1  0
  2  8  1  0
  2 11  1  0
  3 10  4  0
  3 14  4  0
  4  5  1  0
  4 18  2  0
  6 12  1  0
  6 17  4  0
  6 23  4  0
  7  9  1  0
  7 13  4  0
  7 19  4  0
  9 20  1  0
 10 19  4  0
 11 25  4  0
 13 14  4  0
 15 16  4  0
 15 17  4  0
 15 21  4  0
 16 24  1  0
 16 25  4  0
 20 24  1  0
 20 26  2  0
 21 23  4  0
 22 23  1  0
M  END
$$$$

 Created by Python create_sdf_string function

 26 28  0  0  0  0  0  0  0  0999 V2000
   12.4616    8.6700   19.4180 N   0  0  0  0  0  0  0  0  0  0  0  0
   11.8329   10.8148   18.6769 N   0  0  0  0  0  0  0  0  0  0  0  0
    6.1021    2.5564   21.0678 C   0  0  0  0  0  0  0  0  0  0  0  0
   10.9097   11.8051   18.4804 C   0  0  0  0  0  0  0  0  0  0  0  0
   11.2280   12.9135   17.5669 C   0  0  0  0  0  0  0  0  0  0  0  0
   12.3782    5.4231   20.7777 C   0  0  0  0  0  0  0  0  0  0  0  0
    7.7365    4.6508   21.6987 C   0  0  0  0  0  0  0  0  0  0  0  0
   13.0186   11.0102   18.0020 C   0  0  0  0  0  0  0  0  0  0  0  0
    8.6628    5.7088   21.8871 N   0  0  0  0  0  0  0  0  0  0  0  0
    5.6516    3.5258   21.9140 C   0  0  0  0  0  0  0  0  0  0  0  0
   11.5863    9.6815   19.4539 C   0  0  0  0  0  0  0  0  0  0  0  0
   12.9648    4.1543   20.9205 C   0  0  0  0  0  0  0  0  0  0  0  0
    8.2089    3.6265   20.8929 C   0  0  0  0  0  0  0  0  0  0  0  0
    7.3827    2.5724   20.5432 C   0  0  0  0  0  0  0  0  0  0  0  0
   11.1529    7.2750   20.8025 C   0  0  0  0  0  0  0  0  0  0  0  0
   10.2573    8.3215   20.9827 C   0  0  0  0  0  0  0  0  0  0  0  0
   11.1606    5.9378   21.2366 N   0  0  0  0  0  0  0  0  0  0  0  0
    9.8932   11.6736   19.0677 O   0  0  0  0  0  0  0  0  0  0  0  0
    6.4470    4.5850   22.2321 C   0  0  0  0  0  0  0  0  0  0  0  0
    8.4619    6.9895   22.2968 C   0  0  0  0  0  0  0  0  0  0  0  0
   12.2747    7.5102   20.0420 C   0  0  0  0  0  0  0  0  0  0  0  0
   14.2544    6.2142   19.4191 C   0  0  0  0  0  0  0  0  0  0  0  0
   13.0695    6.3705   20.0375 N   0  0  0  0  0  0  0  0  0  0  0  0
    9.1913    8.0876   21.8361 N   0  0  0  0  0  0  0  0  0  0  0  0
   10.4739    9.4813   20.2889 C   0  0  0  0  0  0  0  0  0  0  0  0
    7.5551    7.1270   23.1200 O   0  0  0  0  0  0  0  0  0  0  0  0
  1 11  4  0
  1 21  4  0
  2  4  1  0
  2  8  1  0
  2 11  1  0
  3 10  4  0
  3 14  4  0
  4  5  1  0
  4 18  2  0
  6 12  1  0
  6 17  4  0
  6 23  4  0
  7  9  1  0
  7 13  4  0
  7 19  4  0
  9 20  1  0
 10 19  4  0
 11 25  4  0
 13 14  4  0
 15 16  4  0
 15 17  4  0
 15 21  4  0
 16 24  1  0
 16 25  4  0
 20 24  1  0
 20 26  2  0
 21 23  4  0
 22 23  1  0
M  END
$$$$

 Created by Python create_sdf_string function

 26 28  0  0  0  0  0  0  0  0999 V2000
   12.4616    8.6700   19.4180 N   0  0  0  0  0  0  0  0  0  0  0  0
   11.8329   10.8148   18.6769 N   0  0  0  0  0  0  0  0  0  0  0  0
    6.1021    2.5564   21.0678 C   0  0  0  0  0  0  0  0  0  0  0  0
   10.9097   11.8051   18.4804 C   0  0  0  0  0  0  0  0  0  0  0  0
   11.2280   12.9135   17.5669 C   0  0  0  0  0  0  0  0  0  0  0  0
   12.3782    5.4231   20.7777 C   0  0  0  0  0  0  0  0  0  0  0  0
    7.7365    4.6508   21.6987 C   0  0  0  0  0  0  0  0  0  0  0  0
   13.0186   11.0102   18.0020 C   0  0  0  0  0  0  0  0  0  0  0  0
    8.6628    5.7088   21.8871 N   0  0  0  0  0  0  0  0  0  0  0  0
    5.6516    3.5258   21.9140 C   0  0  0  0  0  0  0  0  0  0  0  0
   11.5863    9.6815   19.4539 C   0  0  0  0  0  0  0  0  0  0  0  0
   12.9648    4.1543   20.9205 C   0  0  0  0  0  0  0  0  0  0  0  0
    8.2089    3.6265   20.8929 C   0  0  0  0  0  0  0  0  0  0  0  0
    7.3827    2.5724   20.5432 C   0  0  0  0  0  0  0  0  0  0  0  0
   11.1529    7.2750   20.8025 C   0  0  0  0  0  0  0  0  0  0  0  0
   10.2573    8.3215   20.9827 C   0  0  0  0  0  0  0  0  0  0  0  0
   11.1606    5.9378   21.2366 N   0  0  0  0  0  0  0  0  0  0  0  0
    9.8932   11.6736   19.0677 O   0  0  0  0  0  0  0  0  0  0  0  0
    6.4470    4.5850   22.2321 C   0  0  0  0  0  0  0  0  0  0  0  0
    8.4619    6.9895   22.2968 C   0  0  0  0  0  0  0  0  0  0  0  0
   12.2747    7.5102   20.0420 C   0  0  0  0  0  0  0  0  0  0  0  0
   14.2544    6.2142   19.4191 C   0  0  0  0  0  0  0  0  0  0  0  0
   13.0695    6.3705   20.0375 N   0  0  0  0  0  0  0  0  0  0  0  0
    9.1913    8.0876   21.8361 N   0  0  0  0  0  0  0  0  0  0  0  0
   10.4739    9.4813   20.2889 C   0  0  0  0  0  0  0  0  0  0  0  0
    7.5551    7.1270   23.1200 O   0  0  0  0  0  0  0  0  0  0  0  0
  1 11  4  0
  1 21  4  0
  2  4  1  0
  2  8  1  0
  2 11  1  0
  3 10  4  0
  3 14  4  0
  4  5  1  0
  4 18  2  0
  6 12  1  0
  6 17  4  0
  6 23  4  0
  7  9  1  0
  7 13  4  0
  7 19  4  0
  9 20  1  0
 10 19  4  0
 11 25  4  0
 13 14  4  0
 15 16  4  0
 15 17  4  0
 15 21  4  0
 16 24  1  0
 16 25  4  0
 20 24  1  0
 20 26  2  0
 21 23  4  0
 22 23  1  0
M  END
$$$$

 Created by Python create_sdf_string function

 26 28  0  0  0  0  0  0  0  0999 V2000
   12.4616    8.6700   19.4180 N   0  0  0  0  0  0  0  0  0  0  0  0
   11.8329   10.8148   18.6769 N   0  0  0  0  0  0  0  0  0  0  0  0
    6.1021    2.5564   21.0678 C   0  0  0  0  0  0  0  0  0  0  0  0
   10.9097   11.8051   18.4804 C   0  0  0  0  0  0  0  0  0  0  0  0
   11.2280   12.9135   17.5669 C   0  0  0  0  0  0  0  0  0  0  0  0
   12.3782    5.4231   20.7777 C   0  0  0  0  0  0  0  0  0  0  0  0
    7.7365    4.6508   21.6987 C   0  0  0  0  0  0  0  0  0  0  0  0
   13.0186   11.0102   18.0020 C   0  0  0  0  0  0  0  0  0  0  0  0
    8.6628    5.7088   21.8871 N   0  0  0  0  0  0  0  0  0  0  0  0
    5.6516    3.5258   21.9140 C   0  0  0  0  0  0  0  0  0  0  0  0
   11.5863    9.6815   19.4539 C   0  0  0  0  0  0  0  0  0  0  0  0
   12.9648    4.1543   20.9205 C   0  0  0  0  0  0  0  0  0  0  0  0
    8.2089    3.6265   20.8929 C   0  0  0  0  0  0  0  0  0  0  0  0
    7.3827    2.5724   20.5432 C   0  0  0  0  0  0  0  0  0  0  0  0
   11.1529    7.2750   20.8025 C   0  0  0  0  0  0  0  0  0  0  0  0
   10.2573    8.3215   20.9827 C   0  0  0  0  0  0  0  0  0  0  0  0
   11.1606    5.9378   21.2366 N   0  0  0  0  0  0  0  0  0  0  0  0
    9.8932   11.6736   19.0677 O   0  0  0  0  0  0  0  0  0  0  0  0
    6.4470    4.5850   22.2321 C   0  0  0  0  0  0  0  0  0  0  0  0
    8.4619    6.9895   22.2968 C   0  0  0  0  0  0  0  0  0  0  0  0
   12.2747    7.5102   20.0420 C   0  0  0  0  0  0  0  0  0  0  0  0
   14.2544    6.2142   19.4191 C   0  0  0  0  0  0  0  0  0  0  0  0
   13.0695    6.3705   20.0375 N   0  0  0  0  0  0  0  0  0  0  0  0
    9.1913    8.0876   21.8361 N   0  0  0  0  0  0  0  0  0  0  0  0
   10.4739    9.4813   20.2889 C   0  0  0  0  0  0  0  0  0  0  0  0
    7.5551    7.1270   23.1200 O   0  0  0  0  0  0  0  0  0  0  0  0
  1 11  4  0
  1 21  4  0
  2  4  1  0
  2  8  1  0
  2 11  1  0
  3 10  4  0
  3 14  4  0
  4  5  1  0
  4 18  2  0
  6 12  1  0
  6 17  4  0
  6 23  4  0
  7  9  1  0
  7 13  4  0
  7 19  4  0
  9 20  1  0
 10 19  4  0
 11 25  4  0
 13 14  4  0
 15 16  4  0
 15 17  4  0
 15 21  4  0
 16 24  1  0
 16 25  4  0
 20 24  1  0
 20 26  2  0
 21 23  4  0
 22 23  1  0
M  END
$$$$

 Created by Python create_sdf_string function

 26 28  0  0  0  0  0  0  0  0999 V2000
   12.4616    8.6700   19.4180 N   0  0  0  0  0  0  0  0  0  0  0  0
   11.8329   10.8148   18.6769 N   0  0  0  0  0  0  0  0  0  0  0  0
    6.1021    2.5564   21.0678 C   0  0  0  0  0  0  0  0  0  0  0  0
   10.9097   11.8051   18.4804 C   0  0  0  0  0  0  0  0  0  0  0  0
   11.2280   12.9135   17.5669 C   0  0  0  0  0  0  0  0  0  0  0  0
   12.3782    5.4231   20.7777 C   0  0  0  0  0  0  0  0  0  0  0  0
    7.7365    4.6508   21.6987 C   0  0  0  0  0  0  0  0  0  0  0  0
   13.0186   11.0102   18.0020 C   0  0  0  0  0  0  0  0  0  0  0  0
    8.6628    5.7088   21.8871 N   0  0  0  0  0  0  0  0  0  0  0  0
    5.6516    3.5258   21.9140 C   0  0  0  0  0  0  0  0  0  0  0  0
   11.5863    9.6815   19.4539 C   0  0  0  0  0  0  0  0  0  0  0  0
   12.9648    4.1543   20.9205 C   0  0  0  0  0  0  0  0  0  0  0  0
    8.2089    3.6265   20.8929 C   0  0  0  0  0  0  0  0  0  0  0  0
    7.3827    2.5724   20.5432 C   0  0  0  0  0  0  0  0  0  0  0  0
   11.1529    7.2750   20.8025 C   0  0  0  0  0  0  0  0  0  0  0  0
   10.2573    8.3215   20.9827 C   0  0  0  0  0  0  0  0  0  0  0  0
   11.1606    5.9378   21.2366 N   0  0  0  0  0  0  0  0  0  0  0  0
    9.8932   11.6736   19.0677 O   0  0  0  0  0  0  0  0  0  0  0  0
    6.4470    4.5850   22.2321 C   0  0  0  0  0  0  0  0  0  0  0  0
    8.4619    6.9895   22.2968 C   0  0  0  0  0  0  0  0  0  0  0  0
   12.2747    7.5102   20.0420 C   0  0  0  0  0  0  0  0  0  0  0  0
   14.2544    6.2142   19.4191 C   0  0  0  0  0  0  0  0  0  0  0  0
   13.0695    6.3705   20.0375 N   0  0  0  0  0  0  0  0  0  0  0  0
    9.1913    8.0876   21.8361 N   0  0  0  0  0  0  0  0  0  0  0  0
   10.4739    9.4813   20.2889 C   0  0  0  0  0  0  0  0  0  0  0  0
    7.5551    7.1270   23.1200 O   0  0  0  0  0  0  0  0  0  0  0  0
  1 11  4  0
  1 21  4  0
  2  4  1  0
  2  8  1  0
  2 11  1  0
  3 10  4  0
  3 14  4  0
  4  5  1  0
  4 18  2  0
  6 12  1  0
  6 17  4  0
  6 23  4  0
  7  9  1  0
  7 13  4  0
  7 19  4  0
  9 20  1  0
 10 19  4  0
 11 25  4  0
 13 14  4  0
 15 16  4  0
 15 17  4  0
 15 21  4  0
 16 24  1  0
 16 25  4  0
 20 24  1  0
 20 26  2  0
 21 23  4  0
 22 23  1  0
M  END
$$$$

 Created by Python create_sdf_string function

 26 28  0  0  0  0  0  0  0  0999 V2000
   12.4616    8.6700   19.4180 N   0  0  0  0  0  0  0  0  0  0  0  0
   11.8329   10.8148   18.6769 N   0  0  0  0  0  0  0  0  0  0  0  0
    6.1021    2.5564   21.0678 C   0  0  0  0  0  0  0  0  0  0  0  0
   10.9097   11.8051   18.4804 C   0  0  0  0  0  0  0  0  0  0  0  0
   11.2280   12.9135   17.5669 C   0  0  0  0  0  0  0  0  0  0  0  0
   12.3782    5.4231   20.7777 C   0  0  0  0  0  0  0  0  0  0  0  0
    7.7365    4.6508   21.6987 C   0  0  0  0  0  0  0  0  0  0  0  0
   13.0186   11.0102   18.0020 C   0  0  0  0  0  0  0  0  0  0  0  0
    8.6628    5.7088   21.8871 N   0  0  0  0  0  0  0  0  0  0  0  0
    5.6516    3.5258   21.9140 C   0  0  0  0  0  0  0  0  0  0  0  0
   11.5863    9.6815   19.4539 C   0  0  0  0  0  0  0  0  0  0  0  0
   12.9648    4.1543   20.9205 C   0  0  0  0  0  0  0  0  0  0  0  0
    8.2089    3.6265   20.8929 C   0  0  0  0  0  0  0  0  0  0  0  0
    7.3827    2.5724   20.5432 C   0  0  0  0  0  0  0  0  0  0  0  0
   11.1529    7.2750   20.8025 C   0  0  0  0  0  0  0  0  0  0  0  0
   10.2573    8.3215   20.9827 C   0  0  0  0  0  0  0  0  0  0  0  0
   11.1606    5.9378   21.2366 N   0  0  0  0  0  0  0  0  0  0  0  0
    9.8932   11.6736   19.0677 O   0  0  0  0  0  0  0  0  0  0  0  0
    6.4470    4.5850   22.2321 C   0  0  0  0  0  0  0  0  0  0  0  0
    8.4619    6.9895   22.2968 C   0  0  0  0  0  0  0  0  0  0  0  0
   12.2747    7.5102   20.0420 C   0  0  0  0  0  0  0  0  0  0  0  0
   14.2544    6.2142   19.4191 C   0  0  0  0  0  0  0  0  0  0  0  0
   13.0695    6.3705   20.0375 N   0  0  0  0  0  0  0  0  0  0  0  0
    9.1913    8.0876   21.8361 N   0  0  0  0  0  0  0  0  0  0  0  0
   10.4739    9.4813   20.2889 C   0  0  0  0  0  0  0  0  0  0  0  0
    7.5551    7.1270   23.1200 O   0  0  0  0  0  0  0  0  0  0  0  0
  1 11  4  0
  1 21  4  0
  2  4  1  0
  2  8  1  0
  2 11  1  0
  3 10  4  0
  3 14  4  0
  4  5  1  0
  4 18  2  0
  6 12  1  0
  6 17  4  0
  6 23  4  0
  7  9  1  0
  7 13  4  0
  7 19  4  0
  9 20  1  0
 10 19  4  0
 11 25  4  0
 13 14  4  0
 15 16  4  0
 15 17  4  0
 15 21  4  0
 16 24  1  0
 16 25  4  0
 20 24  1  0
 20 26  2  0
 21 23  4  0
 22 23  1  0
M  END
$$$$

 Created by Python create_sdf_string function

 26 28  0  0  0  0  0  0  0  0999 V2000
   12.4616    8.6700   19.4180 N   0  0  0  0  0  0  0  0  0  0  0  0
   11.8329   10.8148   18.6769 N   0  0  0  0  0  0  0  0  0  0  0  0
    6.1021    2.5564   21.0678 C   0  0  0  0  0  0  0  0  0  0  0  0
   10.9097   11.8051   18.4804 C   0  0  0  0  0  0  0  0  0  0  0  0
   11.2280   12.9135   17.5669 C   0  0  0  0  0  0  0  0  0  0  0  0
   12.3782    5.4231   20.7777 C   0  0  0  0  0  0  0  0  0  0  0  0
    7.7365    4.6508   21.6987 C   0  0  0  0  0  0  0  0  0  0  0  0
   13.0186   11.0102   18.0020 C   0  0  0  0  0  0  0  0  0  0  0  0
    8.6628    5.7088   21.8871 N   0  0  0  0  0  0  0  0  0  0  0  0
    5.6516    3.5258   21.9140 C   0  0  0  0  0  0  0  0  0  0  0  0
   11.5863    9.6815   19.4539 C   0  0  0  0  0  0  0  0  0  0  0  0
   12.9648    4.1543   20.9205 C   0  0  0  0  0  0  0  0  0  0  0  0
    8.2089    3.6265   20.8929 C   0  0  0  0  0  0  0  0  0  0  0  0
    7.3827    2.5724   20.5432 C   0  0  0  0  0  0  0  0  0  0  0  0
   11.1529    7.2750   20.8025 C   0  0  0  0  0  0  0  0  0  0  0  0
   10.2573    8.3215   20.9827 C   0  0  0  0  0  0  0  0  0  0  0  0
   11.1606    5.9378   21.2366 N   0  0  0  0  0  0  0  0  0  0  0  0
    9.8932   11.6736   19.0677 O   0  0  0  0  0  0  0  0  0  0  0  0
    6.4470    4.5850   22.2321 C   0  0  0  0  0  0  0  0  0  0  0  0
    8.4619    6.9895   22.2968 C   0  0  0  0  0  0  0  0  0  0  0  0
   12.2747    7.5102   20.0420 C   0  0  0  0  0  0  0  0  0  0  0  0
   14.2544    6.2142   19.4191 C   0  0  0  0  0  0  0  0  0  0  0  0
   13.0695    6.3705   20.0375 N   0  0  0  0  0  0  0  0  0  0  0  0
    9.1913    8.0876   21.8361 N   0  0  0  0  0  0  0  0  0  0  0  0
   10.4739    9.4813   20.2889 C   0  0  0  0  0  0  0  0  0  0  0  0
    7.5551    7.1270   23.1200 O   0  0  0  0  0  0  0  0  0  0  0  0
  1 11  4  0
  1 21  4  0
  2  4  1  0
  2  8  1  0
  2 11  1  0
  3 10  4  0
  3 14  4  0
  4  5  1  0
  4 18  2  0
  6 12  1  0
  6 17  4  0
  6 23  4  0
  7  9  1  0
  7 13  4  0
  7 19  4  0
  9 20  1  0
 10 19  4  0
 11 25  4  0
 13 14  4  0
 15 16  4  0
 15 17  4  0
 15 21  4  0
 16 24  1  0
 16 25  4  0
 20 24  1  0
 20 26  2  0
 21 23  4  0
 22 23  1  0
M  END
$$$$

 Created by Python create_sdf_string function

 26 28  0  0  0  0  0  0  0  0999 V2000
   12.4616    8.6700   19.4180 N   0  0  0  0  0  0  0  0  0  0  0  0
   11.8329   10.8148   18.6769 N   0  0  0  0  0  0  0  0  0  0  0  0
    6.1021    2.5564   21.0678 C   0  0  0  0  0  0  0  0  0  0  0  0
   10.9097   11.8051   18.4804 C   0  0  0  0  0  0  0  0  0  0  0  0
   11.2280   12.9135   17.5669 C   0  0  0  0  0  0  0  0  0  0  0  0
   12.3782    5.4231   20.7777 C   0  0  0  0  0  0  0  0  0  0  0  0
    7.7365    4.6508   21.6987 C   0  0  0  0  0  0  0  0  0  0  0  0
   13.0186   11.0102   18.0020 C   0  0  0  0  0  0  0  0  0  0  0  0
    8.6628    5.7088   21.8871 N   0  0  0  0  0  0  0  0  0  0  0  0
    5.6516    3.5258   21.9140 C   0  0  0  0  0  0  0  0  0  0  0  0
   11.5863    9.6815   19.4539 C   0  0  0  0  0  0  0  0  0  0  0  0
   12.9648    4.1543   20.9205 C   0  0  0  0  0  0  0  0  0  0  0  0
    8.2089    3.6265   20.8929 C   0  0  0  0  0  0  0  0  0  0  0  0
    7.3827    2.5724   20.5432 C   0  0  0  0  0  0  0  0  0  0  0  0
   11.1529    7.2750   20.8025 C   0  0  0  0  0  0  0  0  0  0  0  0
   10.2573    8.3215   20.9827 C   0  0  0  0  0  0  0  0  0  0  0  0
   11.1606    5.9378   21.2366 N   0  0  0  0  0  0  0  0  0  0  0  0
    9.8932   11.6736   19.0677 O   0  0  0  0  0  0  0  0  0  0  0  0
    6.4470    4.5850   22.2321 C   0  0  0  0  0  0  0  0  0  0  0  0
    8.4619    6.9895   22.2968 C   0  0  0  0  0  0  0  0  0  0  0  0
   12.2747    7.5102   20.0420 C   0  0  0  0  0  0  0  0  0  0  0  0
   14.2544    6.2142   19.4191 C   0  0  0  0  0  0  0  0  0  0  0  0
   13.0695    6.3705   20.0375 N   0  0  0  0  0  0  0  0  0  0  0  0
    9.1913    8.0876   21.8361 N   0  0  0  0  0  0  0  0  0  0  0  0
   10.4739    9.4813   20.2889 C   0  0  0  0  0  0  0  0  0  0  0  0
    7.5551    7.1270   23.1200 O   0  0  0  0  0  0  0  0  0  0  0  0
  1 11  4  0
  1 21  4  0
  2  4  1  0
  2  8  1  0
  2 11  1  0
  3 10  4  0
  3 14  4  0
  4  5  1  0
  4 18  2  0
  6 12  1  0
  6 17  4  0
  6 23  4  0
  7  9  1  0
  7 13  4  0
  7 19  4  0
  9 20  1  0
 10 19  4  0
 11 25  4  0
 13 14  4  0
 15 16  4  0
 15 17  4  0
 15 21  4  0
 16 24  1  0
 16 25  4  0
 20 24  1  0
 20 26  2  0
 21 23  4  0
 22 23  1  0
M  END
$$$$

 Created by Python create_sdf_string function

 26 28  0  0  0  0  0  0  0  0999 V2000
   12.4616    8.6700   19.4180 N   0  0  0  0  0  0  0  0  0  0  0  0
   11.8329   10.8148   18.6769 N   0  0  0  0  0  0  0  0  0  0  0  0
    6.1021    2.5564   21.0678 C   0  0  0  0  0  0  0  0  0  0  0  0
   10.9097   11.8051   18.4804 C   0  0  0  0  0  0  0  0  0  0  0  0
   11.2280   12.9135   17.5669 C   0  0  0  0  0  0  0  0  0  0  0  0
   12.3782    5.4231   20.7777 C   0  0  0  0  0  0  0  0  0  0  0  0
    7.7365    4.6508   21.6987 C   0  0  0  0  0  0  0  0  0  0  0  0
   13.0186   11.0102   18.0020 C   0  0  0  0  0  0  0  0  0  0  0  0
    8.6628    5.7088   21.8871 N   0  0  0  0  0  0  0  0  0  0  0  0
    5.6516    3.5258   21.9140 C   0  0  0  0  0  0  0  0  0  0  0  0
   11.5863    9.6815   19.4539 C   0  0  0  0  0  0  0  0  0  0  0  0
   12.9648    4.1543   20.9205 C   0  0  0  0  0  0  0  0  0  0  0  0
    8.2089    3.6265   20.8929 C   0  0  0  0  0  0  0  0  0  0  0  0
    7.3827    2.5724   20.5432 C   0  0  0  0  0  0  0  0  0  0  0  0
   11.1529    7.2750   20.8025 C   0  0  0  0  0  0  0  0  0  0  0  0
   10.2573    8.3215   20.9827 C   0  0  0  0  0  0  0  0  0  0  0  0
   11.1606    5.9378   21.2366 N   0  0  0  0  0  0  0  0  0  0  0  0
    9.8932   11.6736   19.0677 O   0  0  0  0  0  0  0  0  0  0  0  0
    6.4470    4.5850   22.2321 C   0  0  0  0  0  0  0  0  0  0  0  0
    8.4619    6.9895   22.2968 C   0  0  0  0  0  0  0  0  0  0  0  0
   12.2747    7.5102   20.0420 C   0  0  0  0  0  0  0  0  0  0  0  0
   14.2544    6.2142   19.4191 C   0  0  0  0  0  0  0  0  0  0  0  0
   13.0695    6.3705   20.0375 N   0  0  0  0  0  0  0  0  0  0  0  0
    9.1913    8.0876   21.8361 N   0  0  0  0  0  0  0  0  0  0  0  0
   10.4739    9.4813   20.2889 C   0  0  0  0  0  0  0  0  0  0  0  0
    7.5551    7.1270   23.1200 O   0  0  0  0  0  0  0  0  0  0  0  0
  1 11  4  0
  1 21  4  0
  2  4  1  0
  2  8  1  0
  2 11  1  0
  3 10  4  0
  3 14  4  0
  4  5  1  0
  4 18  2  0
  6 12  1  0
  6 17  4  0
  6 23  4  0
  7  9  1  0
  7 13  4  0
  7 19  4  0
  9 20  1  0
 10 19  4  0
 11 25  4  0
 13 14  4  0
 15 16  4  0
 15 17  4  0
 15 21  4  0
 16 24  1  0
 16 25  4  0
 20 24  1  0
 20 26  2  0
 21 23  4  0
 22 23  1  0
M  END
$$$$

 Created by Python create_sdf_string function

 26 28  0  0  0  0  0  0  0  0999 V2000
   12.4616    8.6700   19.4180 N   0  0  0  0  0  0  0  0  0  0  0  0
   11.8329   10.8148   18.6769 N   0  0  0  0  0  0  0  0  0  0  0  0
    6.1021    2.5564   21.0678 C   0  0  0  0  0  0  0  0  0  0  0  0
   10.9097   11.8051   18.4804 C   0  0  0  0  0  0  0  0  0  0  0  0
   11.2280   12.9135   17.5669 C   0  0  0  0  0  0  0  0  0  0  0  0
   12.3782    5.4231   20.7777 C   0  0  0  0  0  0  0  0  0  0  0  0
    7.7365    4.6508   21.6987 C   0  0  0  0  0  0  0  0  0  0  0  0
   13.0186   11.0102   18.0020 C   0  0  0  0  0  0  0  0  0  0  0  0
    8.6628    5.7088   21.8871 N   0  0  0  0  0  0  0  0  0  0  0  0
    5.6516    3.5258   21.9140 C   0  0  0  0  0  0  0  0  0  0  0  0
   11.5863    9.6815   19.4539 C   0  0  0  0  0  0  0  0  0  0  0  0
   12.9648    4.1543   20.9205 C   0  0  0  0  0  0  0  0  0  0  0  0
    8.2089    3.6265   20.8929 C   0  0  0  0  0  0  0  0  0  0  0  0
    7.3827    2.5724   20.5432 C   0  0  0  0  0  0  0  0  0  0  0  0
   11.1529    7.2750   20.8025 C   0  0  0  0  0  0  0  0  0  0  0  0
   10.2573    8.3215   20.9827 C   0  0  0  0  0  0  0  0  0  0  0  0
   11.1606    5.9378   21.2366 N   0  0  0  0  0  0  0  0  0  0  0  0
    9.8932   11.6736   19.0677 O   0  0  0  0  0  0  0  0  0  0  0  0
    6.4470    4.5850   22.2321 C   0  0  0  0  0  0  0  0  0  0  0  0
    8.4619    6.9895   22.2968 C   0  0  0  0  0  0  0  0  0  0  0  0
   12.2747    7.5102   20.0420 C   0  0  0  0  0  0  0  0  0  0  0  0
   14.2544    6.2142   19.4191 C   0  0  0  0  0  0  0  0  0  0  0  0
   13.0695    6.3705   20.0375 N   0  0  0  0  0  0  0  0  0  0  0  0
    9.1913    8.0876   21.8361 N   0  0  0  0  0  0  0  0  0  0  0  0
   10.4739    9.4813   20.2889 C   0  0  0  0  0  0  0  0  0  0  0  0
    7.5551    7.1270   23.1200 O   0  0  0  0  0  0  0  0  0  0  0  0
  1 11  4  0
  1 21  4  0
  2  4  1  0
  2  8  1  0
  2 11  1  0
  3 10  4  0
  3 14  4  0
  4  5  1  0
  4 18  2  0
  6 12  1  0
  6 17  4  0
  6 23  4  0
  7  9  1  0
  7 13  4  0
  7 19  4  0
  9 20  1  0
 10 19  4  0
 11 25  4  0
 13 14  4  0
 15 16  4  0
 15 17  4  0
 15 21  4  0
 16 24  1  0
 16 25  4  0
 20 24  1  0
 20 26  2  0
 21 23  4  0
 22 23  1  0
M  END
$$$$

 Created by Python create_sdf_string function

 26 28  0  0  0  0  0  0  0  0999 V2000
   12.4616    8.6700   19.4180 N   0  0  0  0  0  0  0  0  0  0  0  0
   11.8329   10.8148   18.6769 N   0  0  0  0  0  0  0  0  0  0  0  0
    6.1021    2.5564   21.0678 C   0  0  0  0  0  0  0  0  0  0  0  0
   10.9097   11.8051   18.4804 C   0  0  0  0  0  0  0  0  0  0  0  0
   11.2280   12.9135   17.5669 C   0  0  0  0  0  0  0  0  0  0  0  0
   12.3782    5.4231   20.7777 C   0  0  0  0  0  0  0  0  0  0  0  0
    7.7365    4.6508   21.6987 C   0  0  0  0  0  0  0  0  0  0  0  0
   13.0186   11.0102   18.0020 C   0  0  0  0  0  0  0  0  0  0  0  0
    8.6628    5.7088   21.8871 N   0  0  0  0  0  0  0  0  0  0  0  0
    5.6516    3.5258   21.9140 C   0  0  0  0  0  0  0  0  0  0  0  0
   11.5863    9.6815   19.4539 C   0  0  0  0  0  0  0  0  0  0  0  0
   12.9648    4.1543   20.9205 C   0  0  0  0  0  0  0  0  0  0  0  0
    8.2089    3.6265   20.8929 C   0  0  0  0  0  0  0  0  0  0  0  0
    7.3827    2.5724   20.5432 C   0  0  0  0  0  0  0  0  0  0  0  0
   11.1529    7.2750   20.8025 C   0  0  0  0  0  0  0  0  0  0  0  0
   10.2573    8.3215   20.9827 C   0  0  0  0  0  0  0  0  0  0  0  0
   11.1606    5.9378   21.2366 N   0  0  0  0  0  0  0  0  0  0  0  0
    9.8932   11.6736   19.0677 O   0  0  0  0  0  0  0  0  0  0  0  0
    6.4470    4.5850   22.2321 C   0  0  0  0  0  0  0  0  0  0  0  0
    8.4619    6.9895   22.2968 C   0  0  0  0  0  0  0  0  0  0  0  0
   12.2747    7.5102   20.0420 C   0  0  0  0  0  0  0  0  0  0  0  0
   14.2544    6.2142   19.4191 C   0  0  0  0  0  0  0  0  0  0  0  0
   13.0695    6.3705   20.0375 N   0  0  0  0  0  0  0  0  0  0  0  0
    9.1913    8.0876   21.8361 N   0  0  0  0  0  0  0  0  0  0  0  0
   10.4739    9.4813   20.2889 C   0  0  0  0  0  0  0  0  0  0  0  0
    7.5551    7.1270   23.1200 O   0  0  0  0  0  0  0  0  0  0  0  0
  1 11  4  0
  1 21  4  0
  2  4  1  0
  2  8  1  0
  2 11  1  0
  3 10  4  0
  3 14  4  0
  4  5  1  0
  4 18  2  0
  6 12  1  0
  6 17  4  0
  6 23  4  0
  7  9  1  0
  7 13  4  0
  7 19  4  0
  9 20  1  0
 10 19  4  0
 11 25  4  0
 13 14  4  0
 15 16  4  0
 15 17  4  0
 15 21  4  0
 16 24  1  0
 16 25  4  0
 20 24  1  0
 20 26  2  0
 21 23  4  0
 22 23  1  0
M  END
$$$$

 Created by Python create_sdf_string function

 26 28  0  0  0  0  0  0  0  0999 V2000
   12.4616    8.6700   19.4180 N   0  0  0  0  0  0  0  0  0  0  0  0
   11.8329   10.8148   18.6769 N   0  0  0  0  0  0  0  0  0  0  0  0
    6.1021    2.5564   21.0678 C   0  0  0  0  0  0  0  0  0  0  0  0
   10.9097   11.8051   18.4804 C   0  0  0  0  0  0  0  0  0  0  0  0
   11.2280   12.9135   17.5669 C   0  0  0  0  0  0  0  0  0  0  0  0
   12.3782    5.4231   20.7777 C   0  0  0  0  0  0  0  0  0  0  0  0
    7.7365    4.6508   21.6987 C   0  0  0  0  0  0  0  0  0  0  0  0
   13.0186   11.0102   18.0020 C   0  0  0  0  0  0  0  0  0  0  0  0
    8.6628    5.7088   21.8871 N   0  0  0  0  0  0  0  0  0  0  0  0
    5.6516    3.5258   21.9140 C   0  0  0  0  0  0  0  0  0  0  0  0
   11.5863    9.6815   19.4539 C   0  0  0  0  0  0  0  0  0  0  0  0
   12.9648    4.1543   20.9205 C   0  0  0  0  0  0  0  0  0  0  0  0
    8.2089    3.6265   20.8929 C   0  0  0  0  0  0  0  0  0  0  0  0
    7.3827    2.5724   20.5432 C   0  0  0  0  0  0  0  0  0  0  0  0
   11.1529    7.2750   20.8025 C   0  0  0  0  0  0  0  0  0  0  0  0
   10.2573    8.3215   20.9827 C   0  0  0  0  0  0  0  0  0  0  0  0
   11.1606    5.9378   21.2366 N   0  0  0  0  0  0  0  0  0  0  0  0
    9.8932   11.6736   19.0677 O   0  0  0  0  0  0  0  0  0  0  0  0
    6.4470    4.5850   22.2321 C   0  0  0  0  0  0  0  0  0  0  0  0
    8.4619    6.9895   22.2968 C   0  0  0  0  0  0  0  0  0  0  0  0
   12.2747    7.5102   20.0420 C   0  0  0  0  0  0  0  0  0  0  0  0
   14.2544    6.2142   19.4191 C   0  0  0  0  0  0  0  0  0  0  0  0
   13.0695    6.3705   20.0375 N   0  0  0  0  0  0  0  0  0  0  0  0
    9.1913    8.0876   21.8361 N   0  0  0  0  0  0  0  0  0  0  0  0
   10.4739    9.4813   20.2889 C   0  0  0  0  0  0  0  0  0  0  0  0
    7.5551    7.1270   23.1200 O   0  0  0  0  0  0  0  0  0  0  0  0
  1 11  4  0
  1 21  4  0
  2  4  1  0
  2  8  1  0
  2 11  1  0
  3 10  4  0
  3 14  4  0
  4  5  1  0
  4 18  2  0
  6 12  1  0
  6 17  4  0
  6 23  4  0
  7  9  1  0
  7 13  4  0
  7 19  4  0
  9 20  1  0
 10 19  4  0
 11 25  4  0
 13 14  4  0
 15 16  4  0
 15 17  4  0
 15 21  4  0
 16 24  1  0
 16 25  4  0
 20 24  1  0
 20 26  2  0
 21 23  4  0
 22 23  1  0
M  END
$$$$

 Created by Python create_sdf_string function

 26 28  0  0  0  0  0  0  0  0999 V2000
   12.4616    8.6700   19.4180 N   0  0  0  0  0  0  0  0  0  0  0  0
   11.8329   10.8148   18.6769 N   0  0  0  0  0  0  0  0  0  0  0  0
    6.1021    2.5564   21.0678 C   0  0  0  0  0  0  0  0  0  0  0  0
   10.9097   11.8051   18.4804 C   0  0  0  0  0  0  0  0  0  0  0  0
   11.2280   12.9135   17.5669 C   0  0  0  0  0  0  0  0  0  0  0  0
   12.3782    5.4231   20.7777 C   0  0  0  0  0  0  0  0  0  0  0  0
    7.7365    4.6508   21.6987 C   0  0  0  0  0  0  0  0  0  0  0  0
   13.0186   11.0102   18.0020 C   0  0  0  0  0  0  0  0  0  0  0  0
    8.6628    5.7088   21.8871 N   0  0  0  0  0  0  0  0  0  0  0  0
    5.6516    3.5258   21.9140 C   0  0  0  0  0  0  0  0  0  0  0  0
   11.5863    9.6815   19.4539 C   0  0  0  0  0  0  0  0  0  0  0  0
   12.9648    4.1543   20.9205 C   0  0  0  0  0  0  0  0  0  0  0  0
    8.2089    3.6265   20.8929 C   0  0  0  0  0  0  0  0  0  0  0  0
    7.3827    2.5724   20.5432 C   0  0  0  0  0  0  0  0  0  0  0  0
   11.1529    7.2750   20.8025 C   0  0  0  0  0  0  0  0  0  0  0  0
   10.2573    8.3215   20.9827 C   0  0  0  0  0  0  0  0  0  0  0  0
   11.1606    5.9378   21.2366 N   0  0  0  0  0  0  0  0  0  0  0  0
    9.8932   11.6736   19.0677 O   0  0  0  0  0  0  0  0  0  0  0  0
    6.4470    4.5850   22.2321 C   0  0  0  0  0  0  0  0  0  0  0  0
    8.4619    6.9895   22.2968 C   0  0  0  0  0  0  0  0  0  0  0  0
   12.2747    7.5102   20.0420 C   0  0  0  0  0  0  0  0  0  0  0  0
   14.2544    6.2142   19.4191 C   0  0  0  0  0  0  0  0  0  0  0  0
   13.0695    6.3705   20.0375 N   0  0  0  0  0  0  0  0  0  0  0  0
    9.1913    8.0876   21.8361 N   0  0  0  0  0  0  0  0  0  0  0  0
   10.4739    9.4813   20.2889 C   0  0  0  0  0  0  0  0  0  0  0  0
    7.5551    7.1270   23.1200 O   0  0  0  0  0  0  0  0  0  0  0  0
  1 11  4  0
  1 21  4  0
  2  4  1  0
  2  8  1  0
  2 11  1  0
  3 10  4  0
  3 14  4  0
  4  5  1  0
  4 18  2  0
  6 12  1  0
  6 17  4  0
  6 23  4  0
  7  9  1  0
  7 13  4  0
  7 19  4  0
  9 20  1  0
 10 19  4  0
 11 25  4  0
 13 14  4  0
 15 16  4  0
 15 17  4  0
 15 21  4  0
 16 24  1  0
 16 25  4  0
 20 24  1  0
 20 26  2  0
 21 23  4  0
 22 23  1  0
M  END
$$$$

 Created by Python create_sdf_string function

 26 28  0  0  0  0  0  0  0  0999 V2000
   12.4616    8.6700   19.4180 N   0  0  0  0  0  0  0  0  0  0  0  0
   11.8329   10.8148   18.6769 N   0  0  0  0  0  0  0  0  0  0  0  0
    6.1021    2.5564   21.0678 C   0  0  0  0  0  0  0  0  0  0  0  0
   10.9097   11.8051   18.4804 C   0  0  0  0  0  0  0  0  0  0  0  0
   11.2280   12.9135   17.5669 C   0  0  0  0  0  0  0  0  0  0  0  0
   12.3782    5.4231   20.7777 C   0  0  0  0  0  0  0  0  0  0  0  0
    7.7365    4.6508   21.6987 C   0  0  0  0  0  0  0  0  0  0  0  0
   13.0186   11.0102   18.0020 C   0  0  0  0  0  0  0  0  0  0  0  0
    8.6628    5.7088   21.8871 N   0  0  0  0  0  0  0  0  0  0  0  0
    5.6516    3.5258   21.9140 C   0  0  0  0  0  0  0  0  0  0  0  0
   11.5863    9.6815   19.4539 C   0  0  0  0  0  0  0  0  0  0  0  0
   12.9648    4.1543   20.9205 C   0  0  0  0  0  0  0  0  0  0  0  0
    8.2089    3.6265   20.8929 C   0  0  0  0  0  0  0  0  0  0  0  0
    7.3827    2.5724   20.5432 C   0  0  0  0  0  0  0  0  0  0  0  0
   11.1529    7.2750   20.8025 C   0  0  0  0  0  0  0  0  0  0  0  0
   10.2573    8.3215   20.9827 C   0  0  0  0  0  0  0  0  0  0  0  0
   11.1606    5.9378   21.2366 N   0  0  0  0  0  0  0  0  0  0  0  0
    9.8932   11.6736   19.0677 O   0  0  0  0  0  0  0  0  0  0  0  0
    6.4470    4.5850   22.2321 C   0  0  0  0  0  0  0  0  0  0  0  0
    8.4619    6.9895   22.2968 C   0  0  0  0  0  0  0  0  0  0  0  0
   12.2747    7.5102   20.0420 C   0  0  0  0  0  0  0  0  0  0  0  0
   14.2544    6.2142   19.4191 C   0  0  0  0  0  0  0  0  0  0  0  0
   13.0695    6.3705   20.0375 N   0  0  0  0  0  0  0  0  0  0  0  0
    9.1913    8.0876   21.8361 N   0  0  0  0  0  0  0  0  0  0  0  0
   10.4739    9.4813   20.2889 C   0  0  0  0  0  0  0  0  0  0  0  0
    7.5551    7.1270   23.1200 O   0  0  0  0  0  0  0  0  0  0  0  0
  1 11  4  0
  1 21  4  0
  2  4  1  0
  2  8  1  0
  2 11  1  0
  3 10  4  0
  3 14  4  0
  4  5  1  0
  4 18  2  0
  6 12  1  0
  6 17  4  0
  6 23  4  0
  7  9  1  0
  7 13  4  0
  7 19  4  0
  9 20  1  0
 10 19  4  0
 11 25  4  0
 13 14  4  0
 15 16  4  0
 15 17  4  0
 15 21  4  0
 16 24  1  0
 16 25  4  0
 20 24  1  0
 20 26  2  0
 21 23  4  0
 22 23  1  0
M  END
$$$$

 Created by Python create_sdf_string function

 26 28  0  0  0  0  0  0  0  0999 V2000
   12.4616    8.6700   19.4180 N   0  0  0  0  0  0  0  0  0  0  0  0
   11.8329   10.8148   18.6769 N   0  0  0  0  0  0  0  0  0  0  0  0
    6.1021    2.5564   21.0678 C   0  0  0  0  0  0  0  0  0  0  0  0
   10.9097   11.8051   18.4804 C   0  0  0  0  0  0  0  0  0  0  0  0
   11.2280   12.9135   17.5669 C   0  0  0  0  0  0  0  0  0  0  0  0
   12.3782    5.4231   20.7777 C   0  0  0  0  0  0  0  0  0  0  0  0
    7.7365    4.6508   21.6987 C   0  0  0  0  0  0  0  0  0  0  0  0
   13.0186   11.0102   18.0020 C   0  0  0  0  0  0  0  0  0  0  0  0
    8.6628    5.7088   21.8871 N   0  0  0  0  0  0  0  0  0  0  0  0
    5.6516    3.5258   21.9140 C   0  0  0  0  0  0  0  0  0  0  0  0
   11.5863    9.6815   19.4539 C   0  0  0  0  0  0  0  0  0  0  0  0
   12.9648    4.1543   20.9205 C   0  0  0  0  0  0  0  0  0  0  0  0
    8.2089    3.6265   20.8929 C   0  0  0  0  0  0  0  0  0  0  0  0
    7.3827    2.5724   20.5432 C   0  0  0  0  0  0  0  0  0  0  0  0
   11.1529    7.2750   20.8025 C   0  0  0  0  0  0  0  0  0  0  0  0
   10.2573    8.3215   20.9827 C   0  0  0  0  0  0  0  0  0  0  0  0
   11.1606    5.9378   21.2366 N   0  0  0  0  0  0  0  0  0  0  0  0
    9.8932   11.6736   19.0677 O   0  0  0  0  0  0  0  0  0  0  0  0
    6.4470    4.5850   22.2321 C   0  0  0  0  0  0  0  0  0  0  0  0
    8.4619    6.9895   22.2968 C   0  0  0  0  0  0  0  0  0  0  0  0
   12.2747    7.5102   20.0420 C   0  0  0  0  0  0  0  0  0  0  0  0
   14.2544    6.2142   19.4191 C   0  0  0  0  0  0  0  0  0  0  0  0
   13.0695    6.3705   20.0375 N   0  0  0  0  0  0  0  0  0  0  0  0
    9.1913    8.0876   21.8361 N   0  0  0  0  0  0  0  0  0  0  0  0
   10.4739    9.4813   20.2889 C   0  0  0  0  0  0  0  0  0  0  0  0
    7.5551    7.1270   23.1200 O   0  0  0  0  0  0  0  0  0  0  0  0
  1 11  4  0
  1 21  4  0
  2  4  1  0
  2  8  1  0
  2 11  1  0
  3 10  4  0
  3 14  4  0
  4  5  1  0
  4 18  2  0
  6 12  1  0
  6 17  4  0
  6 23  4  0
  7  9  1  0
  7 13  4  0
  7 19  4  0
  9 20  1  0
 10 19  4  0
 11 25  4  0
 13 14  4  0
 15 16  4  0
 15 17  4  0
 15 21  4  0
 16 24  1  0
 16 25  4  0
 20 24  1  0
 20 26  2  0
 21 23  4  0
 22 23  1  0
M  END
$$$$

 Created by Python create_sdf_string function

 26 28  0  0  0  0  0  0  0  0999 V2000
   12.4616    8.6700   19.4180 N   0  0  0  0  0  0  0  0  0  0  0  0
   11.8329   10.8148   18.6769 N   0  0  0  0  0  0  0  0  0  0  0  0
    6.1021    2.5564   21.0678 C   0  0  0  0  0  0  0  0  0  0  0  0
   10.9097   11.8051   18.4804 C   0  0  0  0  0  0  0  0  0  0  0  0
   11.2280   12.9135   17.5669 C   0  0  0  0  0  0  0  0  0  0  0  0
   12.3782    5.4231   20.7777 C   0  0  0  0  0  0  0  0  0  0  0  0
    7.7365    4.6508   21.6987 C   0  0  0  0  0  0  0  0  0  0  0  0
   13.0186   11.0102   18.0020 C   0  0  0  0  0  0  0  0  0  0  0  0
    8.6628    5.7088   21.8871 N   0  0  0  0  0  0  0  0  0  0  0  0
    5.6516    3.5258   21.9140 C   0  0  0  0  0  0  0  0  0  0  0  0
   11.5863    9.6815   19.4539 C   0  0  0  0  0  0  0  0  0  0  0  0
   12.9648    4.1543   20.9205 C   0  0  0  0  0  0  0  0  0  0  0  0
    8.2089    3.6265   20.8929 C   0  0  0  0  0  0  0  0  0  0  0  0
    7.3827    2.5724   20.5432 C   0  0  0  0  0  0  0  0  0  0  0  0
   11.1529    7.2750   20.8025 C   0  0  0  0  0  0  0  0  0  0  0  0
   10.2573    8.3215   20.9827 C   0  0  0  0  0  0  0  0  0  0  0  0
   11.1606    5.9378   21.2366 N   0  0  0  0  0  0  0  0  0  0  0  0
    9.8932   11.6736   19.0677 O   0  0  0  0  0  0  0  0  0  0  0  0
    6.4470    4.5850   22.2321 C   0  0  0  0  0  0  0  0  0  0  0  0
    8.4619    6.9895   22.2968 C   0  0  0  0  0  0  0  0  0  0  0  0
   12.2747    7.5102   20.0420 C   0  0  0  0  0  0  0  0  0  0  0  0
   14.2544    6.2142   19.4191 C   0  0  0  0  0  0  0  0  0  0  0  0
   13.0695    6.3705   20.0375 N   0  0  0  0  0  0  0  0  0  0  0  0
    9.1913    8.0876   21.8361 N   0  0  0  0  0  0  0  0  0  0  0  0
   10.4739    9.4813   20.2889 C   0  0  0  0  0  0  0  0  0  0  0  0
    7.5551    7.1270   23.1200 O   0  0  0  0  0  0  0  0  0  0  0  0
  1 11  4  0
  1 21  4  0
  2  4  1  0
  2  8  1  0
  2 11  1  0
  3 10  4  0
  3 14  4  0
  4  5  1  0
  4 18  2  0
  6 12  1  0
  6 17  4  0
  6 23  4  0
  7  9  1  0
  7 13  4  0
  7 19  4  0
  9 20  1  0
 10 19  4  0
 11 25  4  0
 13 14  4  0
 15 16  4  0
 15 17  4  0
 15 21  4  0
 16 24  1  0
 16 25  4  0
 20 24  1  0
 20 26  2  0
 21 23  4  0
 22 23  1  0
M  END
$$$$

 Created by Python create_sdf_string function

 26 28  0  0  0  0  0  0  0  0999 V2000
   12.4616    8.6700   19.4180 N   0  0  0  0  0  0  0  0  0  0  0  0
   11.8329   10.8148   18.6769 N   0  0  0  0  0  0  0  0  0  0  0  0
    6.1021    2.5564   21.0678 C   0  0  0  0  0  0  0  0  0  0  0  0
   10.9097   11.8051   18.4804 C   0  0  0  0  0  0  0  0  0  0  0  0
   11.2280   12.9135   17.5669 C   0  0  0  0  0  0  0  0  0  0  0  0
   12.3782    5.4231   20.7777 C   0  0  0  0  0  0  0  0  0  0  0  0
    7.7365    4.6508   21.6987 C   0  0  0  0  0  0  0  0  0  0  0  0
   13.0186   11.0102   18.0020 C   0  0  0  0  0  0  0  0  0  0  0  0
    8.6628    5.7088   21.8871 N   0  0  0  0  0  0  0  0  0  0  0  0
    5.6516    3.5258   21.9140 C   0  0  0  0  0  0  0  0  0  0  0  0
   11.5863    9.6815   19.4539 C   0  0  0  0  0  0  0  0  0  0  0  0
   12.9648    4.1543   20.9205 C   0  0  0  0  0  0  0  0  0  0  0  0
    8.2089    3.6265   20.8929 C   0  0  0  0  0  0  0  0  0  0  0  0
    7.3827    2.5724   20.5432 C   0  0  0  0  0  0  0  0  0  0  0  0
   11.1529    7.2750   20.8025 C   0  0  0  0  0  0  0  0  0  0  0  0
   10.2573    8.3215   20.9827 C   0  0  0  0  0  0  0  0  0  0  0  0
   11.1606    5.9378   21.2366 N   0  0  0  0  0  0  0  0  0  0  0  0
    9.8932   11.6736   19.0677 O   0  0  0  0  0  0  0  0  0  0  0  0
    6.4470    4.5850   22.2321 C   0  0  0  0  0  0  0  0  0  0  0  0
    8.4619    6.9895   22.2968 C   0  0  0  0  0  0  0  0  0  0  0  0
   12.2747    7.5102   20.0420 C   0  0  0  0  0  0  0  0  0  0  0  0
   14.2544    6.2142   19.4191 C   0  0  0  0  0  0  0  0  0  0  0  0
   13.0695    6.3705   20.0375 N   0  0  0  0  0  0  0  0  0  0  0  0
    9.1913    8.0876   21.8361 N   0  0  0  0  0  0  0  0  0  0  0  0
   10.4739    9.4813   20.2889 C   0  0  0  0  0  0  0  0  0  0  0  0
    7.5551    7.1270   23.1200 O   0  0  0  0  0  0  0  0  0  0  0  0
  1 11  4  0
  1 21  4  0
  2  4  1  0
  2  8  1  0
  2 11  1  0
  3 10  4  0
  3 14  4  0
  4  5  1  0
  4 18  2  0
  6 12  1  0
  6 17  4  0
  6 23  4  0
  7  9  1  0
  7 13  4  0
  7 19  4  0
  9 20  1  0
 10 19  4  0
 11 25  4  0
 13 14  4  0
 15 16  4  0
 15 17  4  0
 15 21  4  0
 16 24  1  0
 16 25  4  0
 20 24  1  0
 20 26  2  0
 21 23  4  0
 22 23  1  0
M  END
$$$$

 Created by Python create_sdf_string function

 26 28  0  0  0  0  0  0  0  0999 V2000
   12.4616    8.6700   19.4180 N   0  0  0  0  0  0  0  0  0  0  0  0
   11.8329   10.8148   18.6769 N   0  0  0  0  0  0  0  0  0  0  0  0
    6.1021    2.5564   21.0678 C   0  0  0  0  0  0  0  0  0  0  0  0
   10.9097   11.8051   18.4804 C   0  0  0  0  0  0  0  0  0  0  0  0
   11.2280   12.9135   17.5669 C   0  0  0  0  0  0  0  0  0  0  0  0
   12.3782    5.4231   20.7777 C   0  0  0  0  0  0  0  0  0  0  0  0
    7.7365    4.6508   21.6987 C   0  0  0  0  0  0  0  0  0  0  0  0
   13.0186   11.0102   18.0020 C   0  0  0  0  0  0  0  0  0  0  0  0
    8.6628    5.7088   21.8871 N   0  0  0  0  0  0  0  0  0  0  0  0
    5.6516    3.5258   21.9140 C   0  0  0  0  0  0  0  0  0  0  0  0
   11.5863    9.6815   19.4539 C   0  0  0  0  0  0  0  0  0  0  0  0
   12.9648    4.1543   20.9205 C   0  0  0  0  0  0  0  0  0  0  0  0
    8.2089    3.6265   20.8929 C   0  0  0  0  0  0  0  0  0  0  0  0
    7.3827    2.5724   20.5432 C   0  0  0  0  0  0  0  0  0  0  0  0
   11.1529    7.2750   20.8025 C   0  0  0  0  0  0  0  0  0  0  0  0
   10.2573    8.3215   20.9827 C   0  0  0  0  0  0  0  0  0  0  0  0
   11.1606    5.9378   21.2366 N   0  0  0  0  0  0  0  0  0  0  0  0
    9.8932   11.6736   19.0677 O   0  0  0  0  0  0  0  0  0  0  0  0
    6.4470    4.5850   22.2321 C   0  0  0  0  0  0  0  0  0  0  0  0
    8.4619    6.9895   22.2968 C   0  0  0  0  0  0  0  0  0  0  0  0
   12.2747    7.5102   20.0420 C   0  0  0  0  0  0  0  0  0  0  0  0
   14.2544    6.2142   19.4191 C   0  0  0  0  0  0  0  0  0  0  0  0
   13.0695    6.3705   20.0375 N   0  0  0  0  0  0  0  0  0  0  0  0
    9.1913    8.0876   21.8361 N   0  0  0  0  0  0  0  0  0  0  0  0
   10.4739    9.4813   20.2889 C   0  0  0  0  0  0  0  0  0  0  0  0
    7.5551    7.1270   23.1200 O   0  0  0  0  0  0  0  0  0  0  0  0
  1 11  4  0
  1 21  4  0
  2  4  1  0
  2  8  1  0
  2 11  1  0
  3 10  4  0
  3 14  4  0
  4  5  1  0
  4 18  2  0
  6 12  1  0
  6 17  4  0
  6 23  4  0
  7  9  1  0
  7 13  4  0
  7 19  4  0
  9 20  1  0
 10 19  4  0
 11 25  4  0
 13 14  4  0
 15 16  4  0
 15 17  4  0
 15 21  4  0
 16 24  1  0
 16 25  4  0
 20 24  1  0
 20 26  2  0
 21 23  4  0
 22 23  1  0
M  END
$$$$

 Created by Python create_sdf_string function

 26 28  0  0  0  0  0  0  0  0999 V2000
   12.4616    8.6700   19.4180 N   0  0  0  0  0  0  0  0  0  0  0  0
   11.8329   10.8148   18.6769 N   0  0  0  0  0  0  0  0  0  0  0  0
    6.1021    2.5564   21.0678 C   0  0  0  0  0  0  0  0  0  0  0  0
   10.9097   11.8051   18.4804 C   0  0  0  0  0  0  0  0  0  0  0  0
   11.2280   12.9135   17.5669 C   0  0  0  0  0  0  0  0  0  0  0  0
   12.3782    5.4231   20.7777 C   0  0  0  0  0  0  0  0  0  0  0  0
    7.7365    4.6508   21.6987 C   0  0  0  0  0  0  0  0  0  0  0  0
   13.0186   11.0102   18.0020 C   0  0  0  0  0  0  0  0  0  0  0  0
    8.6628    5.7088   21.8871 N   0  0  0  0  0  0  0  0  0  0  0  0
    5.6516    3.5258   21.9140 C   0  0  0  0  0  0  0  0  0  0  0  0
   11.5863    9.6815   19.4539 C   0  0  0  0  0  0  0  0  0  0  0  0
   12.9648    4.1543   20.9205 C   0  0  0  0  0  0  0  0  0  0  0  0
    8.2089    3.6265   20.8929 C   0  0  0  0  0  0  0  0  0  0  0  0
    7.3827    2.5724   20.5432 C   0  0  0  0  0  0  0  0  0  0  0  0
   11.1529    7.2750   20.8025 C   0  0  0  0  0  0  0  0  0  0  0  0
   10.2573    8.3215   20.9827 C   0  0  0  0  0  0  0  0  0  0  0  0
   11.1606    5.9378   21.2366 N   0  0  0  0  0  0  0  0  0  0  0  0
    9.8932   11.6736   19.0677 O   0  0  0  0  0  0  0  0  0  0  0  0
    6.4470    4.5850   22.2321 C   0  0  0  0  0  0  0  0  0  0  0  0
    8.4619    6.9895   22.2968 C   0  0  0  0  0  0  0  0  0  0  0  0
   12.2747    7.5102   20.0420 C   0  0  0  0  0  0  0  0  0  0  0  0
   14.2544    6.2142   19.4191 C   0  0  0  0  0  0  0  0  0  0  0  0
   13.0695    6.3705   20.0375 N   0  0  0  0  0  0  0  0  0  0  0  0
    9.1913    8.0876   21.8361 N   0  0  0  0  0  0  0  0  0  0  0  0
   10.4739    9.4813   20.2889 C   0  0  0  0  0  0  0  0  0  0  0  0
    7.5551    7.1270   23.1200 O   0  0  0  0  0  0  0  0  0  0  0  0
  1 11  4  0
  1 21  4  0
  2  4  1  0
  2  8  1  0
  2 11  1  0
  3 10  4  0
  3 14  4  0
  4  5  1  0
  4 18  2  0
  6 12  1  0
  6 17  4  0
  6 23  4  0
  7  9  1  0
  7 13  4  0
  7 19  4  0
  9 20  1  0
 10 19  4  0
 11 25  4  0
 13 14  4  0
 15 16  4  0
 15 17  4  0
 15 21  4  0
 16 24  1  0
 16 25  4  0
 20 24  1  0
 20 26  2  0
 21 23  4  0
 22 23  1  0
M  END
$$$$

 Created by Python create_sdf_string function

 26 28  0  0  0  0  0  0  0  0999 V2000
   12.4616    8.6700   19.4180 N   0  0  0  0  0  0  0  0  0  0  0  0
   11.8329   10.8148   18.6769 N   0  0  0  0  0  0  0  0  0  0  0  0
    6.1021    2.5564   21.0678 C   0  0  0  0  0  0  0  0  0  0  0  0
   10.9097   11.8051   18.4804 C   0  0  0  0  0  0  0  0  0  0  0  0
   11.2280   12.9135   17.5669 C   0  0  0  0  0  0  0  0  0  0  0  0
   12.3782    5.4231   20.7777 C   0  0  0  0  0  0  0  0  0  0  0  0
    7.7365    4.6508   21.6987 C   0  0  0  0  0  0  0  0  0  0  0  0
   13.0186   11.0102   18.0020 C   0  0  0  0  0  0  0  0  0  0  0  0
    8.6628    5.7088   21.8871 N   0  0  0  0  0  0  0  0  0  0  0  0
    5.6516    3.5258   21.9140 C   0  0  0  0  0  0  0  0  0  0  0  0
   11.5863    9.6815   19.4539 C   0  0  0  0  0  0  0  0  0  0  0  0
   12.9648    4.1543   20.9205 C   0  0  0  0  0  0  0  0  0  0  0  0
    8.2089    3.6265   20.8929 C   0  0  0  0  0  0  0  0  0  0  0  0
    7.3827    2.5724   20.5432 C   0  0  0  0  0  0  0  0  0  0  0  0
   11.1529    7.2750   20.8025 C   0  0  0  0  0  0  0  0  0  0  0  0
   10.2573    8.3215   20.9827 C   0  0  0  0  0  0  0  0  0  0  0  0
   11.1606    5.9378   21.2366 N   0  0  0  0  0  0  0  0  0  0  0  0
    9.8932   11.6736   19.0677 O   0  0  0  0  0  0  0  0  0  0  0  0
    6.4470    4.5850   22.2321 C   0  0  0  0  0  0  0  0  0  0  0  0
    8.4619    6.9895   22.2968 C   0  0  0  0  0  0  0  0  0  0  0  0
   12.2747    7.5102   20.0420 C   0  0  0  0  0  0  0  0  0  0  0  0
   14.2544    6.2142   19.4191 C   0  0  0  0  0  0  0  0  0  0  0  0
   13.0695    6.3705   20.0375 N   0  0  0  0  0  0  0  0  0  0  0  0
    9.1913    8.0876   21.8361 N   0  0  0  0  0  0  0  0  0  0  0  0
   10.4739    9.4813   20.2889 C   0  0  0  0  0  0  0  0  0  0  0  0
    7.5551    7.1270   23.1200 O   0  0  0  0  0  0  0  0  0  0  0  0
  1 11  4  0
  1 21  4  0
  2  4  1  0
  2  8  1  0
  2 11  1  0
  3 10  4  0
  3 14  4  0
  4  5  1  0
  4 18  2  0
  6 12  1  0
  6 17  4  0
  6 23  4  0
  7  9  1  0
  7 13  4  0
  7 19  4  0
  9 20  1  0
 10 19  4  0
 11 25  4  0
 13 14  4  0
 15 16  4  0
 15 17  4  0
 15 21  4  0
 16 24  1  0
 16 25  4  0
 20 24  1  0
 20 26  2  0
 21 23  4  0
 22 23  1  0
M  END
$$$$

 Created by Python create_sdf_string function

 26 28  0  0  0  0  0  0  0  0999 V2000
   12.4616    8.6700   19.4180 N   0  0  0  0  0  0  0  0  0  0  0  0
   11.8329   10.8148   18.6769 N   0  0  0  0  0  0  0  0  0  0  0  0
    6.1021    2.5564   21.0678 C   0  0  0  0  0  0  0  0  0  0  0  0
   10.9097   11.8051   18.4804 C   0  0  0  0  0  0  0  0  0  0  0  0
   11.2280   12.9135   17.5669 C   0  0  0  0  0  0  0  0  0  0  0  0
   12.3782    5.4231   20.7777 C   0  0  0  0  0  0  0  0  0  0  0  0
    7.7365    4.6508   21.6987 C   0  0  0  0  0  0  0  0  0  0  0  0
   13.0186   11.0102   18.0020 C   0  0  0  0  0  0  0  0  0  0  0  0
    8.6628    5.7088   21.8871 N   0  0  0  0  0  0  0  0  0  0  0  0
    5.6516    3.5258   21.9140 C   0  0  0  0  0  0  0  0  0  0  0  0
   11.5863    9.6815   19.4539 C   0  0  0  0  0  0  0  0  0  0  0  0
   12.9648    4.1543   20.9205 C   0  0  0  0  0  0  0  0  0  0  0  0
    8.2089    3.6265   20.8929 C   0  0  0  0  0  0  0  0  0  0  0  0
    7.3827    2.5724   20.5432 C   0  0  0  0  0  0  0  0  0  0  0  0
   11.1529    7.2750   20.8025 C   0  0  0  0  0  0  0  0  0  0  0  0
   10.2573    8.3215   20.9827 C   0  0  0  0  0  0  0  0  0  0  0  0
   11.1606    5.9378   21.2366 N   0  0  0  0  0  0  0  0  0  0  0  0
    9.8932   11.6736   19.0677 O   0  0  0  0  0  0  0  0  0  0  0  0
    6.4470    4.5850   22.2321 C   0  0  0  0  0  0  0  0  0  0  0  0
    8.4619    6.9895   22.2968 C   0  0  0  0  0  0  0  0  0  0  0  0
   12.2747    7.5102   20.0420 C   0  0  0  0  0  0  0  0  0  0  0  0
   14.2544    6.2142   19.4191 C   0  0  0  0  0  0  0  0  0  0  0  0
   13.0695    6.3705   20.0375 N   0  0  0  0  0  0  0  0  0  0  0  0
    9.1913    8.0876   21.8361 N   0  0  0  0  0  0  0  0  0  0  0  0
   10.4739    9.4813   20.2889 C   0  0  0  0  0  0  0  0  0  0  0  0
    7.5551    7.1270   23.1200 O   0  0  0  0  0  0  0  0  0  0  0  0
  1 11  4  0
  1 21  4  0
  2  4  1  0
  2  8  1  0
  2 11  1  0
  3 10  4  0
  3 14  4  0
  4  5  1  0
  4 18  2  0
  6 12  1  0
  6 17  4  0
  6 23  4  0
  7  9  1  0
  7 13  4  0
  7 19  4  0
  9 20  1  0
 10 19  4  0
 11 25  4  0
 13 14  4  0
 15 16  4  0
 15 17  4  0
 15 21  4  0
 16 24  1  0
 16 25  4  0
 20 24  1  0
 20 26  2  0
 21 23  4  0
 22 23  1  0
M  END
$$$$

 Created by Python create_sdf_string function

 26 28  0  0  0  0  0  0  0  0999 V2000
   12.4616    8.6700   19.4180 N   0  0  0  0  0  0  0  0  0  0  0  0
   11.8329   10.8148   18.6769 N   0  0  0  0  0  0  0  0  0  0  0  0
    6.1021    2.5564   21.0678 C   0  0  0  0  0  0  0  0  0  0  0  0
   10.9097   11.8051   18.4804 C   0  0  0  0  0  0  0  0  0  0  0  0
   11.2280   12.9135   17.5669 C   0  0  0  0  0  0  0  0  0  0  0  0
   12.3782    5.4231   20.7777 C   0  0  0  0  0  0  0  0  0  0  0  0
    7.7365    4.6508   21.6987 C   0  0  0  0  0  0  0  0  0  0  0  0
   13.0186   11.0102   18.0020 C   0  0  0  0  0  0  0  0  0  0  0  0
    8.6628    5.7088   21.8871 N   0  0  0  0  0  0  0  0  0  0  0  0
    5.6516    3.5258   21.9140 C   0  0  0  0  0  0  0  0  0  0  0  0
   11.5863    9.6815   19.4539 C   0  0  0  0  0  0  0  0  0  0  0  0
   12.9648    4.1543   20.9205 C   0  0  0  0  0  0  0  0  0  0  0  0
    8.2089    3.6265   20.8929 C   0  0  0  0  0  0  0  0  0  0  0  0
    7.3827    2.5724   20.5432 C   0  0  0  0  0  0  0  0  0  0  0  0
   11.1529    7.2750   20.8025 C   0  0  0  0  0  0  0  0  0  0  0  0
   10.2573    8.3215   20.9827 C   0  0  0  0  0  0  0  0  0  0  0  0
   11.1606    5.9378   21.2366 N   0  0  0  0  0  0  0  0  0  0  0  0
    9.8932   11.6736   19.0677 O   0  0  0  0  0  0  0  0  0  0  0  0
    6.4470    4.5850   22.2321 C   0  0  0  0  0  0  0  0  0  0  0  0
    8.4619    6.9895   22.2968 C   0  0  0  0  0  0  0  0  0  0  0  0
   12.2747    7.5102   20.0420 C   0  0  0  0  0  0  0  0  0  0  0  0
   14.2544    6.2142   19.4191 C   0  0  0  0  0  0  0  0  0  0  0  0
   13.0695    6.3705   20.0375 N   0  0  0  0  0  0  0  0  0  0  0  0
    9.1913    8.0876   21.8361 N   0  0  0  0  0  0  0  0  0  0  0  0
   10.4739    9.4813   20.2889 C   0  0  0  0  0  0  0  0  0  0  0  0
    7.5551    7.1270   23.1200 O   0  0  0  0  0  0  0  0  0  0  0  0
  1 11  4  0
  1 21  4  0
  2  4  1  0
  2  8  1  0
  2 11  1  0
  3 10  4  0
  3 14  4  0
  4  5  1  0
  4 18  2  0
  6 12  1  0
  6 17  4  0
  6 23  4  0
  7  9  1  0
  7 13  4  0
  7 19  4  0
  9 20  1  0
 10 19  4  0
 11 25  4  0
 13 14  4  0
 15 16  4  0
 15 17  4  0
 15 21  4  0
 16 24  1  0
 16 25  4  0
 20 24  1  0
 20 26  2  0
 21 23  4  0
 22 23  1  0
M  END
$$$$

 Created by Python create_sdf_string function

 26 28  0  0  0  0  0  0  0  0999 V2000
   12.4616    8.6700   19.4180 N   0  0  0  0  0  0  0  0  0  0  0  0
   11.8329   10.8148   18.6769 N   0  0  0  0  0  0  0  0  0  0  0  0
    6.1021    2.5564   21.0678 C   0  0  0  0  0  0  0  0  0  0  0  0
   10.9097   11.8051   18.4804 C   0  0  0  0  0  0  0  0  0  0  0  0
   11.2280   12.9135   17.5669 C   0  0  0  0  0  0  0  0  0  0  0  0
   12.3782    5.4231   20.7777 C   0  0  0  0  0  0  0  0  0  0  0  0
    7.7365    4.6508   21.6987 C   0  0  0  0  0  0  0  0  0  0  0  0
   13.0186   11.0102   18.0020 C   0  0  0  0  0  0  0  0  0  0  0  0
    8.6628    5.7088   21.8871 N   0  0  0  0  0  0  0  0  0  0  0  0
    5.6516    3.5258   21.9140 C   0  0  0  0  0  0  0  0  0  0  0  0
   11.5863    9.6815   19.4539 C   0  0  0  0  0  0  0  0  0  0  0  0
   12.9648    4.1543   20.9205 C   0  0  0  0  0  0  0  0  0  0  0  0
    8.2089    3.6265   20.8929 C   0  0  0  0  0  0  0  0  0  0  0  0
    7.3827    2.5724   20.5432 C   0  0  0  0  0  0  0  0  0  0  0  0
   11.1529    7.2750   20.8025 C   0  0  0  0  0  0  0  0  0  0  0  0
   10.2573    8.3215   20.9827 C   0  0  0  0  0  0  0  0  0  0  0  0
   11.1606    5.9378   21.2366 N   0  0  0  0  0  0  0  0  0  0  0  0
    9.8932   11.6736   19.0677 O   0  0  0  0  0  0  0  0  0  0  0  0
    6.4470    4.5850   22.2321 C   0  0  0  0  0  0  0  0  0  0  0  0
    8.4619    6.9895   22.2968 C   0  0  0  0  0  0  0  0  0  0  0  0
   12.2747    7.5102   20.0420 C   0  0  0  0  0  0  0  0  0  0  0  0
   14.2544    6.2142   19.4191 C   0  0  0  0  0  0  0  0  0  0  0  0
   13.0695    6.3705   20.0375 N   0  0  0  0  0  0  0  0  0  0  0  0
    9.1913    8.0876   21.8361 N   0  0  0  0  0  0  0  0  0  0  0  0
   10.4739    9.4813   20.2889 C   0  0  0  0  0  0  0  0  0  0  0  0
    7.5551    7.1270   23.1200 O   0  0  0  0  0  0  0  0  0  0  0  0
  1 11  4  0
  1 21  4  0
  2  4  1  0
  2  8  1  0
  2 11  1  0
  3 10  4  0
  3 14  4  0
  4  5  1  0
  4 18  2  0
  6 12  1  0
  6 17  4  0
  6 23  4  0
  7  9  1  0
  7 13  4  0
  7 19  4  0
  9 20  1  0
 10 19  4  0
 11 25  4  0
 13 14  4  0
 15 16  4  0
 15 17  4  0
 15 21  4  0
 16 24  1  0
 16 25  4  0
 20 24  1  0
 20 26  2  0
 21 23  4  0
 22 23  1  0
M  END
$$$$

 Created by Python create_sdf_string function

 26 28  0  0  0  0  0  0  0  0999 V2000
   12.4616    8.6700   19.4180 N   0  0  0  0  0  0  0  0  0  0  0  0
   11.8329   10.8148   18.6769 N   0  0  0  0  0  0  0  0  0  0  0  0
    6.1021    2.5564   21.0678 C   0  0  0  0  0  0  0  0  0  0  0  0
   10.9097   11.8051   18.4804 C   0  0  0  0  0  0  0  0  0  0  0  0
   11.2280   12.9135   17.5669 C   0  0  0  0  0  0  0  0  0  0  0  0
   12.3782    5.4231   20.7777 C   0  0  0  0  0  0  0  0  0  0  0  0
    7.7365    4.6508   21.6987 C   0  0  0  0  0  0  0  0  0  0  0  0
   13.0186   11.0102   18.0020 C   0  0  0  0  0  0  0  0  0  0  0  0
    8.6628    5.7088   21.8871 N   0  0  0  0  0  0  0  0  0  0  0  0
    5.6516    3.5258   21.9140 C   0  0  0  0  0  0  0  0  0  0  0  0
   11.5863    9.6815   19.4539 C   0  0  0  0  0  0  0  0  0  0  0  0
   12.9648    4.1543   20.9205 C   0  0  0  0  0  0  0  0  0  0  0  0
    8.2089    3.6265   20.8929 C   0  0  0  0  0  0  0  0  0  0  0  0
    7.3827    2.5724   20.5432 C   0  0  0  0  0  0  0  0  0  0  0  0
   11.1529    7.2750   20.8025 C   0  0  0  0  0  0  0  0  0  0  0  0
   10.2573    8.3215   20.9827 C   0  0  0  0  0  0  0  0  0  0  0  0
   11.1606    5.9378   21.2366 N   0  0  0  0  0  0  0  0  0  0  0  0
    9.8932   11.6736   19.0677 O   0  0  0  0  0  0  0  0  0  0  0  0
    6.4470    4.5850   22.2321 C   0  0  0  0  0  0  0  0  0  0  0  0
    8.4619    6.9895   22.2968 C   0  0  0  0  0  0  0  0  0  0  0  0
   12.2747    7.5102   20.0420 C   0  0  0  0  0  0  0  0  0  0  0  0
   14.2544    6.2142   19.4191 C   0  0  0  0  0  0  0  0  0  0  0  0
   13.0695    6.3705   20.0375 N   0  0  0  0  0  0  0  0  0  0  0  0
    9.1913    8.0876   21.8361 N   0  0  0  0  0  0  0  0  0  0  0  0
   10.4739    9.4813   20.2889 C   0  0  0  0  0  0  0  0  0  0  0  0
    7.5551    7.1270   23.1200 O   0  0  0  0  0  0  0  0  0  0  0  0
  1 11  4  0
  1 21  4  0
  2  4  1  0
  2  8  1  0
  2 11  1  0
  3 10  4  0
  3 14  4  0
  4  5  1  0
  4 18  2  0
  6 12  1  0
  6 17  4  0
  6 23  4  0
  7  9  1  0
  7 13  4  0
  7 19  4  0
  9 20  1  0
 10 19  4  0
 11 25  4  0
 13 14  4  0
 15 16  4  0
 15 17  4  0
 15 21  4  0
 16 24  1  0
 16 25  4  0
 20 24  1  0
 20 26  2  0
 21 23  4  0
 22 23  1  0
M  END
$$$$

 Created by Python create_sdf_string function

 26 28  0  0  0  0  0  0  0  0999 V2000
   12.4616    8.6700   19.4180 N   0  0  0  0  0  0  0  0  0  0  0  0
   11.8329   10.8148   18.6769 N   0  0  0  0  0  0  0  0  0  0  0  0
    6.1021    2.5564   21.0678 C   0  0  0  0  0  0  0  0  0  0  0  0
   10.9097   11.8051   18.4804 C   0  0  0  0  0  0  0  0  0  0  0  0
   11.2280   12.9135   17.5669 C   0  0  0  0  0  0  0  0  0  0  0  0
   12.3782    5.4231   20.7777 C   0  0  0  0  0  0  0  0  0  0  0  0
    7.7365    4.6508   21.6987 C   0  0  0  0  0  0  0  0  0  0  0  0
   13.0186   11.0102   18.0020 C   0  0  0  0  0  0  0  0  0  0  0  0
    8.6628    5.7088   21.8871 N   0  0  0  0  0  0  0  0  0  0  0  0
    5.6516    3.5258   21.9140 C   0  0  0  0  0  0  0  0  0  0  0  0
   11.5863    9.6815   19.4539 C   0  0  0  0  0  0  0  0  0  0  0  0
   12.9648    4.1543   20.9205 C   0  0  0  0  0  0  0  0  0  0  0  0
    8.2089    3.6265   20.8929 C   0  0  0  0  0  0  0  0  0  0  0  0
    7.3827    2.5724   20.5432 C   0  0  0  0  0  0  0  0  0  0  0  0
   11.1529    7.2750   20.8025 C   0  0  0  0  0  0  0  0  0  0  0  0
   10.2573    8.3215   20.9827 C   0  0  0  0  0  0  0  0  0  0  0  0
   11.1606    5.9378   21.2366 N   0  0  0  0  0  0  0  0  0  0  0  0
    9.8932   11.6736   19.0677 O   0  0  0  0  0  0  0  0  0  0  0  0
    6.4470    4.5850   22.2321 C   0  0  0  0  0  0  0  0  0  0  0  0
    8.4619    6.9895   22.2968 C   0  0  0  0  0  0  0  0  0  0  0  0
   12.2747    7.5102   20.0420 C   0  0  0  0  0  0  0  0  0  0  0  0
   14.2544    6.2142   19.4191 C   0  0  0  0  0  0  0  0  0  0  0  0
   13.0695    6.3705   20.0375 N   0  0  0  0  0  0  0  0  0  0  0  0
    9.1913    8.0876   21.8361 N   0  0  0  0  0  0  0  0  0  0  0  0
   10.4739    9.4813   20.2889 C   0  0  0  0  0  0  0  0  0  0  0  0
    7.5551    7.1270   23.1200 O   0  0  0  0  0  0  0  0  0  0  0  0
  1 11  4  0
  1 21  4  0
  2  4  1  0
  2  8  1  0
  2 11  1  0
  3 10  4  0
  3 14  4  0
  4  5  1  0
  4 18  2  0
  6 12  1  0
  6 17  4  0
  6 23  4  0
  7  9  1  0
  7 13  4  0
  7 19  4  0
  9 20  1  0
 10 19  4  0
 11 25  4  0
 13 14  4  0
 15 16  4  0
 15 17  4  0
 15 21  4  0
 16 24  1  0
 16 25  4  0
 20 24  1  0
 20 26  2  0
 21 23  4  0
 22 23  1  0
M  END
$$$$

 Created by Python create_sdf_string function

 26 28  0  0  0  0  0  0  0  0999 V2000
   12.4616    8.6700   19.4180 N   0  0  0  0  0  0  0  0  0  0  0  0
   11.8329   10.8148   18.6769 N   0  0  0  0  0  0  0  0  0  0  0  0
    6.1021    2.5564   21.0678 C   0  0  0  0  0  0  0  0  0  0  0  0
   10.9097   11.8051   18.4804 C   0  0  0  0  0  0  0  0  0  0  0  0
   11.2280   12.9135   17.5669 C   0  0  0  0  0  0  0  0  0  0  0  0
   12.3782    5.4231   20.7777 C   0  0  0  0  0  0  0  0  0  0  0  0
    7.7365    4.6508   21.6987 C   0  0  0  0  0  0  0  0  0  0  0  0
   13.0186   11.0102   18.0020 C   0  0  0  0  0  0  0  0  0  0  0  0
    8.6628    5.7088   21.8871 N   0  0  0  0  0  0  0  0  0  0  0  0
    5.6516    3.5258   21.9140 C   0  0  0  0  0  0  0  0  0  0  0  0
   11.5863    9.6815   19.4539 C   0  0  0  0  0  0  0  0  0  0  0  0
   12.9648    4.1543   20.9205 C   0  0  0  0  0  0  0  0  0  0  0  0
    8.2089    3.6265   20.8929 C   0  0  0  0  0  0  0  0  0  0  0  0
    7.3827    2.5724   20.5432 C   0  0  0  0  0  0  0  0  0  0  0  0
   11.1529    7.2750   20.8025 C   0  0  0  0  0  0  0  0  0  0  0  0
   10.2573    8.3215   20.9827 C   0  0  0  0  0  0  0  0  0  0  0  0
   11.1606    5.9378   21.2366 N   0  0  0  0  0  0  0  0  0  0  0  0
    9.8932   11.6736   19.0677 O   0  0  0  0  0  0  0  0  0  0  0  0
    6.4470    4.5850   22.2321 C   0  0  0  0  0  0  0  0  0  0  0  0
    8.4619    6.9895   22.2968 C   0  0  0  0  0  0  0  0  0  0  0  0
   12.2747    7.5102   20.0420 C   0  0  0  0  0  0  0  0  0  0  0  0
   14.2544    6.2142   19.4191 C   0  0  0  0  0  0  0  0  0  0  0  0
   13.0695    6.3705   20.0375 N   0  0  0  0  0  0  0  0  0  0  0  0
    9.1913    8.0876   21.8361 N   0  0  0  0  0  0  0  0  0  0  0  0
   10.4739    9.4813   20.2889 C   0  0  0  0  0  0  0  0  0  0  0  0
    7.5551    7.1270   23.1200 O   0  0  0  0  0  0  0  0  0  0  0  0
  1 11  4  0
  1 21  4  0
  2  4  1  0
  2  8  1  0
  2 11  1  0
  3 10  4  0
  3 14  4  0
  4  5  1  0
  4 18  2  0
  6 12  1  0
  6 17  4  0
  6 23  4  0
  7  9  1  0
  7 13  4  0
  7 19  4  0
  9 20  1  0
 10 19  4  0
 11 25  4  0
 13 14  4  0
 15 16  4  0
 15 17  4  0
 15 21  4  0
 16 24  1  0
 16 25  4  0
 20 24  1  0
 20 26  2  0
 21 23  4  0
 22 23  1  0
M  END
$$$$

 Created by Python create_sdf_string function

 26 28  0  0  0  0  0  0  0  0999 V2000
   12.4616    8.6700   19.4180 N   0  0  0  0  0  0  0  0  0  0  0  0
   11.8329   10.8148   18.6769 N   0  0  0  0  0  0  0  0  0  0  0  0
    6.1021    2.5564   21.0678 C   0  0  0  0  0  0  0  0  0  0  0  0
   10.9097   11.8051   18.4804 C   0  0  0  0  0  0  0  0  0  0  0  0
   11.2280   12.9135   17.5669 C   0  0  0  0  0  0  0  0  0  0  0  0
   12.3782    5.4231   20.7777 C   0  0  0  0  0  0  0  0  0  0  0  0
    7.7365    4.6508   21.6987 C   0  0  0  0  0  0  0  0  0  0  0  0
   13.0186   11.0102   18.0020 C   0  0  0  0  0  0  0  0  0  0  0  0
    8.6628    5.7088   21.8871 N   0  0  0  0  0  0  0  0  0  0  0  0
    5.6516    3.5258   21.9140 C   0  0  0  0  0  0  0  0  0  0  0  0
   11.5863    9.6815   19.4539 C   0  0  0  0  0  0  0  0  0  0  0  0
   12.9648    4.1543   20.9205 C   0  0  0  0  0  0  0  0  0  0  0  0
    8.2089    3.6265   20.8929 C   0  0  0  0  0  0  0  0  0  0  0  0
    7.3827    2.5724   20.5432 C   0  0  0  0  0  0  0  0  0  0  0  0
   11.1529    7.2750   20.8025 C   0  0  0  0  0  0  0  0  0  0  0  0
   10.2573    8.3215   20.9827 C   0  0  0  0  0  0  0  0  0  0  0  0
   11.1606    5.9378   21.2366 N   0  0  0  0  0  0  0  0  0  0  0  0
    9.8932   11.6736   19.0677 O   0  0  0  0  0  0  0  0  0  0  0  0
    6.4470    4.5850   22.2321 C   0  0  0  0  0  0  0  0  0  0  0  0
    8.4619    6.9895   22.2968 C   0  0  0  0  0  0  0  0  0  0  0  0
   12.2747    7.5102   20.0420 C   0  0  0  0  0  0  0  0  0  0  0  0
   14.2544    6.2142   19.4191 C   0  0  0  0  0  0  0  0  0  0  0  0
   13.0695    6.3705   20.0375 N   0  0  0  0  0  0  0  0  0  0  0  0
    9.1913    8.0876   21.8361 N   0  0  0  0  0  0  0  0  0  0  0  0
   10.4739    9.4813   20.2889 C   0  0  0  0  0  0  0  0  0  0  0  0
    7.5551    7.1270   23.1200 O   0  0  0  0  0  0  0  0  0  0  0  0
  1 11  4  0
  1 21  4  0
  2  4  1  0
  2  8  1  0
  2 11  1  0
  3 10  4  0
  3 14  4  0
  4  5  1  0
  4 18  2  0
  6 12  1  0
  6 17  4  0
  6 23  4  0
  7  9  1  0
  7 13  4  0
  7 19  4  0
  9 20  1  0
 10 19  4  0
 11 25  4  0
 13 14  4  0
 15 16  4  0
 15 17  4  0
 15 21  4  0
 16 24  1  0
 16 25  4  0
 20 24  1  0
 20 26  2  0
 21 23  4  0
 22 23  1  0
M  END
$$$$

 Created by Python create_sdf_string function

 26 28  0  0  0  0  0  0  0  0999 V2000
   12.4616    8.6700   19.4180 N   0  0  0  0  0  0  0  0  0  0  0  0
   11.8329   10.8148   18.6769 N   0  0  0  0  0  0  0  0  0  0  0  0
    6.1021    2.5564   21.0678 C   0  0  0  0  0  0  0  0  0  0  0  0
   10.9097   11.8051   18.4804 C   0  0  0  0  0  0  0  0  0  0  0  0
   11.2280   12.9135   17.5669 C   0  0  0  0  0  0  0  0  0  0  0  0
   12.3782    5.4231   20.7777 C   0  0  0  0  0  0  0  0  0  0  0  0
    7.7365    4.6508   21.6987 C   0  0  0  0  0  0  0  0  0  0  0  0
   13.0186   11.0102   18.0020 C   0  0  0  0  0  0  0  0  0  0  0  0
    8.6628    5.7088   21.8871 N   0  0  0  0  0  0  0  0  0  0  0  0
    5.6516    3.5258   21.9140 C   0  0  0  0  0  0  0  0  0  0  0  0
   11.5863    9.6815   19.4539 C   0  0  0  0  0  0  0  0  0  0  0  0
   12.9648    4.1543   20.9205 C   0  0  0  0  0  0  0  0  0  0  0  0
    8.2089    3.6265   20.8929 C   0  0  0  0  0  0  0  0  0  0  0  0
    7.3827    2.5724   20.5432 C   0  0  0  0  0  0  0  0  0  0  0  0
   11.1529    7.2750   20.8025 C   0  0  0  0  0  0  0  0  0  0  0  0
   10.2573    8.3215   20.9827 C   0  0  0  0  0  0  0  0  0  0  0  0
   11.1606    5.9378   21.2366 N   0  0  0  0  0  0  0  0  0  0  0  0
    9.8932   11.6736   19.0677 O   0  0  0  0  0  0  0  0  0  0  0  0
    6.4470    4.5850   22.2321 C   0  0  0  0  0  0  0  0  0  0  0  0
    8.4619    6.9895   22.2968 C   0  0  0  0  0  0  0  0  0  0  0  0
   12.2747    7.5102   20.0420 C   0  0  0  0  0  0  0  0  0  0  0  0
   14.2544    6.2142   19.4191 C   0  0  0  0  0  0  0  0  0  0  0  0
   13.0695    6.3705   20.0375 N   0  0  0  0  0  0  0  0  0  0  0  0
    9.1913    8.0876   21.8361 N   0  0  0  0  0  0  0  0  0  0  0  0
   10.4739    9.4813   20.2889 C   0  0  0  0  0  0  0  0  0  0  0  0
    7.5551    7.1270   23.1200 O   0  0  0  0  0  0  0  0  0  0  0  0
  1 11  4  0
  1 21  4  0
  2  4  1  0
  2  8  1  0
  2 11  1  0
  3 10  4  0
  3 14  4  0
  4  5  1  0
  4 18  2  0
  6 12  1  0
  6 17  4  0
  6 23  4  0
  7  9  1  0
  7 13  4  0
  7 19  4  0
  9 20  1  0
 10 19  4  0
 11 25  4  0
 13 14  4  0
 15 16  4  0
 15 17  4  0
 15 21  4  0
 16 24  1  0
 16 25  4  0
 20 24  1  0
 20 26  2  0
 21 23  4  0
 22 23  1  0
M  END
$$$$

 Created by Python create_sdf_string function

 26 28  0  0  0  0  0  0  0  0999 V2000
   12.4616    8.6700   19.4180 N   0  0  0  0  0  0  0  0  0  0  0  0
   11.8329   10.8148   18.6769 N   0  0  0  0  0  0  0  0  0  0  0  0
    6.1021    2.5564   21.0678 C   0  0  0  0  0  0  0  0  0  0  0  0
   10.9097   11.8051   18.4804 C   0  0  0  0  0  0  0  0  0  0  0  0
   11.2280   12.9135   17.5669 C   0  0  0  0  0  0  0  0  0  0  0  0
   12.3782    5.4231   20.7777 C   0  0  0  0  0  0  0  0  0  0  0  0
    7.7365    4.6508   21.6987 C   0  0  0  0  0  0  0  0  0  0  0  0
   13.0186   11.0102   18.0020 C   0  0  0  0  0  0  0  0  0  0  0  0
    8.6628    5.7088   21.8871 N   0  0  0  0  0  0  0  0  0  0  0  0
    5.6516    3.5258   21.9140 C   0  0  0  0  0  0  0  0  0  0  0  0
   11.5863    9.6815   19.4539 C   0  0  0  0  0  0  0  0  0  0  0  0
   12.9648    4.1543   20.9205 C   0  0  0  0  0  0  0  0  0  0  0  0
    8.2089    3.6265   20.8929 C   0  0  0  0  0  0  0  0  0  0  0  0
    7.3827    2.5724   20.5432 C   0  0  0  0  0  0  0  0  0  0  0  0
   11.1529    7.2750   20.8025 C   0  0  0  0  0  0  0  0  0  0  0  0
   10.2573    8.3215   20.9827 C   0  0  0  0  0  0  0  0  0  0  0  0
   11.1606    5.9378   21.2366 N   0  0  0  0  0  0  0  0  0  0  0  0
    9.8932   11.6736   19.0677 O   0  0  0  0  0  0  0  0  0  0  0  0
    6.4470    4.5850   22.2321 C   0  0  0  0  0  0  0  0  0  0  0  0
    8.4619    6.9895   22.2968 C   0  0  0  0  0  0  0  0  0  0  0  0
   12.2747    7.5102   20.0420 C   0  0  0  0  0  0  0  0  0  0  0  0
   14.2544    6.2142   19.4191 C   0  0  0  0  0  0  0  0  0  0  0  0
   13.0695    6.3705   20.0375 N   0  0  0  0  0  0  0  0  0  0  0  0
    9.1913    8.0876   21.8361 N   0  0  0  0  0  0  0  0  0  0  0  0
   10.4739    9.4813   20.2889 C   0  0  0  0  0  0  0  0  0  0  0  0
    7.5551    7.1270   23.1200 O   0  0  0  0  0  0  0  0  0  0  0  0
  1 11  4  0
  1 21  4  0
  2  4  1  0
  2  8  1  0
  2 11  1  0
  3 10  4  0
  3 14  4  0
  4  5  1  0
  4 18  2  0
  6 12  1  0
  6 17  4  0
  6 23  4  0
  7  9  1  0
  7 13  4  0
  7 19  4  0
  9 20  1  0
 10 19  4  0
 11 25  4  0
 13 14  4  0
 15 16  4  0
 15 17  4  0
 15 21  4  0
 16 24  1  0
 16 25  4  0
 20 24  1  0
 20 26  2  0
 21 23  4  0
 22 23  1  0
M  END
$$$$

 Created by Python create_sdf_string function

 26 28  0  0  0  0  0  0  0  0999 V2000
   12.4616    8.6700   19.4180 N   0  0  0  0  0  0  0  0  0  0  0  0
   11.8329   10.8148   18.6769 N   0  0  0  0  0  0  0  0  0  0  0  0
    6.1021    2.5564   21.0678 C   0  0  0  0  0  0  0  0  0  0  0  0
   10.9097   11.8051   18.4804 C   0  0  0  0  0  0  0  0  0  0  0  0
   11.2280   12.9135   17.5669 C   0  0  0  0  0  0  0  0  0  0  0  0
   12.3782    5.4231   20.7777 C   0  0  0  0  0  0  0  0  0  0  0  0
    7.7365    4.6508   21.6987 C   0  0  0  0  0  0  0  0  0  0  0  0
   13.0186   11.0102   18.0020 C   0  0  0  0  0  0  0  0  0  0  0  0
    8.6628    5.7088   21.8871 N   0  0  0  0  0  0  0  0  0  0  0  0
    5.6516    3.5258   21.9140 C   0  0  0  0  0  0  0  0  0  0  0  0
   11.5863    9.6815   19.4539 C   0  0  0  0  0  0  0  0  0  0  0  0
   12.9648    4.1543   20.9205 C   0  0  0  0  0  0  0  0  0  0  0  0
    8.2089    3.6265   20.8929 C   0  0  0  0  0  0  0  0  0  0  0  0
    7.3827    2.5724   20.5432 C   0  0  0  0  0  0  0  0  0  0  0  0
   11.1529    7.2750   20.8025 C   0  0  0  0  0  0  0  0  0  0  0  0
   10.2573    8.3215   20.9827 C   0  0  0  0  0  0  0  0  0  0  0  0
   11.1606    5.9378   21.2366 N   0  0  0  0  0  0  0  0  0  0  0  0
    9.8932   11.6736   19.0677 O   0  0  0  0  0  0  0  0  0  0  0  0
    6.4470    4.5850   22.2321 C   0  0  0  0  0  0  0  0  0  0  0  0
    8.4619    6.9895   22.2968 C   0  0  0  0  0  0  0  0  0  0  0  0
   12.2747    7.5102   20.0420 C   0  0  0  0  0  0  0  0  0  0  0  0
   14.2544    6.2142   19.4191 C   0  0  0  0  0  0  0  0  0  0  0  0
   13.0695    6.3705   20.0375 N   0  0  0  0  0  0  0  0  0  0  0  0
    9.1913    8.0876   21.8361 N   0  0  0  0  0  0  0  0  0  0  0  0
   10.4739    9.4813   20.2889 C   0  0  0  0  0  0  0  0  0  0  0  0
    7.5551    7.1270   23.1200 O   0  0  0  0  0  0  0  0  0  0  0  0
  1 11  4  0
  1 21  4  0
  2  4  1  0
  2  8  1  0
  2 11  1  0
  3 10  4  0
  3 14  4  0
  4  5  1  0
  4 18  2  0
  6 12  1  0
  6 17  4  0
  6 23  4  0
  7  9  1  0
  7 13  4  0
  7 19  4  0
  9 20  1  0
 10 19  4  0
 11 25  4  0
 13 14  4  0
 15 16  4  0
 15 17  4  0
 15 21  4  0
 16 24  1  0
 16 25  4  0
 20 24  1  0
 20 26  2  0
 21 23  4  0
 22 23  1  0
M  END
$$$$

 Created by Python create_sdf_string function

 26 28  0  0  0  0  0  0  0  0999 V2000
   12.4616    8.6700   19.4180 N   0  0  0  0  0  0  0  0  0  0  0  0
   11.8329   10.8148   18.6769 N   0  0  0  0  0  0  0  0  0  0  0  0
    6.1021    2.5564   21.0678 C   0  0  0  0  0  0  0  0  0  0  0  0
   10.9097   11.8051   18.4804 C   0  0  0  0  0  0  0  0  0  0  0  0
   11.2280   12.9135   17.5669 C   0  0  0  0  0  0  0  0  0  0  0  0
   12.3782    5.4231   20.7777 C   0  0  0  0  0  0  0  0  0  0  0  0
    7.7365    4.6508   21.6987 C   0  0  0  0  0  0  0  0  0  0  0  0
   13.0186   11.0102   18.0020 C   0  0  0  0  0  0  0  0  0  0  0  0
    8.6628    5.7088   21.8871 N   0  0  0  0  0  0  0  0  0  0  0  0
    5.6516    3.5258   21.9140 C   0  0  0  0  0  0  0  0  0  0  0  0
   11.5863    9.6815   19.4539 C   0  0  0  0  0  0  0  0  0  0  0  0
   12.9648    4.1543   20.9205 C   0  0  0  0  0  0  0  0  0  0  0  0
    8.2089    3.6265   20.8929 C   0  0  0  0  0  0  0  0  0  0  0  0
    7.3827    2.5724   20.5432 C   0  0  0  0  0  0  0  0  0  0  0  0
   11.1529    7.2750   20.8025 C   0  0  0  0  0  0  0  0  0  0  0  0
   10.2573    8.3215   20.9827 C   0  0  0  0  0  0  0  0  0  0  0  0
   11.1606    5.9378   21.2366 N   0  0  0  0  0  0  0  0  0  0  0  0
    9.8932   11.6736   19.0677 O   0  0  0  0  0  0  0  0  0  0  0  0
    6.4470    4.5850   22.2321 C   0  0  0  0  0  0  0  0  0  0  0  0
    8.4619    6.9895   22.2968 C   0  0  0  0  0  0  0  0  0  0  0  0
   12.2747    7.5102   20.0420 C   0  0  0  0  0  0  0  0  0  0  0  0
   14.2544    6.2142   19.4191 C   0  0  0  0  0  0  0  0  0  0  0  0
   13.0695    6.3705   20.0375 N   0  0  0  0  0  0  0  0  0  0  0  0
    9.1913    8.0876   21.8361 N   0  0  0  0  0  0  0  0  0  0  0  0
   10.4739    9.4813   20.2889 C   0  0  0  0  0  0  0  0  0  0  0  0
    7.5551    7.1270   23.1200 O   0  0  0  0  0  0  0  0  0  0  0  0
  1 11  4  0
  1 21  4  0
  2  4  1  0
  2  8  1  0
  2 11  1  0
  3 10  4  0
  3 14  4  0
  4  5  1  0
  4 18  2  0
  6 12  1  0
  6 17  4  0
  6 23  4  0
  7  9  1  0
  7 13  4  0
  7 19  4  0
  9 20  1  0
 10 19  4  0
 11 25  4  0
 13 14  4  0
 15 16  4  0
 15 17  4  0
 15 21  4  0
 16 24  1  0
 16 25  4  0
 20 24  1  0
 20 26  2  0
 21 23  4  0
 22 23  1  0
M  END
$$$$

 Created by Python create_sdf_string function

 26 28  0  0  0  0  0  0  0  0999 V2000
   12.4616    8.6700   19.4180 N   0  0  0  0  0  0  0  0  0  0  0  0
   11.8329   10.8148   18.6769 N   0  0  0  0  0  0  0  0  0  0  0  0
    6.1021    2.5564   21.0678 C   0  0  0  0  0  0  0  0  0  0  0  0
   10.9097   11.8051   18.4804 C   0  0  0  0  0  0  0  0  0  0  0  0
   11.2280   12.9135   17.5669 C   0  0  0  0  0  0  0  0  0  0  0  0
   12.3782    5.4231   20.7777 C   0  0  0  0  0  0  0  0  0  0  0  0
    7.7365    4.6508   21.6987 C   0  0  0  0  0  0  0  0  0  0  0  0
   13.0186   11.0102   18.0020 C   0  0  0  0  0  0  0  0  0  0  0  0
    8.6628    5.7088   21.8871 N   0  0  0  0  0  0  0  0  0  0  0  0
    5.6516    3.5258   21.9140 C   0  0  0  0  0  0  0  0  0  0  0  0
   11.5863    9.6815   19.4539 C   0  0  0  0  0  0  0  0  0  0  0  0
   12.9648    4.1543   20.9205 C   0  0  0  0  0  0  0  0  0  0  0  0
    8.2089    3.6265   20.8929 C   0  0  0  0  0  0  0  0  0  0  0  0
    7.3827    2.5724   20.5432 C   0  0  0  0  0  0  0  0  0  0  0  0
   11.1529    7.2750   20.8025 C   0  0  0  0  0  0  0  0  0  0  0  0
   10.2573    8.3215   20.9827 C   0  0  0  0  0  0  0  0  0  0  0  0
   11.1606    5.9378   21.2366 N   0  0  0  0  0  0  0  0  0  0  0  0
    9.8932   11.6736   19.0677 O   0  0  0  0  0  0  0  0  0  0  0  0
    6.4470    4.5850   22.2321 C   0  0  0  0  0  0  0  0  0  0  0  0
    8.4619    6.9895   22.2968 C   0  0  0  0  0  0  0  0  0  0  0  0
   12.2747    7.5102   20.0420 C   0  0  0  0  0  0  0  0  0  0  0  0
   14.2544    6.2142   19.4191 C   0  0  0  0  0  0  0  0  0  0  0  0
   13.0695    6.3705   20.0375 N   0  0  0  0  0  0  0  0  0  0  0  0
    9.1913    8.0876   21.8361 N   0  0  0  0  0  0  0  0  0  0  0  0
   10.4739    9.4813   20.2889 C   0  0  0  0  0  0  0  0  0  0  0  0
    7.5551    7.1270   23.1200 O   0  0  0  0  0  0  0  0  0  0  0  0
  1 11  4  0
  1 21  4  0
  2  4  1  0
  2  8  1  0
  2 11  1  0
  3 10  4  0
  3 14  4  0
  4  5  1  0
  4 18  2  0
  6 12  1  0
  6 17  4  0
  6 23  4  0
  7  9  1  0
  7 13  4  0
  7 19  4  0
  9 20  1  0
 10 19  4  0
 11 25  4  0
 13 14  4  0
 15 16  4  0
 15 17  4  0
 15 21  4  0
 16 24  1  0
 16 25  4  0
 20 24  1  0
 20 26  2  0
 21 23  4  0
 22 23  1  0
M  END
$$$$

 Created by Python create_sdf_string function

 26 28  0  0  0  0  0  0  0  0999 V2000
   12.4616    8.6700   19.4180 N   0  0  0  0  0  0  0  0  0  0  0  0
   11.8329   10.8148   18.6769 N   0  0  0  0  0  0  0  0  0  0  0  0
    6.1021    2.5564   21.0678 C   0  0  0  0  0  0  0  0  0  0  0  0
   10.9097   11.8051   18.4804 C   0  0  0  0  0  0  0  0  0  0  0  0
   11.2280   12.9135   17.5669 C   0  0  0  0  0  0  0  0  0  0  0  0
   12.3782    5.4231   20.7777 C   0  0  0  0  0  0  0  0  0  0  0  0
    7.7365    4.6508   21.6987 C   0  0  0  0  0  0  0  0  0  0  0  0
   13.0186   11.0102   18.0020 C   0  0  0  0  0  0  0  0  0  0  0  0
    8.6628    5.7088   21.8871 N   0  0  0  0  0  0  0  0  0  0  0  0
    5.6516    3.5258   21.9140 C   0  0  0  0  0  0  0  0  0  0  0  0
   11.5863    9.6815   19.4539 C   0  0  0  0  0  0  0  0  0  0  0  0
   12.9648    4.1543   20.9205 C   0  0  0  0  0  0  0  0  0  0  0  0
    8.2089    3.6265   20.8929 C   0  0  0  0  0  0  0  0  0  0  0  0
    7.3827    2.5724   20.5432 C   0  0  0  0  0  0  0  0  0  0  0  0
   11.1529    7.2750   20.8025 C   0  0  0  0  0  0  0  0  0  0  0  0
   10.2573    8.3215   20.9827 C   0  0  0  0  0  0  0  0  0  0  0  0
   11.1606    5.9378   21.2366 N   0  0  0  0  0  0  0  0  0  0  0  0
    9.8932   11.6736   19.0677 O   0  0  0  0  0  0  0  0  0  0  0  0
    6.4470    4.5850   22.2321 C   0  0  0  0  0  0  0  0  0  0  0  0
    8.4619    6.9895   22.2968 C   0  0  0  0  0  0  0  0  0  0  0  0
   12.2747    7.5102   20.0420 C   0  0  0  0  0  0  0  0  0  0  0  0
   14.2544    6.2142   19.4191 C   0  0  0  0  0  0  0  0  0  0  0  0
   13.0695    6.3705   20.0375 N   0  0  0  0  0  0  0  0  0  0  0  0
    9.1913    8.0876   21.8361 N   0  0  0  0  0  0  0  0  0  0  0  0
   10.4739    9.4813   20.2889 C   0  0  0  0  0  0  0  0  0  0  0  0
    7.5551    7.1270   23.1200 O   0  0  0  0  0  0  0  0  0  0  0  0
  1 11  4  0
  1 21  4  0
  2  4  1  0
  2  8  1  0
  2 11  1  0
  3 10  4  0
  3 14  4  0
  4  5  1  0
  4 18  2  0
  6 12  1  0
  6 17  4  0
  6 23  4  0
  7  9  1  0
  7 13  4  0
  7 19  4  0
  9 20  1  0
 10 19  4  0
 11 25  4  0
 13 14  4  0
 15 16  4  0
 15 17  4  0
 15 21  4  0
 16 24  1  0
 16 25  4  0
 20 24  1  0
 20 26  2  0
 21 23  4  0
 22 23  1  0
M  END
$$$$

 Created by Python create_sdf_string function

 26 28  0  0  0  0  0  0  0  0999 V2000
   12.4616    8.6700   19.4180 N   0  0  0  0  0  0  0  0  0  0  0  0
   11.8329   10.8148   18.6769 N   0  0  0  0  0  0  0  0  0  0  0  0
    6.1021    2.5564   21.0678 C   0  0  0  0  0  0  0  0  0  0  0  0
   10.9097   11.8051   18.4804 C   0  0  0  0  0  0  0  0  0  0  0  0
   11.2280   12.9135   17.5669 C   0  0  0  0  0  0  0  0  0  0  0  0
   12.3782    5.4231   20.7777 C   0  0  0  0  0  0  0  0  0  0  0  0
    7.7365    4.6508   21.6987 C   0  0  0  0  0  0  0  0  0  0  0  0
   13.0186   11.0102   18.0020 C   0  0  0  0  0  0  0  0  0  0  0  0
    8.6628    5.7088   21.8871 N   0  0  0  0  0  0  0  0  0  0  0  0
    5.6516    3.5258   21.9140 C   0  0  0  0  0  0  0  0  0  0  0  0
   11.5863    9.6815   19.4539 C   0  0  0  0  0  0  0  0  0  0  0  0
   12.9648    4.1543   20.9205 C   0  0  0  0  0  0  0  0  0  0  0  0
    8.2089    3.6265   20.8929 C   0  0  0  0  0  0  0  0  0  0  0  0
    7.3827    2.5724   20.5432 C   0  0  0  0  0  0  0  0  0  0  0  0
   11.1529    7.2750   20.8025 C   0  0  0  0  0  0  0  0  0  0  0  0
   10.2573    8.3215   20.9827 C   0  0  0  0  0  0  0  0  0  0  0  0
   11.1606    5.9378   21.2366 N   0  0  0  0  0  0  0  0  0  0  0  0
    9.8932   11.6736   19.0677 O   0  0  0  0  0  0  0  0  0  0  0  0
    6.4470    4.5850   22.2321 C   0  0  0  0  0  0  0  0  0  0  0  0
    8.4619    6.9895   22.2968 C   0  0  0  0  0  0  0  0  0  0  0  0
   12.2747    7.5102   20.0420 C   0  0  0  0  0  0  0  0  0  0  0  0
   14.2544    6.2142   19.4191 C   0  0  0  0  0  0  0  0  0  0  0  0
   13.0695    6.3705   20.0375 N   0  0  0  0  0  0  0  0  0  0  0  0
    9.1913    8.0876   21.8361 N   0  0  0  0  0  0  0  0  0  0  0  0
   10.4739    9.4813   20.2889 C   0  0  0  0  0  0  0  0  0  0  0  0
    7.5551    7.1270   23.1200 O   0  0  0  0  0  0  0  0  0  0  0  0
  1 11  4  0
  1 21  4  0
  2  4  1  0
  2  8  1  0
  2 11  1  0
  3 10  4  0
  3 14  4  0
  4  5  1  0
  4 18  2  0
  6 12  1  0
  6 17  4  0
  6 23  4  0
  7  9  1  0
  7 13  4  0
  7 19  4  0
  9 20  1  0
 10 19  4  0
 11 25  4  0
 13 14  4  0
 15 16  4  0
 15 17  4  0
 15 21  4  0
 16 24  1  0
 16 25  4  0
 20 24  1  0
 20 26  2  0
 21 23  4  0
 22 23  1  0
M  END
$$$$

 Created by Python create_sdf_string function

 26 28  0  0  0  0  0  0  0  0999 V2000
   12.4616    8.6700   19.4180 N   0  0  0  0  0  0  0  0  0  0  0  0
   11.8329   10.8148   18.6769 N   0  0  0  0  0  0  0  0  0  0  0  0
    6.1021    2.5564   21.0678 C   0  0  0  0  0  0  0  0  0  0  0  0
   10.9097   11.8051   18.4804 C   0  0  0  0  0  0  0  0  0  0  0  0
   11.2280   12.9135   17.5669 C   0  0  0  0  0  0  0  0  0  0  0  0
   12.3782    5.4231   20.7777 C   0  0  0  0  0  0  0  0  0  0  0  0
    7.7365    4.6508   21.6987 C   0  0  0  0  0  0  0  0  0  0  0  0
   13.0186   11.0102   18.0020 C   0  0  0  0  0  0  0  0  0  0  0  0
    8.6628    5.7088   21.8871 N   0  0  0  0  0  0  0  0  0  0  0  0
    5.6516    3.5258   21.9140 C   0  0  0  0  0  0  0  0  0  0  0  0
   11.5863    9.6815   19.4539 C   0  0  0  0  0  0  0  0  0  0  0  0
   12.9648    4.1543   20.9205 C   0  0  0  0  0  0  0  0  0  0  0  0
    8.2089    3.6265   20.8929 C   0  0  0  0  0  0  0  0  0  0  0  0
    7.3827    2.5724   20.5432 C   0  0  0  0  0  0  0  0  0  0  0  0
   11.1529    7.2750   20.8025 C   0  0  0  0  0  0  0  0  0  0  0  0
   10.2573    8.3215   20.9827 C   0  0  0  0  0  0  0  0  0  0  0  0
   11.1606    5.9378   21.2366 N   0  0  0  0  0  0  0  0  0  0  0  0
    9.8932   11.6736   19.0677 O   0  0  0  0  0  0  0  0  0  0  0  0
    6.4470    4.5850   22.2321 C   0  0  0  0  0  0  0  0  0  0  0  0
    8.4619    6.9895   22.2968 C   0  0  0  0  0  0  0  0  0  0  0  0
   12.2747    7.5102   20.0420 C   0  0  0  0  0  0  0  0  0  0  0  0
   14.2544    6.2142   19.4191 C   0  0  0  0  0  0  0  0  0  0  0  0
   13.0695    6.3705   20.0375 N   0  0  0  0  0  0  0  0  0  0  0  0
    9.1913    8.0876   21.8361 N   0  0  0  0  0  0  0  0  0  0  0  0
   10.4739    9.4813   20.2889 C   0  0  0  0  0  0  0  0  0  0  0  0
    7.5551    7.1270   23.1200 O   0  0  0  0  0  0  0  0  0  0  0  0
  1 11  4  0
  1 21  4  0
  2  4  1  0
  2  8  1  0
  2 11  1  0
  3 10  4  0
  3 14  4  0
  4  5  1  0
  4 18  2  0
  6 12  1  0
  6 17  4  0
  6 23  4  0
  7  9  1  0
  7 13  4  0
  7 19  4  0
  9 20  1  0
 10 19  4  0
 11 25  4  0
 13 14  4  0
 15 16  4  0
 15 17  4  0
 15 21  4  0
 16 24  1  0
 16 25  4  0
 20 24  1  0
 20 26  2  0
 21 23  4  0
 22 23  1  0
M  END
$$$$

 Created by Python create_sdf_string function

 26 28  0  0  0  0  0  0  0  0999 V2000
   12.4616    8.6700   19.4180 N   0  0  0  0  0  0  0  0  0  0  0  0
   11.8329   10.8148   18.6769 N   0  0  0  0  0  0  0  0  0  0  0  0
    6.1021    2.5564   21.0678 C   0  0  0  0  0  0  0  0  0  0  0  0
   10.9097   11.8051   18.4804 C   0  0  0  0  0  0  0  0  0  0  0  0
   11.2280   12.9135   17.5669 C   0  0  0  0  0  0  0  0  0  0  0  0
   12.3782    5.4231   20.7777 C   0  0  0  0  0  0  0  0  0  0  0  0
    7.7365    4.6508   21.6987 C   0  0  0  0  0  0  0  0  0  0  0  0
   13.0186   11.0102   18.0020 C   0  0  0  0  0  0  0  0  0  0  0  0
    8.6628    5.7088   21.8871 N   0  0  0  0  0  0  0  0  0  0  0  0
    5.6516    3.5258   21.9140 C   0  0  0  0  0  0  0  0  0  0  0  0
   11.5863    9.6815   19.4539 C   0  0  0  0  0  0  0  0  0  0  0  0
   12.9648    4.1543   20.9205 C   0  0  0  0  0  0  0  0  0  0  0  0
    8.2089    3.6265   20.8929 C   0  0  0  0  0  0  0  0  0  0  0  0
    7.3827    2.5724   20.5432 C   0  0  0  0  0  0  0  0  0  0  0  0
   11.1529    7.2750   20.8025 C   0  0  0  0  0  0  0  0  0  0  0  0
   10.2573    8.3215   20.9827 C   0  0  0  0  0  0  0  0  0  0  0  0
   11.1606    5.9378   21.2366 N   0  0  0  0  0  0  0  0  0  0  0  0
    9.8932   11.6736   19.0677 O   0  0  0  0  0  0  0  0  0  0  0  0
    6.4470    4.5850   22.2321 C   0  0  0  0  0  0  0  0  0  0  0  0
    8.4619    6.9895   22.2968 C   0  0  0  0  0  0  0  0  0  0  0  0
   12.2747    7.5102   20.0420 C   0  0  0  0  0  0  0  0  0  0  0  0
   14.2544    6.2142   19.4191 C   0  0  0  0  0  0  0  0  0  0  0  0
   13.0695    6.3705   20.0375 N   0  0  0  0  0  0  0  0  0  0  0  0
    9.1913    8.0876   21.8361 N   0  0  0  0  0  0  0  0  0  0  0  0
   10.4739    9.4813   20.2889 C   0  0  0  0  0  0  0  0  0  0  0  0
    7.5551    7.1270   23.1200 O   0  0  0  0  0  0  0  0  0  0  0  0
  1 11  4  0
  1 21  4  0
  2  4  1  0
  2  8  1  0
  2 11  1  0
  3 10  4  0
  3 14  4  0
  4  5  1  0
  4 18  2  0
  6 12  1  0
  6 17  4  0
  6 23  4  0
  7  9  1  0
  7 13  4  0
  7 19  4  0
  9 20  1  0
 10 19  4  0
 11 25  4  0
 13 14  4  0
 15 16  4  0
 15 17  4  0
 15 21  4  0
 16 24  1  0
 16 25  4  0
 20 24  1  0
 20 26  2  0
 21 23  4  0
 22 23  1  0
M  END
$$$$

 Created by Python create_sdf_string function

 26 28  0  0  0  0  0  0  0  0999 V2000
   12.4616    8.6700   19.4180 N   0  0  0  0  0  0  0  0  0  0  0  0
   11.8329   10.8148   18.6769 N   0  0  0  0  0  0  0  0  0  0  0  0
    6.1021    2.5564   21.0678 C   0  0  0  0  0  0  0  0  0  0  0  0
   10.9097   11.8051   18.4804 C   0  0  0  0  0  0  0  0  0  0  0  0
   11.2280   12.9135   17.5669 C   0  0  0  0  0  0  0  0  0  0  0  0
   12.3782    5.4231   20.7777 C   0  0  0  0  0  0  0  0  0  0  0  0
    7.7365    4.6508   21.6987 C   0  0  0  0  0  0  0  0  0  0  0  0
   13.0186   11.0102   18.0020 C   0  0  0  0  0  0  0  0  0  0  0  0
    8.6628    5.7088   21.8871 N   0  0  0  0  0  0  0  0  0  0  0  0
    5.6516    3.5258   21.9140 C   0  0  0  0  0  0  0  0  0  0  0  0
   11.5863    9.6815   19.4539 C   0  0  0  0  0  0  0  0  0  0  0  0
   12.9648    4.1543   20.9205 C   0  0  0  0  0  0  0  0  0  0  0  0
    8.2089    3.6265   20.8929 C   0  0  0  0  0  0  0  0  0  0  0  0
    7.3827    2.5724   20.5432 C   0  0  0  0  0  0  0  0  0  0  0  0
   11.1529    7.2750   20.8025 C   0  0  0  0  0  0  0  0  0  0  0  0
   10.2573    8.3215   20.9827 C   0  0  0  0  0  0  0  0  0  0  0  0
   11.1606    5.9378   21.2366 N   0  0  0  0  0  0  0  0  0  0  0  0
    9.8932   11.6736   19.0677 O   0  0  0  0  0  0  0  0  0  0  0  0
    6.4470    4.5850   22.2321 C   0  0  0  0  0  0  0  0  0  0  0  0
    8.4619    6.9895   22.2968 C   0  0  0  0  0  0  0  0  0  0  0  0
   12.2747    7.5102   20.0420 C   0  0  0  0  0  0  0  0  0  0  0  0
   14.2544    6.2142   19.4191 C   0  0  0  0  0  0  0  0  0  0  0  0
   13.0695    6.3705   20.0375 N   0  0  0  0  0  0  0  0  0  0  0  0
    9.1913    8.0876   21.8361 N   0  0  0  0  0  0  0  0  0  0  0  0
   10.4739    9.4813   20.2889 C   0  0  0  0  0  0  0  0  0  0  0  0
    7.5551    7.1270   23.1200 O   0  0  0  0  0  0  0  0  0  0  0  0
  1 11  4  0
  1 21  4  0
  2  4  1  0
  2  8  1  0
  2 11  1  0
  3 10  4  0
  3 14  4  0
  4  5  1  0
  4 18  2  0
  6 12  1  0
  6 17  4  0
  6 23  4  0
  7  9  1  0
  7 13  4  0
  7 19  4  0
  9 20  1  0
 10 19  4  0
 11 25  4  0
 13 14  4  0
 15 16  4  0
 15 17  4  0
 15 21  4  0
 16 24  1  0
 16 25  4  0
 20 24  1  0
 20 26  2  0
 21 23  4  0
 22 23  1  0
M  END
$$$$

 Created by Python create_sdf_string function

 26 28  0  0  0  0  0  0  0  0999 V2000
   12.4616    8.6700   19.4180 N   0  0  0  0  0  0  0  0  0  0  0  0
   11.8329   10.8148   18.6769 N   0  0  0  0  0  0  0  0  0  0  0  0
    6.1021    2.5564   21.0678 C   0  0  0  0  0  0  0  0  0  0  0  0
   10.9097   11.8051   18.4804 C   0  0  0  0  0  0  0  0  0  0  0  0
   11.2280   12.9135   17.5669 C   0  0  0  0  0  0  0  0  0  0  0  0
   12.3782    5.4231   20.7777 C   0  0  0  0  0  0  0  0  0  0  0  0
    7.7365    4.6508   21.6987 C   0  0  0  0  0  0  0  0  0  0  0  0
   13.0186   11.0102   18.0020 C   0  0  0  0  0  0  0  0  0  0  0  0
    8.6628    5.7088   21.8871 N   0  0  0  0  0  0  0  0  0  0  0  0
    5.6516    3.5258   21.9140 C   0  0  0  0  0  0  0  0  0  0  0  0
   11.5863    9.6815   19.4539 C   0  0  0  0  0  0  0  0  0  0  0  0
   12.9648    4.1543   20.9205 C   0  0  0  0  0  0  0  0  0  0  0  0
    8.2089    3.6265   20.8929 C   0  0  0  0  0  0  0  0  0  0  0  0
    7.3827    2.5724   20.5432 C   0  0  0  0  0  0  0  0  0  0  0  0
   11.1529    7.2750   20.8025 C   0  0  0  0  0  0  0  0  0  0  0  0
   10.2573    8.3215   20.9827 C   0  0  0  0  0  0  0  0  0  0  0  0
   11.1606    5.9378   21.2366 N   0  0  0  0  0  0  0  0  0  0  0  0
    9.8932   11.6736   19.0677 O   0  0  0  0  0  0  0  0  0  0  0  0
    6.4470    4.5850   22.2321 C   0  0  0  0  0  0  0  0  0  0  0  0
    8.4619    6.9895   22.2968 C   0  0  0  0  0  0  0  0  0  0  0  0
   12.2747    7.5102   20.0420 C   0  0  0  0  0  0  0  0  0  0  0  0
   14.2544    6.2142   19.4191 C   0  0  0  0  0  0  0  0  0  0  0  0
   13.0695    6.3705   20.0375 N   0  0  0  0  0  0  0  0  0  0  0  0
    9.1913    8.0876   21.8361 N   0  0  0  0  0  0  0  0  0  0  0  0
   10.4739    9.4813   20.2889 C   0  0  0  0  0  0  0  0  0  0  0  0
    7.5551    7.1270   23.1200 O   0  0  0  0  0  0  0  0  0  0  0  0
  1 11  4  0
  1 21  4  0
  2  4  1  0
  2  8  1  0
  2 11  1  0
  3 10  4  0
  3 14  4  0
  4  5  1  0
  4 18  2  0
  6 12  1  0
  6 17  4  0
  6 23  4  0
  7  9  1  0
  7 13  4  0
  7 19  4  0
  9 20  1  0
 10 19  4  0
 11 25  4  0
 13 14  4  0
 15 16  4  0
 15 17  4  0
 15 21  4  0
 16 24  1  0
 16 25  4  0
 20 24  1  0
 20 26  2  0
 21 23  4  0
 22 23  1  0
M  END
$$$$

 Created by Python create_sdf_string function

 26 28  0  0  0  0  0  0  0  0999 V2000
   12.4616    8.6700   19.4180 N   0  0  0  0  0  0  0  0  0  0  0  0
   11.8329   10.8148   18.6769 N   0  0  0  0  0  0  0  0  0  0  0  0
    6.1021    2.5564   21.0678 C   0  0  0  0  0  0  0  0  0  0  0  0
   10.9097   11.8051   18.4804 C   0  0  0  0  0  0  0  0  0  0  0  0
   11.2280   12.9135   17.5669 C   0  0  0  0  0  0  0  0  0  0  0  0
   12.3782    5.4231   20.7777 C   0  0  0  0  0  0  0  0  0  0  0  0
    7.7365    4.6508   21.6987 C   0  0  0  0  0  0  0  0  0  0  0  0
   13.0186   11.0102   18.0020 C   0  0  0  0  0  0  0  0  0  0  0  0
    8.6628    5.7088   21.8871 N   0  0  0  0  0  0  0  0  0  0  0  0
    5.6516    3.5258   21.9140 C   0  0  0  0  0  0  0  0  0  0  0  0
   11.5863    9.6815   19.4539 C   0  0  0  0  0  0  0  0  0  0  0  0
   12.9648    4.1543   20.9205 C   0  0  0  0  0  0  0  0  0  0  0  0
    8.2089    3.6265   20.8929 C   0  0  0  0  0  0  0  0  0  0  0  0
    7.3827    2.5724   20.5432 C   0  0  0  0  0  0  0  0  0  0  0  0
   11.1529    7.2750   20.8025 C   0  0  0  0  0  0  0  0  0  0  0  0
   10.2573    8.3215   20.9827 C   0  0  0  0  0  0  0  0  0  0  0  0
   11.1606    5.9378   21.2366 N   0  0  0  0  0  0  0  0  0  0  0  0
    9.8932   11.6736   19.0677 O   0  0  0  0  0  0  0  0  0  0  0  0
    6.4470    4.5850   22.2321 C   0  0  0  0  0  0  0  0  0  0  0  0
    8.4619    6.9895   22.2968 C   0  0  0  0  0  0  0  0  0  0  0  0
   12.2747    7.5102   20.0420 C   0  0  0  0  0  0  0  0  0  0  0  0
   14.2544    6.2142   19.4191 C   0  0  0  0  0  0  0  0  0  0  0  0
   13.0695    6.3705   20.0375 N   0  0  0  0  0  0  0  0  0  0  0  0
    9.1913    8.0876   21.8361 N   0  0  0  0  0  0  0  0  0  0  0  0
   10.4739    9.4813   20.2889 C   0  0  0  0  0  0  0  0  0  0  0  0
    7.5551    7.1270   23.1200 O   0  0  0  0  0  0  0  0  0  0  0  0
  1 11  4  0
  1 21  4  0
  2  4  1  0
  2  8  1  0
  2 11  1  0
  3 10  4  0
  3 14  4  0
  4  5  1  0
  4 18  2  0
  6 12  1  0
  6 17  4  0
  6 23  4  0
  7  9  1  0
  7 13  4  0
  7 19  4  0
  9 20  1  0
 10 19  4  0
 11 25  4  0
 13 14  4  0
 15 16  4  0
 15 17  4  0
 15 21  4  0
 16 24  1  0
 16 25  4  0
 20 24  1  0
 20 26  2  0
 21 23  4  0
 22 23  1  0
M  END
$$$$

 Created by Python create_sdf_string function

 26 28  0  0  0  0  0  0  0  0999 V2000
   12.4616    8.6700   19.4180 N   0  0  0  0  0  0  0  0  0  0  0  0
   11.8329   10.8148   18.6769 N   0  0  0  0  0  0  0  0  0  0  0  0
    6.1021    2.5564   21.0678 C   0  0  0  0  0  0  0  0  0  0  0  0
   10.9097   11.8051   18.4804 C   0  0  0  0  0  0  0  0  0  0  0  0
   11.2280   12.9135   17.5669 C   0  0  0  0  0  0  0  0  0  0  0  0
   12.3782    5.4231   20.7777 C   0  0  0  0  0  0  0  0  0  0  0  0
    7.7365    4.6508   21.6987 C   0  0  0  0  0  0  0  0  0  0  0  0
   13.0186   11.0102   18.0020 C   0  0  0  0  0  0  0  0  0  0  0  0
    8.6628    5.7088   21.8871 N   0  0  0  0  0  0  0  0  0  0  0  0
    5.6516    3.5258   21.9140 C   0  0  0  0  0  0  0  0  0  0  0  0
   11.5863    9.6815   19.4539 C   0  0  0  0  0  0  0  0  0  0  0  0
   12.9648    4.1543   20.9205 C   0  0  0  0  0  0  0  0  0  0  0  0
    8.2089    3.6265   20.8929 C   0  0  0  0  0  0  0  0  0  0  0  0
    7.3827    2.5724   20.5432 C   0  0  0  0  0  0  0  0  0  0  0  0
   11.1529    7.2750   20.8025 C   0  0  0  0  0  0  0  0  0  0  0  0
   10.2573    8.3215   20.9827 C   0  0  0  0  0  0  0  0  0  0  0  0
   11.1606    5.9378   21.2366 N   0  0  0  0  0  0  0  0  0  0  0  0
    9.8932   11.6736   19.0677 O   0  0  0  0  0  0  0  0  0  0  0  0
    6.4470    4.5850   22.2321 C   0  0  0  0  0  0  0  0  0  0  0  0
    8.4619    6.9895   22.2968 C   0  0  0  0  0  0  0  0  0  0  0  0
   12.2747    7.5102   20.0420 C   0  0  0  0  0  0  0  0  0  0  0  0
   14.2544    6.2142   19.4191 C   0  0  0  0  0  0  0  0  0  0  0  0
   13.0695    6.3705   20.0375 N   0  0  0  0  0  0  0  0  0  0  0  0
    9.1913    8.0876   21.8361 N   0  0  0  0  0  0  0  0  0  0  0  0
   10.4739    9.4813   20.2889 C   0  0  0  0  0  0  0  0  0  0  0  0
    7.5551    7.1270   23.1200 O   0  0  0  0  0  0  0  0  0  0  0  0
  1 11  4  0
  1 21  4  0
  2  4  1  0
  2  8  1  0
  2 11  1  0
  3 10  4  0
  3 14  4  0
  4  5  1  0
  4 18  2  0
  6 12  1  0
  6 17  4  0
  6 23  4  0
  7  9  1  0
  7 13  4  0
  7 19  4  0
  9 20  1  0
 10 19  4  0
 11 25  4  0
 13 14  4  0
 15 16  4  0
 15 17  4  0
 15 21  4  0
 16 24  1  0
 16 25  4  0
 20 24  1  0
 20 26  2  0
 21 23  4  0
 22 23  1  0
M  END
$$$$

 Created by Python create_sdf_string function

 26 28  0  0  0  0  0  0  0  0999 V2000
   12.4616    8.6700   19.4180 N   0  0  0  0  0  0  0  0  0  0  0  0
   11.8329   10.8148   18.6769 N   0  0  0  0  0  0  0  0  0  0  0  0
    6.1021    2.5564   21.0678 C   0  0  0  0  0  0  0  0  0  0  0  0
   10.9097   11.8051   18.4804 C   0  0  0  0  0  0  0  0  0  0  0  0
   11.2280   12.9135   17.5669 C   0  0  0  0  0  0  0  0  0  0  0  0
   12.3782    5.4231   20.7777 C   0  0  0  0  0  0  0  0  0  0  0  0
    7.7365    4.6508   21.6987 C   0  0  0  0  0  0  0  0  0  0  0  0
   13.0186   11.0102   18.0020 C   0  0  0  0  0  0  0  0  0  0  0  0
    8.6628    5.7088   21.8871 N   0  0  0  0  0  0  0  0  0  0  0  0
    5.6516    3.5258   21.9140 C   0  0  0  0  0  0  0  0  0  0  0  0
   11.5863    9.6815   19.4539 C   0  0  0  0  0  0  0  0  0  0  0  0
   12.9648    4.1543   20.9205 C   0  0  0  0  0  0  0  0  0  0  0  0
    8.2089    3.6265   20.8929 C   0  0  0  0  0  0  0  0  0  0  0  0
    7.3827    2.5724   20.5432 C   0  0  0  0  0  0  0  0  0  0  0  0
   11.1529    7.2750   20.8025 C   0  0  0  0  0  0  0  0  0  0  0  0
   10.2573    8.3215   20.9827 C   0  0  0  0  0  0  0  0  0  0  0  0
   11.1606    5.9378   21.2366 N   0  0  0  0  0  0  0  0  0  0  0  0
    9.8932   11.6736   19.0677 O   0  0  0  0  0  0  0  0  0  0  0  0
    6.4470    4.5850   22.2321 C   0  0  0  0  0  0  0  0  0  0  0  0
    8.4619    6.9895   22.2968 C   0  0  0  0  0  0  0  0  0  0  0  0
   12.2747    7.5102   20.0420 C   0  0  0  0  0  0  0  0  0  0  0  0
   14.2544    6.2142   19.4191 C   0  0  0  0  0  0  0  0  0  0  0  0
   13.0695    6.3705   20.0375 N   0  0  0  0  0  0  0  0  0  0  0  0
    9.1913    8.0876   21.8361 N   0  0  0  0  0  0  0  0  0  0  0  0
   10.4739    9.4813   20.2889 C   0  0  0  0  0  0  0  0  0  0  0  0
    7.5551    7.1270   23.1200 O   0  0  0  0  0  0  0  0  0  0  0  0
  1 11  4  0
  1 21  4  0
  2  4  1  0
  2  8  1  0
  2 11  1  0
  3 10  4  0
  3 14  4  0
  4  5  1  0
  4 18  2  0
  6 12  1  0
  6 17  4  0
  6 23  4  0
  7  9  1  0
  7 13  4  0
  7 19  4  0
  9 20  1  0
 10 19  4  0
 11 25  4  0
 13 14  4  0
 15 16  4  0
 15 17  4  0
 15 21  4  0
 16 24  1  0
 16 25  4  0
 20 24  1  0
 20 26  2  0
 21 23  4  0
 22 23  1  0
M  END
$$$$

 Created by Python create_sdf_string function

 26 28  0  0  0  0  0  0  0  0999 V2000
   12.4616    8.6700   19.4180 N   0  0  0  0  0  0  0  0  0  0  0  0
   11.8329   10.8148   18.6769 N   0  0  0  0  0  0  0  0  0  0  0  0
    6.1021    2.5564   21.0678 C   0  0  0  0  0  0  0  0  0  0  0  0
   10.9097   11.8051   18.4804 C   0  0  0  0  0  0  0  0  0  0  0  0
   11.2280   12.9135   17.5669 C   0  0  0  0  0  0  0  0  0  0  0  0
   12.3782    5.4231   20.7777 C   0  0  0  0  0  0  0  0  0  0  0  0
    7.7365    4.6508   21.6987 C   0  0  0  0  0  0  0  0  0  0  0  0
   13.0186   11.0102   18.0020 C   0  0  0  0  0  0  0  0  0  0  0  0
    8.6628    5.7088   21.8871 N   0  0  0  0  0  0  0  0  0  0  0  0
    5.6516    3.5258   21.9140 C   0  0  0  0  0  0  0  0  0  0  0  0
   11.5863    9.6815   19.4539 C   0  0  0  0  0  0  0  0  0  0  0  0
   12.9648    4.1543   20.9205 C   0  0  0  0  0  0  0  0  0  0  0  0
    8.2089    3.6265   20.8929 C   0  0  0  0  0  0  0  0  0  0  0  0
    7.3827    2.5724   20.5432 C   0  0  0  0  0  0  0  0  0  0  0  0
   11.1529    7.2750   20.8025 C   0  0  0  0  0  0  0  0  0  0  0  0
   10.2573    8.3215   20.9827 C   0  0  0  0  0  0  0  0  0  0  0  0
   11.1606    5.9378   21.2366 N   0  0  0  0  0  0  0  0  0  0  0  0
    9.8932   11.6736   19.0677 O   0  0  0  0  0  0  0  0  0  0  0  0
    6.4470    4.5850   22.2321 C   0  0  0  0  0  0  0  0  0  0  0  0
    8.4619    6.9895   22.2968 C   0  0  0  0  0  0  0  0  0  0  0  0
   12.2747    7.5102   20.0420 C   0  0  0  0  0  0  0  0  0  0  0  0
   14.2544    6.2142   19.4191 C   0  0  0  0  0  0  0  0  0  0  0  0
   13.0695    6.3705   20.0375 N   0  0  0  0  0  0  0  0  0  0  0  0
    9.1913    8.0876   21.8361 N   0  0  0  0  0  0  0  0  0  0  0  0
   10.4739    9.4813   20.2889 C   0  0  0  0  0  0  0  0  0  0  0  0
    7.5551    7.1270   23.1200 O   0  0  0  0  0  0  0  0  0  0  0  0
  1 11  4  0
  1 21  4  0
  2  4  1  0
  2  8  1  0
  2 11  1  0
  3 10  4  0
  3 14  4  0
  4  5  1  0
  4 18  2  0
  6 12  1  0
  6 17  4  0
  6 23  4  0
  7  9  1  0
  7 13  4  0
  7 19  4  0
  9 20  1  0
 10 19  4  0
 11 25  4  0
 13 14  4  0
 15 16  4  0
 15 17  4  0
 15 21  4  0
 16 24  1  0
 16 25  4  0
 20 24  1  0
 20 26  2  0
 21 23  4  0
 22 23  1  0
M  END
$$$$

 Created by Python create_sdf_string function

 26 28  0  0  0  0  0  0  0  0999 V2000
   12.4616    8.6700   19.4180 N   0  0  0  0  0  0  0  0  0  0  0  0
   11.8329   10.8148   18.6769 N   0  0  0  0  0  0  0  0  0  0  0  0
    6.1021    2.5564   21.0678 C   0  0  0  0  0  0  0  0  0  0  0  0
   10.9097   11.8051   18.4804 C   0  0  0  0  0  0  0  0  0  0  0  0
   11.2280   12.9135   17.5669 C   0  0  0  0  0  0  0  0  0  0  0  0
   12.3782    5.4231   20.7777 C   0  0  0  0  0  0  0  0  0  0  0  0
    7.7365    4.6508   21.6987 C   0  0  0  0  0  0  0  0  0  0  0  0
   13.0186   11.0102   18.0020 C   0  0  0  0  0  0  0  0  0  0  0  0
    8.6628    5.7088   21.8871 N   0  0  0  0  0  0  0  0  0  0  0  0
    5.6516    3.5258   21.9140 C   0  0  0  0  0  0  0  0  0  0  0  0
   11.5863    9.6815   19.4539 C   0  0  0  0  0  0  0  0  0  0  0  0
   12.9648    4.1543   20.9205 C   0  0  0  0  0  0  0  0  0  0  0  0
    8.2089    3.6265   20.8929 C   0  0  0  0  0  0  0  0  0  0  0  0
    7.3827    2.5724   20.5432 C   0  0  0  0  0  0  0  0  0  0  0  0
   11.1529    7.2750   20.8025 C   0  0  0  0  0  0  0  0  0  0  0  0
   10.2573    8.3215   20.9827 C   0  0  0  0  0  0  0  0  0  0  0  0
   11.1606    5.9378   21.2366 N   0  0  0  0  0  0  0  0  0  0  0  0
    9.8932   11.6736   19.0677 O   0  0  0  0  0  0  0  0  0  0  0  0
    6.4470    4.5850   22.2321 C   0  0  0  0  0  0  0  0  0  0  0  0
    8.4619    6.9895   22.2968 C   0  0  0  0  0  0  0  0  0  0  0  0
   12.2747    7.5102   20.0420 C   0  0  0  0  0  0  0  0  0  0  0  0
   14.2544    6.2142   19.4191 C   0  0  0  0  0  0  0  0  0  0  0  0
   13.0695    6.3705   20.0375 N   0  0  0  0  0  0  0  0  0  0  0  0
    9.1913    8.0876   21.8361 N   0  0  0  0  0  0  0  0  0  0  0  0
   10.4739    9.4813   20.2889 C   0  0  0  0  0  0  0  0  0  0  0  0
    7.5551    7.1270   23.1200 O   0  0  0  0  0  0  0  0  0  0  0  0
  1 11  4  0
  1 21  4  0
  2  4  1  0
  2  8  1  0
  2 11  1  0
  3 10  4  0
  3 14  4  0
  4  5  1  0
  4 18  2  0
  6 12  1  0
  6 17  4  0
  6 23  4  0
  7  9  1  0
  7 13  4  0
  7 19  4  0
  9 20  1  0
 10 19  4  0
 11 25  4  0
 13 14  4  0
 15 16  4  0
 15 17  4  0
 15 21  4  0
 16 24  1  0
 16 25  4  0
 20 24  1  0
 20 26  2  0
 21 23  4  0
 22 23  1  0
M  END
$$$$

 Created by Python create_sdf_string function

 26 28  0  0  0  0  0  0  0  0999 V2000
   12.4616    8.6700   19.4180 N   0  0  0  0  0  0  0  0  0  0  0  0
   11.8329   10.8148   18.6769 N   0  0  0  0  0  0  0  0  0  0  0  0
    6.1021    2.5564   21.0678 C   0  0  0  0  0  0  0  0  0  0  0  0
   10.9097   11.8051   18.4804 C   0  0  0  0  0  0  0  0  0  0  0  0
   11.2280   12.9135   17.5669 C   0  0  0  0  0  0  0  0  0  0  0  0
   12.3782    5.4231   20.7777 C   0  0  0  0  0  0  0  0  0  0  0  0
    7.7365    4.6508   21.6987 C   0  0  0  0  0  0  0  0  0  0  0  0
   13.0186   11.0102   18.0020 C   0  0  0  0  0  0  0  0  0  0  0  0
    8.6628    5.7088   21.8871 N   0  0  0  0  0  0  0  0  0  0  0  0
    5.6516    3.5258   21.9140 C   0  0  0  0  0  0  0  0  0  0  0  0
   11.5863    9.6815   19.4539 C   0  0  0  0  0  0  0  0  0  0  0  0
   12.9648    4.1543   20.9205 C   0  0  0  0  0  0  0  0  0  0  0  0
    8.2089    3.6265   20.8929 C   0  0  0  0  0  0  0  0  0  0  0  0
    7.3827    2.5724   20.5432 C   0  0  0  0  0  0  0  0  0  0  0  0
   11.1529    7.2750   20.8025 C   0  0  0  0  0  0  0  0  0  0  0  0
   10.2573    8.3215   20.9827 C   0  0  0  0  0  0  0  0  0  0  0  0
   11.1606    5.9378   21.2366 N   0  0  0  0  0  0  0  0  0  0  0  0
    9.8932   11.6736   19.0677 O   0  0  0  0  0  0  0  0  0  0  0  0
    6.4470    4.5850   22.2321 C   0  0  0  0  0  0  0  0  0  0  0  0
    8.4619    6.9895   22.2968 C   0  0  0  0  0  0  0  0  0  0  0  0
   12.2747    7.5102   20.0420 C   0  0  0  0  0  0  0  0  0  0  0  0
   14.2544    6.2142   19.4191 C   0  0  0  0  0  0  0  0  0  0  0  0
   13.0695    6.3705   20.0375 N   0  0  0  0  0  0  0  0  0  0  0  0
    9.1913    8.0876   21.8361 N   0  0  0  0  0  0  0  0  0  0  0  0
   10.4739    9.4813   20.2889 C   0  0  0  0  0  0  0  0  0  0  0  0
    7.5551    7.1270   23.1200 O   0  0  0  0  0  0  0  0  0  0  0  0
  1 11  4  0
  1 21  4  0
  2  4  1  0
  2  8  1  0
  2 11  1  0
  3 10  4  0
  3 14  4  0
  4  5  1  0
  4 18  2  0
  6 12  1  0
  6 17  4  0
  6 23  4  0
  7  9  1  0
  7 13  4  0
  7 19  4  0
  9 20  1  0
 10 19  4  0
 11 25  4  0
 13 14  4  0
 15 16  4  0
 15 17  4  0
 15 21  4  0
 16 24  1  0
 16 25  4  0
 20 24  1  0
 20 26  2  0
 21 23  4  0
 22 23  1  0
M  END
$$$$

 Created by Python create_sdf_string function

 26 28  0  0  0  0  0  0  0  0999 V2000
   12.4616    8.6700   19.4180 N   0  0  0  0  0  0  0  0  0  0  0  0
   11.8329   10.8148   18.6769 N   0  0  0  0  0  0  0  0  0  0  0  0
    6.1021    2.5564   21.0678 C   0  0  0  0  0  0  0  0  0  0  0  0
   10.9097   11.8051   18.4804 C   0  0  0  0  0  0  0  0  0  0  0  0
   11.2280   12.9135   17.5669 C   0  0  0  0  0  0  0  0  0  0  0  0
   12.3782    5.4231   20.7777 C   0  0  0  0  0  0  0  0  0  0  0  0
    7.7365    4.6508   21.6987 C   0  0  0  0  0  0  0  0  0  0  0  0
   13.0186   11.0102   18.0020 C   0  0  0  0  0  0  0  0  0  0  0  0
    8.6628    5.7088   21.8871 N   0  0  0  0  0  0  0  0  0  0  0  0
    5.6516    3.5258   21.9140 C   0  0  0  0  0  0  0  0  0  0  0  0
   11.5863    9.6815   19.4539 C   0  0  0  0  0  0  0  0  0  0  0  0
   12.9648    4.1543   20.9205 C   0  0  0  0  0  0  0  0  0  0  0  0
    8.2089    3.6265   20.8929 C   0  0  0  0  0  0  0  0  0  0  0  0
    7.3827    2.5724   20.5432 C   0  0  0  0  0  0  0  0  0  0  0  0
   11.1529    7.2750   20.8025 C   0  0  0  0  0  0  0  0  0  0  0  0
   10.2573    8.3215   20.9827 C   0  0  0  0  0  0  0  0  0  0  0  0
   11.1606    5.9378   21.2366 N   0  0  0  0  0  0  0  0  0  0  0  0
    9.8932   11.6736   19.0677 O   0  0  0  0  0  0  0  0  0  0  0  0
    6.4470    4.5850   22.2321 C   0  0  0  0  0  0  0  0  0  0  0  0
    8.4619    6.9895   22.2968 C   0  0  0  0  0  0  0  0  0  0  0  0
   12.2747    7.5102   20.0420 C   0  0  0  0  0  0  0  0  0  0  0  0
   14.2544    6.2142   19.4191 C   0  0  0  0  0  0  0  0  0  0  0  0
   13.0695    6.3705   20.0375 N   0  0  0  0  0  0  0  0  0  0  0  0
    9.1913    8.0876   21.8361 N   0  0  0  0  0  0  0  0  0  0  0  0
   10.4739    9.4813   20.2889 C   0  0  0  0  0  0  0  0  0  0  0  0
    7.5551    7.1270   23.1200 O   0  0  0  0  0  0  0  0  0  0  0  0
  1 11  4  0
  1 21  4  0
  2  4  1  0
  2  8  1  0
  2 11  1  0
  3 10  4  0
  3 14  4  0
  4  5  1  0
  4 18  2  0
  6 12  1  0
  6 17  4  0
  6 23  4  0
  7  9  1  0
  7 13  4  0
  7 19  4  0
  9 20  1  0
 10 19  4  0
 11 25  4  0
 13 14  4  0
 15 16  4  0
 15 17  4  0
 15 21  4  0
 16 24  1  0
 16 25  4  0
 20 24  1  0
 20 26  2  0
 21 23  4  0
 22 23  1  0
M  END
$$$$

 Created by Python create_sdf_string function

 26 28  0  0  0  0  0  0  0  0999 V2000
   12.4616    8.6700   19.4180 N   0  0  0  0  0  0  0  0  0  0  0  0
   11.8329   10.8148   18.6769 N   0  0  0  0  0  0  0  0  0  0  0  0
    6.1021    2.5564   21.0678 C   0  0  0  0  0  0  0  0  0  0  0  0
   10.9097   11.8051   18.4804 C   0  0  0  0  0  0  0  0  0  0  0  0
   11.2280   12.9135   17.5669 C   0  0  0  0  0  0  0  0  0  0  0  0
   12.3782    5.4231   20.7777 C   0  0  0  0  0  0  0  0  0  0  0  0
    7.7365    4.6508   21.6987 C   0  0  0  0  0  0  0  0  0  0  0  0
   13.0186   11.0102   18.0020 C   0  0  0  0  0  0  0  0  0  0  0  0
    8.6628    5.7088   21.8871 N   0  0  0  0  0  0  0  0  0  0  0  0
    5.6516    3.5258   21.9140 C   0  0  0  0  0  0  0  0  0  0  0  0
   11.5863    9.6815   19.4539 C   0  0  0  0  0  0  0  0  0  0  0  0
   12.9648    4.1543   20.9205 C   0  0  0  0  0  0  0  0  0  0  0  0
    8.2089    3.6265   20.8929 C   0  0  0  0  0  0  0  0  0  0  0  0
    7.3827    2.5724   20.5432 C   0  0  0  0  0  0  0  0  0  0  0  0
   11.1529    7.2750   20.8025 C   0  0  0  0  0  0  0  0  0  0  0  0
   10.2573    8.3215   20.9827 C   0  0  0  0  0  0  0  0  0  0  0  0
   11.1606    5.9378   21.2366 N   0  0  0  0  0  0  0  0  0  0  0  0
    9.8932   11.6736   19.0677 O   0  0  0  0  0  0  0  0  0  0  0  0
    6.4470    4.5850   22.2321 C   0  0  0  0  0  0  0  0  0  0  0  0
    8.4619    6.9895   22.2968 C   0  0  0  0  0  0  0  0  0  0  0  0
   12.2747    7.5102   20.0420 C   0  0  0  0  0  0  0  0  0  0  0  0
   14.2544    6.2142   19.4191 C   0  0  0  0  0  0  0  0  0  0  0  0
   13.0695    6.3705   20.0375 N   0  0  0  0  0  0  0  0  0  0  0  0
    9.1913    8.0876   21.8361 N   0  0  0  0  0  0  0  0  0  0  0  0
   10.4739    9.4813   20.2889 C   0  0  0  0  0  0  0  0  0  0  0  0
    7.5551    7.1270   23.1200 O   0  0  0  0  0  0  0  0  0  0  0  0
  1 11  4  0
  1 21  4  0
  2  4  1  0
  2  8  1  0
  2 11  1  0
  3 10  4  0
  3 14  4  0
  4  5  1  0
  4 18  2  0
  6 12  1  0
  6 17  4  0
  6 23  4  0
  7  9  1  0
  7 13  4  0
  7 19  4  0
  9 20  1  0
 10 19  4  0
 11 25  4  0
 13 14  4  0
 15 16  4  0
 15 17  4  0
 15 21  4  0
 16 24  1  0
 16 25  4  0
 20 24  1  0
 20 26  2  0
 21 23  4  0
 22 23  1  0
M  END
$$$$

 Created by Python create_sdf_string function

 26 28  0  0  0  0  0  0  0  0999 V2000
   12.4616    8.6700   19.4180 N   0  0  0  0  0  0  0  0  0  0  0  0
   11.8329   10.8148   18.6769 N   0  0  0  0  0  0  0  0  0  0  0  0
    6.1021    2.5564   21.0678 C   0  0  0  0  0  0  0  0  0  0  0  0
   10.9097   11.8051   18.4804 C   0  0  0  0  0  0  0  0  0  0  0  0
   11.2280   12.9135   17.5669 C   0  0  0  0  0  0  0  0  0  0  0  0
   12.3782    5.4231   20.7777 C   0  0  0  0  0  0  0  0  0  0  0  0
    7.7365    4.6508   21.6987 C   0  0  0  0  0  0  0  0  0  0  0  0
   13.0186   11.0102   18.0020 C   0  0  0  0  0  0  0  0  0  0  0  0
    8.6628    5.7088   21.8871 N   0  0  0  0  0  0  0  0  0  0  0  0
    5.6516    3.5258   21.9140 C   0  0  0  0  0  0  0  0  0  0  0  0
   11.5863    9.6815   19.4539 C   0  0  0  0  0  0  0  0  0  0  0  0
   12.9648    4.1543   20.9205 C   0  0  0  0  0  0  0  0  0  0  0  0
    8.2089    3.6265   20.8929 C   0  0  0  0  0  0  0  0  0  0  0  0
    7.3827    2.5724   20.5432 C   0  0  0  0  0  0  0  0  0  0  0  0
   11.1529    7.2750   20.8025 C   0  0  0  0  0  0  0  0  0  0  0  0
   10.2573    8.3215   20.9827 C   0  0  0  0  0  0  0  0  0  0  0  0
   11.1606    5.9378   21.2366 N   0  0  0  0  0  0  0  0  0  0  0  0
    9.8932   11.6736   19.0677 O   0  0  0  0  0  0  0  0  0  0  0  0
    6.4470    4.5850   22.2321 C   0  0  0  0  0  0  0  0  0  0  0  0
    8.4619    6.9895   22.2968 C   0  0  0  0  0  0  0  0  0  0  0  0
   12.2747    7.5102   20.0420 C   0  0  0  0  0  0  0  0  0  0  0  0
   14.2544    6.2142   19.4191 C   0  0  0  0  0  0  0  0  0  0  0  0
   13.0695    6.3705   20.0375 N   0  0  0  0  0  0  0  0  0  0  0  0
    9.1913    8.0876   21.8361 N   0  0  0  0  0  0  0  0  0  0  0  0
   10.4739    9.4813   20.2889 C   0  0  0  0  0  0  0  0  0  0  0  0
    7.5551    7.1270   23.1200 O   0  0  0  0  0  0  0  0  0  0  0  0
  1 11  4  0
  1 21  4  0
  2  4  1  0
  2  8  1  0
  2 11  1  0
  3 10  4  0
  3 14  4  0
  4  5  1  0
  4 18  2  0
  6 12  1  0
  6 17  4  0
  6 23  4  0
  7  9  1  0
  7 13  4  0
  7 19  4  0
  9 20  1  0
 10 19  4  0
 11 25  4  0
 13 14  4  0
 15 16  4  0
 15 17  4  0
 15 21  4  0
 16 24  1  0
 16 25  4  0
 20 24  1  0
 20 26  2  0
 21 23  4  0
 22 23  1  0
M  END
$$$$

 Created by Python create_sdf_string function

 26 28  0  0  0  0  0  0  0  0999 V2000
   12.4616    8.6700   19.4180 N   0  0  0  0  0  0  0  0  0  0  0  0
   11.8329   10.8148   18.6769 N   0  0  0  0  0  0  0  0  0  0  0  0
    6.1021    2.5564   21.0678 C   0  0  0  0  0  0  0  0  0  0  0  0
   10.9097   11.8051   18.4804 C   0  0  0  0  0  0  0  0  0  0  0  0
   11.2280   12.9135   17.5669 C   0  0  0  0  0  0  0  0  0  0  0  0
   12.3782    5.4231   20.7777 C   0  0  0  0  0  0  0  0  0  0  0  0
    7.7365    4.6508   21.6987 C   0  0  0  0  0  0  0  0  0  0  0  0
   13.0186   11.0102   18.0020 C   0  0  0  0  0  0  0  0  0  0  0  0
    8.6628    5.7088   21.8871 N   0  0  0  0  0  0  0  0  0  0  0  0
    5.6516    3.5258   21.9140 C   0  0  0  0  0  0  0  0  0  0  0  0
   11.5863    9.6815   19.4539 C   0  0  0  0  0  0  0  0  0  0  0  0
   12.9648    4.1543   20.9205 C   0  0  0  0  0  0  0  0  0  0  0  0
    8.2089    3.6265   20.8929 C   0  0  0  0  0  0  0  0  0  0  0  0
    7.3827    2.5724   20.5432 C   0  0  0  0  0  0  0  0  0  0  0  0
   11.1529    7.2750   20.8025 C   0  0  0  0  0  0  0  0  0  0  0  0
   10.2573    8.3215   20.9827 C   0  0  0  0  0  0  0  0  0  0  0  0
   11.1606    5.9378   21.2366 N   0  0  0  0  0  0  0  0  0  0  0  0
    9.8932   11.6736   19.0677 O   0  0  0  0  0  0  0  0  0  0  0  0
    6.4470    4.5850   22.2321 C   0  0  0  0  0  0  0  0  0  0  0  0
    8.4619    6.9895   22.2968 C   0  0  0  0  0  0  0  0  0  0  0  0
   12.2747    7.5102   20.0420 C   0  0  0  0  0  0  0  0  0  0  0  0
   14.2544    6.2142   19.4191 C   0  0  0  0  0  0  0  0  0  0  0  0
   13.0695    6.3705   20.0375 N   0  0  0  0  0  0  0  0  0  0  0  0
    9.1913    8.0876   21.8361 N   0  0  0  0  0  0  0  0  0  0  0  0
   10.4739    9.4813   20.2889 C   0  0  0  0  0  0  0  0  0  0  0  0
    7.5551    7.1270   23.1200 O   0  0  0  0  0  0  0  0  0  0  0  0
  1 11  4  0
  1 21  4  0
  2  4  1  0
  2  8  1  0
  2 11  1  0
  3 10  4  0
  3 14  4  0
  4  5  1  0
  4 18  2  0
  6 12  1  0
  6 17  4  0
  6 23  4  0
  7  9  1  0
  7 13  4  0
  7 19  4  0
  9 20  1  0
 10 19  4  0
 11 25  4  0
 13 14  4  0
 15 16  4  0
 15 17  4  0
 15 21  4  0
 16 24  1  0
 16 25  4  0
 20 24  1  0
 20 26  2  0
 21 23  4  0
 22 23  1  0
M  END
$$$$

 Created by Python create_sdf_string function

 26 28  0  0  0  0  0  0  0  0999 V2000
   12.4616    8.6700   19.4180 N   0  0  0  0  0  0  0  0  0  0  0  0
   11.8329   10.8148   18.6769 N   0  0  0  0  0  0  0  0  0  0  0  0
    6.1021    2.5564   21.0678 C   0  0  0  0  0  0  0  0  0  0  0  0
   10.9097   11.8051   18.4804 C   0  0  0  0  0  0  0  0  0  0  0  0
   11.2280   12.9135   17.5669 C   0  0  0  0  0  0  0  0  0  0  0  0
   12.3782    5.4231   20.7777 C   0  0  0  0  0  0  0  0  0  0  0  0
    7.7365    4.6508   21.6987 C   0  0  0  0  0  0  0  0  0  0  0  0
   13.0186   11.0102   18.0020 C   0  0  0  0  0  0  0  0  0  0  0  0
    8.6628    5.7088   21.8871 N   0  0  0  0  0  0  0  0  0  0  0  0
    5.6516    3.5258   21.9140 C   0  0  0  0  0  0  0  0  0  0  0  0
   11.5863    9.6815   19.4539 C   0  0  0  0  0  0  0  0  0  0  0  0
   12.9648    4.1543   20.9205 C   0  0  0  0  0  0  0  0  0  0  0  0
    8.2089    3.6265   20.8929 C   0  0  0  0  0  0  0  0  0  0  0  0
    7.3827    2.5724   20.5432 C   0  0  0  0  0  0  0  0  0  0  0  0
   11.1529    7.2750   20.8025 C   0  0  0  0  0  0  0  0  0  0  0  0
   10.2573    8.3215   20.9827 C   0  0  0  0  0  0  0  0  0  0  0  0
   11.1606    5.9378   21.2366 N   0  0  0  0  0  0  0  0  0  0  0  0
    9.8932   11.6736   19.0677 O   0  0  0  0  0  0  0  0  0  0  0  0
    6.4470    4.5850   22.2321 C   0  0  0  0  0  0  0  0  0  0  0  0
    8.4619    6.9895   22.2968 C   0  0  0  0  0  0  0  0  0  0  0  0
   12.2747    7.5102   20.0420 C   0  0  0  0  0  0  0  0  0  0  0  0
   14.2544    6.2142   19.4191 C   0  0  0  0  0  0  0  0  0  0  0  0
   13.0695    6.3705   20.0375 N   0  0  0  0  0  0  0  0  0  0  0  0
    9.1913    8.0876   21.8361 N   0  0  0  0  0  0  0  0  0  0  0  0
   10.4739    9.4813   20.2889 C   0  0  0  0  0  0  0  0  0  0  0  0
    7.5551    7.1270   23.1200 O   0  0  0  0  0  0  0  0  0  0  0  0
  1 11  4  0
  1 21  4  0
  2  4  1  0
  2  8  1  0
  2 11  1  0
  3 10  4  0
  3 14  4  0
  4  5  1  0
  4 18  2  0
  6 12  1  0
  6 17  4  0
  6 23  4  0
  7  9  1  0
  7 13  4  0
  7 19  4  0
  9 20  1  0
 10 19  4  0
 11 25  4  0
 13 14  4  0
 15 16  4  0
 15 17  4  0
 15 21  4  0
 16 24  1  0
 16 25  4  0
 20 24  1  0
 20 26  2  0
 21 23  4  0
 22 23  1  0
M  END
$$$$

 Created by Python create_sdf_string function

 26 28  0  0  0  0  0  0  0  0999 V2000
   12.4616    8.6700   19.4180 N   0  0  0  0  0  0  0  0  0  0  0  0
   11.8329   10.8148   18.6769 N   0  0  0  0  0  0  0  0  0  0  0  0
    6.1021    2.5564   21.0678 C   0  0  0  0  0  0  0  0  0  0  0  0
   10.9097   11.8051   18.4804 C   0  0  0  0  0  0  0  0  0  0  0  0
   11.2280   12.9135   17.5669 C   0  0  0  0  0  0  0  0  0  0  0  0
   12.3782    5.4231   20.7777 C   0  0  0  0  0  0  0  0  0  0  0  0
    7.7365    4.6508   21.6987 C   0  0  0  0  0  0  0  0  0  0  0  0
   13.0186   11.0102   18.0020 C   0  0  0  0  0  0  0  0  0  0  0  0
    8.6628    5.7088   21.8871 N   0  0  0  0  0  0  0  0  0  0  0  0
    5.6516    3.5258   21.9140 C   0  0  0  0  0  0  0  0  0  0  0  0
   11.5863    9.6815   19.4539 C   0  0  0  0  0  0  0  0  0  0  0  0
   12.9648    4.1543   20.9205 C   0  0  0  0  0  0  0  0  0  0  0  0
    8.2089    3.6265   20.8929 C   0  0  0  0  0  0  0  0  0  0  0  0
    7.3827    2.5724   20.5432 C   0  0  0  0  0  0  0  0  0  0  0  0
   11.1529    7.2750   20.8025 C   0  0  0  0  0  0  0  0  0  0  0  0
   10.2573    8.3215   20.9827 C   0  0  0  0  0  0  0  0  0  0  0  0
   11.1606    5.9378   21.2366 N   0  0  0  0  0  0  0  0  0  0  0  0
    9.8932   11.6736   19.0677 O   0  0  0  0  0  0  0  0  0  0  0  0
    6.4470    4.5850   22.2321 C   0  0  0  0  0  0  0  0  0  0  0  0
    8.4619    6.9895   22.2968 C   0  0  0  0  0  0  0  0  0  0  0  0
   12.2747    7.5102   20.0420 C   0  0  0  0  0  0  0  0  0  0  0  0
   14.2544    6.2142   19.4191 C   0  0  0  0  0  0  0  0  0  0  0  0
   13.0695    6.3705   20.0375 N   0  0  0  0  0  0  0  0  0  0  0  0
    9.1913    8.0876   21.8361 N   0  0  0  0  0  0  0  0  0  0  0  0
   10.4739    9.4813   20.2889 C   0  0  0  0  0  0  0  0  0  0  0  0
    7.5551    7.1270   23.1200 O   0  0  0  0  0  0  0  0  0  0  0  0
  1 11  4  0
  1 21  4  0
  2  4  1  0
  2  8  1  0
  2 11  1  0
  3 10  4  0
  3 14  4  0
  4  5  1  0
  4 18  2  0
  6 12  1  0
  6 17  4  0
  6 23  4  0
  7  9  1  0
  7 13  4  0
  7 19  4  0
  9 20  1  0
 10 19  4  0
 11 25  4  0
 13 14  4  0
 15 16  4  0
 15 17  4  0
 15 21  4  0
 16 24  1  0
 16 25  4  0
 20 24  1  0
 20 26  2  0
 21 23  4  0
 22 23  1  0
M  END
$$$$

 Created by Python create_sdf_string function

 26 28  0  0  0  0  0  0  0  0999 V2000
   12.4616    8.6700   19.4180 N   0  0  0  0  0  0  0  0  0  0  0  0
   11.8329   10.8148   18.6769 N   0  0  0  0  0  0  0  0  0  0  0  0
    6.1021    2.5564   21.0678 C   0  0  0  0  0  0  0  0  0  0  0  0
   10.9097   11.8051   18.4804 C   0  0  0  0  0  0  0  0  0  0  0  0
   11.2280   12.9135   17.5669 C   0  0  0  0  0  0  0  0  0  0  0  0
   12.3782    5.4231   20.7777 C   0  0  0  0  0  0  0  0  0  0  0  0
    7.7365    4.6508   21.6987 C   0  0  0  0  0  0  0  0  0  0  0  0
   13.0186   11.0102   18.0020 C   0  0  0  0  0  0  0  0  0  0  0  0
    8.6628    5.7088   21.8871 N   0  0  0  0  0  0  0  0  0  0  0  0
    5.6516    3.5258   21.9140 C   0  0  0  0  0  0  0  0  0  0  0  0
   11.5863    9.6815   19.4539 C   0  0  0  0  0  0  0  0  0  0  0  0
   12.9648    4.1543   20.9205 C   0  0  0  0  0  0  0  0  0  0  0  0
    8.2089    3.6265   20.8929 C   0  0  0  0  0  0  0  0  0  0  0  0
    7.3827    2.5724   20.5432 C   0  0  0  0  0  0  0  0  0  0  0  0
   11.1529    7.2750   20.8025 C   0  0  0  0  0  0  0  0  0  0  0  0
   10.2573    8.3215   20.9827 C   0  0  0  0  0  0  0  0  0  0  0  0
   11.1606    5.9378   21.2366 N   0  0  0  0  0  0  0  0  0  0  0  0
    9.8932   11.6736   19.0677 O   0  0  0  0  0  0  0  0  0  0  0  0
    6.4470    4.5850   22.2321 C   0  0  0  0  0  0  0  0  0  0  0  0
    8.4619    6.9895   22.2968 C   0  0  0  0  0  0  0  0  0  0  0  0
   12.2747    7.5102   20.0420 C   0  0  0  0  0  0  0  0  0  0  0  0
   14.2544    6.2142   19.4191 C   0  0  0  0  0  0  0  0  0  0  0  0
   13.0695    6.3705   20.0375 N   0  0  0  0  0  0  0  0  0  0  0  0
    9.1913    8.0876   21.8361 N   0  0  0  0  0  0  0  0  0  0  0  0
   10.4739    9.4813   20.2889 C   0  0  0  0  0  0  0  0  0  0  0  0
    7.5551    7.1270   23.1200 O   0  0  0  0  0  0  0  0  0  0  0  0
  1 11  4  0
  1 21  4  0
  2  4  1  0
  2  8  1  0
  2 11  1  0
  3 10  4  0
  3 14  4  0
  4  5  1  0
  4 18  2  0
  6 12  1  0
  6 17  4  0
  6 23  4  0
  7  9  1  0
  7 13  4  0
  7 19  4  0
  9 20  1  0
 10 19  4  0
 11 25  4  0
 13 14  4  0
 15 16  4  0
 15 17  4  0
 15 21  4  0
 16 24  1  0
 16 25  4  0
 20 24  1  0
 20 26  2  0
 21 23  4  0
 22 23  1  0
M  END
$$$$

 Created by Python create_sdf_string function

 26 28  0  0  0  0  0  0  0  0999 V2000
   12.4616    8.6700   19.4180 N   0  0  0  0  0  0  0  0  0  0  0  0
   11.8329   10.8148   18.6769 N   0  0  0  0  0  0  0  0  0  0  0  0
    6.1021    2.5564   21.0678 C   0  0  0  0  0  0  0  0  0  0  0  0
   10.9097   11.8051   18.4804 C   0  0  0  0  0  0  0  0  0  0  0  0
   11.2280   12.9135   17.5669 C   0  0  0  0  0  0  0  0  0  0  0  0
   12.3782    5.4231   20.7777 C   0  0  0  0  0  0  0  0  0  0  0  0
    7.7365    4.6508   21.6987 C   0  0  0  0  0  0  0  0  0  0  0  0
   13.0186   11.0102   18.0020 C   0  0  0  0  0  0  0  0  0  0  0  0
    8.6628    5.7088   21.8871 N   0  0  0  0  0  0  0  0  0  0  0  0
    5.6516    3.5258   21.9140 C   0  0  0  0  0  0  0  0  0  0  0  0
   11.5863    9.6815   19.4539 C   0  0  0  0  0  0  0  0  0  0  0  0
   12.9648    4.1543   20.9205 C   0  0  0  0  0  0  0  0  0  0  0  0
    8.2089    3.6265   20.8929 C   0  0  0  0  0  0  0  0  0  0  0  0
    7.3827    2.5724   20.5432 C   0  0  0  0  0  0  0  0  0  0  0  0
   11.1529    7.2750   20.8025 C   0  0  0  0  0  0  0  0  0  0  0  0
   10.2573    8.3215   20.9827 C   0  0  0  0  0  0  0  0  0  0  0  0
   11.1606    5.9378   21.2366 N   0  0  0  0  0  0  0  0  0  0  0  0
    9.8932   11.6736   19.0677 O   0  0  0  0  0  0  0  0  0  0  0  0
    6.4470    4.5850   22.2321 C   0  0  0  0  0  0  0  0  0  0  0  0
    8.4619    6.9895   22.2968 C   0  0  0  0  0  0  0  0  0  0  0  0
   12.2747    7.5102   20.0420 C   0  0  0  0  0  0  0  0  0  0  0  0
   14.2544    6.2142   19.4191 C   0  0  0  0  0  0  0  0  0  0  0  0
   13.0695    6.3705   20.0375 N   0  0  0  0  0  0  0  0  0  0  0  0
    9.1913    8.0876   21.8361 N   0  0  0  0  0  0  0  0  0  0  0  0
   10.4739    9.4813   20.2889 C   0  0  0  0  0  0  0  0  0  0  0  0
    7.5551    7.1270   23.1200 O   0  0  0  0  0  0  0  0  0  0  0  0
  1 11  4  0
  1 21  4  0
  2  4  1  0
  2  8  1  0
  2 11  1  0
  3 10  4  0
  3 14  4  0
  4  5  1  0
  4 18  2  0
  6 12  1  0
  6 17  4  0
  6 23  4  0
  7  9  1  0
  7 13  4  0
  7 19  4  0
  9 20  1  0
 10 19  4  0
 11 25  4  0
 13 14  4  0
 15 16  4  0
 15 17  4  0
 15 21  4  0
 16 24  1  0
 16 25  4  0
 20 24  1  0
 20 26  2  0
 21 23  4  0
 22 23  1  0
M  END
$$$$

 Created by Python create_sdf_string function

 26 28  0  0  0  0  0  0  0  0999 V2000
   12.4616    8.6700   19.4180 N   0  0  0  0  0  0  0  0  0  0  0  0
   11.8329   10.8148   18.6769 N   0  0  0  0  0  0  0  0  0  0  0  0
    6.1021    2.5564   21.0678 C   0  0  0  0  0  0  0  0  0  0  0  0
   10.9097   11.8051   18.4804 C   0  0  0  0  0  0  0  0  0  0  0  0
   11.2280   12.9135   17.5669 C   0  0  0  0  0  0  0  0  0  0  0  0
   12.3782    5.4231   20.7777 C   0  0  0  0  0  0  0  0  0  0  0  0
    7.7365    4.6508   21.6987 C   0  0  0  0  0  0  0  0  0  0  0  0
   13.0186   11.0102   18.0020 C   0  0  0  0  0  0  0  0  0  0  0  0
    8.6628    5.7088   21.8871 N   0  0  0  0  0  0  0  0  0  0  0  0
    5.6516    3.5258   21.9140 C   0  0  0  0  0  0  0  0  0  0  0  0
   11.5863    9.6815   19.4539 C   0  0  0  0  0  0  0  0  0  0  0  0
   12.9648    4.1543   20.9205 C   0  0  0  0  0  0  0  0  0  0  0  0
    8.2089    3.6265   20.8929 C   0  0  0  0  0  0  0  0  0  0  0  0
    7.3827    2.5724   20.5432 C   0  0  0  0  0  0  0  0  0  0  0  0
   11.1529    7.2750   20.8025 C   0  0  0  0  0  0  0  0  0  0  0  0
   10.2573    8.3215   20.9827 C   0  0  0  0  0  0  0  0  0  0  0  0
   11.1606    5.9378   21.2366 N   0  0  0  0  0  0  0  0  0  0  0  0
    9.8932   11.6736   19.0677 O   0  0  0  0  0  0  0  0  0  0  0  0
    6.4470    4.5850   22.2321 C   0  0  0  0  0  0  0  0  0  0  0  0
    8.4619    6.9895   22.2968 C   0  0  0  0  0  0  0  0  0  0  0  0
   12.2747    7.5102   20.0420 C   0  0  0  0  0  0  0  0  0  0  0  0
   14.2544    6.2142   19.4191 C   0  0  0  0  0  0  0  0  0  0  0  0
   13.0695    6.3705   20.0375 N   0  0  0  0  0  0  0  0  0  0  0  0
    9.1913    8.0876   21.8361 N   0  0  0  0  0  0  0  0  0  0  0  0
   10.4739    9.4813   20.2889 C   0  0  0  0  0  0  0  0  0  0  0  0
    7.5551    7.1270   23.1200 O   0  0  0  0  0  0  0  0  0  0  0  0
  1 11  4  0
  1 21  4  0
  2  4  1  0
  2  8  1  0
  2 11  1  0
  3 10  4  0
  3 14  4  0
  4  5  1  0
  4 18  2  0
  6 12  1  0
  6 17  4  0
  6 23  4  0
  7  9  1  0
  7 13  4  0
  7 19  4  0
  9 20  1  0
 10 19  4  0
 11 25  4  0
 13 14  4  0
 15 16  4  0
 15 17  4  0
 15 21  4  0
 16 24  1  0
 16 25  4  0
 20 24  1  0
 20 26  2  0
 21 23  4  0
 22 23  1  0
M  END
$$$$

 Created by Python create_sdf_string function

 26 28  0  0  0  0  0  0  0  0999 V2000
   12.4616    8.6700   19.4180 N   0  0  0  0  0  0  0  0  0  0  0  0
   11.8329   10.8148   18.6769 N   0  0  0  0  0  0  0  0  0  0  0  0
    6.1021    2.5564   21.0678 C   0  0  0  0  0  0  0  0  0  0  0  0
   10.9097   11.8051   18.4804 C   0  0  0  0  0  0  0  0  0  0  0  0
   11.2280   12.9135   17.5669 C   0  0  0  0  0  0  0  0  0  0  0  0
   12.3782    5.4231   20.7777 C   0  0  0  0  0  0  0  0  0  0  0  0
    7.7365    4.6508   21.6987 C   0  0  0  0  0  0  0  0  0  0  0  0
   13.0186   11.0102   18.0020 C   0  0  0  0  0  0  0  0  0  0  0  0
    8.6628    5.7088   21.8871 N   0  0  0  0  0  0  0  0  0  0  0  0
    5.6516    3.5258   21.9140 C   0  0  0  0  0  0  0  0  0  0  0  0
   11.5863    9.6815   19.4539 C   0  0  0  0  0  0  0  0  0  0  0  0
   12.9648    4.1543   20.9205 C   0  0  0  0  0  0  0  0  0  0  0  0
    8.2089    3.6265   20.8929 C   0  0  0  0  0  0  0  0  0  0  0  0
    7.3827    2.5724   20.5432 C   0  0  0  0  0  0  0  0  0  0  0  0
   11.1529    7.2750   20.8025 C   0  0  0  0  0  0  0  0  0  0  0  0
   10.2573    8.3215   20.9827 C   0  0  0  0  0  0  0  0  0  0  0  0
   11.1606    5.9378   21.2366 N   0  0  0  0  0  0  0  0  0  0  0  0
    9.8932   11.6736   19.0677 O   0  0  0  0  0  0  0  0  0  0  0  0
    6.4470    4.5850   22.2321 C   0  0  0  0  0  0  0  0  0  0  0  0
    8.4619    6.9895   22.2968 C   0  0  0  0  0  0  0  0  0  0  0  0
   12.2747    7.5102   20.0420 C   0  0  0  0  0  0  0  0  0  0  0  0
   14.2544    6.2142   19.4191 C   0  0  0  0  0  0  0  0  0  0  0  0
   13.0695    6.3705   20.0375 N   0  0  0  0  0  0  0  0  0  0  0  0
    9.1913    8.0876   21.8361 N   0  0  0  0  0  0  0  0  0  0  0  0
   10.4739    9.4813   20.2889 C   0  0  0  0  0  0  0  0  0  0  0  0
    7.5551    7.1270   23.1200 O   0  0  0  0  0  0  0  0  0  0  0  0
  1 11  4  0
  1 21  4  0
  2  4  1  0
  2  8  1  0
  2 11  1  0
  3 10  4  0
  3 14  4  0
  4  5  1  0
  4 18  2  0
  6 12  1  0
  6 17  4  0
  6 23  4  0
  7  9  1  0
  7 13  4  0
  7 19  4  0
  9 20  1  0
 10 19  4  0
 11 25  4  0
 13 14  4  0
 15 16  4  0
 15 17  4  0
 15 21  4  0
 16 24  1  0
 16 25  4  0
 20 24  1  0
 20 26  2  0
 21 23  4  0
 22 23  1  0
M  END
$$$$

 Created by Python create_sdf_string function

 26 28  0  0  0  0  0  0  0  0999 V2000
   12.4616    8.6700   19.4180 N   0  0  0  0  0  0  0  0  0  0  0  0
   11.8329   10.8148   18.6769 N   0  0  0  0  0  0  0  0  0  0  0  0
    6.1021    2.5564   21.0678 C   0  0  0  0  0  0  0  0  0  0  0  0
   10.9097   11.8051   18.4804 C   0  0  0  0  0  0  0  0  0  0  0  0
   11.2280   12.9135   17.5669 C   0  0  0  0  0  0  0  0  0  0  0  0
   12.3782    5.4231   20.7777 C   0  0  0  0  0  0  0  0  0  0  0  0
    7.7365    4.6508   21.6987 C   0  0  0  0  0  0  0  0  0  0  0  0
   13.0186   11.0102   18.0020 C   0  0  0  0  0  0  0  0  0  0  0  0
    8.6628    5.7088   21.8871 N   0  0  0  0  0  0  0  0  0  0  0  0
    5.6516    3.5258   21.9140 C   0  0  0  0  0  0  0  0  0  0  0  0
   11.5863    9.6815   19.4539 C   0  0  0  0  0  0  0  0  0  0  0  0
   12.9648    4.1543   20.9205 C   0  0  0  0  0  0  0  0  0  0  0  0
    8.2089    3.6265   20.8929 C   0  0  0  0  0  0  0  0  0  0  0  0
    7.3827    2.5724   20.5432 C   0  0  0  0  0  0  0  0  0  0  0  0
   11.1529    7.2750   20.8025 C   0  0  0  0  0  0  0  0  0  0  0  0
   10.2573    8.3215   20.9827 C   0  0  0  0  0  0  0  0  0  0  0  0
   11.1606    5.9378   21.2366 N   0  0  0  0  0  0  0  0  0  0  0  0
    9.8932   11.6736   19.0677 O   0  0  0  0  0  0  0  0  0  0  0  0
    6.4470    4.5850   22.2321 C   0  0  0  0  0  0  0  0  0  0  0  0
    8.4619    6.9895   22.2968 C   0  0  0  0  0  0  0  0  0  0  0  0
   12.2747    7.5102   20.0420 C   0  0  0  0  0  0  0  0  0  0  0  0
   14.2544    6.2142   19.4191 C   0  0  0  0  0  0  0  0  0  0  0  0
   13.0695    6.3705   20.0375 N   0  0  0  0  0  0  0  0  0  0  0  0
    9.1913    8.0876   21.8361 N   0  0  0  0  0  0  0  0  0  0  0  0
   10.4739    9.4813   20.2889 C   0  0  0  0  0  0  0  0  0  0  0  0
    7.5551    7.1270   23.1200 O   0  0  0  0  0  0  0  0  0  0  0  0
  1 11  4  0
  1 21  4  0
  2  4  1  0
  2  8  1  0
  2 11  1  0
  3 10  4  0
  3 14  4  0
  4  5  1  0
  4 18  2  0
  6 12  1  0
  6 17  4  0
  6 23  4  0
  7  9  1  0
  7 13  4  0
  7 19  4  0
  9 20  1  0
 10 19  4  0
 11 25  4  0
 13 14  4  0
 15 16  4  0
 15 17  4  0
 15 21  4  0
 16 24  1  0
 16 25  4  0
 20 24  1  0
 20 26  2  0
 21 23  4  0
 22 23  1  0
M  END
$$$$

 Created by Python create_sdf_string function

 26 28  0  0  0  0  0  0  0  0999 V2000
   12.4616    8.6700   19.4180 N   0  0  0  0  0  0  0  0  0  0  0  0
   11.8329   10.8148   18.6769 N   0  0  0  0  0  0  0  0  0  0  0  0
    6.1021    2.5564   21.0678 C   0  0  0  0  0  0  0  0  0  0  0  0
   10.9097   11.8051   18.4804 C   0  0  0  0  0  0  0  0  0  0  0  0
   11.2280   12.9135   17.5669 C   0  0  0  0  0  0  0  0  0  0  0  0
   12.3782    5.4231   20.7777 C   0  0  0  0  0  0  0  0  0  0  0  0
    7.7365    4.6508   21.6987 C   0  0  0  0  0  0  0  0  0  0  0  0
   13.0186   11.0102   18.0020 C   0  0  0  0  0  0  0  0  0  0  0  0
    8.6628    5.7088   21.8871 N   0  0  0  0  0  0  0  0  0  0  0  0
    5.6516    3.5258   21.9140 C   0  0  0  0  0  0  0  0  0  0  0  0
   11.5863    9.6815   19.4539 C   0  0  0  0  0  0  0  0  0  0  0  0
   12.9648    4.1543   20.9205 C   0  0  0  0  0  0  0  0  0  0  0  0
    8.2089    3.6265   20.8929 C   0  0  0  0  0  0  0  0  0  0  0  0
    7.3827    2.5724   20.5432 C   0  0  0  0  0  0  0  0  0  0  0  0
   11.1529    7.2750   20.8025 C   0  0  0  0  0  0  0  0  0  0  0  0
   10.2573    8.3215   20.9827 C   0  0  0  0  0  0  0  0  0  0  0  0
   11.1606    5.9378   21.2366 N   0  0  0  0  0  0  0  0  0  0  0  0
    9.8932   11.6736   19.0677 O   0  0  0  0  0  0  0  0  0  0  0  0
    6.4470    4.5850   22.2321 C   0  0  0  0  0  0  0  0  0  0  0  0
    8.4619    6.9895   22.2968 C   0  0  0  0  0  0  0  0  0  0  0  0
   12.2747    7.5102   20.0420 C   0  0  0  0  0  0  0  0  0  0  0  0
   14.2544    6.2142   19.4191 C   0  0  0  0  0  0  0  0  0  0  0  0
   13.0695    6.3705   20.0375 N   0  0  0  0  0  0  0  0  0  0  0  0
    9.1913    8.0876   21.8361 N   0  0  0  0  0  0  0  0  0  0  0  0
   10.4739    9.4813   20.2889 C   0  0  0  0  0  0  0  0  0  0  0  0
    7.5551    7.1270   23.1200 O   0  0  0  0  0  0  0  0  0  0  0  0
  1 11  4  0
  1 21  4  0
  2  4  1  0
  2  8  1  0
  2 11  1  0
  3 10  4  0
  3 14  4  0
  4  5  1  0
  4 18  2  0
  6 12  1  0
  6 17  4  0
  6 23  4  0
  7  9  1  0
  7 13  4  0
  7 19  4  0
  9 20  1  0
 10 19  4  0
 11 25  4  0
 13 14  4  0
 15 16  4  0
 15 17  4  0
 15 21  4  0
 16 24  1  0
 16 25  4  0
 20 24  1  0
 20 26  2  0
 21 23  4  0
 22 23  1  0
M  END
$$$$

 Created by Python create_sdf_string function

 26 28  0  0  0  0  0  0  0  0999 V2000
   12.4616    8.6700   19.4180 N   0  0  0  0  0  0  0  0  0  0  0  0
   11.8329   10.8148   18.6769 N   0  0  0  0  0  0  0  0  0  0  0  0
    6.1021    2.5564   21.0678 C   0  0  0  0  0  0  0  0  0  0  0  0
   10.9097   11.8051   18.4804 C   0  0  0  0  0  0  0  0  0  0  0  0
   11.2280   12.9135   17.5669 C   0  0  0  0  0  0  0  0  0  0  0  0
   12.3782    5.4231   20.7777 C   0  0  0  0  0  0  0  0  0  0  0  0
    7.7365    4.6508   21.6987 C   0  0  0  0  0  0  0  0  0  0  0  0
   13.0186   11.0102   18.0020 C   0  0  0  0  0  0  0  0  0  0  0  0
    8.6628    5.7088   21.8871 N   0  0  0  0  0  0  0  0  0  0  0  0
    5.6516    3.5258   21.9140 C   0  0  0  0  0  0  0  0  0  0  0  0
   11.5863    9.6815   19.4539 C   0  0  0  0  0  0  0  0  0  0  0  0
   12.9648    4.1543   20.9205 C   0  0  0  0  0  0  0  0  0  0  0  0
    8.2089    3.6265   20.8929 C   0  0  0  0  0  0  0  0  0  0  0  0
    7.3827    2.5724   20.5432 C   0  0  0  0  0  0  0  0  0  0  0  0
   11.1529    7.2750   20.8025 C   0  0  0  0  0  0  0  0  0  0  0  0
   10.2573    8.3215   20.9827 C   0  0  0  0  0  0  0  0  0  0  0  0
   11.1606    5.9378   21.2366 N   0  0  0  0  0  0  0  0  0  0  0  0
    9.8932   11.6736   19.0677 O   0  0  0  0  0  0  0  0  0  0  0  0
    6.4470    4.5850   22.2321 C   0  0  0  0  0  0  0  0  0  0  0  0
    8.4619    6.9895   22.2968 C   0  0  0  0  0  0  0  0  0  0  0  0
   12.2747    7.5102   20.0420 C   0  0  0  0  0  0  0  0  0  0  0  0
   14.2544    6.2142   19.4191 C   0  0  0  0  0  0  0  0  0  0  0  0
   13.0695    6.3705   20.0375 N   0  0  0  0  0  0  0  0  0  0  0  0
    9.1913    8.0876   21.8361 N   0  0  0  0  0  0  0  0  0  0  0  0
   10.4739    9.4813   20.2889 C   0  0  0  0  0  0  0  0  0  0  0  0
    7.5551    7.1270   23.1200 O   0  0  0  0  0  0  0  0  0  0  0  0
  1 11  4  0
  1 21  4  0
  2  4  1  0
  2  8  1  0
  2 11  1  0
  3 10  4  0
  3 14  4  0
  4  5  1  0
  4 18  2  0
  6 12  1  0
  6 17  4  0
  6 23  4  0
  7  9  1  0
  7 13  4  0
  7 19  4  0
  9 20  1  0
 10 19  4  0
 11 25  4  0
 13 14  4  0
 15 16  4  0
 15 17  4  0
 15 21  4  0
 16 24  1  0
 16 25  4  0
 20 24  1  0
 20 26  2  0
 21 23  4  0
 22 23  1  0
M  END
$$$$

 Created by Python create_sdf_string function

 26 28  0  0  0  0  0  0  0  0999 V2000
   12.4616    8.6700   19.4180 N   0  0  0  0  0  0  0  0  0  0  0  0
   11.8329   10.8148   18.6769 N   0  0  0  0  0  0  0  0  0  0  0  0
    6.1021    2.5564   21.0678 C   0  0  0  0  0  0  0  0  0  0  0  0
   10.9097   11.8051   18.4804 C   0  0  0  0  0  0  0  0  0  0  0  0
   11.2280   12.9135   17.5669 C   0  0  0  0  0  0  0  0  0  0  0  0
   12.3782    5.4231   20.7777 C   0  0  0  0  0  0  0  0  0  0  0  0
    7.7365    4.6508   21.6987 C   0  0  0  0  0  0  0  0  0  0  0  0
   13.0186   11.0102   18.0020 C   0  0  0  0  0  0  0  0  0  0  0  0
    8.6628    5.7088   21.8871 N   0  0  0  0  0  0  0  0  0  0  0  0
    5.6516    3.5258   21.9140 C   0  0  0  0  0  0  0  0  0  0  0  0
   11.5863    9.6815   19.4539 C   0  0  0  0  0  0  0  0  0  0  0  0
   12.9648    4.1543   20.9205 C   0  0  0  0  0  0  0  0  0  0  0  0
    8.2089    3.6265   20.8929 C   0  0  0  0  0  0  0  0  0  0  0  0
    7.3827    2.5724   20.5432 C   0  0  0  0  0  0  0  0  0  0  0  0
   11.1529    7.2750   20.8025 C   0  0  0  0  0  0  0  0  0  0  0  0
   10.2573    8.3215   20.9827 C   0  0  0  0  0  0  0  0  0  0  0  0
   11.1606    5.9378   21.2366 N   0  0  0  0  0  0  0  0  0  0  0  0
    9.8932   11.6736   19.0677 O   0  0  0  0  0  0  0  0  0  0  0  0
    6.4470    4.5850   22.2321 C   0  0  0  0  0  0  0  0  0  0  0  0
    8.4619    6.9895   22.2968 C   0  0  0  0  0  0  0  0  0  0  0  0
   12.2747    7.5102   20.0420 C   0  0  0  0  0  0  0  0  0  0  0  0
   14.2544    6.2142   19.4191 C   0  0  0  0  0  0  0  0  0  0  0  0
   13.0695    6.3705   20.0375 N   0  0  0  0  0  0  0  0  0  0  0  0
    9.1913    8.0876   21.8361 N   0  0  0  0  0  0  0  0  0  0  0  0
   10.4739    9.4813   20.2889 C   0  0  0  0  0  0  0  0  0  0  0  0
    7.5551    7.1270   23.1200 O   0  0  0  0  0  0  0  0  0  0  0  0
  1 11  4  0
  1 21  4  0
  2  4  1  0
  2  8  1  0
  2 11  1  0
  3 10  4  0
  3 14  4  0
  4  5  1  0
  4 18  2  0
  6 12  1  0
  6 17  4  0
  6 23  4  0
  7  9  1  0
  7 13  4  0
  7 19  4  0
  9 20  1  0
 10 19  4  0
 11 25  4  0
 13 14  4  0
 15 16  4  0
 15 17  4  0
 15 21  4  0
 16 24  1  0
 16 25  4  0
 20 24  1  0
 20 26  2  0
 21 23  4  0
 22 23  1  0
M  END
$$$$

 Created by Python create_sdf_string function

 26 28  0  0  0  0  0  0  0  0999 V2000
   12.4616    8.6700   19.4180 N   0  0  0  0  0  0  0  0  0  0  0  0
   11.8329   10.8148   18.6769 N   0  0  0  0  0  0  0  0  0  0  0  0
    6.1021    2.5564   21.0678 C   0  0  0  0  0  0  0  0  0  0  0  0
   10.9097   11.8051   18.4804 C   0  0  0  0  0  0  0  0  0  0  0  0
   11.2280   12.9135   17.5669 C   0  0  0  0  0  0  0  0  0  0  0  0
   12.3782    5.4231   20.7777 C   0  0  0  0  0  0  0  0  0  0  0  0
    7.7365    4.6508   21.6987 C   0  0  0  0  0  0  0  0  0  0  0  0
   13.0186   11.0102   18.0020 C   0  0  0  0  0  0  0  0  0  0  0  0
    8.6628    5.7088   21.8871 N   0  0  0  0  0  0  0  0  0  0  0  0
    5.6516    3.5258   21.9140 C   0  0  0  0  0  0  0  0  0  0  0  0
   11.5863    9.6815   19.4539 C   0  0  0  0  0  0  0  0  0  0  0  0
   12.9648    4.1543   20.9205 C   0  0  0  0  0  0  0  0  0  0  0  0
    8.2089    3.6265   20.8929 C   0  0  0  0  0  0  0  0  0  0  0  0
    7.3827    2.5724   20.5432 C   0  0  0  0  0  0  0  0  0  0  0  0
   11.1529    7.2750   20.8025 C   0  0  0  0  0  0  0  0  0  0  0  0
   10.2573    8.3215   20.9827 C   0  0  0  0  0  0  0  0  0  0  0  0
   11.1606    5.9378   21.2366 N   0  0  0  0  0  0  0  0  0  0  0  0
    9.8932   11.6736   19.0677 O   0  0  0  0  0  0  0  0  0  0  0  0
    6.4470    4.5850   22.2321 C   0  0  0  0  0  0  0  0  0  0  0  0
    8.4619    6.9895   22.2968 C   0  0  0  0  0  0  0  0  0  0  0  0
   12.2747    7.5102   20.0420 C   0  0  0  0  0  0  0  0  0  0  0  0
   14.2544    6.2142   19.4191 C   0  0  0  0  0  0  0  0  0  0  0  0
   13.0695    6.3705   20.0375 N   0  0  0  0  0  0  0  0  0  0  0  0
    9.1913    8.0876   21.8361 N   0  0  0  0  0  0  0  0  0  0  0  0
   10.4739    9.4813   20.2889 C   0  0  0  0  0  0  0  0  0  0  0  0
    7.5551    7.1270   23.1200 O   0  0  0  0  0  0  0  0  0  0  0  0
  1 11  4  0
  1 21  4  0
  2  4  1  0
  2  8  1  0
  2 11  1  0
  3 10  4  0
  3 14  4  0
  4  5  1  0
  4 18  2  0
  6 12  1  0
  6 17  4  0
  6 23  4  0
  7  9  1  0
  7 13  4  0
  7 19  4  0
  9 20  1  0
 10 19  4  0
 11 25  4  0
 13 14  4  0
 15 16  4  0
 15 17  4  0
 15 21  4  0
 16 24  1  0
 16 25  4  0
 20 24  1  0
 20 26  2  0
 21 23  4  0
 22 23  1  0
M  END
$$$$

 Created by Python create_sdf_string function

 26 28  0  0  0  0  0  0  0  0999 V2000
   12.4616    8.6700   19.4180 N   0  0  0  0  0  0  0  0  0  0  0  0
   11.8329   10.8148   18.6769 N   0  0  0  0  0  0  0  0  0  0  0  0
    6.1021    2.5564   21.0678 C   0  0  0  0  0  0  0  0  0  0  0  0
   10.9097   11.8051   18.4804 C   0  0  0  0  0  0  0  0  0  0  0  0
   11.2280   12.9135   17.5669 C   0  0  0  0  0  0  0  0  0  0  0  0
   12.3782    5.4231   20.7777 C   0  0  0  0  0  0  0  0  0  0  0  0
    7.7365    4.6508   21.6987 C   0  0  0  0  0  0  0  0  0  0  0  0
   13.0186   11.0102   18.0020 C   0  0  0  0  0  0  0  0  0  0  0  0
    8.6628    5.7088   21.8871 N   0  0  0  0  0  0  0  0  0  0  0  0
    5.6516    3.5258   21.9140 C   0  0  0  0  0  0  0  0  0  0  0  0
   11.5863    9.6815   19.4539 C   0  0  0  0  0  0  0  0  0  0  0  0
   12.9648    4.1543   20.9205 C   0  0  0  0  0  0  0  0  0  0  0  0
    8.2089    3.6265   20.8929 C   0  0  0  0  0  0  0  0  0  0  0  0
    7.3827    2.5724   20.5432 C   0  0  0  0  0  0  0  0  0  0  0  0
   11.1529    7.2750   20.8025 C   0  0  0  0  0  0  0  0  0  0  0  0
   10.2573    8.3215   20.9827 C   0  0  0  0  0  0  0  0  0  0  0  0
   11.1606    5.9378   21.2366 N   0  0  0  0  0  0  0  0  0  0  0  0
    9.8932   11.6736   19.0677 O   0  0  0  0  0  0  0  0  0  0  0  0
    6.4470    4.5850   22.2321 C   0  0  0  0  0  0  0  0  0  0  0  0
    8.4619    6.9895   22.2968 C   0  0  0  0  0  0  0  0  0  0  0  0
   12.2747    7.5102   20.0420 C   0  0  0  0  0  0  0  0  0  0  0  0
   14.2544    6.2142   19.4191 C   0  0  0  0  0  0  0  0  0  0  0  0
   13.0695    6.3705   20.0375 N   0  0  0  0  0  0  0  0  0  0  0  0
    9.1913    8.0876   21.8361 N   0  0  0  0  0  0  0  0  0  0  0  0
   10.4739    9.4813   20.2889 C   0  0  0  0  0  0  0  0  0  0  0  0
    7.5551    7.1270   23.1200 O   0  0  0  0  0  0  0  0  0  0  0  0
  1 11  4  0
  1 21  4  0
  2  4  1  0
  2  8  1  0
  2 11  1  0
  3 10  4  0
  3 14  4  0
  4  5  1  0
  4 18  2  0
  6 12  1  0
  6 17  4  0
  6 23  4  0
  7  9  1  0
  7 13  4  0
  7 19  4  0
  9 20  1  0
 10 19  4  0
 11 25  4  0
 13 14  4  0
 15 16  4  0
 15 17  4  0
 15 21  4  0
 16 24  1  0
 16 25  4  0
 20 24  1  0
 20 26  2  0
 21 23  4  0
 22 23  1  0
M  END
$$$$

 Created by Python create_sdf_string function

 26 28  0  0  0  0  0  0  0  0999 V2000
   12.4616    8.6700   19.4180 N   0  0  0  0  0  0  0  0  0  0  0  0
   11.8329   10.8148   18.6769 N   0  0  0  0  0  0  0  0  0  0  0  0
    6.1021    2.5564   21.0678 C   0  0  0  0  0  0  0  0  0  0  0  0
   10.9097   11.8051   18.4804 C   0  0  0  0  0  0  0  0  0  0  0  0
   11.2280   12.9135   17.5669 C   0  0  0  0  0  0  0  0  0  0  0  0
   12.3782    5.4231   20.7777 C   0  0  0  0  0  0  0  0  0  0  0  0
    7.7365    4.6508   21.6987 C   0  0  0  0  0  0  0  0  0  0  0  0
   13.0186   11.0102   18.0020 C   0  0  0  0  0  0  0  0  0  0  0  0
    8.6628    5.7088   21.8871 N   0  0  0  0  0  0  0  0  0  0  0  0
    5.6516    3.5258   21.9140 C   0  0  0  0  0  0  0  0  0  0  0  0
   11.5863    9.6815   19.4539 C   0  0  0  0  0  0  0  0  0  0  0  0
   12.9648    4.1543   20.9205 C   0  0  0  0  0  0  0  0  0  0  0  0
    8.2089    3.6265   20.8929 C   0  0  0  0  0  0  0  0  0  0  0  0
    7.3827    2.5724   20.5432 C   0  0  0  0  0  0  0  0  0  0  0  0
   11.1529    7.2750   20.8025 C   0  0  0  0  0  0  0  0  0  0  0  0
   10.2573    8.3215   20.9827 C   0  0  0  0  0  0  0  0  0  0  0  0
   11.1606    5.9378   21.2366 N   0  0  0  0  0  0  0  0  0  0  0  0
    9.8932   11.6736   19.0677 O   0  0  0  0  0  0  0  0  0  0  0  0
    6.4470    4.5850   22.2321 C   0  0  0  0  0  0  0  0  0  0  0  0
    8.4619    6.9895   22.2968 C   0  0  0  0  0  0  0  0  0  0  0  0
   12.2747    7.5102   20.0420 C   0  0  0  0  0  0  0  0  0  0  0  0
   14.2544    6.2142   19.4191 C   0  0  0  0  0  0  0  0  0  0  0  0
   13.0695    6.3705   20.0375 N   0  0  0  0  0  0  0  0  0  0  0  0
    9.1913    8.0876   21.8361 N   0  0  0  0  0  0  0  0  0  0  0  0
   10.4739    9.4813   20.2889 C   0  0  0  0  0  0  0  0  0  0  0  0
    7.5551    7.1270   23.1200 O   0  0  0  0  0  0  0  0  0  0  0  0
  1 11  4  0
  1 21  4  0
  2  4  1  0
  2  8  1  0
  2 11  1  0
  3 10  4  0
  3 14  4  0
  4  5  1  0
  4 18  2  0
  6 12  1  0
  6 17  4  0
  6 23  4  0
  7  9  1  0
  7 13  4  0
  7 19  4  0
  9 20  1  0
 10 19  4  0
 11 25  4  0
 13 14  4  0
 15 16  4  0
 15 17  4  0
 15 21  4  0
 16 24  1  0
 16 25  4  0
 20 24  1  0
 20 26  2  0
 21 23  4  0
 22 23  1  0
M  END
$$$$

 Created by Python create_sdf_string function

 26 28  0  0  0  0  0  0  0  0999 V2000
   12.4616    8.6700   19.4180 N   0  0  0  0  0  0  0  0  0  0  0  0
   11.8329   10.8148   18.6769 N   0  0  0  0  0  0  0  0  0  0  0  0
    6.1021    2.5564   21.0678 C   0  0  0  0  0  0  0  0  0  0  0  0
   10.9097   11.8051   18.4804 C   0  0  0  0  0  0  0  0  0  0  0  0
   11.2280   12.9135   17.5669 C   0  0  0  0  0  0  0  0  0  0  0  0
   12.3782    5.4231   20.7777 C   0  0  0  0  0  0  0  0  0  0  0  0
    7.7365    4.6508   21.6987 C   0  0  0  0  0  0  0  0  0  0  0  0
   13.0186   11.0102   18.0020 C   0  0  0  0  0  0  0  0  0  0  0  0
    8.6628    5.7088   21.8871 N   0  0  0  0  0  0  0  0  0  0  0  0
    5.6516    3.5258   21.9140 C   0  0  0  0  0  0  0  0  0  0  0  0
   11.5863    9.6815   19.4539 C   0  0  0  0  0  0  0  0  0  0  0  0
   12.9648    4.1543   20.9205 C   0  0  0  0  0  0  0  0  0  0  0  0
    8.2089    3.6265   20.8929 C   0  0  0  0  0  0  0  0  0  0  0  0
    7.3827    2.5724   20.5432 C   0  0  0  0  0  0  0  0  0  0  0  0
   11.1529    7.2750   20.8025 C   0  0  0  0  0  0  0  0  0  0  0  0
   10.2573    8.3215   20.9827 C   0  0  0  0  0  0  0  0  0  0  0  0
   11.1606    5.9378   21.2366 N   0  0  0  0  0  0  0  0  0  0  0  0
    9.8932   11.6736   19.0677 O   0  0  0  0  0  0  0  0  0  0  0  0
    6.4470    4.5850   22.2321 C   0  0  0  0  0  0  0  0  0  0  0  0
    8.4619    6.9895   22.2968 C   0  0  0  0  0  0  0  0  0  0  0  0
   12.2747    7.5102   20.0420 C   0  0  0  0  0  0  0  0  0  0  0  0
   14.2544    6.2142   19.4191 C   0  0  0  0  0  0  0  0  0  0  0  0
   13.0695    6.3705   20.0375 N   0  0  0  0  0  0  0  0  0  0  0  0
    9.1913    8.0876   21.8361 N   0  0  0  0  0  0  0  0  0  0  0  0
   10.4739    9.4813   20.2889 C   0  0  0  0  0  0  0  0  0  0  0  0
    7.5551    7.1270   23.1200 O   0  0  0  0  0  0  0  0  0  0  0  0
  1 11  4  0
  1 21  4  0
  2  4  1  0
  2  8  1  0
  2 11  1  0
  3 10  4  0
  3 14  4  0
  4  5  1  0
  4 18  2  0
  6 12  1  0
  6 17  4  0
  6 23  4  0
  7  9  1  0
  7 13  4  0
  7 19  4  0
  9 20  1  0
 10 19  4  0
 11 25  4  0
 13 14  4  0
 15 16  4  0
 15 17  4  0
 15 21  4  0
 16 24  1  0
 16 25  4  0
 20 24  1  0
 20 26  2  0
 21 23  4  0
 22 23  1  0
M  END
$$$$

 Created by Python create_sdf_string function

 26 28  0  0  0  0  0  0  0  0999 V2000
   12.4616    8.6700   19.4180 N   0  0  0  0  0  0  0  0  0  0  0  0
   11.8329   10.8148   18.6769 N   0  0  0  0  0  0  0  0  0  0  0  0
    6.1021    2.5564   21.0678 C   0  0  0  0  0  0  0  0  0  0  0  0
   10.9097   11.8051   18.4804 C   0  0  0  0  0  0  0  0  0  0  0  0
   11.2280   12.9135   17.5669 C   0  0  0  0  0  0  0  0  0  0  0  0
   12.3782    5.4231   20.7777 C   0  0  0  0  0  0  0  0  0  0  0  0
    7.7365    4.6508   21.6987 C   0  0  0  0  0  0  0  0  0  0  0  0
   13.0186   11.0102   18.0020 C   0  0  0  0  0  0  0  0  0  0  0  0
    8.6628    5.7088   21.8871 N   0  0  0  0  0  0  0  0  0  0  0  0
    5.6516    3.5258   21.9140 C   0  0  0  0  0  0  0  0  0  0  0  0
   11.5863    9.6815   19.4539 C   0  0  0  0  0  0  0  0  0  0  0  0
   12.9648    4.1543   20.9205 C   0  0  0  0  0  0  0  0  0  0  0  0
    8.2089    3.6265   20.8929 C   0  0  0  0  0  0  0  0  0  0  0  0
    7.3827    2.5724   20.5432 C   0  0  0  0  0  0  0  0  0  0  0  0
   11.1529    7.2750   20.8025 C   0  0  0  0  0  0  0  0  0  0  0  0
   10.2573    8.3215   20.9827 C   0  0  0  0  0  0  0  0  0  0  0  0
   11.1606    5.9378   21.2366 N   0  0  0  0  0  0  0  0  0  0  0  0
    9.8932   11.6736   19.0677 O   0  0  0  0  0  0  0  0  0  0  0  0
    6.4470    4.5850   22.2321 C   0  0  0  0  0  0  0  0  0  0  0  0
    8.4619    6.9895   22.2968 C   0  0  0  0  0  0  0  0  0  0  0  0
   12.2747    7.5102   20.0420 C   0  0  0  0  0  0  0  0  0  0  0  0
   14.2544    6.2142   19.4191 C   0  0  0  0  0  0  0  0  0  0  0  0
   13.0695    6.3705   20.0375 N   0  0  0  0  0  0  0  0  0  0  0  0
    9.1913    8.0876   21.8361 N   0  0  0  0  0  0  0  0  0  0  0  0
   10.4739    9.4813   20.2889 C   0  0  0  0  0  0  0  0  0  0  0  0
    7.5551    7.1270   23.1200 O   0  0  0  0  0  0  0  0  0  0  0  0
  1 11  4  0
  1 21  4  0
  2  4  1  0
  2  8  1  0
  2 11  1  0
  3 10  4  0
  3 14  4  0
  4  5  1  0
  4 18  2  0
  6 12  1  0
  6 17  4  0
  6 23  4  0
  7  9  1  0
  7 13  4  0
  7 19  4  0
  9 20  1  0
 10 19  4  0
 11 25  4  0
 13 14  4  0
 15 16  4  0
 15 17  4  0
 15 21  4  0
 16 24  1  0
 16 25  4  0
 20 24  1  0
 20 26  2  0
 21 23  4  0
 22 23  1  0
M  END
$$$$

 Created by Python create_sdf_string function

 26 28  0  0  0  0  0  0  0  0999 V2000
   12.4616    8.6700   19.4180 N   0  0  0  0  0  0  0  0  0  0  0  0
   11.8329   10.8148   18.6769 N   0  0  0  0  0  0  0  0  0  0  0  0
    6.1021    2.5564   21.0678 C   0  0  0  0  0  0  0  0  0  0  0  0
   10.9097   11.8051   18.4804 C   0  0  0  0  0  0  0  0  0  0  0  0
   11.2280   12.9135   17.5669 C   0  0  0  0  0  0  0  0  0  0  0  0
   12.3782    5.4231   20.7777 C   0  0  0  0  0  0  0  0  0  0  0  0
    7.7365    4.6508   21.6987 C   0  0  0  0  0  0  0  0  0  0  0  0
   13.0186   11.0102   18.0020 C   0  0  0  0  0  0  0  0  0  0  0  0
    8.6628    5.7088   21.8871 N   0  0  0  0  0  0  0  0  0  0  0  0
    5.6516    3.5258   21.9140 C   0  0  0  0  0  0  0  0  0  0  0  0
   11.5863    9.6815   19.4539 C   0  0  0  0  0  0  0  0  0  0  0  0
   12.9648    4.1543   20.9205 C   0  0  0  0  0  0  0  0  0  0  0  0
    8.2089    3.6265   20.8929 C   0  0  0  0  0  0  0  0  0  0  0  0
    7.3827    2.5724   20.5432 C   0  0  0  0  0  0  0  0  0  0  0  0
   11.1529    7.2750   20.8025 C   0  0  0  0  0  0  0  0  0  0  0  0
   10.2573    8.3215   20.9827 C   0  0  0  0  0  0  0  0  0  0  0  0
   11.1606    5.9378   21.2366 N   0  0  0  0  0  0  0  0  0  0  0  0
    9.8932   11.6736   19.0677 O   0  0  0  0  0  0  0  0  0  0  0  0
    6.4470    4.5850   22.2321 C   0  0  0  0  0  0  0  0  0  0  0  0
    8.4619    6.9895   22.2968 C   0  0  0  0  0  0  0  0  0  0  0  0
   12.2747    7.5102   20.0420 C   0  0  0  0  0  0  0  0  0  0  0  0
   14.2544    6.2142   19.4191 C   0  0  0  0  0  0  0  0  0  0  0  0
   13.0695    6.3705   20.0375 N   0  0  0  0  0  0  0  0  0  0  0  0
    9.1913    8.0876   21.8361 N   0  0  0  0  0  0  0  0  0  0  0  0
   10.4739    9.4813   20.2889 C   0  0  0  0  0  0  0  0  0  0  0  0
    7.5551    7.1270   23.1200 O   0  0  0  0  0  0  0  0  0  0  0  0
  1 11  4  0
  1 21  4  0
  2  4  1  0
  2  8  1  0
  2 11  1  0
  3 10  4  0
  3 14  4  0
  4  5  1  0
  4 18  2  0
  6 12  1  0
  6 17  4  0
  6 23  4  0
  7  9  1  0
  7 13  4  0
  7 19  4  0
  9 20  1  0
 10 19  4  0
 11 25  4  0
 13 14  4  0
 15 16  4  0
 15 17  4  0
 15 21  4  0
 16 24  1  0
 16 25  4  0
 20 24  1  0
 20 26  2  0
 21 23  4  0
 22 23  1  0
M  END
$$$$

 Created by Python create_sdf_string function

 26 28  0  0  0  0  0  0  0  0999 V2000
   12.4616    8.6700   19.4180 N   0  0  0  0  0  0  0  0  0  0  0  0
   11.8329   10.8148   18.6769 N   0  0  0  0  0  0  0  0  0  0  0  0
    6.1021    2.5564   21.0678 C   0  0  0  0  0  0  0  0  0  0  0  0
   10.9097   11.8051   18.4804 C   0  0  0  0  0  0  0  0  0  0  0  0
   11.2280   12.9135   17.5669 C   0  0  0  0  0  0  0  0  0  0  0  0
   12.3782    5.4231   20.7777 C   0  0  0  0  0  0  0  0  0  0  0  0
    7.7365    4.6508   21.6987 C   0  0  0  0  0  0  0  0  0  0  0  0
   13.0186   11.0102   18.0020 C   0  0  0  0  0  0  0  0  0  0  0  0
    8.6628    5.7088   21.8871 N   0  0  0  0  0  0  0  0  0  0  0  0
    5.6516    3.5258   21.9140 C   0  0  0  0  0  0  0  0  0  0  0  0
   11.5863    9.6815   19.4539 C   0  0  0  0  0  0  0  0  0  0  0  0
   12.9648    4.1543   20.9205 C   0  0  0  0  0  0  0  0  0  0  0  0
    8.2089    3.6265   20.8929 C   0  0  0  0  0  0  0  0  0  0  0  0
    7.3827    2.5724   20.5432 C   0  0  0  0  0  0  0  0  0  0  0  0
   11.1529    7.2750   20.8025 C   0  0  0  0  0  0  0  0  0  0  0  0
   10.2573    8.3215   20.9827 C   0  0  0  0  0  0  0  0  0  0  0  0
   11.1606    5.9378   21.2366 N   0  0  0  0  0  0  0  0  0  0  0  0
    9.8932   11.6736   19.0677 O   0  0  0  0  0  0  0  0  0  0  0  0
    6.4470    4.5850   22.2321 C   0  0  0  0  0  0  0  0  0  0  0  0
    8.4619    6.9895   22.2968 C   0  0  0  0  0  0  0  0  0  0  0  0
   12.2747    7.5102   20.0420 C   0  0  0  0  0  0  0  0  0  0  0  0
   14.2544    6.2142   19.4191 C   0  0  0  0  0  0  0  0  0  0  0  0
   13.0695    6.3705   20.0375 N   0  0  0  0  0  0  0  0  0  0  0  0
    9.1913    8.0876   21.8361 N   0  0  0  0  0  0  0  0  0  0  0  0
   10.4739    9.4813   20.2889 C   0  0  0  0  0  0  0  0  0  0  0  0
    7.5551    7.1270   23.1200 O   0  0  0  0  0  0  0  0  0  0  0  0
  1 11  4  0
  1 21  4  0
  2  4  1  0
  2  8  1  0
  2 11  1  0
  3 10  4  0
  3 14  4  0
  4  5  1  0
  4 18  2  0
  6 12  1  0
  6 17  4  0
  6 23  4  0
  7  9  1  0
  7 13  4  0
  7 19  4  0
  9 20  1  0
 10 19  4  0
 11 25  4  0
 13 14  4  0
 15 16  4  0
 15 17  4  0
 15 21  4  0
 16 24  1  0
 16 25  4  0
 20 24  1  0
 20 26  2  0
 21 23  4  0
 22 23  1  0
M  END
$$$$

 Created by Python create_sdf_string function

 26 28  0  0  0  0  0  0  0  0999 V2000
   12.4616    8.6700   19.4180 N   0  0  0  0  0  0  0  0  0  0  0  0
   11.8329   10.8148   18.6769 N   0  0  0  0  0  0  0  0  0  0  0  0
    6.1021    2.5564   21.0678 C   0  0  0  0  0  0  0  0  0  0  0  0
   10.9097   11.8051   18.4804 C   0  0  0  0  0  0  0  0  0  0  0  0
   11.2280   12.9135   17.5669 C   0  0  0  0  0  0  0  0  0  0  0  0
   12.3782    5.4231   20.7777 C   0  0  0  0  0  0  0  0  0  0  0  0
    7.7365    4.6508   21.6987 C   0  0  0  0  0  0  0  0  0  0  0  0
   13.0186   11.0102   18.0020 C   0  0  0  0  0  0  0  0  0  0  0  0
    8.6628    5.7088   21.8871 N   0  0  0  0  0  0  0  0  0  0  0  0
    5.6516    3.5258   21.9140 C   0  0  0  0  0  0  0  0  0  0  0  0
   11.5863    9.6815   19.4539 C   0  0  0  0  0  0  0  0  0  0  0  0
   12.9648    4.1543   20.9205 C   0  0  0  0  0  0  0  0  0  0  0  0
    8.2089    3.6265   20.8929 C   0  0  0  0  0  0  0  0  0  0  0  0
    7.3827    2.5724   20.5432 C   0  0  0  0  0  0  0  0  0  0  0  0
   11.1529    7.2750   20.8025 C   0  0  0  0  0  0  0  0  0  0  0  0
   10.2573    8.3215   20.9827 C   0  0  0  0  0  0  0  0  0  0  0  0
   11.1606    5.9378   21.2366 N   0  0  0  0  0  0  0  0  0  0  0  0
    9.8932   11.6736   19.0677 O   0  0  0  0  0  0  0  0  0  0  0  0
    6.4470    4.5850   22.2321 C   0  0  0  0  0  0  0  0  0  0  0  0
    8.4619    6.9895   22.2968 C   0  0  0  0  0  0  0  0  0  0  0  0
   12.2747    7.5102   20.0420 C   0  0  0  0  0  0  0  0  0  0  0  0
   14.2544    6.2142   19.4191 C   0  0  0  0  0  0  0  0  0  0  0  0
   13.0695    6.3705   20.0375 N   0  0  0  0  0  0  0  0  0  0  0  0
    9.1913    8.0876   21.8361 N   0  0  0  0  0  0  0  0  0  0  0  0
   10.4739    9.4813   20.2889 C   0  0  0  0  0  0  0  0  0  0  0  0
    7.5551    7.1270   23.1200 O   0  0  0  0  0  0  0  0  0  0  0  0
  1 11  4  0
  1 21  4  0
  2  4  1  0
  2  8  1  0
  2 11  1  0
  3 10  4  0
  3 14  4  0
  4  5  1  0
  4 18  2  0
  6 12  1  0
  6 17  4  0
  6 23  4  0
  7  9  1  0
  7 13  4  0
  7 19  4  0
  9 20  1  0
 10 19  4  0
 11 25  4  0
 13 14  4  0
 15 16  4  0
 15 17  4  0
 15 21  4  0
 16 24  1  0
 16 25  4  0
 20 24  1  0
 20 26  2  0
 21 23  4  0
 22 23  1  0
M  END
$$$$

 Created by Python create_sdf_string function

 26 28  0  0  0  0  0  0  0  0999 V2000
   12.4616    8.6700   19.4180 N   0  0  0  0  0  0  0  0  0  0  0  0
   11.8329   10.8148   18.6769 N   0  0  0  0  0  0  0  0  0  0  0  0
    6.1021    2.5564   21.0678 C   0  0  0  0  0  0  0  0  0  0  0  0
   10.9097   11.8051   18.4804 C   0  0  0  0  0  0  0  0  0  0  0  0
   11.2280   12.9135   17.5669 C   0  0  0  0  0  0  0  0  0  0  0  0
   12.3782    5.4231   20.7777 C   0  0  0  0  0  0  0  0  0  0  0  0
    7.7365    4.6508   21.6987 C   0  0  0  0  0  0  0  0  0  0  0  0
   13.0186   11.0102   18.0020 C   0  0  0  0  0  0  0  0  0  0  0  0
    8.6628    5.7088   21.8871 N   0  0  0  0  0  0  0  0  0  0  0  0
    5.6516    3.5258   21.9140 C   0  0  0  0  0  0  0  0  0  0  0  0
   11.5863    9.6815   19.4539 C   0  0  0  0  0  0  0  0  0  0  0  0
   12.9648    4.1543   20.9205 C   0  0  0  0  0  0  0  0  0  0  0  0
    8.2089    3.6265   20.8929 C   0  0  0  0  0  0  0  0  0  0  0  0
    7.3827    2.5724   20.5432 C   0  0  0  0  0  0  0  0  0  0  0  0
   11.1529    7.2750   20.8025 C   0  0  0  0  0  0  0  0  0  0  0  0
   10.2573    8.3215   20.9827 C   0  0  0  0  0  0  0  0  0  0  0  0
   11.1606    5.9378   21.2366 N   0  0  0  0  0  0  0  0  0  0  0  0
    9.8932   11.6736   19.0677 O   0  0  0  0  0  0  0  0  0  0  0  0
    6.4470    4.5850   22.2321 C   0  0  0  0  0  0  0  0  0  0  0  0
    8.4619    6.9895   22.2968 C   0  0  0  0  0  0  0  0  0  0  0  0
   12.2747    7.5102   20.0420 C   0  0  0  0  0  0  0  0  0  0  0  0
   14.2544    6.2142   19.4191 C   0  0  0  0  0  0  0  0  0  0  0  0
   13.0695    6.3705   20.0375 N   0  0  0  0  0  0  0  0  0  0  0  0
    9.1913    8.0876   21.8361 N   0  0  0  0  0  0  0  0  0  0  0  0
   10.4739    9.4813   20.2889 C   0  0  0  0  0  0  0  0  0  0  0  0
    7.5551    7.1270   23.1200 O   0  0  0  0  0  0  0  0  0  0  0  0
  1 11  4  0
  1 21  4  0
  2  4  1  0
  2  8  1  0
  2 11  1  0
  3 10  4  0
  3 14  4  0
  4  5  1  0
  4 18  2  0
  6 12  1  0
  6 17  4  0
  6 23  4  0
  7  9  1  0
  7 13  4  0
  7 19  4  0
  9 20  1  0
 10 19  4  0
 11 25  4  0
 13 14  4  0
 15 16  4  0
 15 17  4  0
 15 21  4  0
 16 24  1  0
 16 25  4  0
 20 24  1  0
 20 26  2  0
 21 23  4  0
 22 23  1  0
M  END
$$$$

 Created by Python create_sdf_string function

 26 28  0  0  0  0  0  0  0  0999 V2000
   12.4616    8.6700   19.4180 N   0  0  0  0  0  0  0  0  0  0  0  0
   11.8329   10.8148   18.6769 N   0  0  0  0  0  0  0  0  0  0  0  0
    6.1021    2.5564   21.0678 C   0  0  0  0  0  0  0  0  0  0  0  0
   10.9097   11.8051   18.4804 C   0  0  0  0  0  0  0  0  0  0  0  0
   11.2280   12.9135   17.5669 C   0  0  0  0  0  0  0  0  0  0  0  0
   12.3782    5.4231   20.7777 C   0  0  0  0  0  0  0  0  0  0  0  0
    7.7365    4.6508   21.6987 C   0  0  0  0  0  0  0  0  0  0  0  0
   13.0186   11.0102   18.0020 C   0  0  0  0  0  0  0  0  0  0  0  0
    8.6628    5.7088   21.8871 N   0  0  0  0  0  0  0  0  0  0  0  0
    5.6516    3.5258   21.9140 C   0  0  0  0  0  0  0  0  0  0  0  0
   11.5863    9.6815   19.4539 C   0  0  0  0  0  0  0  0  0  0  0  0
   12.9648    4.1543   20.9205 C   0  0  0  0  0  0  0  0  0  0  0  0
    8.2089    3.6265   20.8929 C   0  0  0  0  0  0  0  0  0  0  0  0
    7.3827    2.5724   20.5432 C   0  0  0  0  0  0  0  0  0  0  0  0
   11.1529    7.2750   20.8025 C   0  0  0  0  0  0  0  0  0  0  0  0
   10.2573    8.3215   20.9827 C   0  0  0  0  0  0  0  0  0  0  0  0
   11.1606    5.9378   21.2366 N   0  0  0  0  0  0  0  0  0  0  0  0
    9.8932   11.6736   19.0677 O   0  0  0  0  0  0  0  0  0  0  0  0
    6.4470    4.5850   22.2321 C   0  0  0  0  0  0  0  0  0  0  0  0
    8.4619    6.9895   22.2968 C   0  0  0  0  0  0  0  0  0  0  0  0
   12.2747    7.5102   20.0420 C   0  0  0  0  0  0  0  0  0  0  0  0
   14.2544    6.2142   19.4191 C   0  0  0  0  0  0  0  0  0  0  0  0
   13.0695    6.3705   20.0375 N   0  0  0  0  0  0  0  0  0  0  0  0
    9.1913    8.0876   21.8361 N   0  0  0  0  0  0  0  0  0  0  0  0
   10.4739    9.4813   20.2889 C   0  0  0  0  0  0  0  0  0  0  0  0
    7.5551    7.1270   23.1200 O   0  0  0  0  0  0  0  0  0  0  0  0
  1 11  4  0
  1 21  4  0
  2  4  1  0
  2  8  1  0
  2 11  1  0
  3 10  4  0
  3 14  4  0
  4  5  1  0
  4 18  2  0
  6 12  1  0
  6 17  4  0
  6 23  4  0
  7  9  1  0
  7 13  4  0
  7 19  4  0
  9 20  1  0
 10 19  4  0
 11 25  4  0
 13 14  4  0
 15 16  4  0
 15 17  4  0
 15 21  4  0
 16 24  1  0
 16 25  4  0
 20 24  1  0
 20 26  2  0
 21 23  4  0
 22 23  1  0
M  END
$$$$

 Created by Python create_sdf_string function

 26 28  0  0  0  0  0  0  0  0999 V2000
   12.4616    8.6700   19.4180 N   0  0  0  0  0  0  0  0  0  0  0  0
   11.8329   10.8148   18.6769 N   0  0  0  0  0  0  0  0  0  0  0  0
    6.1021    2.5564   21.0678 C   0  0  0  0  0  0  0  0  0  0  0  0
   10.9097   11.8051   18.4804 C   0  0  0  0  0  0  0  0  0  0  0  0
   11.2280   12.9135   17.5669 C   0  0  0  0  0  0  0  0  0  0  0  0
   12.3782    5.4231   20.7777 C   0  0  0  0  0  0  0  0  0  0  0  0
    7.7365    4.6508   21.6987 C   0  0  0  0  0  0  0  0  0  0  0  0
   13.0186   11.0102   18.0020 C   0  0  0  0  0  0  0  0  0  0  0  0
    8.6628    5.7088   21.8871 N   0  0  0  0  0  0  0  0  0  0  0  0
    5.6516    3.5258   21.9140 C   0  0  0  0  0  0  0  0  0  0  0  0
   11.5863    9.6815   19.4539 C   0  0  0  0  0  0  0  0  0  0  0  0
   12.9648    4.1543   20.9205 C   0  0  0  0  0  0  0  0  0  0  0  0
    8.2089    3.6265   20.8929 C   0  0  0  0  0  0  0  0  0  0  0  0
    7.3827    2.5724   20.5432 C   0  0  0  0  0  0  0  0  0  0  0  0
   11.1529    7.2750   20.8025 C   0  0  0  0  0  0  0  0  0  0  0  0
   10.2573    8.3215   20.9827 C   0  0  0  0  0  0  0  0  0  0  0  0
   11.1606    5.9378   21.2366 N   0  0  0  0  0  0  0  0  0  0  0  0
    9.8932   11.6736   19.0677 O   0  0  0  0  0  0  0  0  0  0  0  0
    6.4470    4.5850   22.2321 C   0  0  0  0  0  0  0  0  0  0  0  0
    8.4619    6.9895   22.2968 C   0  0  0  0  0  0  0  0  0  0  0  0
   12.2747    7.5102   20.0420 C   0  0  0  0  0  0  0  0  0  0  0  0
   14.2544    6.2142   19.4191 C   0  0  0  0  0  0  0  0  0  0  0  0
   13.0695    6.3705   20.0375 N   0  0  0  0  0  0  0  0  0  0  0  0
    9.1913    8.0876   21.8361 N   0  0  0  0  0  0  0  0  0  0  0  0
   10.4739    9.4813   20.2889 C   0  0  0  0  0  0  0  0  0  0  0  0
    7.5551    7.1270   23.1200 O   0  0  0  0  0  0  0  0  0  0  0  0
  1 11  4  0
  1 21  4  0
  2  4  1  0
  2  8  1  0
  2 11  1  0
  3 10  4  0
  3 14  4  0
  4  5  1  0
  4 18  2  0
  6 12  1  0
  6 17  4  0
  6 23  4  0
  7  9  1  0
  7 13  4  0
  7 19  4  0
  9 20  1  0
 10 19  4  0
 11 25  4  0
 13 14  4  0
 15 16  4  0
 15 17  4  0
 15 21  4  0
 16 24  1  0
 16 25  4  0
 20 24  1  0
 20 26  2  0
 21 23  4  0
 22 23  1  0
M  END
$$$$

 Created by Python create_sdf_string function

 26 28  0  0  0  0  0  0  0  0999 V2000
   12.4616    8.6700   19.4180 N   0  0  0  0  0  0  0  0  0  0  0  0
   11.8329   10.8148   18.6769 N   0  0  0  0  0  0  0  0  0  0  0  0
    6.1021    2.5564   21.0678 C   0  0  0  0  0  0  0  0  0  0  0  0
   10.9097   11.8051   18.4804 C   0  0  0  0  0  0  0  0  0  0  0  0
   11.2280   12.9135   17.5669 C   0  0  0  0  0  0  0  0  0  0  0  0
   12.3782    5.4231   20.7777 C   0  0  0  0  0  0  0  0  0  0  0  0
    7.7365    4.6508   21.6987 C   0  0  0  0  0  0  0  0  0  0  0  0
   13.0186   11.0102   18.0020 C   0  0  0  0  0  0  0  0  0  0  0  0
    8.6628    5.7088   21.8871 N   0  0  0  0  0  0  0  0  0  0  0  0
    5.6516    3.5258   21.9140 C   0  0  0  0  0  0  0  0  0  0  0  0
   11.5863    9.6815   19.4539 C   0  0  0  0  0  0  0  0  0  0  0  0
   12.9648    4.1543   20.9205 C   0  0  0  0  0  0  0  0  0  0  0  0
    8.2089    3.6265   20.8929 C   0  0  0  0  0  0  0  0  0  0  0  0
    7.3827    2.5724   20.5432 C   0  0  0  0  0  0  0  0  0  0  0  0
   11.1529    7.2750   20.8025 C   0  0  0  0  0  0  0  0  0  0  0  0
   10.2573    8.3215   20.9827 C   0  0  0  0  0  0  0  0  0  0  0  0
   11.1606    5.9378   21.2366 N   0  0  0  0  0  0  0  0  0  0  0  0
    9.8932   11.6736   19.0677 O   0  0  0  0  0  0  0  0  0  0  0  0
    6.4470    4.5850   22.2321 C   0  0  0  0  0  0  0  0  0  0  0  0
    8.4619    6.9895   22.2968 C   0  0  0  0  0  0  0  0  0  0  0  0
   12.2747    7.5102   20.0420 C   0  0  0  0  0  0  0  0  0  0  0  0
   14.2544    6.2142   19.4191 C   0  0  0  0  0  0  0  0  0  0  0  0
   13.0695    6.3705   20.0375 N   0  0  0  0  0  0  0  0  0  0  0  0
    9.1913    8.0876   21.8361 N   0  0  0  0  0  0  0  0  0  0  0  0
   10.4739    9.4813   20.2889 C   0  0  0  0  0  0  0  0  0  0  0  0
    7.5551    7.1270   23.1200 O   0  0  0  0  0  0  0  0  0  0  0  0
  1 11  4  0
  1 21  4  0
  2  4  1  0
  2  8  1  0
  2 11  1  0
  3 10  4  0
  3 14  4  0
  4  5  1  0
  4 18  2  0
  6 12  1  0
  6 17  4  0
  6 23  4  0
  7  9  1  0
  7 13  4  0
  7 19  4  0
  9 20  1  0
 10 19  4  0
 11 25  4  0
 13 14  4  0
 15 16  4  0
 15 17  4  0
 15 21  4  0
 16 24  1  0
 16 25  4  0
 20 24  1  0
 20 26  2  0
 21 23  4  0
 22 23  1  0
M  END
$$$$

 Created by Python create_sdf_string function

 26 28  0  0  0  0  0  0  0  0999 V2000
   12.4616    8.6700   19.4180 N   0  0  0  0  0  0  0  0  0  0  0  0
   11.8329   10.8148   18.6769 N   0  0  0  0  0  0  0  0  0  0  0  0
    6.1021    2.5564   21.0678 C   0  0  0  0  0  0  0  0  0  0  0  0
   10.9097   11.8051   18.4804 C   0  0  0  0  0  0  0  0  0  0  0  0
   11.2280   12.9135   17.5669 C   0  0  0  0  0  0  0  0  0  0  0  0
   12.3782    5.4231   20.7777 C   0  0  0  0  0  0  0  0  0  0  0  0
    7.7365    4.6508   21.6987 C   0  0  0  0  0  0  0  0  0  0  0  0
   13.0186   11.0102   18.0020 C   0  0  0  0  0  0  0  0  0  0  0  0
    8.6628    5.7088   21.8871 N   0  0  0  0  0  0  0  0  0  0  0  0
    5.6516    3.5258   21.9140 C   0  0  0  0  0  0  0  0  0  0  0  0
   11.5863    9.6815   19.4539 C   0  0  0  0  0  0  0  0  0  0  0  0
   12.9648    4.1543   20.9205 C   0  0  0  0  0  0  0  0  0  0  0  0
    8.2089    3.6265   20.8929 C   0  0  0  0  0  0  0  0  0  0  0  0
    7.3827    2.5724   20.5432 C   0  0  0  0  0  0  0  0  0  0  0  0
   11.1529    7.2750   20.8025 C   0  0  0  0  0  0  0  0  0  0  0  0
   10.2573    8.3215   20.9827 C   0  0  0  0  0  0  0  0  0  0  0  0
   11.1606    5.9378   21.2366 N   0  0  0  0  0  0  0  0  0  0  0  0
    9.8932   11.6736   19.0677 O   0  0  0  0  0  0  0  0  0  0  0  0
    6.4470    4.5850   22.2321 C   0  0  0  0  0  0  0  0  0  0  0  0
    8.4619    6.9895   22.2968 C   0  0  0  0  0  0  0  0  0  0  0  0
   12.2747    7.5102   20.0420 C   0  0  0  0  0  0  0  0  0  0  0  0
   14.2544    6.2142   19.4191 C   0  0  0  0  0  0  0  0  0  0  0  0
   13.0695    6.3705   20.0375 N   0  0  0  0  0  0  0  0  0  0  0  0
    9.1913    8.0876   21.8361 N   0  0  0  0  0  0  0  0  0  0  0  0
   10.4739    9.4813   20.2889 C   0  0  0  0  0  0  0  0  0  0  0  0
    7.5551    7.1270   23.1200 O   0  0  0  0  0  0  0  0  0  0  0  0
  1 11  4  0
  1 21  4  0
  2  4  1  0
  2  8  1  0
  2 11  1  0
  3 10  4  0
  3 14  4  0
  4  5  1  0
  4 18  2  0
  6 12  1  0
  6 17  4  0
  6 23  4  0
  7  9  1  0
  7 13  4  0
  7 19  4  0
  9 20  1  0
 10 19  4  0
 11 25  4  0
 13 14  4  0
 15 16  4  0
 15 17  4  0
 15 21  4  0
 16 24  1  0
 16 25  4  0
 20 24  1  0
 20 26  2  0
 21 23  4  0
 22 23  1  0
M  END
$$$$

 Created by Python create_sdf_string function

 26 28  0  0  0  0  0  0  0  0999 V2000
   12.4616    8.6700   19.4180 N   0  0  0  0  0  0  0  0  0  0  0  0
   11.8329   10.8148   18.6769 N   0  0  0  0  0  0  0  0  0  0  0  0
    6.1021    2.5564   21.0678 C   0  0  0  0  0  0  0  0  0  0  0  0
   10.9097   11.8051   18.4804 C   0  0  0  0  0  0  0  0  0  0  0  0
   11.2280   12.9135   17.5669 C   0  0  0  0  0  0  0  0  0  0  0  0
   12.3782    5.4231   20.7777 C   0  0  0  0  0  0  0  0  0  0  0  0
    7.7365    4.6508   21.6987 C   0  0  0  0  0  0  0  0  0  0  0  0
   13.0186   11.0102   18.0020 C   0  0  0  0  0  0  0  0  0  0  0  0
    8.6628    5.7088   21.8871 N   0  0  0  0  0  0  0  0  0  0  0  0
    5.6516    3.5258   21.9140 C   0  0  0  0  0  0  0  0  0  0  0  0
   11.5863    9.6815   19.4539 C   0  0  0  0  0  0  0  0  0  0  0  0
   12.9648    4.1543   20.9205 C   0  0  0  0  0  0  0  0  0  0  0  0
    8.2089    3.6265   20.8929 C   0  0  0  0  0  0  0  0  0  0  0  0
    7.3827    2.5724   20.5432 C   0  0  0  0  0  0  0  0  0  0  0  0
   11.1529    7.2750   20.8025 C   0  0  0  0  0  0  0  0  0  0  0  0
   10.2573    8.3215   20.9827 C   0  0  0  0  0  0  0  0  0  0  0  0
   11.1606    5.9378   21.2366 N   0  0  0  0  0  0  0  0  0  0  0  0
    9.8932   11.6736   19.0677 O   0  0  0  0  0  0  0  0  0  0  0  0
    6.4470    4.5850   22.2321 C   0  0  0  0  0  0  0  0  0  0  0  0
    8.4619    6.9895   22.2968 C   0  0  0  0  0  0  0  0  0  0  0  0
   12.2747    7.5102   20.0420 C   0  0  0  0  0  0  0  0  0  0  0  0
   14.2544    6.2142   19.4191 C   0  0  0  0  0  0  0  0  0  0  0  0
   13.0695    6.3705   20.0375 N   0  0  0  0  0  0  0  0  0  0  0  0
    9.1913    8.0876   21.8361 N   0  0  0  0  0  0  0  0  0  0  0  0
   10.4739    9.4813   20.2889 C   0  0  0  0  0  0  0  0  0  0  0  0
    7.5551    7.1270   23.1200 O   0  0  0  0  0  0  0  0  0  0  0  0
  1 11  4  0
  1 21  4  0
  2  4  1  0
  2  8  1  0
  2 11  1  0
  3 10  4  0
  3 14  4  0
  4  5  1  0
  4 18  2  0
  6 12  1  0
  6 17  4  0
  6 23  4  0
  7  9  1  0
  7 13  4  0
  7 19  4  0
  9 20  1  0
 10 19  4  0
 11 25  4  0
 13 14  4  0
 15 16  4  0
 15 17  4  0
 15 21  4  0
 16 24  1  0
 16 25  4  0
 20 24  1  0
 20 26  2  0
 21 23  4  0
 22 23  1  0
M  END
$$$$

 Created by Python create_sdf_string function

 26 28  0  0  0  0  0  0  0  0999 V2000
   12.4616    8.6700   19.4180 N   0  0  0  0  0  0  0  0  0  0  0  0
   11.8329   10.8148   18.6769 N   0  0  0  0  0  0  0  0  0  0  0  0
    6.1021    2.5564   21.0678 C   0  0  0  0  0  0  0  0  0  0  0  0
   10.9097   11.8051   18.4804 C   0  0  0  0  0  0  0  0  0  0  0  0
   11.2280   12.9135   17.5669 C   0  0  0  0  0  0  0  0  0  0  0  0
   12.3782    5.4231   20.7777 C   0  0  0  0  0  0  0  0  0  0  0  0
    7.7365    4.6508   21.6987 C   0  0  0  0  0  0  0  0  0  0  0  0
   13.0186   11.0102   18.0020 C   0  0  0  0  0  0  0  0  0  0  0  0
    8.6628    5.7088   21.8871 N   0  0  0  0  0  0  0  0  0  0  0  0
    5.6516    3.5258   21.9140 C   0  0  0  0  0  0  0  0  0  0  0  0
   11.5863    9.6815   19.4539 C   0  0  0  0  0  0  0  0  0  0  0  0
   12.9648    4.1543   20.9205 C   0  0  0  0  0  0  0  0  0  0  0  0
    8.2089    3.6265   20.8929 C   0  0  0  0  0  0  0  0  0  0  0  0
    7.3827    2.5724   20.5432 C   0  0  0  0  0  0  0  0  0  0  0  0
   11.1529    7.2750   20.8025 C   0  0  0  0  0  0  0  0  0  0  0  0
   10.2573    8.3215   20.9827 C   0  0  0  0  0  0  0  0  0  0  0  0
   11.1606    5.9378   21.2366 N   0  0  0  0  0  0  0  0  0  0  0  0
    9.8932   11.6736   19.0677 O   0  0  0  0  0  0  0  0  0  0  0  0
    6.4470    4.5850   22.2321 C   0  0  0  0  0  0  0  0  0  0  0  0
    8.4619    6.9895   22.2968 C   0  0  0  0  0  0  0  0  0  0  0  0
   12.2747    7.5102   20.0420 C   0  0  0  0  0  0  0  0  0  0  0  0
   14.2544    6.2142   19.4191 C   0  0  0  0  0  0  0  0  0  0  0  0
   13.0695    6.3705   20.0375 N   0  0  0  0  0  0  0  0  0  0  0  0
    9.1913    8.0876   21.8361 N   0  0  0  0  0  0  0  0  0  0  0  0
   10.4739    9.4813   20.2889 C   0  0  0  0  0  0  0  0  0  0  0  0
    7.5551    7.1270   23.1200 O   0  0  0  0  0  0  0  0  0  0  0  0
  1 11  4  0
  1 21  4  0
  2  4  1  0
  2  8  1  0
  2 11  1  0
  3 10  4  0
  3 14  4  0
  4  5  1  0
  4 18  2  0
  6 12  1  0
  6 17  4  0
  6 23  4  0
  7  9  1  0
  7 13  4  0
  7 19  4  0
  9 20  1  0
 10 19  4  0
 11 25  4  0
 13 14  4  0
 15 16  4  0
 15 17  4  0
 15 21  4  0
 16 24  1  0
 16 25  4  0
 20 24  1  0
 20 26  2  0
 21 23  4  0
 22 23  1  0
M  END
$$$$

 Created by Python create_sdf_string function

 26 28  0  0  0  0  0  0  0  0999 V2000
   12.4616    8.6700   19.4180 N   0  0  0  0  0  0  0  0  0  0  0  0
   11.8329   10.8148   18.6769 N   0  0  0  0  0  0  0  0  0  0  0  0
    6.1021    2.5564   21.0678 C   0  0  0  0  0  0  0  0  0  0  0  0
   10.9097   11.8051   18.4804 C   0  0  0  0  0  0  0  0  0  0  0  0
   11.2280   12.9135   17.5669 C   0  0  0  0  0  0  0  0  0  0  0  0
   12.3782    5.4231   20.7777 C   0  0  0  0  0  0  0  0  0  0  0  0
    7.7365    4.6508   21.6987 C   0  0  0  0  0  0  0  0  0  0  0  0
   13.0186   11.0102   18.0020 C   0  0  0  0  0  0  0  0  0  0  0  0
    8.6628    5.7088   21.8871 N   0  0  0  0  0  0  0  0  0  0  0  0
    5.6516    3.5258   21.9140 C   0  0  0  0  0  0  0  0  0  0  0  0
   11.5863    9.6815   19.4539 C   0  0  0  0  0  0  0  0  0  0  0  0
   12.9648    4.1543   20.9205 C   0  0  0  0  0  0  0  0  0  0  0  0
    8.2089    3.6265   20.8929 C   0  0  0  0  0  0  0  0  0  0  0  0
    7.3827    2.5724   20.5432 C   0  0  0  0  0  0  0  0  0  0  0  0
   11.1529    7.2750   20.8025 C   0  0  0  0  0  0  0  0  0  0  0  0
   10.2573    8.3215   20.9827 C   0  0  0  0  0  0  0  0  0  0  0  0
   11.1606    5.9378   21.2366 N   0  0  0  0  0  0  0  0  0  0  0  0
    9.8932   11.6736   19.0677 O   0  0  0  0  0  0  0  0  0  0  0  0
    6.4470    4.5850   22.2321 C   0  0  0  0  0  0  0  0  0  0  0  0
    8.4619    6.9895   22.2968 C   0  0  0  0  0  0  0  0  0  0  0  0
   12.2747    7.5102   20.0420 C   0  0  0  0  0  0  0  0  0  0  0  0
   14.2544    6.2142   19.4191 C   0  0  0  0  0  0  0  0  0  0  0  0
   13.0695    6.3705   20.0375 N   0  0  0  0  0  0  0  0  0  0  0  0
    9.1913    8.0876   21.8361 N   0  0  0  0  0  0  0  0  0  0  0  0
   10.4739    9.4813   20.2889 C   0  0  0  0  0  0  0  0  0  0  0  0
    7.5551    7.1270   23.1200 O   0  0  0  0  0  0  0  0  0  0  0  0
  1 11  4  0
  1 21  4  0
  2  4  1  0
  2  8  1  0
  2 11  1  0
  3 10  4  0
  3 14  4  0
  4  5  1  0
  4 18  2  0
  6 12  1  0
  6 17  4  0
  6 23  4  0
  7  9  1  0
  7 13  4  0
  7 19  4  0
  9 20  1  0
 10 19  4  0
 11 25  4  0
 13 14  4  0
 15 16  4  0
 15 17  4  0
 15 21  4  0
 16 24  1  0
 16 25  4  0
 20 24  1  0
 20 26  2  0
 21 23  4  0
 22 23  1  0
M  END
$$$$

 Created by Python create_sdf_string function

 26 28  0  0  0  0  0  0  0  0999 V2000
   12.4616    8.6700   19.4180 N   0  0  0  0  0  0  0  0  0  0  0  0
   11.8329   10.8148   18.6769 N   0  0  0  0  0  0  0  0  0  0  0  0
    6.1021    2.5564   21.0678 C   0  0  0  0  0  0  0  0  0  0  0  0
   10.9097   11.8051   18.4804 C   0  0  0  0  0  0  0  0  0  0  0  0
   11.2280   12.9135   17.5669 C   0  0  0  0  0  0  0  0  0  0  0  0
   12.3782    5.4231   20.7777 C   0  0  0  0  0  0  0  0  0  0  0  0
    7.7365    4.6508   21.6987 C   0  0  0  0  0  0  0  0  0  0  0  0
   13.0186   11.0102   18.0020 C   0  0  0  0  0  0  0  0  0  0  0  0
    8.6628    5.7088   21.8871 N   0  0  0  0  0  0  0  0  0  0  0  0
    5.6516    3.5258   21.9140 C   0  0  0  0  0  0  0  0  0  0  0  0
   11.5863    9.6815   19.4539 C   0  0  0  0  0  0  0  0  0  0  0  0
   12.9648    4.1543   20.9205 C   0  0  0  0  0  0  0  0  0  0  0  0
    8.2089    3.6265   20.8929 C   0  0  0  0  0  0  0  0  0  0  0  0
    7.3827    2.5724   20.5432 C   0  0  0  0  0  0  0  0  0  0  0  0
   11.1529    7.2750   20.8025 C   0  0  0  0  0  0  0  0  0  0  0  0
   10.2573    8.3215   20.9827 C   0  0  0  0  0  0  0  0  0  0  0  0
   11.1606    5.9378   21.2366 N   0  0  0  0  0  0  0  0  0  0  0  0
    9.8932   11.6736   19.0677 O   0  0  0  0  0  0  0  0  0  0  0  0
    6.4470    4.5850   22.2321 C   0  0  0  0  0  0  0  0  0  0  0  0
    8.4619    6.9895   22.2968 C   0  0  0  0  0  0  0  0  0  0  0  0
   12.2747    7.5102   20.0420 C   0  0  0  0  0  0  0  0  0  0  0  0
   14.2544    6.2142   19.4191 C   0  0  0  0  0  0  0  0  0  0  0  0
   13.0695    6.3705   20.0375 N   0  0  0  0  0  0  0  0  0  0  0  0
    9.1913    8.0876   21.8361 N   0  0  0  0  0  0  0  0  0  0  0  0
   10.4739    9.4813   20.2889 C   0  0  0  0  0  0  0  0  0  0  0  0
    7.5551    7.1270   23.1200 O   0  0  0  0  0  0  0  0  0  0  0  0
  1 11  4  0
  1 21  4  0
  2  4  1  0
  2  8  1  0
  2 11  1  0
  3 10  4  0
  3 14  4  0
  4  5  1  0
  4 18  2  0
  6 12  1  0
  6 17  4  0
  6 23  4  0
  7  9  1  0
  7 13  4  0
  7 19  4  0
  9 20  1  0
 10 19  4  0
 11 25  4  0
 13 14  4  0
 15 16  4  0
 15 17  4  0
 15 21  4  0
 16 24  1  0
 16 25  4  0
 20 24  1  0
 20 26  2  0
 21 23  4  0
 22 23  1  0
M  END
$$$$

 Created by Python create_sdf_string function

 26 28  0  0  0  0  0  0  0  0999 V2000
   12.4616    8.6700   19.4180 N   0  0  0  0  0  0  0  0  0  0  0  0
   11.8329   10.8148   18.6769 N   0  0  0  0  0  0  0  0  0  0  0  0
    6.1021    2.5564   21.0678 C   0  0  0  0  0  0  0  0  0  0  0  0
   10.9097   11.8051   18.4804 C   0  0  0  0  0  0  0  0  0  0  0  0
   11.2280   12.9135   17.5669 C   0  0  0  0  0  0  0  0  0  0  0  0
   12.3782    5.4231   20.7777 C   0  0  0  0  0  0  0  0  0  0  0  0
    7.7365    4.6508   21.6987 C   0  0  0  0  0  0  0  0  0  0  0  0
   13.0186   11.0102   18.0020 C   0  0  0  0  0  0  0  0  0  0  0  0
    8.6628    5.7088   21.8871 N   0  0  0  0  0  0  0  0  0  0  0  0
    5.6516    3.5258   21.9140 C   0  0  0  0  0  0  0  0  0  0  0  0
   11.5863    9.6815   19.4539 C   0  0  0  0  0  0  0  0  0  0  0  0
   12.9648    4.1543   20.9205 C   0  0  0  0  0  0  0  0  0  0  0  0
    8.2089    3.6265   20.8929 C   0  0  0  0  0  0  0  0  0  0  0  0
    7.3827    2.5724   20.5432 C   0  0  0  0  0  0  0  0  0  0  0  0
   11.1529    7.2750   20.8025 C   0  0  0  0  0  0  0  0  0  0  0  0
   10.2573    8.3215   20.9827 C   0  0  0  0  0  0  0  0  0  0  0  0
   11.1606    5.9378   21.2366 N   0  0  0  0  0  0  0  0  0  0  0  0
    9.8932   11.6736   19.0677 O   0  0  0  0  0  0  0  0  0  0  0  0
    6.4470    4.5850   22.2321 C   0  0  0  0  0  0  0  0  0  0  0  0
    8.4619    6.9895   22.2968 C   0  0  0  0  0  0  0  0  0  0  0  0
   12.2747    7.5102   20.0420 C   0  0  0  0  0  0  0  0  0  0  0  0
   14.2544    6.2142   19.4191 C   0  0  0  0  0  0  0  0  0  0  0  0
   13.0695    6.3705   20.0375 N   0  0  0  0  0  0  0  0  0  0  0  0
    9.1913    8.0876   21.8361 N   0  0  0  0  0  0  0  0  0  0  0  0
   10.4739    9.4813   20.2889 C   0  0  0  0  0  0  0  0  0  0  0  0
    7.5551    7.1270   23.1200 O   0  0  0  0  0  0  0  0  0  0  0  0
  1 11  4  0
  1 21  4  0
  2  4  1  0
  2  8  1  0
  2 11  1  0
  3 10  4  0
  3 14  4  0
  4  5  1  0
  4 18  2  0
  6 12  1  0
  6 17  4  0
  6 23  4  0
  7  9  1  0
  7 13  4  0
  7 19  4  0
  9 20  1  0
 10 19  4  0
 11 25  4  0
 13 14  4  0
 15 16  4  0
 15 17  4  0
 15 21  4  0
 16 24  1  0
 16 25  4  0
 20 24  1  0
 20 26  2  0
 21 23  4  0
 22 23  1  0
M  END
$$$$

 Created by Python create_sdf_string function

 26 28  0  0  0  0  0  0  0  0999 V2000
   12.4616    8.6700   19.4180 N   0  0  0  0  0  0  0  0  0  0  0  0
   11.8329   10.8148   18.6769 N   0  0  0  0  0  0  0  0  0  0  0  0
    6.1021    2.5564   21.0678 C   0  0  0  0  0  0  0  0  0  0  0  0
   10.9097   11.8051   18.4804 C   0  0  0  0  0  0  0  0  0  0  0  0
   11.2280   12.9135   17.5669 C   0  0  0  0  0  0  0  0  0  0  0  0
   12.3782    5.4231   20.7777 C   0  0  0  0  0  0  0  0  0  0  0  0
    7.7365    4.6508   21.6987 C   0  0  0  0  0  0  0  0  0  0  0  0
   13.0186   11.0102   18.0020 C   0  0  0  0  0  0  0  0  0  0  0  0
    8.6628    5.7088   21.8871 N   0  0  0  0  0  0  0  0  0  0  0  0
    5.6516    3.5258   21.9140 C   0  0  0  0  0  0  0  0  0  0  0  0
   11.5863    9.6815   19.4539 C   0  0  0  0  0  0  0  0  0  0  0  0
   12.9648    4.1543   20.9205 C   0  0  0  0  0  0  0  0  0  0  0  0
    8.2089    3.6265   20.8929 C   0  0  0  0  0  0  0  0  0  0  0  0
    7.3827    2.5724   20.5432 C   0  0  0  0  0  0  0  0  0  0  0  0
   11.1529    7.2750   20.8025 C   0  0  0  0  0  0  0  0  0  0  0  0
   10.2573    8.3215   20.9827 C   0  0  0  0  0  0  0  0  0  0  0  0
   11.1606    5.9378   21.2366 N   0  0  0  0  0  0  0  0  0  0  0  0
    9.8932   11.6736   19.0677 O   0  0  0  0  0  0  0  0  0  0  0  0
    6.4470    4.5850   22.2321 C   0  0  0  0  0  0  0  0  0  0  0  0
    8.4619    6.9895   22.2968 C   0  0  0  0  0  0  0  0  0  0  0  0
   12.2747    7.5102   20.0420 C   0  0  0  0  0  0  0  0  0  0  0  0
   14.2544    6.2142   19.4191 C   0  0  0  0  0  0  0  0  0  0  0  0
   13.0695    6.3705   20.0375 N   0  0  0  0  0  0  0  0  0  0  0  0
    9.1913    8.0876   21.8361 N   0  0  0  0  0  0  0  0  0  0  0  0
   10.4739    9.4813   20.2889 C   0  0  0  0  0  0  0  0  0  0  0  0
    7.5551    7.1270   23.1200 O   0  0  0  0  0  0  0  0  0  0  0  0
  1 11  4  0
  1 21  4  0
  2  4  1  0
  2  8  1  0
  2 11  1  0
  3 10  4  0
  3 14  4  0
  4  5  1  0
  4 18  2  0
  6 12  1  0
  6 17  4  0
  6 23  4  0
  7  9  1  0
  7 13  4  0
  7 19  4  0
  9 20  1  0
 10 19  4  0
 11 25  4  0
 13 14  4  0
 15 16  4  0
 15 17  4  0
 15 21  4  0
 16 24  1  0
 16 25  4  0
 20 24  1  0
 20 26  2  0
 21 23  4  0
 22 23  1  0
M  END
$$$$

 Created by Python create_sdf_string function

 26 28  0  0  0  0  0  0  0  0999 V2000
   12.4616    8.6700   19.4180 N   0  0  0  0  0  0  0  0  0  0  0  0
   11.8329   10.8148   18.6769 N   0  0  0  0  0  0  0  0  0  0  0  0
    6.1021    2.5564   21.0678 C   0  0  0  0  0  0  0  0  0  0  0  0
   10.9097   11.8051   18.4804 C   0  0  0  0  0  0  0  0  0  0  0  0
   11.2280   12.9135   17.5669 C   0  0  0  0  0  0  0  0  0  0  0  0
   12.3782    5.4231   20.7777 C   0  0  0  0  0  0  0  0  0  0  0  0
    7.7365    4.6508   21.6987 C   0  0  0  0  0  0  0  0  0  0  0  0
   13.0186   11.0102   18.0020 C   0  0  0  0  0  0  0  0  0  0  0  0
    8.6628    5.7088   21.8871 N   0  0  0  0  0  0  0  0  0  0  0  0
    5.6516    3.5258   21.9140 C   0  0  0  0  0  0  0  0  0  0  0  0
   11.5863    9.6815   19.4539 C   0  0  0  0  0  0  0  0  0  0  0  0
   12.9648    4.1543   20.9205 C   0  0  0  0  0  0  0  0  0  0  0  0
    8.2089    3.6265   20.8929 C   0  0  0  0  0  0  0  0  0  0  0  0
    7.3827    2.5724   20.5432 C   0  0  0  0  0  0  0  0  0  0  0  0
   11.1529    7.2750   20.8025 C   0  0  0  0  0  0  0  0  0  0  0  0
   10.2573    8.3215   20.9827 C   0  0  0  0  0  0  0  0  0  0  0  0
   11.1606    5.9378   21.2366 N   0  0  0  0  0  0  0  0  0  0  0  0
    9.8932   11.6736   19.0677 O   0  0  0  0  0  0  0  0  0  0  0  0
    6.4470    4.5850   22.2321 C   0  0  0  0  0  0  0  0  0  0  0  0
    8.4619    6.9895   22.2968 C   0  0  0  0  0  0  0  0  0  0  0  0
   12.2747    7.5102   20.0420 C   0  0  0  0  0  0  0  0  0  0  0  0
   14.2544    6.2142   19.4191 C   0  0  0  0  0  0  0  0  0  0  0  0
   13.0695    6.3705   20.0375 N   0  0  0  0  0  0  0  0  0  0  0  0
    9.1913    8.0876   21.8361 N   0  0  0  0  0  0  0  0  0  0  0  0
   10.4739    9.4813   20.2889 C   0  0  0  0  0  0  0  0  0  0  0  0
    7.5551    7.1270   23.1200 O   0  0  0  0  0  0  0  0  0  0  0  0
  1 11  4  0
  1 21  4  0
  2  4  1  0
  2  8  1  0
  2 11  1  0
  3 10  4  0
  3 14  4  0
  4  5  1  0
  4 18  2  0
  6 12  1  0
  6 17  4  0
  6 23  4  0
  7  9  1  0
  7 13  4  0
  7 19  4  0
  9 20  1  0
 10 19  4  0
 11 25  4  0
 13 14  4  0
 15 16  4  0
 15 17  4  0
 15 21  4  0
 16 24  1  0
 16 25  4  0
 20 24  1  0
 20 26  2  0
 21 23  4  0
 22 23  1  0
M  END
$$$$

 Created by Python create_sdf_string function

 26 28  0  0  0  0  0  0  0  0999 V2000
   12.4616    8.6700   19.4180 N   0  0  0  0  0  0  0  0  0  0  0  0
   11.8329   10.8148   18.6769 N   0  0  0  0  0  0  0  0  0  0  0  0
    6.1021    2.5564   21.0678 C   0  0  0  0  0  0  0  0  0  0  0  0
   10.9097   11.8051   18.4804 C   0  0  0  0  0  0  0  0  0  0  0  0
   11.2280   12.9135   17.5669 C   0  0  0  0  0  0  0  0  0  0  0  0
   12.3782    5.4231   20.7777 C   0  0  0  0  0  0  0  0  0  0  0  0
    7.7365    4.6508   21.6987 C   0  0  0  0  0  0  0  0  0  0  0  0
   13.0186   11.0102   18.0020 C   0  0  0  0  0  0  0  0  0  0  0  0
    8.6628    5.7088   21.8871 N   0  0  0  0  0  0  0  0  0  0  0  0
    5.6516    3.5258   21.9140 C   0  0  0  0  0  0  0  0  0  0  0  0
   11.5863    9.6815   19.4539 C   0  0  0  0  0  0  0  0  0  0  0  0
   12.9648    4.1543   20.9205 C   0  0  0  0  0  0  0  0  0  0  0  0
    8.2089    3.6265   20.8929 C   0  0  0  0  0  0  0  0  0  0  0  0
    7.3827    2.5724   20.5432 C   0  0  0  0  0  0  0  0  0  0  0  0
   11.1529    7.2750   20.8025 C   0  0  0  0  0  0  0  0  0  0  0  0
   10.2573    8.3215   20.9827 C   0  0  0  0  0  0  0  0  0  0  0  0
   11.1606    5.9378   21.2366 N   0  0  0  0  0  0  0  0  0  0  0  0
    9.8932   11.6736   19.0677 O   0  0  0  0  0  0  0  0  0  0  0  0
    6.4470    4.5850   22.2321 C   0  0  0  0  0  0  0  0  0  0  0  0
    8.4619    6.9895   22.2968 C   0  0  0  0  0  0  0  0  0  0  0  0
   12.2747    7.5102   20.0420 C   0  0  0  0  0  0  0  0  0  0  0  0
   14.2544    6.2142   19.4191 C   0  0  0  0  0  0  0  0  0  0  0  0
   13.0695    6.3705   20.0375 N   0  0  0  0  0  0  0  0  0  0  0  0
    9.1913    8.0876   21.8361 N   0  0  0  0  0  0  0  0  0  0  0  0
   10.4739    9.4813   20.2889 C   0  0  0  0  0  0  0  0  0  0  0  0
    7.5551    7.1270   23.1200 O   0  0  0  0  0  0  0  0  0  0  0  0
  1 11  4  0
  1 21  4  0
  2  4  1  0
  2  8  1  0
  2 11  1  0
  3 10  4  0
  3 14  4  0
  4  5  1  0
  4 18  2  0
  6 12  1  0
  6 17  4  0
  6 23  4  0
  7  9  1  0
  7 13  4  0
  7 19  4  0
  9 20  1  0
 10 19  4  0
 11 25  4  0
 13 14  4  0
 15 16  4  0
 15 17  4  0
 15 21  4  0
 16 24  1  0
 16 25  4  0
 20 24  1  0
 20 26  2  0
 21 23  4  0
 22 23  1  0
M  END
$$$$

 Created by Python create_sdf_string function

 26 28  0  0  0  0  0  0  0  0999 V2000
   12.4616    8.6700   19.4180 N   0  0  0  0  0  0  0  0  0  0  0  0
   11.8329   10.8148   18.6769 N   0  0  0  0  0  0  0  0  0  0  0  0
    6.1021    2.5564   21.0678 C   0  0  0  0  0  0  0  0  0  0  0  0
   10.9097   11.8051   18.4804 C   0  0  0  0  0  0  0  0  0  0  0  0
   11.2280   12.9135   17.5669 C   0  0  0  0  0  0  0  0  0  0  0  0
   12.3782    5.4231   20.7777 C   0  0  0  0  0  0  0  0  0  0  0  0
    7.7365    4.6508   21.6987 C   0  0  0  0  0  0  0  0  0  0  0  0
   13.0186   11.0102   18.0020 C   0  0  0  0  0  0  0  0  0  0  0  0
    8.6628    5.7088   21.8871 N   0  0  0  0  0  0  0  0  0  0  0  0
    5.6516    3.5258   21.9140 C   0  0  0  0  0  0  0  0  0  0  0  0
   11.5863    9.6815   19.4539 C   0  0  0  0  0  0  0  0  0  0  0  0
   12.9648    4.1543   20.9205 C   0  0  0  0  0  0  0  0  0  0  0  0
    8.2089    3.6265   20.8929 C   0  0  0  0  0  0  0  0  0  0  0  0
    7.3827    2.5724   20.5432 C   0  0  0  0  0  0  0  0  0  0  0  0
   11.1529    7.2750   20.8025 C   0  0  0  0  0  0  0  0  0  0  0  0
   10.2573    8.3215   20.9827 C   0  0  0  0  0  0  0  0  0  0  0  0
   11.1606    5.9378   21.2366 N   0  0  0  0  0  0  0  0  0  0  0  0
    9.8932   11.6736   19.0677 O   0  0  0  0  0  0  0  0  0  0  0  0
    6.4470    4.5850   22.2321 C   0  0  0  0  0  0  0  0  0  0  0  0
    8.4619    6.9895   22.2968 C   0  0  0  0  0  0  0  0  0  0  0  0
   12.2747    7.5102   20.0420 C   0  0  0  0  0  0  0  0  0  0  0  0
   14.2544    6.2142   19.4191 C   0  0  0  0  0  0  0  0  0  0  0  0
   13.0695    6.3705   20.0375 N   0  0  0  0  0  0  0  0  0  0  0  0
    9.1913    8.0876   21.8361 N   0  0  0  0  0  0  0  0  0  0  0  0
   10.4739    9.4813   20.2889 C   0  0  0  0  0  0  0  0  0  0  0  0
    7.5551    7.1270   23.1200 O   0  0  0  0  0  0  0  0  0  0  0  0
  1 11  4  0
  1 21  4  0
  2  4  1  0
  2  8  1  0
  2 11  1  0
  3 10  4  0
  3 14  4  0
  4  5  1  0
  4 18  2  0
  6 12  1  0
  6 17  4  0
  6 23  4  0
  7  9  1  0
  7 13  4  0
  7 19  4  0
  9 20  1  0
 10 19  4  0
 11 25  4  0
 13 14  4  0
 15 16  4  0
 15 17  4  0
 15 21  4  0
 16 24  1  0
 16 25  4  0
 20 24  1  0
 20 26  2  0
 21 23  4  0
 22 23  1  0
M  END
$$$$

 Created by Python create_sdf_string function

 26 28  0  0  0  0  0  0  0  0999 V2000
   12.4616    8.6700   19.4180 N   0  0  0  0  0  0  0  0  0  0  0  0
   11.8329   10.8148   18.6769 N   0  0  0  0  0  0  0  0  0  0  0  0
    6.1021    2.5564   21.0678 C   0  0  0  0  0  0  0  0  0  0  0  0
   10.9097   11.8051   18.4804 C   0  0  0  0  0  0  0  0  0  0  0  0
   11.2280   12.9135   17.5669 C   0  0  0  0  0  0  0  0  0  0  0  0
   12.3782    5.4231   20.7777 C   0  0  0  0  0  0  0  0  0  0  0  0
    7.7365    4.6508   21.6987 C   0  0  0  0  0  0  0  0  0  0  0  0
   13.0186   11.0102   18.0020 C   0  0  0  0  0  0  0  0  0  0  0  0
    8.6628    5.7088   21.8871 N   0  0  0  0  0  0  0  0  0  0  0  0
    5.6516    3.5258   21.9140 C   0  0  0  0  0  0  0  0  0  0  0  0
   11.5863    9.6815   19.4539 C   0  0  0  0  0  0  0  0  0  0  0  0
   12.9648    4.1543   20.9205 C   0  0  0  0  0  0  0  0  0  0  0  0
    8.2089    3.6265   20.8929 C   0  0  0  0  0  0  0  0  0  0  0  0
    7.3827    2.5724   20.5432 C   0  0  0  0  0  0  0  0  0  0  0  0
   11.1529    7.2750   20.8025 C   0  0  0  0  0  0  0  0  0  0  0  0
   10.2573    8.3215   20.9827 C   0  0  0  0  0  0  0  0  0  0  0  0
   11.1606    5.9378   21.2366 N   0  0  0  0  0  0  0  0  0  0  0  0
    9.8932   11.6736   19.0677 O   0  0  0  0  0  0  0  0  0  0  0  0
    6.4470    4.5850   22.2321 C   0  0  0  0  0  0  0  0  0  0  0  0
    8.4619    6.9895   22.2968 C   0  0  0  0  0  0  0  0  0  0  0  0
   12.2747    7.5102   20.0420 C   0  0  0  0  0  0  0  0  0  0  0  0
   14.2544    6.2142   19.4191 C   0  0  0  0  0  0  0  0  0  0  0  0
   13.0695    6.3705   20.0375 N   0  0  0  0  0  0  0  0  0  0  0  0
    9.1913    8.0876   21.8361 N   0  0  0  0  0  0  0  0  0  0  0  0
   10.4739    9.4813   20.2889 C   0  0  0  0  0  0  0  0  0  0  0  0
    7.5551    7.1270   23.1200 O   0  0  0  0  0  0  0  0  0  0  0  0
  1 11  4  0
  1 21  4  0
  2  4  1  0
  2  8  1  0
  2 11  1  0
  3 10  4  0
  3 14  4  0
  4  5  1  0
  4 18  2  0
  6 12  1  0
  6 17  4  0
  6 23  4  0
  7  9  1  0
  7 13  4  0
  7 19  4  0
  9 20  1  0
 10 19  4  0
 11 25  4  0
 13 14  4  0
 15 16  4  0
 15 17  4  0
 15 21  4  0
 16 24  1  0
 16 25  4  0
 20 24  1  0
 20 26  2  0
 21 23  4  0
 22 23  1  0
M  END
$$$$

 Created by Python create_sdf_string function

 26 28  0  0  0  0  0  0  0  0999 V2000
   12.4616    8.6700   19.4180 N   0  0  0  0  0  0  0  0  0  0  0  0
   11.8329   10.8148   18.6769 N   0  0  0  0  0  0  0  0  0  0  0  0
    6.1021    2.5564   21.0678 C   0  0  0  0  0  0  0  0  0  0  0  0
   10.9097   11.8051   18.4804 C   0  0  0  0  0  0  0  0  0  0  0  0
   11.2280   12.9135   17.5669 C   0  0  0  0  0  0  0  0  0  0  0  0
   12.3782    5.4231   20.7777 C   0  0  0  0  0  0  0  0  0  0  0  0
    7.7365    4.6508   21.6987 C   0  0  0  0  0  0  0  0  0  0  0  0
   13.0186   11.0102   18.0020 C   0  0  0  0  0  0  0  0  0  0  0  0
    8.6628    5.7088   21.8871 N   0  0  0  0  0  0  0  0  0  0  0  0
    5.6516    3.5258   21.9140 C   0  0  0  0  0  0  0  0  0  0  0  0
   11.5863    9.6815   19.4539 C   0  0  0  0  0  0  0  0  0  0  0  0
   12.9648    4.1543   20.9205 C   0  0  0  0  0  0  0  0  0  0  0  0
    8.2089    3.6265   20.8929 C   0  0  0  0  0  0  0  0  0  0  0  0
    7.3827    2.5724   20.5432 C   0  0  0  0  0  0  0  0  0  0  0  0
   11.1529    7.2750   20.8025 C   0  0  0  0  0  0  0  0  0  0  0  0
   10.2573    8.3215   20.9827 C   0  0  0  0  0  0  0  0  0  0  0  0
   11.1606    5.9378   21.2366 N   0  0  0  0  0  0  0  0  0  0  0  0
    9.8932   11.6736   19.0677 O   0  0  0  0  0  0  0  0  0  0  0  0
    6.4470    4.5850   22.2321 C   0  0  0  0  0  0  0  0  0  0  0  0
    8.4619    6.9895   22.2968 C   0  0  0  0  0  0  0  0  0  0  0  0
   12.2747    7.5102   20.0420 C   0  0  0  0  0  0  0  0  0  0  0  0
   14.2544    6.2142   19.4191 C   0  0  0  0  0  0  0  0  0  0  0  0
   13.0695    6.3705   20.0375 N   0  0  0  0  0  0  0  0  0  0  0  0
    9.1913    8.0876   21.8361 N   0  0  0  0  0  0  0  0  0  0  0  0
   10.4739    9.4813   20.2889 C   0  0  0  0  0  0  0  0  0  0  0  0
    7.5551    7.1270   23.1200 O   0  0  0  0  0  0  0  0  0  0  0  0
  1 11  4  0
  1 21  4  0
  2  4  1  0
  2  8  1  0
  2 11  1  0
  3 10  4  0
  3 14  4  0
  4  5  1  0
  4 18  2  0
  6 12  1  0
  6 17  4  0
  6 23  4  0
  7  9  1  0
  7 13  4  0
  7 19  4  0
  9 20  1  0
 10 19  4  0
 11 25  4  0
 13 14  4  0
 15 16  4  0
 15 17  4  0
 15 21  4  0
 16 24  1  0
 16 25  4  0
 20 24  1  0
 20 26  2  0
 21 23  4  0
 22 23  1  0
M  END
$$$$

 Created by Python create_sdf_string function

 26 28  0  0  0  0  0  0  0  0999 V2000
   12.4616    8.6700   19.4180 N   0  0  0  0  0  0  0  0  0  0  0  0
   11.8329   10.8148   18.6769 N   0  0  0  0  0  0  0  0  0  0  0  0
    6.1021    2.5564   21.0678 C   0  0  0  0  0  0  0  0  0  0  0  0
   10.9097   11.8051   18.4804 C   0  0  0  0  0  0  0  0  0  0  0  0
   11.2280   12.9135   17.5669 C   0  0  0  0  0  0  0  0  0  0  0  0
   12.3782    5.4231   20.7777 C   0  0  0  0  0  0  0  0  0  0  0  0
    7.7365    4.6508   21.6987 C   0  0  0  0  0  0  0  0  0  0  0  0
   13.0186   11.0102   18.0020 C   0  0  0  0  0  0  0  0  0  0  0  0
    8.6628    5.7088   21.8871 N   0  0  0  0  0  0  0  0  0  0  0  0
    5.6516    3.5258   21.9140 C   0  0  0  0  0  0  0  0  0  0  0  0
   11.5863    9.6815   19.4539 C   0  0  0  0  0  0  0  0  0  0  0  0
   12.9648    4.1543   20.9205 C   0  0  0  0  0  0  0  0  0  0  0  0
    8.2089    3.6265   20.8929 C   0  0  0  0  0  0  0  0  0  0  0  0
    7.3827    2.5724   20.5432 C   0  0  0  0  0  0  0  0  0  0  0  0
   11.1529    7.2750   20.8025 C   0  0  0  0  0  0  0  0  0  0  0  0
   10.2573    8.3215   20.9827 C   0  0  0  0  0  0  0  0  0  0  0  0
   11.1606    5.9378   21.2366 N   0  0  0  0  0  0  0  0  0  0  0  0
    9.8932   11.6736   19.0677 O   0  0  0  0  0  0  0  0  0  0  0  0
    6.4470    4.5850   22.2321 C   0  0  0  0  0  0  0  0  0  0  0  0
    8.4619    6.9895   22.2968 C   0  0  0  0  0  0  0  0  0  0  0  0
   12.2747    7.5102   20.0420 C   0  0  0  0  0  0  0  0  0  0  0  0
   14.2544    6.2142   19.4191 C   0  0  0  0  0  0  0  0  0  0  0  0
   13.0695    6.3705   20.0375 N   0  0  0  0  0  0  0  0  0  0  0  0
    9.1913    8.0876   21.8361 N   0  0  0  0  0  0  0  0  0  0  0  0
   10.4739    9.4813   20.2889 C   0  0  0  0  0  0  0  0  0  0  0  0
    7.5551    7.1270   23.1200 O   0  0  0  0  0  0  0  0  0  0  0  0
  1 11  4  0
  1 21  4  0
  2  4  1  0
  2  8  1  0
  2 11  1  0
  3 10  4  0
  3 14  4  0
  4  5  1  0
  4 18  2  0
  6 12  1  0
  6 17  4  0
  6 23  4  0
  7  9  1  0
  7 13  4  0
  7 19  4  0
  9 20  1  0
 10 19  4  0
 11 25  4  0
 13 14  4  0
 15 16  4  0
 15 17  4  0
 15 21  4  0
 16 24  1  0
 16 25  4  0
 20 24  1  0
 20 26  2  0
 21 23  4  0
 22 23  1  0
M  END
$$$$

 Created by Python create_sdf_string function

 26 28  0  0  0  0  0  0  0  0999 V2000
   12.4616    8.6700   19.4180 N   0  0  0  0  0  0  0  0  0  0  0  0
   11.8329   10.8148   18.6769 N   0  0  0  0  0  0  0  0  0  0  0  0
    6.1021    2.5564   21.0678 C   0  0  0  0  0  0  0  0  0  0  0  0
   10.9097   11.8051   18.4804 C   0  0  0  0  0  0  0  0  0  0  0  0
   11.2280   12.9135   17.5669 C   0  0  0  0  0  0  0  0  0  0  0  0
   12.3782    5.4231   20.7777 C   0  0  0  0  0  0  0  0  0  0  0  0
    7.7365    4.6508   21.6987 C   0  0  0  0  0  0  0  0  0  0  0  0
   13.0186   11.0102   18.0020 C   0  0  0  0  0  0  0  0  0  0  0  0
    8.6628    5.7088   21.8871 N   0  0  0  0  0  0  0  0  0  0  0  0
    5.6516    3.5258   21.9140 C   0  0  0  0  0  0  0  0  0  0  0  0
   11.5863    9.6815   19.4539 C   0  0  0  0  0  0  0  0  0  0  0  0
   12.9648    4.1543   20.9205 C   0  0  0  0  0  0  0  0  0  0  0  0
    8.2089    3.6265   20.8929 C   0  0  0  0  0  0  0  0  0  0  0  0
    7.3827    2.5724   20.5432 C   0  0  0  0  0  0  0  0  0  0  0  0
   11.1529    7.2750   20.8025 C   0  0  0  0  0  0  0  0  0  0  0  0
   10.2573    8.3215   20.9827 C   0  0  0  0  0  0  0  0  0  0  0  0
   11.1606    5.9378   21.2366 N   0  0  0  0  0  0  0  0  0  0  0  0
    9.8932   11.6736   19.0677 O   0  0  0  0  0  0  0  0  0  0  0  0
    6.4470    4.5850   22.2321 C   0  0  0  0  0  0  0  0  0  0  0  0
    8.4619    6.9895   22.2968 C   0  0  0  0  0  0  0  0  0  0  0  0
   12.2747    7.5102   20.0420 C   0  0  0  0  0  0  0  0  0  0  0  0
   14.2544    6.2142   19.4191 C   0  0  0  0  0  0  0  0  0  0  0  0
   13.0695    6.3705   20.0375 N   0  0  0  0  0  0  0  0  0  0  0  0
    9.1913    8.0876   21.8361 N   0  0  0  0  0  0  0  0  0  0  0  0
   10.4739    9.4813   20.2889 C   0  0  0  0  0  0  0  0  0  0  0  0
    7.5551    7.1270   23.1200 O   0  0  0  0  0  0  0  0  0  0  0  0
  1 11  4  0
  1 21  4  0
  2  4  1  0
  2  8  1  0
  2 11  1  0
  3 10  4  0
  3 14  4  0
  4  5  1  0
  4 18  2  0
  6 12  1  0
  6 17  4  0
  6 23  4  0
  7  9  1  0
  7 13  4  0
  7 19  4  0
  9 20  1  0
 10 19  4  0
 11 25  4  0
 13 14  4  0
 15 16  4  0
 15 17  4  0
 15 21  4  0
 16 24  1  0
 16 25  4  0
 20 24  1  0
 20 26  2  0
 21 23  4  0
 22 23  1  0
M  END
$$$$

 Created by Python create_sdf_string function

 26 28  0  0  0  0  0  0  0  0999 V2000
   12.4616    8.6700   19.4180 N   0  0  0  0  0  0  0  0  0  0  0  0
   11.8329   10.8148   18.6769 N   0  0  0  0  0  0  0  0  0  0  0  0
    6.1021    2.5564   21.0678 C   0  0  0  0  0  0  0  0  0  0  0  0
   10.9097   11.8051   18.4804 C   0  0  0  0  0  0  0  0  0  0  0  0
   11.2280   12.9135   17.5669 C   0  0  0  0  0  0  0  0  0  0  0  0
   12.3782    5.4231   20.7777 C   0  0  0  0  0  0  0  0  0  0  0  0
    7.7365    4.6508   21.6987 C   0  0  0  0  0  0  0  0  0  0  0  0
   13.0186   11.0102   18.0020 C   0  0  0  0  0  0  0  0  0  0  0  0
    8.6628    5.7088   21.8871 N   0  0  0  0  0  0  0  0  0  0  0  0
    5.6516    3.5258   21.9140 C   0  0  0  0  0  0  0  0  0  0  0  0
   11.5863    9.6815   19.4539 C   0  0  0  0  0  0  0  0  0  0  0  0
   12.9648    4.1543   20.9205 C   0  0  0  0  0  0  0  0  0  0  0  0
    8.2089    3.6265   20.8929 C   0  0  0  0  0  0  0  0  0  0  0  0
    7.3827    2.5724   20.5432 C   0  0  0  0  0  0  0  0  0  0  0  0
   11.1529    7.2750   20.8025 C   0  0  0  0  0  0  0  0  0  0  0  0
   10.2573    8.3215   20.9827 C   0  0  0  0  0  0  0  0  0  0  0  0
   11.1606    5.9378   21.2366 N   0  0  0  0  0  0  0  0  0  0  0  0
    9.8932   11.6736   19.0677 O   0  0  0  0  0  0  0  0  0  0  0  0
    6.4470    4.5850   22.2321 C   0  0  0  0  0  0  0  0  0  0  0  0
    8.4619    6.9895   22.2968 C   0  0  0  0  0  0  0  0  0  0  0  0
   12.2747    7.5102   20.0420 C   0  0  0  0  0  0  0  0  0  0  0  0
   14.2544    6.2142   19.4191 C   0  0  0  0  0  0  0  0  0  0  0  0
   13.0695    6.3705   20.0375 N   0  0  0  0  0  0  0  0  0  0  0  0
    9.1913    8.0876   21.8361 N   0  0  0  0  0  0  0  0  0  0  0  0
   10.4739    9.4813   20.2889 C   0  0  0  0  0  0  0  0  0  0  0  0
    7.5551    7.1270   23.1200 O   0  0  0  0  0  0  0  0  0  0  0  0
  1 11  4  0
  1 21  4  0
  2  4  1  0
  2  8  1  0
  2 11  1  0
  3 10  4  0
  3 14  4  0
  4  5  1  0
  4 18  2  0
  6 12  1  0
  6 17  4  0
  6 23  4  0
  7  9  1  0
  7 13  4  0
  7 19  4  0
  9 20  1  0
 10 19  4  0
 11 25  4  0
 13 14  4  0
 15 16  4  0
 15 17  4  0
 15 21  4  0
 16 24  1  0
 16 25  4  0
 20 24  1  0
 20 26  2  0
 21 23  4  0
 22 23  1  0
M  END
$$$$

 Created by Python create_sdf_string function

 26 28  0  0  0  0  0  0  0  0999 V2000
   12.4616    8.6700   19.4180 N   0  0  0  0  0  0  0  0  0  0  0  0
   11.8329   10.8148   18.6769 N   0  0  0  0  0  0  0  0  0  0  0  0
    6.1021    2.5564   21.0678 C   0  0  0  0  0  0  0  0  0  0  0  0
   10.9097   11.8051   18.4804 C   0  0  0  0  0  0  0  0  0  0  0  0
   11.2280   12.9135   17.5669 C   0  0  0  0  0  0  0  0  0  0  0  0
   12.3782    5.4231   20.7777 C   0  0  0  0  0  0  0  0  0  0  0  0
    7.7365    4.6508   21.6987 C   0  0  0  0  0  0  0  0  0  0  0  0
   13.0186   11.0102   18.0020 C   0  0  0  0  0  0  0  0  0  0  0  0
    8.6628    5.7088   21.8871 N   0  0  0  0  0  0  0  0  0  0  0  0
    5.6516    3.5258   21.9140 C   0  0  0  0  0  0  0  0  0  0  0  0
   11.5863    9.6815   19.4539 C   0  0  0  0  0  0  0  0  0  0  0  0
   12.9648    4.1543   20.9205 C   0  0  0  0  0  0  0  0  0  0  0  0
    8.2089    3.6265   20.8929 C   0  0  0  0  0  0  0  0  0  0  0  0
    7.3827    2.5724   20.5432 C   0  0  0  0  0  0  0  0  0  0  0  0
   11.1529    7.2750   20.8025 C   0  0  0  0  0  0  0  0  0  0  0  0
   10.2573    8.3215   20.9827 C   0  0  0  0  0  0  0  0  0  0  0  0
   11.1606    5.9378   21.2366 N   0  0  0  0  0  0  0  0  0  0  0  0
    9.8932   11.6736   19.0677 O   0  0  0  0  0  0  0  0  0  0  0  0
    6.4470    4.5850   22.2321 C   0  0  0  0  0  0  0  0  0  0  0  0
    8.4619    6.9895   22.2968 C   0  0  0  0  0  0  0  0  0  0  0  0
   12.2747    7.5102   20.0420 C   0  0  0  0  0  0  0  0  0  0  0  0
   14.2544    6.2142   19.4191 C   0  0  0  0  0  0  0  0  0  0  0  0
   13.0695    6.3705   20.0375 N   0  0  0  0  0  0  0  0  0  0  0  0
    9.1913    8.0876   21.8361 N   0  0  0  0  0  0  0  0  0  0  0  0
   10.4739    9.4813   20.2889 C   0  0  0  0  0  0  0  0  0  0  0  0
    7.5551    7.1270   23.1200 O   0  0  0  0  0  0  0  0  0  0  0  0
  1 11  4  0
  1 21  4  0
  2  4  1  0
  2  8  1  0
  2 11  1  0
  3 10  4  0
  3 14  4  0
  4  5  1  0
  4 18  2  0
  6 12  1  0
  6 17  4  0
  6 23  4  0
  7  9  1  0
  7 13  4  0
  7 19  4  0
  9 20  1  0
 10 19  4  0
 11 25  4  0
 13 14  4  0
 15 16  4  0
 15 17  4  0
 15 21  4  0
 16 24  1  0
 16 25  4  0
 20 24  1  0
 20 26  2  0
 21 23  4  0
 22 23  1  0
M  END
$$$$

 Created by Python create_sdf_string function

 26 28  0  0  0  0  0  0  0  0999 V2000
   12.4616    8.6700   19.4180 N   0  0  0  0  0  0  0  0  0  0  0  0
   11.8329   10.8148   18.6769 N   0  0  0  0  0  0  0  0  0  0  0  0
    6.1021    2.5564   21.0678 C   0  0  0  0  0  0  0  0  0  0  0  0
   10.9097   11.8051   18.4804 C   0  0  0  0  0  0  0  0  0  0  0  0
   11.2280   12.9135   17.5669 C   0  0  0  0  0  0  0  0  0  0  0  0
   12.3782    5.4231   20.7777 C   0  0  0  0  0  0  0  0  0  0  0  0
    7.7365    4.6508   21.6987 C   0  0  0  0  0  0  0  0  0  0  0  0
   13.0186   11.0102   18.0020 C   0  0  0  0  0  0  0  0  0  0  0  0
    8.6628    5.7088   21.8871 N   0  0  0  0  0  0  0  0  0  0  0  0
    5.6516    3.5258   21.9140 C   0  0  0  0  0  0  0  0  0  0  0  0
   11.5863    9.6815   19.4539 C   0  0  0  0  0  0  0  0  0  0  0  0
   12.9648    4.1543   20.9205 C   0  0  0  0  0  0  0  0  0  0  0  0
    8.2089    3.6265   20.8929 C   0  0  0  0  0  0  0  0  0  0  0  0
    7.3827    2.5724   20.5432 C   0  0  0  0  0  0  0  0  0  0  0  0
   11.1529    7.2750   20.8025 C   0  0  0  0  0  0  0  0  0  0  0  0
   10.2573    8.3215   20.9827 C   0  0  0  0  0  0  0  0  0  0  0  0
   11.1606    5.9378   21.2366 N   0  0  0  0  0  0  0  0  0  0  0  0
    9.8932   11.6736   19.0677 O   0  0  0  0  0  0  0  0  0  0  0  0
    6.4470    4.5850   22.2321 C   0  0  0  0  0  0  0  0  0  0  0  0
    8.4619    6.9895   22.2968 C   0  0  0  0  0  0  0  0  0  0  0  0
   12.2747    7.5102   20.0420 C   0  0  0  0  0  0  0  0  0  0  0  0
   14.2544    6.2142   19.4191 C   0  0  0  0  0  0  0  0  0  0  0  0
   13.0695    6.3705   20.0375 N   0  0  0  0  0  0  0  0  0  0  0  0
    9.1913    8.0876   21.8361 N   0  0  0  0  0  0  0  0  0  0  0  0
   10.4739    9.4813   20.2889 C   0  0  0  0  0  0  0  0  0  0  0  0
    7.5551    7.1270   23.1200 O   0  0  0  0  0  0  0  0  0  0  0  0
  1 11  4  0
  1 21  4  0
  2  4  1  0
  2  8  1  0
  2 11  1  0
  3 10  4  0
  3 14  4  0
  4  5  1  0
  4 18  2  0
  6 12  1  0
  6 17  4  0
  6 23  4  0
  7  9  1  0
  7 13  4  0
  7 19  4  0
  9 20  1  0
 10 19  4  0
 11 25  4  0
 13 14  4  0
 15 16  4  0
 15 17  4  0
 15 21  4  0
 16 24  1  0
 16 25  4  0
 20 24  1  0
 20 26  2  0
 21 23  4  0
 22 23  1  0
M  END
$$$$

 Created by Python create_sdf_string function

 26 28  0  0  0  0  0  0  0  0999 V2000
   12.4616    8.6700   19.4180 N   0  0  0  0  0  0  0  0  0  0  0  0
   11.8329   10.8148   18.6769 N   0  0  0  0  0  0  0  0  0  0  0  0
    6.1021    2.5564   21.0678 C   0  0  0  0  0  0  0  0  0  0  0  0
   10.9097   11.8051   18.4804 C   0  0  0  0  0  0  0  0  0  0  0  0
   11.2280   12.9135   17.5669 C   0  0  0  0  0  0  0  0  0  0  0  0
   12.3782    5.4231   20.7777 C   0  0  0  0  0  0  0  0  0  0  0  0
    7.7365    4.6508   21.6987 C   0  0  0  0  0  0  0  0  0  0  0  0
   13.0186   11.0102   18.0020 C   0  0  0  0  0  0  0  0  0  0  0  0
    8.6628    5.7088   21.8871 N   0  0  0  0  0  0  0  0  0  0  0  0
    5.6516    3.5258   21.9140 C   0  0  0  0  0  0  0  0  0  0  0  0
   11.5863    9.6815   19.4539 C   0  0  0  0  0  0  0  0  0  0  0  0
   12.9648    4.1543   20.9205 C   0  0  0  0  0  0  0  0  0  0  0  0
    8.2089    3.6265   20.8929 C   0  0  0  0  0  0  0  0  0  0  0  0
    7.3827    2.5724   20.5432 C   0  0  0  0  0  0  0  0  0  0  0  0
   11.1529    7.2750   20.8025 C   0  0  0  0  0  0  0  0  0  0  0  0
   10.2573    8.3215   20.9827 C   0  0  0  0  0  0  0  0  0  0  0  0
   11.1606    5.9378   21.2366 N   0  0  0  0  0  0  0  0  0  0  0  0
    9.8932   11.6736   19.0677 O   0  0  0  0  0  0  0  0  0  0  0  0
    6.4470    4.5850   22.2321 C   0  0  0  0  0  0  0  0  0  0  0  0
    8.4619    6.9895   22.2968 C   0  0  0  0  0  0  0  0  0  0  0  0
   12.2747    7.5102   20.0420 C   0  0  0  0  0  0  0  0  0  0  0  0
   14.2544    6.2142   19.4191 C   0  0  0  0  0  0  0  0  0  0  0  0
   13.0695    6.3705   20.0375 N   0  0  0  0  0  0  0  0  0  0  0  0
    9.1913    8.0876   21.8361 N   0  0  0  0  0  0  0  0  0  0  0  0
   10.4739    9.4813   20.2889 C   0  0  0  0  0  0  0  0  0  0  0  0
    7.5551    7.1270   23.1200 O   0  0  0  0  0  0  0  0  0  0  0  0
  1 11  4  0
  1 21  4  0
  2  4  1  0
  2  8  1  0
  2 11  1  0
  3 10  4  0
  3 14  4  0
  4  5  1  0
  4 18  2  0
  6 12  1  0
  6 17  4  0
  6 23  4  0
  7  9  1  0
  7 13  4  0
  7 19  4  0
  9 20  1  0
 10 19  4  0
 11 25  4  0
 13 14  4  0
 15 16  4  0
 15 17  4  0
 15 21  4  0
 16 24  1  0
 16 25  4  0
 20 24  1  0
 20 26  2  0
 21 23  4  0
 22 23  1  0
M  END
$$$$

 Created by Python create_sdf_string function

 26 28  0  0  0  0  0  0  0  0999 V2000
   12.4616    8.6700   19.4180 N   0  0  0  0  0  0  0  0  0  0  0  0
   11.8329   10.8148   18.6769 N   0  0  0  0  0  0  0  0  0  0  0  0
    6.1021    2.5564   21.0678 C   0  0  0  0  0  0  0  0  0  0  0  0
   10.9097   11.8051   18.4804 C   0  0  0  0  0  0  0  0  0  0  0  0
   11.2280   12.9135   17.5669 C   0  0  0  0  0  0  0  0  0  0  0  0
   12.3782    5.4231   20.7777 C   0  0  0  0  0  0  0  0  0  0  0  0
    7.7365    4.6508   21.6987 C   0  0  0  0  0  0  0  0  0  0  0  0
   13.0186   11.0102   18.0020 C   0  0  0  0  0  0  0  0  0  0  0  0
    8.6628    5.7088   21.8871 N   0  0  0  0  0  0  0  0  0  0  0  0
    5.6516    3.5258   21.9140 C   0  0  0  0  0  0  0  0  0  0  0  0
   11.5863    9.6815   19.4539 C   0  0  0  0  0  0  0  0  0  0  0  0
   12.9648    4.1543   20.9205 C   0  0  0  0  0  0  0  0  0  0  0  0
    8.2089    3.6265   20.8929 C   0  0  0  0  0  0  0  0  0  0  0  0
    7.3827    2.5724   20.5432 C   0  0  0  0  0  0  0  0  0  0  0  0
   11.1529    7.2750   20.8025 C   0  0  0  0  0  0  0  0  0  0  0  0
   10.2573    8.3215   20.9827 C   0  0  0  0  0  0  0  0  0  0  0  0
   11.1606    5.9378   21.2366 N   0  0  0  0  0  0  0  0  0  0  0  0
    9.8932   11.6736   19.0677 O   0  0  0  0  0  0  0  0  0  0  0  0
    6.4470    4.5850   22.2321 C   0  0  0  0  0  0  0  0  0  0  0  0
    8.4619    6.9895   22.2968 C   0  0  0  0  0  0  0  0  0  0  0  0
   12.2747    7.5102   20.0420 C   0  0  0  0  0  0  0  0  0  0  0  0
   14.2544    6.2142   19.4191 C   0  0  0  0  0  0  0  0  0  0  0  0
   13.0695    6.3705   20.0375 N   0  0  0  0  0  0  0  0  0  0  0  0
    9.1913    8.0876   21.8361 N   0  0  0  0  0  0  0  0  0  0  0  0
   10.4739    9.4813   20.2889 C   0  0  0  0  0  0  0  0  0  0  0  0
    7.5551    7.1270   23.1200 O   0  0  0  0  0  0  0  0  0  0  0  0
  1 11  4  0
  1 21  4  0
  2  4  1  0
  2  8  1  0
  2 11  1  0
  3 10  4  0
  3 14  4  0
  4  5  1  0
  4 18  2  0
  6 12  1  0
  6 17  4  0
  6 23  4  0
  7  9  1  0
  7 13  4  0
  7 19  4  0
  9 20  1  0
 10 19  4  0
 11 25  4  0
 13 14  4  0
 15 16  4  0
 15 17  4  0
 15 21  4  0
 16 24  1  0
 16 25  4  0
 20 24  1  0
 20 26  2  0
 21 23  4  0
 22 23  1  0
M  END
$$$$

 Created by Python create_sdf_string function

 26 28  0  0  0  0  0  0  0  0999 V2000
   12.4616    8.6700   19.4180 N   0  0  0  0  0  0  0  0  0  0  0  0
   11.8329   10.8148   18.6769 N   0  0  0  0  0  0  0  0  0  0  0  0
    6.1021    2.5564   21.0678 C   0  0  0  0  0  0  0  0  0  0  0  0
   10.9097   11.8051   18.4804 C   0  0  0  0  0  0  0  0  0  0  0  0
   11.2280   12.9135   17.5669 C   0  0  0  0  0  0  0  0  0  0  0  0
   12.3782    5.4231   20.7777 C   0  0  0  0  0  0  0  0  0  0  0  0
    7.7365    4.6508   21.6987 C   0  0  0  0  0  0  0  0  0  0  0  0
   13.0186   11.0102   18.0020 C   0  0  0  0  0  0  0  0  0  0  0  0
    8.6628    5.7088   21.8871 N   0  0  0  0  0  0  0  0  0  0  0  0
    5.6516    3.5258   21.9140 C   0  0  0  0  0  0  0  0  0  0  0  0
   11.5863    9.6815   19.4539 C   0  0  0  0  0  0  0  0  0  0  0  0
   12.9648    4.1543   20.9205 C   0  0  0  0  0  0  0  0  0  0  0  0
    8.2089    3.6265   20.8929 C   0  0  0  0  0  0  0  0  0  0  0  0
    7.3827    2.5724   20.5432 C   0  0  0  0  0  0  0  0  0  0  0  0
   11.1529    7.2750   20.8025 C   0  0  0  0  0  0  0  0  0  0  0  0
   10.2573    8.3215   20.9827 C   0  0  0  0  0  0  0  0  0  0  0  0
   11.1606    5.9378   21.2366 N   0  0  0  0  0  0  0  0  0  0  0  0
    9.8932   11.6736   19.0677 O   0  0  0  0  0  0  0  0  0  0  0  0
    6.4470    4.5850   22.2321 C   0  0  0  0  0  0  0  0  0  0  0  0
    8.4619    6.9895   22.2968 C   0  0  0  0  0  0  0  0  0  0  0  0
   12.2747    7.5102   20.0420 C   0  0  0  0  0  0  0  0  0  0  0  0
   14.2544    6.2142   19.4191 C   0  0  0  0  0  0  0  0  0  0  0  0
   13.0695    6.3705   20.0375 N   0  0  0  0  0  0  0  0  0  0  0  0
    9.1913    8.0876   21.8361 N   0  0  0  0  0  0  0  0  0  0  0  0
   10.4739    9.4813   20.2889 C   0  0  0  0  0  0  0  0  0  0  0  0
    7.5551    7.1270   23.1200 O   0  0  0  0  0  0  0  0  0  0  0  0
  1 11  4  0
  1 21  4  0
  2  4  1  0
  2  8  1  0
  2 11  1  0
  3 10  4  0
  3 14  4  0
  4  5  1  0
  4 18  2  0
  6 12  1  0
  6 17  4  0
  6 23  4  0
  7  9  1  0
  7 13  4  0
  7 19  4  0
  9 20  1  0
 10 19  4  0
 11 25  4  0
 13 14  4  0
 15 16  4  0
 15 17  4  0
 15 21  4  0
 16 24  1  0
 16 25  4  0
 20 24  1  0
 20 26  2  0
 21 23  4  0
 22 23  1  0
M  END
$$$$

 Created by Python create_sdf_string function

 26 28  0  0  0  0  0  0  0  0999 V2000
   12.4616    8.6700   19.4180 N   0  0  0  0  0  0  0  0  0  0  0  0
   11.8329   10.8148   18.6769 N   0  0  0  0  0  0  0  0  0  0  0  0
    6.1021    2.5564   21.0678 C   0  0  0  0  0  0  0  0  0  0  0  0
   10.9097   11.8051   18.4804 C   0  0  0  0  0  0  0  0  0  0  0  0
   11.2280   12.9135   17.5669 C   0  0  0  0  0  0  0  0  0  0  0  0
   12.3782    5.4231   20.7777 C   0  0  0  0  0  0  0  0  0  0  0  0
    7.7365    4.6508   21.6987 C   0  0  0  0  0  0  0  0  0  0  0  0
   13.0186   11.0102   18.0020 C   0  0  0  0  0  0  0  0  0  0  0  0
    8.6628    5.7088   21.8871 N   0  0  0  0  0  0  0  0  0  0  0  0
    5.6516    3.5258   21.9140 C   0  0  0  0  0  0  0  0  0  0  0  0
   11.5863    9.6815   19.4539 C   0  0  0  0  0  0  0  0  0  0  0  0
   12.9648    4.1543   20.9205 C   0  0  0  0  0  0  0  0  0  0  0  0
    8.2089    3.6265   20.8929 C   0  0  0  0  0  0  0  0  0  0  0  0
    7.3827    2.5724   20.5432 C   0  0  0  0  0  0  0  0  0  0  0  0
   11.1529    7.2750   20.8025 C   0  0  0  0  0  0  0  0  0  0  0  0
   10.2573    8.3215   20.9827 C   0  0  0  0  0  0  0  0  0  0  0  0
   11.1606    5.9378   21.2366 N   0  0  0  0  0  0  0  0  0  0  0  0
    9.8932   11.6736   19.0677 O   0  0  0  0  0  0  0  0  0  0  0  0
    6.4470    4.5850   22.2321 C   0  0  0  0  0  0  0  0  0  0  0  0
    8.4619    6.9895   22.2968 C   0  0  0  0  0  0  0  0  0  0  0  0
   12.2747    7.5102   20.0420 C   0  0  0  0  0  0  0  0  0  0  0  0
   14.2544    6.2142   19.4191 C   0  0  0  0  0  0  0  0  0  0  0  0
   13.0695    6.3705   20.0375 N   0  0  0  0  0  0  0  0  0  0  0  0
    9.1913    8.0876   21.8361 N   0  0  0  0  0  0  0  0  0  0  0  0
   10.4739    9.4813   20.2889 C   0  0  0  0  0  0  0  0  0  0  0  0
    7.5551    7.1270   23.1200 O   0  0  0  0  0  0  0  0  0  0  0  0
  1 11  4  0
  1 21  4  0
  2  4  1  0
  2  8  1  0
  2 11  1  0
  3 10  4  0
  3 14  4  0
  4  5  1  0
  4 18  2  0
  6 12  1  0
  6 17  4  0
  6 23  4  0
  7  9  1  0
  7 13  4  0
  7 19  4  0
  9 20  1  0
 10 19  4  0
 11 25  4  0
 13 14  4  0
 15 16  4  0
 15 17  4  0
 15 21  4  0
 16 24  1  0
 16 25  4  0
 20 24  1  0
 20 26  2  0
 21 23  4  0
 22 23  1  0
M  END
$$$$

 Created by Python create_sdf_string function

 26 28  0  0  0  0  0  0  0  0999 V2000
   12.4616    8.6700   19.4180 N   0  0  0  0  0  0  0  0  0  0  0  0
   11.8329   10.8148   18.6769 N   0  0  0  0  0  0  0  0  0  0  0  0
    6.1021    2.5564   21.0678 C   0  0  0  0  0  0  0  0  0  0  0  0
   10.9097   11.8051   18.4804 C   0  0  0  0  0  0  0  0  0  0  0  0
   11.2280   12.9135   17.5669 C   0  0  0  0  0  0  0  0  0  0  0  0
   12.3782    5.4231   20.7777 C   0  0  0  0  0  0  0  0  0  0  0  0
    7.7365    4.6508   21.6987 C   0  0  0  0  0  0  0  0  0  0  0  0
   13.0186   11.0102   18.0020 C   0  0  0  0  0  0  0  0  0  0  0  0
    8.6628    5.7088   21.8871 N   0  0  0  0  0  0  0  0  0  0  0  0
    5.6516    3.5258   21.9140 C   0  0  0  0  0  0  0  0  0  0  0  0
   11.5863    9.6815   19.4539 C   0  0  0  0  0  0  0  0  0  0  0  0
   12.9648    4.1543   20.9205 C   0  0  0  0  0  0  0  0  0  0  0  0
    8.2089    3.6265   20.8929 C   0  0  0  0  0  0  0  0  0  0  0  0
    7.3827    2.5724   20.5432 C   0  0  0  0  0  0  0  0  0  0  0  0
   11.1529    7.2750   20.8025 C   0  0  0  0  0  0  0  0  0  0  0  0
   10.2573    8.3215   20.9827 C   0  0  0  0  0  0  0  0  0  0  0  0
   11.1606    5.9378   21.2366 N   0  0  0  0  0  0  0  0  0  0  0  0
    9.8932   11.6736   19.0677 O   0  0  0  0  0  0  0  0  0  0  0  0
    6.4470    4.5850   22.2321 C   0  0  0  0  0  0  0  0  0  0  0  0
    8.4619    6.9895   22.2968 C   0  0  0  0  0  0  0  0  0  0  0  0
   12.2747    7.5102   20.0420 C   0  0  0  0  0  0  0  0  0  0  0  0
   14.2544    6.2142   19.4191 C   0  0  0  0  0  0  0  0  0  0  0  0
   13.0695    6.3705   20.0375 N   0  0  0  0  0  0  0  0  0  0  0  0
    9.1913    8.0876   21.8361 N   0  0  0  0  0  0  0  0  0  0  0  0
   10.4739    9.4813   20.2889 C   0  0  0  0  0  0  0  0  0  0  0  0
    7.5551    7.1270   23.1200 O   0  0  0  0  0  0  0  0  0  0  0  0
  1 11  4  0
  1 21  4  0
  2  4  1  0
  2  8  1  0
  2 11  1  0
  3 10  4  0
  3 14  4  0
  4  5  1  0
  4 18  2  0
  6 12  1  0
  6 17  4  0
  6 23  4  0
  7  9  1  0
  7 13  4  0
  7 19  4  0
  9 20  1  0
 10 19  4  0
 11 25  4  0
 13 14  4  0
 15 16  4  0
 15 17  4  0
 15 21  4  0
 16 24  1  0
 16 25  4  0
 20 24  1  0
 20 26  2  0
 21 23  4  0
 22 23  1  0
M  END
$$$$

 Created by Python create_sdf_string function

 26 28  0  0  0  0  0  0  0  0999 V2000
   12.4616    8.6700   19.4180 N   0  0  0  0  0  0  0  0  0  0  0  0
   11.8329   10.8148   18.6769 N   0  0  0  0  0  0  0  0  0  0  0  0
    6.1021    2.5564   21.0678 C   0  0  0  0  0  0  0  0  0  0  0  0
   10.9097   11.8051   18.4804 C   0  0  0  0  0  0  0  0  0  0  0  0
   11.2280   12.9135   17.5669 C   0  0  0  0  0  0  0  0  0  0  0  0
   12.3782    5.4231   20.7777 C   0  0  0  0  0  0  0  0  0  0  0  0
    7.7365    4.6508   21.6987 C   0  0  0  0  0  0  0  0  0  0  0  0
   13.0186   11.0102   18.0020 C   0  0  0  0  0  0  0  0  0  0  0  0
    8.6628    5.7088   21.8871 N   0  0  0  0  0  0  0  0  0  0  0  0
    5.6516    3.5258   21.9140 C   0  0  0  0  0  0  0  0  0  0  0  0
   11.5863    9.6815   19.4539 C   0  0  0  0  0  0  0  0  0  0  0  0
   12.9648    4.1543   20.9205 C   0  0  0  0  0  0  0  0  0  0  0  0
    8.2089    3.6265   20.8929 C   0  0  0  0  0  0  0  0  0  0  0  0
    7.3827    2.5724   20.5432 C   0  0  0  0  0  0  0  0  0  0  0  0
   11.1529    7.2750   20.8025 C   0  0  0  0  0  0  0  0  0  0  0  0
   10.2573    8.3215   20.9827 C   0  0  0  0  0  0  0  0  0  0  0  0
   11.1606    5.9378   21.2366 N   0  0  0  0  0  0  0  0  0  0  0  0
    9.8932   11.6736   19.0677 O   0  0  0  0  0  0  0  0  0  0  0  0
    6.4470    4.5850   22.2321 C   0  0  0  0  0  0  0  0  0  0  0  0
    8.4619    6.9895   22.2968 C   0  0  0  0  0  0  0  0  0  0  0  0
   12.2747    7.5102   20.0420 C   0  0  0  0  0  0  0  0  0  0  0  0
   14.2544    6.2142   19.4191 C   0  0  0  0  0  0  0  0  0  0  0  0
   13.0695    6.3705   20.0375 N   0  0  0  0  0  0  0  0  0  0  0  0
    9.1913    8.0876   21.8361 N   0  0  0  0  0  0  0  0  0  0  0  0
   10.4739    9.4813   20.2889 C   0  0  0  0  0  0  0  0  0  0  0  0
    7.5551    7.1270   23.1200 O   0  0  0  0  0  0  0  0  0  0  0  0
  1 11  4  0
  1 21  4  0
  2  4  1  0
  2  8  1  0
  2 11  1  0
  3 10  4  0
  3 14  4  0
  4  5  1  0
  4 18  2  0
  6 12  1  0
  6 17  4  0
  6 23  4  0
  7  9  1  0
  7 13  4  0
  7 19  4  0
  9 20  1  0
 10 19  4  0
 11 25  4  0
 13 14  4  0
 15 16  4  0
 15 17  4  0
 15 21  4  0
 16 24  1  0
 16 25  4  0
 20 24  1  0
 20 26  2  0
 21 23  4  0
 22 23  1  0
M  END
$$$$

 Created by Python create_sdf_string function

 26 28  0  0  0  0  0  0  0  0999 V2000
   12.4616    8.6700   19.4180 N   0  0  0  0  0  0  0  0  0  0  0  0
   11.8329   10.8148   18.6769 N   0  0  0  0  0  0  0  0  0  0  0  0
    6.1021    2.5564   21.0678 C   0  0  0  0  0  0  0  0  0  0  0  0
   10.9097   11.8051   18.4804 C   0  0  0  0  0  0  0  0  0  0  0  0
   11.2280   12.9135   17.5669 C   0  0  0  0  0  0  0  0  0  0  0  0
   12.3782    5.4231   20.7777 C   0  0  0  0  0  0  0  0  0  0  0  0
    7.7365    4.6508   21.6987 C   0  0  0  0  0  0  0  0  0  0  0  0
   13.0186   11.0102   18.0020 C   0  0  0  0  0  0  0  0  0  0  0  0
    8.6628    5.7088   21.8871 N   0  0  0  0  0  0  0  0  0  0  0  0
    5.6516    3.5258   21.9140 C   0  0  0  0  0  0  0  0  0  0  0  0
   11.5863    9.6815   19.4539 C   0  0  0  0  0  0  0  0  0  0  0  0
   12.9648    4.1543   20.9205 C   0  0  0  0  0  0  0  0  0  0  0  0
    8.2089    3.6265   20.8929 C   0  0  0  0  0  0  0  0  0  0  0  0
    7.3827    2.5724   20.5432 C   0  0  0  0  0  0  0  0  0  0  0  0
   11.1529    7.2750   20.8025 C   0  0  0  0  0  0  0  0  0  0  0  0
   10.2573    8.3215   20.9827 C   0  0  0  0  0  0  0  0  0  0  0  0
   11.1606    5.9378   21.2366 N   0  0  0  0  0  0  0  0  0  0  0  0
    9.8932   11.6736   19.0677 O   0  0  0  0  0  0  0  0  0  0  0  0
    6.4470    4.5850   22.2321 C   0  0  0  0  0  0  0  0  0  0  0  0
    8.4619    6.9895   22.2968 C   0  0  0  0  0  0  0  0  0  0  0  0
   12.2747    7.5102   20.0420 C   0  0  0  0  0  0  0  0  0  0  0  0
   14.2544    6.2142   19.4191 C   0  0  0  0  0  0  0  0  0  0  0  0
   13.0695    6.3705   20.0375 N   0  0  0  0  0  0  0  0  0  0  0  0
    9.1913    8.0876   21.8361 N   0  0  0  0  0  0  0  0  0  0  0  0
   10.4739    9.4813   20.2889 C   0  0  0  0  0  0  0  0  0  0  0  0
    7.5551    7.1270   23.1200 O   0  0  0  0  0  0  0  0  0  0  0  0
  1 11  4  0
  1 21  4  0
  2  4  1  0
  2  8  1  0
  2 11  1  0
  3 10  4  0
  3 14  4  0
  4  5  1  0
  4 18  2  0
  6 12  1  0
  6 17  4  0
  6 23  4  0
  7  9  1  0
  7 13  4  0
  7 19  4  0
  9 20  1  0
 10 19  4  0
 11 25  4  0
 13 14  4  0
 15 16  4  0
 15 17  4  0
 15 21  4  0
 16 24  1  0
 16 25  4  0
 20 24  1  0
 20 26  2  0
 21 23  4  0
 22 23  1  0
M  END
$$$$

 Created by Python create_sdf_string function

 26 28  0  0  0  0  0  0  0  0999 V2000
   12.4616    8.6700   19.4180 N   0  0  0  0  0  0  0  0  0  0  0  0
   11.8329   10.8148   18.6769 N   0  0  0  0  0  0  0  0  0  0  0  0
    6.1021    2.5564   21.0678 C   0  0  0  0  0  0  0  0  0  0  0  0
   10.9097   11.8051   18.4804 C   0  0  0  0  0  0  0  0  0  0  0  0
   11.2280   12.9135   17.5669 C   0  0  0  0  0  0  0  0  0  0  0  0
   12.3782    5.4231   20.7777 C   0  0  0  0  0  0  0  0  0  0  0  0
    7.7365    4.6508   21.6987 C   0  0  0  0  0  0  0  0  0  0  0  0
   13.0186   11.0102   18.0020 C   0  0  0  0  0  0  0  0  0  0  0  0
    8.6628    5.7088   21.8871 N   0  0  0  0  0  0  0  0  0  0  0  0
    5.6516    3.5258   21.9140 C   0  0  0  0  0  0  0  0  0  0  0  0
   11.5863    9.6815   19.4539 C   0  0  0  0  0  0  0  0  0  0  0  0
   12.9648    4.1543   20.9205 C   0  0  0  0  0  0  0  0  0  0  0  0
    8.2089    3.6265   20.8929 C   0  0  0  0  0  0  0  0  0  0  0  0
    7.3827    2.5724   20.5432 C   0  0  0  0  0  0  0  0  0  0  0  0
   11.1529    7.2750   20.8025 C   0  0  0  0  0  0  0  0  0  0  0  0
   10.2573    8.3215   20.9827 C   0  0  0  0  0  0  0  0  0  0  0  0
   11.1606    5.9378   21.2366 N   0  0  0  0  0  0  0  0  0  0  0  0
    9.8932   11.6736   19.0677 O   0  0  0  0  0  0  0  0  0  0  0  0
    6.4470    4.5850   22.2321 C   0  0  0  0  0  0  0  0  0  0  0  0
    8.4619    6.9895   22.2968 C   0  0  0  0  0  0  0  0  0  0  0  0
   12.2747    7.5102   20.0420 C   0  0  0  0  0  0  0  0  0  0  0  0
   14.2544    6.2142   19.4191 C   0  0  0  0  0  0  0  0  0  0  0  0
   13.0695    6.3705   20.0375 N   0  0  0  0  0  0  0  0  0  0  0  0
    9.1913    8.0876   21.8361 N   0  0  0  0  0  0  0  0  0  0  0  0
   10.4739    9.4813   20.2889 C   0  0  0  0  0  0  0  0  0  0  0  0
    7.5551    7.1270   23.1200 O   0  0  0  0  0  0  0  0  0  0  0  0
  1 11  4  0
  1 21  4  0
  2  4  1  0
  2  8  1  0
  2 11  1  0
  3 10  4  0
  3 14  4  0
  4  5  1  0
  4 18  2  0
  6 12  1  0
  6 17  4  0
  6 23  4  0
  7  9  1  0
  7 13  4  0
  7 19  4  0
  9 20  1  0
 10 19  4  0
 11 25  4  0
 13 14  4  0
 15 16  4  0
 15 17  4  0
 15 21  4  0
 16 24  1  0
 16 25  4  0
 20 24  1  0
 20 26  2  0
 21 23  4  0
 22 23  1  0
M  END
$$$$

 Created by Python create_sdf_string function

 26 28  0  0  0  0  0  0  0  0999 V2000
   12.4616    8.6700   19.4180 N   0  0  0  0  0  0  0  0  0  0  0  0
   11.8329   10.8148   18.6769 N   0  0  0  0  0  0  0  0  0  0  0  0
    6.1021    2.5564   21.0678 C   0  0  0  0  0  0  0  0  0  0  0  0
   10.9097   11.8051   18.4804 C   0  0  0  0  0  0  0  0  0  0  0  0
   11.2280   12.9135   17.5669 C   0  0  0  0  0  0  0  0  0  0  0  0
   12.3782    5.4231   20.7777 C   0  0  0  0  0  0  0  0  0  0  0  0
    7.7365    4.6508   21.6987 C   0  0  0  0  0  0  0  0  0  0  0  0
   13.0186   11.0102   18.0020 C   0  0  0  0  0  0  0  0  0  0  0  0
    8.6628    5.7088   21.8871 N   0  0  0  0  0  0  0  0  0  0  0  0
    5.6516    3.5258   21.9140 C   0  0  0  0  0  0  0  0  0  0  0  0
   11.5863    9.6815   19.4539 C   0  0  0  0  0  0  0  0  0  0  0  0
   12.9648    4.1543   20.9205 C   0  0  0  0  0  0  0  0  0  0  0  0
    8.2089    3.6265   20.8929 C   0  0  0  0  0  0  0  0  0  0  0  0
    7.3827    2.5724   20.5432 C   0  0  0  0  0  0  0  0  0  0  0  0
   11.1529    7.2750   20.8025 C   0  0  0  0  0  0  0  0  0  0  0  0
   10.2573    8.3215   20.9827 C   0  0  0  0  0  0  0  0  0  0  0  0
   11.1606    5.9378   21.2366 N   0  0  0  0  0  0  0  0  0  0  0  0
    9.8932   11.6736   19.0677 O   0  0  0  0  0  0  0  0  0  0  0  0
    6.4470    4.5850   22.2321 C   0  0  0  0  0  0  0  0  0  0  0  0
    8.4619    6.9895   22.2968 C   0  0  0  0  0  0  0  0  0  0  0  0
   12.2747    7.5102   20.0420 C   0  0  0  0  0  0  0  0  0  0  0  0
   14.2544    6.2142   19.4191 C   0  0  0  0  0  0  0  0  0  0  0  0
   13.0695    6.3705   20.0375 N   0  0  0  0  0  0  0  0  0  0  0  0
    9.1913    8.0876   21.8361 N   0  0  0  0  0  0  0  0  0  0  0  0
   10.4739    9.4813   20.2889 C   0  0  0  0  0  0  0  0  0  0  0  0
    7.5551    7.1270   23.1200 O   0  0  0  0  0  0  0  0  0  0  0  0
  1 11  4  0
  1 21  4  0
  2  4  1  0
  2  8  1  0
  2 11  1  0
  3 10  4  0
  3 14  4  0
  4  5  1  0
  4 18  2  0
  6 12  1  0
  6 17  4  0
  6 23  4  0
  7  9  1  0
  7 13  4  0
  7 19  4  0
  9 20  1  0
 10 19  4  0
 11 25  4  0
 13 14  4  0
 15 16  4  0
 15 17  4  0
 15 21  4  0
 16 24  1  0
 16 25  4  0
 20 24  1  0
 20 26  2  0
 21 23  4  0
 22 23  1  0
M  END
$$$$

 Created by Python create_sdf_string function

 26 28  0  0  0  0  0  0  0  0999 V2000
   12.4616    8.6700   19.4180 N   0  0  0  0  0  0  0  0  0  0  0  0
   11.8329   10.8148   18.6769 N   0  0  0  0  0  0  0  0  0  0  0  0
    6.1021    2.5564   21.0678 C   0  0  0  0  0  0  0  0  0  0  0  0
   10.9097   11.8051   18.4804 C   0  0  0  0  0  0  0  0  0  0  0  0
   11.2280   12.9135   17.5669 C   0  0  0  0  0  0  0  0  0  0  0  0
   12.3782    5.4231   20.7777 C   0  0  0  0  0  0  0  0  0  0  0  0
    7.7365    4.6508   21.6987 C   0  0  0  0  0  0  0  0  0  0  0  0
   13.0186   11.0102   18.0020 C   0  0  0  0  0  0  0  0  0  0  0  0
    8.6628    5.7088   21.8871 N   0  0  0  0  0  0  0  0  0  0  0  0
    5.6516    3.5258   21.9140 C   0  0  0  0  0  0  0  0  0  0  0  0
   11.5863    9.6815   19.4539 C   0  0  0  0  0  0  0  0  0  0  0  0
   12.9648    4.1543   20.9205 C   0  0  0  0  0  0  0  0  0  0  0  0
    8.2089    3.6265   20.8929 C   0  0  0  0  0  0  0  0  0  0  0  0
    7.3827    2.5724   20.5432 C   0  0  0  0  0  0  0  0  0  0  0  0
   11.1529    7.2750   20.8025 C   0  0  0  0  0  0  0  0  0  0  0  0
   10.2573    8.3215   20.9827 C   0  0  0  0  0  0  0  0  0  0  0  0
   11.1606    5.9378   21.2366 N   0  0  0  0  0  0  0  0  0  0  0  0
    9.8932   11.6736   19.0677 O   0  0  0  0  0  0  0  0  0  0  0  0
    6.4470    4.5850   22.2321 C   0  0  0  0  0  0  0  0  0  0  0  0
    8.4619    6.9895   22.2968 C   0  0  0  0  0  0  0  0  0  0  0  0
   12.2747    7.5102   20.0420 C   0  0  0  0  0  0  0  0  0  0  0  0
   14.2544    6.2142   19.4191 C   0  0  0  0  0  0  0  0  0  0  0  0
   13.0695    6.3705   20.0375 N   0  0  0  0  0  0  0  0  0  0  0  0
    9.1913    8.0876   21.8361 N   0  0  0  0  0  0  0  0  0  0  0  0
   10.4739    9.4813   20.2889 C   0  0  0  0  0  0  0  0  0  0  0  0
    7.5551    7.1270   23.1200 O   0  0  0  0  0  0  0  0  0  0  0  0
  1 11  4  0
  1 21  4  0
  2  4  1  0
  2  8  1  0
  2 11  1  0
  3 10  4  0
  3 14  4  0
  4  5  1  0
  4 18  2  0
  6 12  1  0
  6 17  4  0
  6 23  4  0
  7  9  1  0
  7 13  4  0
  7 19  4  0
  9 20  1  0
 10 19  4  0
 11 25  4  0
 13 14  4  0
 15 16  4  0
 15 17  4  0
 15 21  4  0
 16 24  1  0
 16 25  4  0
 20 24  1  0
 20 26  2  0
 21 23  4  0
 22 23  1  0
M  END
$$$$

 Created by Python create_sdf_string function

 26 28  0  0  0  0  0  0  0  0999 V2000
   12.4616    8.6700   19.4180 N   0  0  0  0  0  0  0  0  0  0  0  0
   11.8329   10.8148   18.6769 N   0  0  0  0  0  0  0  0  0  0  0  0
    6.1021    2.5564   21.0678 C   0  0  0  0  0  0  0  0  0  0  0  0
   10.9097   11.8051   18.4804 C   0  0  0  0  0  0  0  0  0  0  0  0
   11.2280   12.9135   17.5669 C   0  0  0  0  0  0  0  0  0  0  0  0
   12.3782    5.4231   20.7777 C   0  0  0  0  0  0  0  0  0  0  0  0
    7.7365    4.6508   21.6987 C   0  0  0  0  0  0  0  0  0  0  0  0
   13.0186   11.0102   18.0020 C   0  0  0  0  0  0  0  0  0  0  0  0
    8.6628    5.7088   21.8871 N   0  0  0  0  0  0  0  0  0  0  0  0
    5.6516    3.5258   21.9140 C   0  0  0  0  0  0  0  0  0  0  0  0
   11.5863    9.6815   19.4539 C   0  0  0  0  0  0  0  0  0  0  0  0
   12.9648    4.1543   20.9205 C   0  0  0  0  0  0  0  0  0  0  0  0
    8.2089    3.6265   20.8929 C   0  0  0  0  0  0  0  0  0  0  0  0
    7.3827    2.5724   20.5432 C   0  0  0  0  0  0  0  0  0  0  0  0
   11.1529    7.2750   20.8025 C   0  0  0  0  0  0  0  0  0  0  0  0
   10.2573    8.3215   20.9827 C   0  0  0  0  0  0  0  0  0  0  0  0
   11.1606    5.9378   21.2366 N   0  0  0  0  0  0  0  0  0  0  0  0
    9.8932   11.6736   19.0677 O   0  0  0  0  0  0  0  0  0  0  0  0
    6.4470    4.5850   22.2321 C   0  0  0  0  0  0  0  0  0  0  0  0
    8.4619    6.9895   22.2968 C   0  0  0  0  0  0  0  0  0  0  0  0
   12.2747    7.5102   20.0420 C   0  0  0  0  0  0  0  0  0  0  0  0
   14.2544    6.2142   19.4191 C   0  0  0  0  0  0  0  0  0  0  0  0
   13.0695    6.3705   20.0375 N   0  0  0  0  0  0  0  0  0  0  0  0
    9.1913    8.0876   21.8361 N   0  0  0  0  0  0  0  0  0  0  0  0
   10.4739    9.4813   20.2889 C   0  0  0  0  0  0  0  0  0  0  0  0
    7.5551    7.1270   23.1200 O   0  0  0  0  0  0  0  0  0  0  0  0
  1 11  4  0
  1 21  4  0
  2  4  1  0
  2  8  1  0
  2 11  1  0
  3 10  4  0
  3 14  4  0
  4  5  1  0
  4 18  2  0
  6 12  1  0
  6 17  4  0
  6 23  4  0
  7  9  1  0
  7 13  4  0
  7 19  4  0
  9 20  1  0
 10 19  4  0
 11 25  4  0
 13 14  4  0
 15 16  4  0
 15 17  4  0
 15 21  4  0
 16 24  1  0
 16 25  4  0
 20 24  1  0
 20 26  2  0
 21 23  4  0
 22 23  1  0
M  END
$$$$

 Created by Python create_sdf_string function

 26 28  0  0  0  0  0  0  0  0999 V2000
   12.4616    8.6700   19.4180 N   0  0  0  0  0  0  0  0  0  0  0  0
   11.8329   10.8148   18.6769 N   0  0  0  0  0  0  0  0  0  0  0  0
    6.1021    2.5564   21.0678 C   0  0  0  0  0  0  0  0  0  0  0  0
   10.9097   11.8051   18.4804 C   0  0  0  0  0  0  0  0  0  0  0  0
   11.2280   12.9135   17.5669 C   0  0  0  0  0  0  0  0  0  0  0  0
   12.3782    5.4231   20.7777 C   0  0  0  0  0  0  0  0  0  0  0  0
    7.7365    4.6508   21.6987 C   0  0  0  0  0  0  0  0  0  0  0  0
   13.0186   11.0102   18.0020 C   0  0  0  0  0  0  0  0  0  0  0  0
    8.6628    5.7088   21.8871 N   0  0  0  0  0  0  0  0  0  0  0  0
    5.6516    3.5258   21.9140 C   0  0  0  0  0  0  0  0  0  0  0  0
   11.5863    9.6815   19.4539 C   0  0  0  0  0  0  0  0  0  0  0  0
   12.9648    4.1543   20.9205 C   0  0  0  0  0  0  0  0  0  0  0  0
    8.2089    3.6265   20.8929 C   0  0  0  0  0  0  0  0  0  0  0  0
    7.3827    2.5724   20.5432 C   0  0  0  0  0  0  0  0  0  0  0  0
   11.1529    7.2750   20.8025 C   0  0  0  0  0  0  0  0  0  0  0  0
   10.2573    8.3215   20.9827 C   0  0  0  0  0  0  0  0  0  0  0  0
   11.1606    5.9378   21.2366 N   0  0  0  0  0  0  0  0  0  0  0  0
    9.8932   11.6736   19.0677 O   0  0  0  0  0  0  0  0  0  0  0  0
    6.4470    4.5850   22.2321 C   0  0  0  0  0  0  0  0  0  0  0  0
    8.4619    6.9895   22.2968 C   0  0  0  0  0  0  0  0  0  0  0  0
   12.2747    7.5102   20.0420 C   0  0  0  0  0  0  0  0  0  0  0  0
   14.2544    6.2142   19.4191 C   0  0  0  0  0  0  0  0  0  0  0  0
   13.0695    6.3705   20.0375 N   0  0  0  0  0  0  0  0  0  0  0  0
    9.1913    8.0876   21.8361 N   0  0  0  0  0  0  0  0  0  0  0  0
   10.4739    9.4813   20.2889 C   0  0  0  0  0  0  0  0  0  0  0  0
    7.5551    7.1270   23.1200 O   0  0  0  0  0  0  0  0  0  0  0  0
  1 11  4  0
  1 21  4  0
  2  4  1  0
  2  8  1  0
  2 11  1  0
  3 10  4  0
  3 14  4  0
  4  5  1  0
  4 18  2  0
  6 12  1  0
  6 17  4  0
  6 23  4  0
  7  9  1  0
  7 13  4  0
  7 19  4  0
  9 20  1  0
 10 19  4  0
 11 25  4  0
 13 14  4  0
 15 16  4  0
 15 17  4  0
 15 21  4  0
 16 24  1  0
 16 25  4  0
 20 24  1  0
 20 26  2  0
 21 23  4  0
 22 23  1  0
M  END
$$$$

 Created by Python create_sdf_string function

 26 28  0  0  0  0  0  0  0  0999 V2000
   12.4616    8.6700   19.4180 N   0  0  0  0  0  0  0  0  0  0  0  0
   11.8329   10.8148   18.6769 N   0  0  0  0  0  0  0  0  0  0  0  0
    6.1021    2.5564   21.0678 C   0  0  0  0  0  0  0  0  0  0  0  0
   10.9097   11.8051   18.4804 C   0  0  0  0  0  0  0  0  0  0  0  0
   11.2280   12.9135   17.5669 C   0  0  0  0  0  0  0  0  0  0  0  0
   12.3782    5.4231   20.7777 C   0  0  0  0  0  0  0  0  0  0  0  0
    7.7365    4.6508   21.6987 C   0  0  0  0  0  0  0  0  0  0  0  0
   13.0186   11.0102   18.0020 C   0  0  0  0  0  0  0  0  0  0  0  0
    8.6628    5.7088   21.8871 N   0  0  0  0  0  0  0  0  0  0  0  0
    5.6516    3.5258   21.9140 C   0  0  0  0  0  0  0  0  0  0  0  0
   11.5863    9.6815   19.4539 C   0  0  0  0  0  0  0  0  0  0  0  0
   12.9648    4.1543   20.9205 C   0  0  0  0  0  0  0  0  0  0  0  0
    8.2089    3.6265   20.8929 C   0  0  0  0  0  0  0  0  0  0  0  0
    7.3827    2.5724   20.5432 C   0  0  0  0  0  0  0  0  0  0  0  0
   11.1529    7.2750   20.8025 C   0  0  0  0  0  0  0  0  0  0  0  0
   10.2573    8.3215   20.9827 C   0  0  0  0  0  0  0  0  0  0  0  0
   11.1606    5.9378   21.2366 N   0  0  0  0  0  0  0  0  0  0  0  0
    9.8932   11.6736   19.0677 O   0  0  0  0  0  0  0  0  0  0  0  0
    6.4470    4.5850   22.2321 C   0  0  0  0  0  0  0  0  0  0  0  0
    8.4619    6.9895   22.2968 C   0  0  0  0  0  0  0  0  0  0  0  0
   12.2747    7.5102   20.0420 C   0  0  0  0  0  0  0  0  0  0  0  0
   14.2544    6.2142   19.4191 C   0  0  0  0  0  0  0  0  0  0  0  0
   13.0695    6.3705   20.0375 N   0  0  0  0  0  0  0  0  0  0  0  0
    9.1913    8.0876   21.8361 N   0  0  0  0  0  0  0  0  0  0  0  0
   10.4739    9.4813   20.2889 C   0  0  0  0  0  0  0  0  0  0  0  0
    7.5551    7.1270   23.1200 O   0  0  0  0  0  0  0  0  0  0  0  0
  1 11  4  0
  1 21  4  0
  2  4  1  0
  2  8  1  0
  2 11  1  0
  3 10  4  0
  3 14  4  0
  4  5  1  0
  4 18  2  0
  6 12  1  0
  6 17  4  0
  6 23  4  0
  7  9  1  0
  7 13  4  0
  7 19  4  0
  9 20  1  0
 10 19  4  0
 11 25  4  0
 13 14  4  0
 15 16  4  0
 15 17  4  0
 15 21  4  0
 16 24  1  0
 16 25  4  0
 20 24  1  0
 20 26  2  0
 21 23  4  0
 22 23  1  0
M  END
$$$$

 Created by Python create_sdf_string function

 26 28  0  0  0  0  0  0  0  0999 V2000
   12.4616    8.6700   19.4180 N   0  0  0  0  0  0  0  0  0  0  0  0
   11.8329   10.8148   18.6769 N   0  0  0  0  0  0  0  0  0  0  0  0
    6.1021    2.5564   21.0678 C   0  0  0  0  0  0  0  0  0  0  0  0
   10.9097   11.8051   18.4804 C   0  0  0  0  0  0  0  0  0  0  0  0
   11.2280   12.9135   17.5669 C   0  0  0  0  0  0  0  0  0  0  0  0
   12.3782    5.4231   20.7777 C   0  0  0  0  0  0  0  0  0  0  0  0
    7.7365    4.6508   21.6987 C   0  0  0  0  0  0  0  0  0  0  0  0
   13.0186   11.0102   18.0020 C   0  0  0  0  0  0  0  0  0  0  0  0
    8.6628    5.7088   21.8871 N   0  0  0  0  0  0  0  0  0  0  0  0
    5.6516    3.5258   21.9140 C   0  0  0  0  0  0  0  0  0  0  0  0
   11.5863    9.6815   19.4539 C   0  0  0  0  0  0  0  0  0  0  0  0
   12.9648    4.1543   20.9205 C   0  0  0  0  0  0  0  0  0  0  0  0
    8.2089    3.6265   20.8929 C   0  0  0  0  0  0  0  0  0  0  0  0
    7.3827    2.5724   20.5432 C   0  0  0  0  0  0  0  0  0  0  0  0
   11.1529    7.2750   20.8025 C   0  0  0  0  0  0  0  0  0  0  0  0
   10.2573    8.3215   20.9827 C   0  0  0  0  0  0  0  0  0  0  0  0
   11.1606    5.9378   21.2366 N   0  0  0  0  0  0  0  0  0  0  0  0
    9.8932   11.6736   19.0677 O   0  0  0  0  0  0  0  0  0  0  0  0
    6.4470    4.5850   22.2321 C   0  0  0  0  0  0  0  0  0  0  0  0
    8.4619    6.9895   22.2968 C   0  0  0  0  0  0  0  0  0  0  0  0
   12.2747    7.5102   20.0420 C   0  0  0  0  0  0  0  0  0  0  0  0
   14.2544    6.2142   19.4191 C   0  0  0  0  0  0  0  0  0  0  0  0
   13.0695    6.3705   20.0375 N   0  0  0  0  0  0  0  0  0  0  0  0
    9.1913    8.0876   21.8361 N   0  0  0  0  0  0  0  0  0  0  0  0
   10.4739    9.4813   20.2889 C   0  0  0  0  0  0  0  0  0  0  0  0
    7.5551    7.1270   23.1200 O   0  0  0  0  0  0  0  0  0  0  0  0
  1 11  4  0
  1 21  4  0
  2  4  1  0
  2  8  1  0
  2 11  1  0
  3 10  4  0
  3 14  4  0
  4  5  1  0
  4 18  2  0
  6 12  1  0
  6 17  4  0
  6 23  4  0
  7  9  1  0
  7 13  4  0
  7 19  4  0
  9 20  1  0
 10 19  4  0
 11 25  4  0
 13 14  4  0
 15 16  4  0
 15 17  4  0
 15 21  4  0
 16 24  1  0
 16 25  4  0
 20 24  1  0
 20 26  2  0
 21 23  4  0
 22 23  1  0
M  END
$$$$

 Created by Python create_sdf_string function

 26 28  0  0  0  0  0  0  0  0999 V2000
   12.4616    8.6700   19.4180 N   0  0  0  0  0  0  0  0  0  0  0  0
   11.8329   10.8148   18.6769 N   0  0  0  0  0  0  0  0  0  0  0  0
    6.1021    2.5564   21.0678 C   0  0  0  0  0  0  0  0  0  0  0  0
   10.9097   11.8051   18.4804 C   0  0  0  0  0  0  0  0  0  0  0  0
   11.2280   12.9135   17.5669 C   0  0  0  0  0  0  0  0  0  0  0  0
   12.3782    5.4231   20.7777 C   0  0  0  0  0  0  0  0  0  0  0  0
    7.7365    4.6508   21.6987 C   0  0  0  0  0  0  0  0  0  0  0  0
   13.0186   11.0102   18.0020 C   0  0  0  0  0  0  0  0  0  0  0  0
    8.6628    5.7088   21.8871 N   0  0  0  0  0  0  0  0  0  0  0  0
    5.6516    3.5258   21.9140 C   0  0  0  0  0  0  0  0  0  0  0  0
   11.5863    9.6815   19.4539 C   0  0  0  0  0  0  0  0  0  0  0  0
   12.9648    4.1543   20.9205 C   0  0  0  0  0  0  0  0  0  0  0  0
    8.2089    3.6265   20.8929 C   0  0  0  0  0  0  0  0  0  0  0  0
    7.3827    2.5724   20.5432 C   0  0  0  0  0  0  0  0  0  0  0  0
   11.1529    7.2750   20.8025 C   0  0  0  0  0  0  0  0  0  0  0  0
   10.2573    8.3215   20.9827 C   0  0  0  0  0  0  0  0  0  0  0  0
   11.1606    5.9378   21.2366 N   0  0  0  0  0  0  0  0  0  0  0  0
    9.8932   11.6736   19.0677 O   0  0  0  0  0  0  0  0  0  0  0  0
    6.4470    4.5850   22.2321 C   0  0  0  0  0  0  0  0  0  0  0  0
    8.4619    6.9895   22.2968 C   0  0  0  0  0  0  0  0  0  0  0  0
   12.2747    7.5102   20.0420 C   0  0  0  0  0  0  0  0  0  0  0  0
   14.2544    6.2142   19.4191 C   0  0  0  0  0  0  0  0  0  0  0  0
   13.0695    6.3705   20.0375 N   0  0  0  0  0  0  0  0  0  0  0  0
    9.1913    8.0876   21.8361 N   0  0  0  0  0  0  0  0  0  0  0  0
   10.4739    9.4813   20.2889 C   0  0  0  0  0  0  0  0  0  0  0  0
    7.5551    7.1270   23.1200 O   0  0  0  0  0  0  0  0  0  0  0  0
  1 11  4  0
  1 21  4  0
  2  4  1  0
  2  8  1  0
  2 11  1  0
  3 10  4  0
  3 14  4  0
  4  5  1  0
  4 18  2  0
  6 12  1  0
  6 17  4  0
  6 23  4  0
  7  9  1  0
  7 13  4  0
  7 19  4  0
  9 20  1  0
 10 19  4  0
 11 25  4  0
 13 14  4  0
 15 16  4  0
 15 17  4  0
 15 21  4  0
 16 24  1  0
 16 25  4  0
 20 24  1  0
 20 26  2  0
 21 23  4  0
 22 23  1  0
M  END
$$$$

 Created by Python create_sdf_string function

 26 28  0  0  0  0  0  0  0  0999 V2000
   12.4616    8.6700   19.4180 N   0  0  0  0  0  0  0  0  0  0  0  0
   11.8329   10.8148   18.6769 N   0  0  0  0  0  0  0  0  0  0  0  0
    6.1021    2.5564   21.0678 C   0  0  0  0  0  0  0  0  0  0  0  0
   10.9097   11.8051   18.4804 C   0  0  0  0  0  0  0  0  0  0  0  0
   11.2280   12.9135   17.5669 C   0  0  0  0  0  0  0  0  0  0  0  0
   12.3782    5.4231   20.7777 C   0  0  0  0  0  0  0  0  0  0  0  0
    7.7365    4.6508   21.6987 C   0  0  0  0  0  0  0  0  0  0  0  0
   13.0186   11.0102   18.0020 C   0  0  0  0  0  0  0  0  0  0  0  0
    8.6628    5.7088   21.8871 N   0  0  0  0  0  0  0  0  0  0  0  0
    5.6516    3.5258   21.9140 C   0  0  0  0  0  0  0  0  0  0  0  0
   11.5863    9.6815   19.4539 C   0  0  0  0  0  0  0  0  0  0  0  0
   12.9648    4.1543   20.9205 C   0  0  0  0  0  0  0  0  0  0  0  0
    8.2089    3.6265   20.8929 C   0  0  0  0  0  0  0  0  0  0  0  0
    7.3827    2.5724   20.5432 C   0  0  0  0  0  0  0  0  0  0  0  0
   11.1529    7.2750   20.8025 C   0  0  0  0  0  0  0  0  0  0  0  0
   10.2573    8.3215   20.9827 C   0  0  0  0  0  0  0  0  0  0  0  0
   11.1606    5.9378   21.2366 N   0  0  0  0  0  0  0  0  0  0  0  0
    9.8932   11.6736   19.0677 O   0  0  0  0  0  0  0  0  0  0  0  0
    6.4470    4.5850   22.2321 C   0  0  0  0  0  0  0  0  0  0  0  0
    8.4619    6.9895   22.2968 C   0  0  0  0  0  0  0  0  0  0  0  0
   12.2747    7.5102   20.0420 C   0  0  0  0  0  0  0  0  0  0  0  0
   14.2544    6.2142   19.4191 C   0  0  0  0  0  0  0  0  0  0  0  0
   13.0695    6.3705   20.0375 N   0  0  0  0  0  0  0  0  0  0  0  0
    9.1913    8.0876   21.8361 N   0  0  0  0  0  0  0  0  0  0  0  0
   10.4739    9.4813   20.2889 C   0  0  0  0  0  0  0  0  0  0  0  0
    7.5551    7.1270   23.1200 O   0  0  0  0  0  0  0  0  0  0  0  0
  1 11  4  0
  1 21  4  0
  2  4  1  0
  2  8  1  0
  2 11  1  0
  3 10  4  0
  3 14  4  0
  4  5  1  0
  4 18  2  0
  6 12  1  0
  6 17  4  0
  6 23  4  0
  7  9  1  0
  7 13  4  0
  7 19  4  0
  9 20  1  0
 10 19  4  0
 11 25  4  0
 13 14  4  0
 15 16  4  0
 15 17  4  0
 15 21  4  0
 16 24  1  0
 16 25  4  0
 20 24  1  0
 20 26  2  0
 21 23  4  0
 22 23  1  0
M  END
$$$$

 Created by Python create_sdf_string function

 26 28  0  0  0  0  0  0  0  0999 V2000
   12.4616    8.6700   19.4180 N   0  0  0  0  0  0  0  0  0  0  0  0
   11.8329   10.8148   18.6769 N   0  0  0  0  0  0  0  0  0  0  0  0
    6.1021    2.5564   21.0678 C   0  0  0  0  0  0  0  0  0  0  0  0
   10.9097   11.8051   18.4804 C   0  0  0  0  0  0  0  0  0  0  0  0
   11.2280   12.9135   17.5669 C   0  0  0  0  0  0  0  0  0  0  0  0
   12.3782    5.4231   20.7777 C   0  0  0  0  0  0  0  0  0  0  0  0
    7.7365    4.6508   21.6987 C   0  0  0  0  0  0  0  0  0  0  0  0
   13.0186   11.0102   18.0020 C   0  0  0  0  0  0  0  0  0  0  0  0
    8.6628    5.7088   21.8871 N   0  0  0  0  0  0  0  0  0  0  0  0
    5.6516    3.5258   21.9140 C   0  0  0  0  0  0  0  0  0  0  0  0
   11.5863    9.6815   19.4539 C   0  0  0  0  0  0  0  0  0  0  0  0
   12.9648    4.1543   20.9205 C   0  0  0  0  0  0  0  0  0  0  0  0
    8.2089    3.6265   20.8929 C   0  0  0  0  0  0  0  0  0  0  0  0
    7.3827    2.5724   20.5432 C   0  0  0  0  0  0  0  0  0  0  0  0
   11.1529    7.2750   20.8025 C   0  0  0  0  0  0  0  0  0  0  0  0
   10.2573    8.3215   20.9827 C   0  0  0  0  0  0  0  0  0  0  0  0
   11.1606    5.9378   21.2366 N   0  0  0  0  0  0  0  0  0  0  0  0
    9.8932   11.6736   19.0677 O   0  0  0  0  0  0  0  0  0  0  0  0
    6.4470    4.5850   22.2321 C   0  0  0  0  0  0  0  0  0  0  0  0
    8.4619    6.9895   22.2968 C   0  0  0  0  0  0  0  0  0  0  0  0
   12.2747    7.5102   20.0420 C   0  0  0  0  0  0  0  0  0  0  0  0
   14.2544    6.2142   19.4191 C   0  0  0  0  0  0  0  0  0  0  0  0
   13.0695    6.3705   20.0375 N   0  0  0  0  0  0  0  0  0  0  0  0
    9.1913    8.0876   21.8361 N   0  0  0  0  0  0  0  0  0  0  0  0
   10.4739    9.4813   20.2889 C   0  0  0  0  0  0  0  0  0  0  0  0
    7.5551    7.1270   23.1200 O   0  0  0  0  0  0  0  0  0  0  0  0
  1 11  4  0
  1 21  4  0
  2  4  1  0
  2  8  1  0
  2 11  1  0
  3 10  4  0
  3 14  4  0
  4  5  1  0
  4 18  2  0
  6 12  1  0
  6 17  4  0
  6 23  4  0
  7  9  1  0
  7 13  4  0
  7 19  4  0
  9 20  1  0
 10 19  4  0
 11 25  4  0
 13 14  4  0
 15 16  4  0
 15 17  4  0
 15 21  4  0
 16 24  1  0
 16 25  4  0
 20 24  1  0
 20 26  2  0
 21 23  4  0
 22 23  1  0
M  END
$$$$

 Created by Python create_sdf_string function

 26 28  0  0  0  0  0  0  0  0999 V2000
   12.4616    8.6700   19.4180 N   0  0  0  0  0  0  0  0  0  0  0  0
   11.8329   10.8148   18.6769 N   0  0  0  0  0  0  0  0  0  0  0  0
    6.1021    2.5564   21.0678 C   0  0  0  0  0  0  0  0  0  0  0  0
   10.9097   11.8051   18.4804 C   0  0  0  0  0  0  0  0  0  0  0  0
   11.2280   12.9135   17.5669 C   0  0  0  0  0  0  0  0  0  0  0  0
   12.3782    5.4231   20.7777 C   0  0  0  0  0  0  0  0  0  0  0  0
    7.7365    4.6508   21.6987 C   0  0  0  0  0  0  0  0  0  0  0  0
   13.0186   11.0102   18.0020 C   0  0  0  0  0  0  0  0  0  0  0  0
    8.6628    5.7088   21.8871 N   0  0  0  0  0  0  0  0  0  0  0  0
    5.6516    3.5258   21.9140 C   0  0  0  0  0  0  0  0  0  0  0  0
   11.5863    9.6815   19.4539 C   0  0  0  0  0  0  0  0  0  0  0  0
   12.9648    4.1543   20.9205 C   0  0  0  0  0  0  0  0  0  0  0  0
    8.2089    3.6265   20.8929 C   0  0  0  0  0  0  0  0  0  0  0  0
    7.3827    2.5724   20.5432 C   0  0  0  0  0  0  0  0  0  0  0  0
   11.1529    7.2750   20.8025 C   0  0  0  0  0  0  0  0  0  0  0  0
   10.2573    8.3215   20.9827 C   0  0  0  0  0  0  0  0  0  0  0  0
   11.1606    5.9378   21.2366 N   0  0  0  0  0  0  0  0  0  0  0  0
    9.8932   11.6736   19.0677 O   0  0  0  0  0  0  0  0  0  0  0  0
    6.4470    4.5850   22.2321 C   0  0  0  0  0  0  0  0  0  0  0  0
    8.4619    6.9895   22.2968 C   0  0  0  0  0  0  0  0  0  0  0  0
   12.2747    7.5102   20.0420 C   0  0  0  0  0  0  0  0  0  0  0  0
   14.2544    6.2142   19.4191 C   0  0  0  0  0  0  0  0  0  0  0  0
   13.0695    6.3705   20.0375 N   0  0  0  0  0  0  0  0  0  0  0  0
    9.1913    8.0876   21.8361 N   0  0  0  0  0  0  0  0  0  0  0  0
   10.4739    9.4813   20.2889 C   0  0  0  0  0  0  0  0  0  0  0  0
    7.5551    7.1270   23.1200 O   0  0  0  0  0  0  0  0  0  0  0  0
  1 11  4  0
  1 21  4  0
  2  4  1  0
  2  8  1  0
  2 11  1  0
  3 10  4  0
  3 14  4  0
  4  5  1  0
  4 18  2  0
  6 12  1  0
  6 17  4  0
  6 23  4  0
  7  9  1  0
  7 13  4  0
  7 19  4  0
  9 20  1  0
 10 19  4  0
 11 25  4  0
 13 14  4  0
 15 16  4  0
 15 17  4  0
 15 21  4  0
 16 24  1  0
 16 25  4  0
 20 24  1  0
 20 26  2  0
 21 23  4  0
 22 23  1  0
M  END
$$$$

 Created by Python create_sdf_string function

 26 28  0  0  0  0  0  0  0  0999 V2000
   12.4616    8.6700   19.4180 N   0  0  0  0  0  0  0  0  0  0  0  0
   11.8329   10.8148   18.6769 N   0  0  0  0  0  0  0  0  0  0  0  0
    6.1021    2.5564   21.0678 C   0  0  0  0  0  0  0  0  0  0  0  0
   10.9097   11.8051   18.4804 C   0  0  0  0  0  0  0  0  0  0  0  0
   11.2280   12.9135   17.5669 C   0  0  0  0  0  0  0  0  0  0  0  0
   12.3782    5.4231   20.7777 C   0  0  0  0  0  0  0  0  0  0  0  0
    7.7365    4.6508   21.6987 C   0  0  0  0  0  0  0  0  0  0  0  0
   13.0186   11.0102   18.0020 C   0  0  0  0  0  0  0  0  0  0  0  0
    8.6628    5.7088   21.8871 N   0  0  0  0  0  0  0  0  0  0  0  0
    5.6516    3.5258   21.9140 C   0  0  0  0  0  0  0  0  0  0  0  0
   11.5863    9.6815   19.4539 C   0  0  0  0  0  0  0  0  0  0  0  0
   12.9648    4.1543   20.9205 C   0  0  0  0  0  0  0  0  0  0  0  0
    8.2089    3.6265   20.8929 C   0  0  0  0  0  0  0  0  0  0  0  0
    7.3827    2.5724   20.5432 C   0  0  0  0  0  0  0  0  0  0  0  0
   11.1529    7.2750   20.8025 C   0  0  0  0  0  0  0  0  0  0  0  0
   10.2573    8.3215   20.9827 C   0  0  0  0  0  0  0  0  0  0  0  0
   11.1606    5.9378   21.2366 N   0  0  0  0  0  0  0  0  0  0  0  0
    9.8932   11.6736   19.0677 O   0  0  0  0  0  0  0  0  0  0  0  0
    6.4470    4.5850   22.2321 C   0  0  0  0  0  0  0  0  0  0  0  0
    8.4619    6.9895   22.2968 C   0  0  0  0  0  0  0  0  0  0  0  0
   12.2747    7.5102   20.0420 C   0  0  0  0  0  0  0  0  0  0  0  0
   14.2544    6.2142   19.4191 C   0  0  0  0  0  0  0  0  0  0  0  0
   13.0695    6.3705   20.0375 N   0  0  0  0  0  0  0  0  0  0  0  0
    9.1913    8.0876   21.8361 N   0  0  0  0  0  0  0  0  0  0  0  0
   10.4739    9.4813   20.2889 C   0  0  0  0  0  0  0  0  0  0  0  0
    7.5551    7.1270   23.1200 O   0  0  0  0  0  0  0  0  0  0  0  0
  1 11  4  0
  1 21  4  0
  2  4  1  0
  2  8  1  0
  2 11  1  0
  3 10  4  0
  3 14  4  0
  4  5  1  0
  4 18  2  0
  6 12  1  0
  6 17  4  0
  6 23  4  0
  7  9  1  0
  7 13  4  0
  7 19  4  0
  9 20  1  0
 10 19  4  0
 11 25  4  0
 13 14  4  0
 15 16  4  0
 15 17  4  0
 15 21  4  0
 16 24  1  0
 16 25  4  0
 20 24  1  0
 20 26  2  0
 21 23  4  0
 22 23  1  0
M  END
$$$$

 Created by Python create_sdf_string function

 26 28  0  0  0  0  0  0  0  0999 V2000
   12.4616    8.6700   19.4180 N   0  0  0  0  0  0  0  0  0  0  0  0
   11.8329   10.8148   18.6769 N   0  0  0  0  0  0  0  0  0  0  0  0
    6.1021    2.5564   21.0678 C   0  0  0  0  0  0  0  0  0  0  0  0
   10.9097   11.8051   18.4804 C   0  0  0  0  0  0  0  0  0  0  0  0
   11.2280   12.9135   17.5669 C   0  0  0  0  0  0  0  0  0  0  0  0
   12.3782    5.4231   20.7777 C   0  0  0  0  0  0  0  0  0  0  0  0
    7.7365    4.6508   21.6987 C   0  0  0  0  0  0  0  0  0  0  0  0
   13.0186   11.0102   18.0020 C   0  0  0  0  0  0  0  0  0  0  0  0
    8.6628    5.7088   21.8871 N   0  0  0  0  0  0  0  0  0  0  0  0
    5.6516    3.5258   21.9140 C   0  0  0  0  0  0  0  0  0  0  0  0
   11.5863    9.6815   19.4539 C   0  0  0  0  0  0  0  0  0  0  0  0
   12.9648    4.1543   20.9205 C   0  0  0  0  0  0  0  0  0  0  0  0
    8.2089    3.6265   20.8929 C   0  0  0  0  0  0  0  0  0  0  0  0
    7.3827    2.5724   20.5432 C   0  0  0  0  0  0  0  0  0  0  0  0
   11.1529    7.2750   20.8025 C   0  0  0  0  0  0  0  0  0  0  0  0
   10.2573    8.3215   20.9827 C   0  0  0  0  0  0  0  0  0  0  0  0
   11.1606    5.9378   21.2366 N   0  0  0  0  0  0  0  0  0  0  0  0
    9.8932   11.6736   19.0677 O   0  0  0  0  0  0  0  0  0  0  0  0
    6.4470    4.5850   22.2321 C   0  0  0  0  0  0  0  0  0  0  0  0
    8.4619    6.9895   22.2968 C   0  0  0  0  0  0  0  0  0  0  0  0
   12.2747    7.5102   20.0420 C   0  0  0  0  0  0  0  0  0  0  0  0
   14.2544    6.2142   19.4191 C   0  0  0  0  0  0  0  0  0  0  0  0
   13.0695    6.3705   20.0375 N   0  0  0  0  0  0  0  0  0  0  0  0
    9.1913    8.0876   21.8361 N   0  0  0  0  0  0  0  0  0  0  0  0
   10.4739    9.4813   20.2889 C   0  0  0  0  0  0  0  0  0  0  0  0
    7.5551    7.1270   23.1200 O   0  0  0  0  0  0  0  0  0  0  0  0
  1 11  4  0
  1 21  4  0
  2  4  1  0
  2  8  1  0
  2 11  1  0
  3 10  4  0
  3 14  4  0
  4  5  1  0
  4 18  2  0
  6 12  1  0
  6 17  4  0
  6 23  4  0
  7  9  1  0
  7 13  4  0
  7 19  4  0
  9 20  1  0
 10 19  4  0
 11 25  4  0
 13 14  4  0
 15 16  4  0
 15 17  4  0
 15 21  4  0
 16 24  1  0
 16 25  4  0
 20 24  1  0
 20 26  2  0
 21 23  4  0
 22 23  1  0
M  END
$$$$

 Created by Python create_sdf_string function

 26 28  0  0  0  0  0  0  0  0999 V2000
   12.4616    8.6700   19.4180 N   0  0  0  0  0  0  0  0  0  0  0  0
   11.8329   10.8148   18.6769 N   0  0  0  0  0  0  0  0  0  0  0  0
    6.1021    2.5564   21.0678 C   0  0  0  0  0  0  0  0  0  0  0  0
   10.9097   11.8051   18.4804 C   0  0  0  0  0  0  0  0  0  0  0  0
   11.2280   12.9135   17.5669 C   0  0  0  0  0  0  0  0  0  0  0  0
   12.3782    5.4231   20.7777 C   0  0  0  0  0  0  0  0  0  0  0  0
    7.7365    4.6508   21.6987 C   0  0  0  0  0  0  0  0  0  0  0  0
   13.0186   11.0102   18.0020 C   0  0  0  0  0  0  0  0  0  0  0  0
    8.6628    5.7088   21.8871 N   0  0  0  0  0  0  0  0  0  0  0  0
    5.6516    3.5258   21.9140 C   0  0  0  0  0  0  0  0  0  0  0  0
   11.5863    9.6815   19.4539 C   0  0  0  0  0  0  0  0  0  0  0  0
   12.9648    4.1543   20.9205 C   0  0  0  0  0  0  0  0  0  0  0  0
    8.2089    3.6265   20.8929 C   0  0  0  0  0  0  0  0  0  0  0  0
    7.3827    2.5724   20.5432 C   0  0  0  0  0  0  0  0  0  0  0  0
   11.1529    7.2750   20.8025 C   0  0  0  0  0  0  0  0  0  0  0  0
   10.2573    8.3215   20.9827 C   0  0  0  0  0  0  0  0  0  0  0  0
   11.1606    5.9378   21.2366 N   0  0  0  0  0  0  0  0  0  0  0  0
    9.8932   11.6736   19.0677 O   0  0  0  0  0  0  0  0  0  0  0  0
    6.4470    4.5850   22.2321 C   0  0  0  0  0  0  0  0  0  0  0  0
    8.4619    6.9895   22.2968 C   0  0  0  0  0  0  0  0  0  0  0  0
   12.2747    7.5102   20.0420 C   0  0  0  0  0  0  0  0  0  0  0  0
   14.2544    6.2142   19.4191 C   0  0  0  0  0  0  0  0  0  0  0  0
   13.0695    6.3705   20.0375 N   0  0  0  0  0  0  0  0  0  0  0  0
    9.1913    8.0876   21.8361 N   0  0  0  0  0  0  0  0  0  0  0  0
   10.4739    9.4813   20.2889 C   0  0  0  0  0  0  0  0  0  0  0  0
    7.5551    7.1270   23.1200 O   0  0  0  0  0  0  0  0  0  0  0  0
  1 11  4  0
  1 21  4  0
  2  4  1  0
  2  8  1  0
  2 11  1  0
  3 10  4  0
  3 14  4  0
  4  5  1  0
  4 18  2  0
  6 12  1  0
  6 17  4  0
  6 23  4  0
  7  9  1  0
  7 13  4  0
  7 19  4  0
  9 20  1  0
 10 19  4  0
 11 25  4  0
 13 14  4  0
 15 16  4  0
 15 17  4  0
 15 21  4  0
 16 24  1  0
 16 25  4  0
 20 24  1  0
 20 26  2  0
 21 23  4  0
 22 23  1  0
M  END
$$$$

 Created by Python create_sdf_string function

 26 28  0  0  0  0  0  0  0  0999 V2000
   12.4616    8.6700   19.4180 N   0  0  0  0  0  0  0  0  0  0  0  0
   11.8329   10.8148   18.6769 N   0  0  0  0  0  0  0  0  0  0  0  0
    6.1021    2.5564   21.0678 C   0  0  0  0  0  0  0  0  0  0  0  0
   10.9097   11.8051   18.4804 C   0  0  0  0  0  0  0  0  0  0  0  0
   11.2280   12.9135   17.5669 C   0  0  0  0  0  0  0  0  0  0  0  0
   12.3782    5.4231   20.7777 C   0  0  0  0  0  0  0  0  0  0  0  0
    7.7365    4.6508   21.6987 C   0  0  0  0  0  0  0  0  0  0  0  0
   13.0186   11.0102   18.0020 C   0  0  0  0  0  0  0  0  0  0  0  0
    8.6628    5.7088   21.8871 N   0  0  0  0  0  0  0  0  0  0  0  0
    5.6516    3.5258   21.9140 C   0  0  0  0  0  0  0  0  0  0  0  0
   11.5863    9.6815   19.4539 C   0  0  0  0  0  0  0  0  0  0  0  0
   12.9648    4.1543   20.9205 C   0  0  0  0  0  0  0  0  0  0  0  0
    8.2089    3.6265   20.8929 C   0  0  0  0  0  0  0  0  0  0  0  0
    7.3827    2.5724   20.5432 C   0  0  0  0  0  0  0  0  0  0  0  0
   11.1529    7.2750   20.8025 C   0  0  0  0  0  0  0  0  0  0  0  0
   10.2573    8.3215   20.9827 C   0  0  0  0  0  0  0  0  0  0  0  0
   11.1606    5.9378   21.2366 N   0  0  0  0  0  0  0  0  0  0  0  0
    9.8932   11.6736   19.0677 O   0  0  0  0  0  0  0  0  0  0  0  0
    6.4470    4.5850   22.2321 C   0  0  0  0  0  0  0  0  0  0  0  0
    8.4619    6.9895   22.2968 C   0  0  0  0  0  0  0  0  0  0  0  0
   12.2747    7.5102   20.0420 C   0  0  0  0  0  0  0  0  0  0  0  0
   14.2544    6.2142   19.4191 C   0  0  0  0  0  0  0  0  0  0  0  0
   13.0695    6.3705   20.0375 N   0  0  0  0  0  0  0  0  0  0  0  0
    9.1913    8.0876   21.8361 N   0  0  0  0  0  0  0  0  0  0  0  0
   10.4739    9.4813   20.2889 C   0  0  0  0  0  0  0  0  0  0  0  0
    7.5551    7.1270   23.1200 O   0  0  0  0  0  0  0  0  0  0  0  0
  1 11  4  0
  1 21  4  0
  2  4  1  0
  2  8  1  0
  2 11  1  0
  3 10  4  0
  3 14  4  0
  4  5  1  0
  4 18  2  0
  6 12  1  0
  6 17  4  0
  6 23  4  0
  7  9  1  0
  7 13  4  0
  7 19  4  0
  9 20  1  0
 10 19  4  0
 11 25  4  0
 13 14  4  0
 15 16  4  0
 15 17  4  0
 15 21  4  0
 16 24  1  0
 16 25  4  0
 20 24  1  0
 20 26  2  0
 21 23  4  0
 22 23  1  0
M  END
$$$$

 Created by Python create_sdf_string function

 26 28  0  0  0  0  0  0  0  0999 V2000
   12.4616    8.6700   19.4180 N   0  0  0  0  0  0  0  0  0  0  0  0
   11.8329   10.8148   18.6769 N   0  0  0  0  0  0  0  0  0  0  0  0
    6.1021    2.5564   21.0678 C   0  0  0  0  0  0  0  0  0  0  0  0
   10.9097   11.8051   18.4804 C   0  0  0  0  0  0  0  0  0  0  0  0
   11.2280   12.9135   17.5669 C   0  0  0  0  0  0  0  0  0  0  0  0
   12.3782    5.4231   20.7777 C   0  0  0  0  0  0  0  0  0  0  0  0
    7.7365    4.6508   21.6987 C   0  0  0  0  0  0  0  0  0  0  0  0
   13.0186   11.0102   18.0020 C   0  0  0  0  0  0  0  0  0  0  0  0
    8.6628    5.7088   21.8871 N   0  0  0  0  0  0  0  0  0  0  0  0
    5.6516    3.5258   21.9140 C   0  0  0  0  0  0  0  0  0  0  0  0
   11.5863    9.6815   19.4539 C   0  0  0  0  0  0  0  0  0  0  0  0
   12.9648    4.1543   20.9205 C   0  0  0  0  0  0  0  0  0  0  0  0
    8.2089    3.6265   20.8929 C   0  0  0  0  0  0  0  0  0  0  0  0
    7.3827    2.5724   20.5432 C   0  0  0  0  0  0  0  0  0  0  0  0
   11.1529    7.2750   20.8025 C   0  0  0  0  0  0  0  0  0  0  0  0
   10.2573    8.3215   20.9827 C   0  0  0  0  0  0  0  0  0  0  0  0
   11.1606    5.9378   21.2366 N   0  0  0  0  0  0  0  0  0  0  0  0
    9.8932   11.6736   19.0677 O   0  0  0  0  0  0  0  0  0  0  0  0
    6.4470    4.5850   22.2321 C   0  0  0  0  0  0  0  0  0  0  0  0
    8.4619    6.9895   22.2968 C   0  0  0  0  0  0  0  0  0  0  0  0
   12.2747    7.5102   20.0420 C   0  0  0  0  0  0  0  0  0  0  0  0
   14.2544    6.2142   19.4191 C   0  0  0  0  0  0  0  0  0  0  0  0
   13.0695    6.3705   20.0375 N   0  0  0  0  0  0  0  0  0  0  0  0
    9.1913    8.0876   21.8361 N   0  0  0  0  0  0  0  0  0  0  0  0
   10.4739    9.4813   20.2889 C   0  0  0  0  0  0  0  0  0  0  0  0
    7.5551    7.1270   23.1200 O   0  0  0  0  0  0  0  0  0  0  0  0
  1 11  4  0
  1 21  4  0
  2  4  1  0
  2  8  1  0
  2 11  1  0
  3 10  4  0
  3 14  4  0
  4  5  1  0
  4 18  2  0
  6 12  1  0
  6 17  4  0
  6 23  4  0
  7  9  1  0
  7 13  4  0
  7 19  4  0
  9 20  1  0
 10 19  4  0
 11 25  4  0
 13 14  4  0
 15 16  4  0
 15 17  4  0
 15 21  4  0
 16 24  1  0
 16 25  4  0
 20 24  1  0
 20 26  2  0
 21 23  4  0
 22 23  1  0
M  END
$$$$

 Created by Python create_sdf_string function

 26 28  0  0  0  0  0  0  0  0999 V2000
   12.4616    8.6700   19.4180 N   0  0  0  0  0  0  0  0  0  0  0  0
   11.8329   10.8148   18.6769 N   0  0  0  0  0  0  0  0  0  0  0  0
    6.1021    2.5564   21.0678 C   0  0  0  0  0  0  0  0  0  0  0  0
   10.9097   11.8051   18.4804 C   0  0  0  0  0  0  0  0  0  0  0  0
   11.2280   12.9135   17.5669 C   0  0  0  0  0  0  0  0  0  0  0  0
   12.3782    5.4231   20.7777 C   0  0  0  0  0  0  0  0  0  0  0  0
    7.7365    4.6508   21.6987 C   0  0  0  0  0  0  0  0  0  0  0  0
   13.0186   11.0102   18.0020 C   0  0  0  0  0  0  0  0  0  0  0  0
    8.6628    5.7088   21.8871 N   0  0  0  0  0  0  0  0  0  0  0  0
    5.6516    3.5258   21.9140 C   0  0  0  0  0  0  0  0  0  0  0  0
   11.5863    9.6815   19.4539 C   0  0  0  0  0  0  0  0  0  0  0  0
   12.9648    4.1543   20.9205 C   0  0  0  0  0  0  0  0  0  0  0  0
    8.2089    3.6265   20.8929 C   0  0  0  0  0  0  0  0  0  0  0  0
    7.3827    2.5724   20.5432 C   0  0  0  0  0  0  0  0  0  0  0  0
   11.1529    7.2750   20.8025 C   0  0  0  0  0  0  0  0  0  0  0  0
   10.2573    8.3215   20.9827 C   0  0  0  0  0  0  0  0  0  0  0  0
   11.1606    5.9378   21.2366 N   0  0  0  0  0  0  0  0  0  0  0  0
    9.8932   11.6736   19.0677 O   0  0  0  0  0  0  0  0  0  0  0  0
    6.4470    4.5850   22.2321 C   0  0  0  0  0  0  0  0  0  0  0  0
    8.4619    6.9895   22.2968 C   0  0  0  0  0  0  0  0  0  0  0  0
   12.2747    7.5102   20.0420 C   0  0  0  0  0  0  0  0  0  0  0  0
   14.2544    6.2142   19.4191 C   0  0  0  0  0  0  0  0  0  0  0  0
   13.0695    6.3705   20.0375 N   0  0  0  0  0  0  0  0  0  0  0  0
    9.1913    8.0876   21.8361 N   0  0  0  0  0  0  0  0  0  0  0  0
   10.4739    9.4813   20.2889 C   0  0  0  0  0  0  0  0  0  0  0  0
    7.5551    7.1270   23.1200 O   0  0  0  0  0  0  0  0  0  0  0  0
  1 11  4  0
  1 21  4  0
  2  4  1  0
  2  8  1  0
  2 11  1  0
  3 10  4  0
  3 14  4  0
  4  5  1  0
  4 18  2  0
  6 12  1  0
  6 17  4  0
  6 23  4  0
  7  9  1  0
  7 13  4  0
  7 19  4  0
  9 20  1  0
 10 19  4  0
 11 25  4  0
 13 14  4  0
 15 16  4  0
 15 17  4  0
 15 21  4  0
 16 24  1  0
 16 25  4  0
 20 24  1  0
 20 26  2  0
 21 23  4  0
 22 23  1  0
M  END
$$$$

 Created by Python create_sdf_string function

 26 28  0  0  0  0  0  0  0  0999 V2000
   12.4616    8.6700   19.4180 N   0  0  0  0  0  0  0  0  0  0  0  0
   11.8329   10.8148   18.6769 N   0  0  0  0  0  0  0  0  0  0  0  0
    6.1021    2.5564   21.0678 C   0  0  0  0  0  0  0  0  0  0  0  0
   10.9097   11.8051   18.4804 C   0  0  0  0  0  0  0  0  0  0  0  0
   11.2280   12.9135   17.5669 C   0  0  0  0  0  0  0  0  0  0  0  0
   12.3782    5.4231   20.7777 C   0  0  0  0  0  0  0  0  0  0  0  0
    7.7365    4.6508   21.6987 C   0  0  0  0  0  0  0  0  0  0  0  0
   13.0186   11.0102   18.0020 C   0  0  0  0  0  0  0  0  0  0  0  0
    8.6628    5.7088   21.8871 N   0  0  0  0  0  0  0  0  0  0  0  0
    5.6516    3.5258   21.9140 C   0  0  0  0  0  0  0  0  0  0  0  0
   11.5863    9.6815   19.4539 C   0  0  0  0  0  0  0  0  0  0  0  0
   12.9648    4.1543   20.9205 C   0  0  0  0  0  0  0  0  0  0  0  0
    8.2089    3.6265   20.8929 C   0  0  0  0  0  0  0  0  0  0  0  0
    7.3827    2.5724   20.5432 C   0  0  0  0  0  0  0  0  0  0  0  0
   11.1529    7.2750   20.8025 C   0  0  0  0  0  0  0  0  0  0  0  0
   10.2573    8.3215   20.9827 C   0  0  0  0  0  0  0  0  0  0  0  0
   11.1606    5.9378   21.2366 N   0  0  0  0  0  0  0  0  0  0  0  0
    9.8932   11.6736   19.0677 O   0  0  0  0  0  0  0  0  0  0  0  0
    6.4470    4.5850   22.2321 C   0  0  0  0  0  0  0  0  0  0  0  0
    8.4619    6.9895   22.2968 C   0  0  0  0  0  0  0  0  0  0  0  0
   12.2747    7.5102   20.0420 C   0  0  0  0  0  0  0  0  0  0  0  0
   14.2544    6.2142   19.4191 C   0  0  0  0  0  0  0  0  0  0  0  0
   13.0695    6.3705   20.0375 N   0  0  0  0  0  0  0  0  0  0  0  0
    9.1913    8.0876   21.8361 N   0  0  0  0  0  0  0  0  0  0  0  0
   10.4739    9.4813   20.2889 C   0  0  0  0  0  0  0  0  0  0  0  0
    7.5551    7.1270   23.1200 O   0  0  0  0  0  0  0  0  0  0  0  0
  1 11  4  0
  1 21  4  0
  2  4  1  0
  2  8  1  0
  2 11  1  0
  3 10  4  0
  3 14  4  0
  4  5  1  0
  4 18  2  0
  6 12  1  0
  6 17  4  0
  6 23  4  0
  7  9  1  0
  7 13  4  0
  7 19  4  0
  9 20  1  0
 10 19  4  0
 11 25  4  0
 13 14  4  0
 15 16  4  0
 15 17  4  0
 15 21  4  0
 16 24  1  0
 16 25  4  0
 20 24  1  0
 20 26  2  0
 21 23  4  0
 22 23  1  0
M  END
$$$$

 Created by Python create_sdf_string function

 26 28  0  0  0  0  0  0  0  0999 V2000
   12.4616    8.6700   19.4180 N   0  0  0  0  0  0  0  0  0  0  0  0
   11.8329   10.8148   18.6769 N   0  0  0  0  0  0  0  0  0  0  0  0
    6.1021    2.5564   21.0678 C   0  0  0  0  0  0  0  0  0  0  0  0
   10.9097   11.8051   18.4804 C   0  0  0  0  0  0  0  0  0  0  0  0
   11.2280   12.9135   17.5669 C   0  0  0  0  0  0  0  0  0  0  0  0
   12.3782    5.4231   20.7777 C   0  0  0  0  0  0  0  0  0  0  0  0
    7.7365    4.6508   21.6987 C   0  0  0  0  0  0  0  0  0  0  0  0
   13.0186   11.0102   18.0020 C   0  0  0  0  0  0  0  0  0  0  0  0
    8.6628    5.7088   21.8871 N   0  0  0  0  0  0  0  0  0  0  0  0
    5.6516    3.5258   21.9140 C   0  0  0  0  0  0  0  0  0  0  0  0
   11.5863    9.6815   19.4539 C   0  0  0  0  0  0  0  0  0  0  0  0
   12.9648    4.1543   20.9205 C   0  0  0  0  0  0  0  0  0  0  0  0
    8.2089    3.6265   20.8929 C   0  0  0  0  0  0  0  0  0  0  0  0
    7.3827    2.5724   20.5432 C   0  0  0  0  0  0  0  0  0  0  0  0
   11.1529    7.2750   20.8025 C   0  0  0  0  0  0  0  0  0  0  0  0
   10.2573    8.3215   20.9827 C   0  0  0  0  0  0  0  0  0  0  0  0
   11.1606    5.9378   21.2366 N   0  0  0  0  0  0  0  0  0  0  0  0
    9.8932   11.6736   19.0677 O   0  0  0  0  0  0  0  0  0  0  0  0
    6.4470    4.5850   22.2321 C   0  0  0  0  0  0  0  0  0  0  0  0
    8.4619    6.9895   22.2968 C   0  0  0  0  0  0  0  0  0  0  0  0
   12.2747    7.5102   20.0420 C   0  0  0  0  0  0  0  0  0  0  0  0
   14.2544    6.2142   19.4191 C   0  0  0  0  0  0  0  0  0  0  0  0
   13.0695    6.3705   20.0375 N   0  0  0  0  0  0  0  0  0  0  0  0
    9.1913    8.0876   21.8361 N   0  0  0  0  0  0  0  0  0  0  0  0
   10.4739    9.4813   20.2889 C   0  0  0  0  0  0  0  0  0  0  0  0
    7.5551    7.1270   23.1200 O   0  0  0  0  0  0  0  0  0  0  0  0
  1 11  4  0
  1 21  4  0
  2  4  1  0
  2  8  1  0
  2 11  1  0
  3 10  4  0
  3 14  4  0
  4  5  1  0
  4 18  2  0
  6 12  1  0
  6 17  4  0
  6 23  4  0
  7  9  1  0
  7 13  4  0
  7 19  4  0
  9 20  1  0
 10 19  4  0
 11 25  4  0
 13 14  4  0
 15 16  4  0
 15 17  4  0
 15 21  4  0
 16 24  1  0
 16 25  4  0
 20 24  1  0
 20 26  2  0
 21 23  4  0
 22 23  1  0
M  END
$$$$

 Created by Python create_sdf_string function

 26 28  0  0  0  0  0  0  0  0999 V2000
   12.4616    8.6700   19.4180 N   0  0  0  0  0  0  0  0  0  0  0  0
   11.8329   10.8148   18.6769 N   0  0  0  0  0  0  0  0  0  0  0  0
    6.1021    2.5564   21.0678 C   0  0  0  0  0  0  0  0  0  0  0  0
   10.9097   11.8051   18.4804 C   0  0  0  0  0  0  0  0  0  0  0  0
   11.2280   12.9135   17.5669 C   0  0  0  0  0  0  0  0  0  0  0  0
   12.3782    5.4231   20.7777 C   0  0  0  0  0  0  0  0  0  0  0  0
    7.7365    4.6508   21.6987 C   0  0  0  0  0  0  0  0  0  0  0  0
   13.0186   11.0102   18.0020 C   0  0  0  0  0  0  0  0  0  0  0  0
    8.6628    5.7088   21.8871 N   0  0  0  0  0  0  0  0  0  0  0  0
    5.6516    3.5258   21.9140 C   0  0  0  0  0  0  0  0  0  0  0  0
   11.5863    9.6815   19.4539 C   0  0  0  0  0  0  0  0  0  0  0  0
   12.9648    4.1543   20.9205 C   0  0  0  0  0  0  0  0  0  0  0  0
    8.2089    3.6265   20.8929 C   0  0  0  0  0  0  0  0  0  0  0  0
    7.3827    2.5724   20.5432 C   0  0  0  0  0  0  0  0  0  0  0  0
   11.1529    7.2750   20.8025 C   0  0  0  0  0  0  0  0  0  0  0  0
   10.2573    8.3215   20.9827 C   0  0  0  0  0  0  0  0  0  0  0  0
   11.1606    5.9378   21.2366 N   0  0  0  0  0  0  0  0  0  0  0  0
    9.8932   11.6736   19.0677 O   0  0  0  0  0  0  0  0  0  0  0  0
    6.4470    4.5850   22.2321 C   0  0  0  0  0  0  0  0  0  0  0  0
    8.4619    6.9895   22.2968 C   0  0  0  0  0  0  0  0  0  0  0  0
   12.2747    7.5102   20.0420 C   0  0  0  0  0  0  0  0  0  0  0  0
   14.2544    6.2142   19.4191 C   0  0  0  0  0  0  0  0  0  0  0  0
   13.0695    6.3705   20.0375 N   0  0  0  0  0  0  0  0  0  0  0  0
    9.1913    8.0876   21.8361 N   0  0  0  0  0  0  0  0  0  0  0  0
   10.4739    9.4813   20.2889 C   0  0  0  0  0  0  0  0  0  0  0  0
    7.5551    7.1270   23.1200 O   0  0  0  0  0  0  0  0  0  0  0  0
  1 11  4  0
  1 21  4  0
  2  4  1  0
  2  8  1  0
  2 11  1  0
  3 10  4  0
  3 14  4  0
  4  5  1  0
  4 18  2  0
  6 12  1  0
  6 17  4  0
  6 23  4  0
  7  9  1  0
  7 13  4  0
  7 19  4  0
  9 20  1  0
 10 19  4  0
 11 25  4  0
 13 14  4  0
 15 16  4  0
 15 17  4  0
 15 21  4  0
 16 24  1  0
 16 25  4  0
 20 24  1  0
 20 26  2  0
 21 23  4  0
 22 23  1  0
M  END
$$$$

 Created by Python create_sdf_string function

 26 28  0  0  0  0  0  0  0  0999 V2000
   12.4616    8.6700   19.4180 N   0  0  0  0  0  0  0  0  0  0  0  0
   11.8329   10.8148   18.6769 N   0  0  0  0  0  0  0  0  0  0  0  0
    6.1021    2.5564   21.0678 C   0  0  0  0  0  0  0  0  0  0  0  0
   10.9097   11.8051   18.4804 C   0  0  0  0  0  0  0  0  0  0  0  0
   11.2280   12.9135   17.5669 C   0  0  0  0  0  0  0  0  0  0  0  0
   12.3782    5.4231   20.7777 C   0  0  0  0  0  0  0  0  0  0  0  0
    7.7365    4.6508   21.6987 C   0  0  0  0  0  0  0  0  0  0  0  0
   13.0186   11.0102   18.0020 C   0  0  0  0  0  0  0  0  0  0  0  0
    8.6628    5.7088   21.8871 N   0  0  0  0  0  0  0  0  0  0  0  0
    5.6516    3.5258   21.9140 C   0  0  0  0  0  0  0  0  0  0  0  0
   11.5863    9.6815   19.4539 C   0  0  0  0  0  0  0  0  0  0  0  0
   12.9648    4.1543   20.9205 C   0  0  0  0  0  0  0  0  0  0  0  0
    8.2089    3.6265   20.8929 C   0  0  0  0  0  0  0  0  0  0  0  0
    7.3827    2.5724   20.5432 C   0  0  0  0  0  0  0  0  0  0  0  0
   11.1529    7.2750   20.8025 C   0  0  0  0  0  0  0  0  0  0  0  0
   10.2573    8.3215   20.9827 C   0  0  0  0  0  0  0  0  0  0  0  0
   11.1606    5.9378   21.2366 N   0  0  0  0  0  0  0  0  0  0  0  0
    9.8932   11.6736   19.0677 O   0  0  0  0  0  0  0  0  0  0  0  0
    6.4470    4.5850   22.2321 C   0  0  0  0  0  0  0  0  0  0  0  0
    8.4619    6.9895   22.2968 C   0  0  0  0  0  0  0  0  0  0  0  0
   12.2747    7.5102   20.0420 C   0  0  0  0  0  0  0  0  0  0  0  0
   14.2544    6.2142   19.4191 C   0  0  0  0  0  0  0  0  0  0  0  0
   13.0695    6.3705   20.0375 N   0  0  0  0  0  0  0  0  0  0  0  0
    9.1913    8.0876   21.8361 N   0  0  0  0  0  0  0  0  0  0  0  0
   10.4739    9.4813   20.2889 C   0  0  0  0  0  0  0  0  0  0  0  0
    7.5551    7.1270   23.1200 O   0  0  0  0  0  0  0  0  0  0  0  0
  1 11  4  0
  1 21  4  0
  2  4  1  0
  2  8  1  0
  2 11  1  0
  3 10  4  0
  3 14  4  0
  4  5  1  0
  4 18  2  0
  6 12  1  0
  6 17  4  0
  6 23  4  0
  7  9  1  0
  7 13  4  0
  7 19  4  0
  9 20  1  0
 10 19  4  0
 11 25  4  0
 13 14  4  0
 15 16  4  0
 15 17  4  0
 15 21  4  0
 16 24  1  0
 16 25  4  0
 20 24  1  0
 20 26  2  0
 21 23  4  0
 22 23  1  0
M  END
$$$$

 Created by Python create_sdf_string function

 26 28  0  0  0  0  0  0  0  0999 V2000
   12.4616    8.6700   19.4180 N   0  0  0  0  0  0  0  0  0  0  0  0
   11.8329   10.8148   18.6769 N   0  0  0  0  0  0  0  0  0  0  0  0
    6.1021    2.5564   21.0678 C   0  0  0  0  0  0  0  0  0  0  0  0
   10.9097   11.8051   18.4804 C   0  0  0  0  0  0  0  0  0  0  0  0
   11.2280   12.9135   17.5669 C   0  0  0  0  0  0  0  0  0  0  0  0
   12.3782    5.4231   20.7777 C   0  0  0  0  0  0  0  0  0  0  0  0
    7.7365    4.6508   21.6987 C   0  0  0  0  0  0  0  0  0  0  0  0
   13.0186   11.0102   18.0020 C   0  0  0  0  0  0  0  0  0  0  0  0
    8.6628    5.7088   21.8871 N   0  0  0  0  0  0  0  0  0  0  0  0
    5.6516    3.5258   21.9140 C   0  0  0  0  0  0  0  0  0  0  0  0
   11.5863    9.6815   19.4539 C   0  0  0  0  0  0  0  0  0  0  0  0
   12.9648    4.1543   20.9205 C   0  0  0  0  0  0  0  0  0  0  0  0
    8.2089    3.6265   20.8929 C   0  0  0  0  0  0  0  0  0  0  0  0
    7.3827    2.5724   20.5432 C   0  0  0  0  0  0  0  0  0  0  0  0
   11.1529    7.2750   20.8025 C   0  0  0  0  0  0  0  0  0  0  0  0
   10.2573    8.3215   20.9827 C   0  0  0  0  0  0  0  0  0  0  0  0
   11.1606    5.9378   21.2366 N   0  0  0  0  0  0  0  0  0  0  0  0
    9.8932   11.6736   19.0677 O   0  0  0  0  0  0  0  0  0  0  0  0
    6.4470    4.5850   22.2321 C   0  0  0  0  0  0  0  0  0  0  0  0
    8.4619    6.9895   22.2968 C   0  0  0  0  0  0  0  0  0  0  0  0
   12.2747    7.5102   20.0420 C   0  0  0  0  0  0  0  0  0  0  0  0
   14.2544    6.2142   19.4191 C   0  0  0  0  0  0  0  0  0  0  0  0
   13.0695    6.3705   20.0375 N   0  0  0  0  0  0  0  0  0  0  0  0
    9.1913    8.0876   21.8361 N   0  0  0  0  0  0  0  0  0  0  0  0
   10.4739    9.4813   20.2889 C   0  0  0  0  0  0  0  0  0  0  0  0
    7.5551    7.1270   23.1200 O   0  0  0  0  0  0  0  0  0  0  0  0
  1 11  4  0
  1 21  4  0
  2  4  1  0
  2  8  1  0
  2 11  1  0
  3 10  4  0
  3 14  4  0
  4  5  1  0
  4 18  2  0
  6 12  1  0
  6 17  4  0
  6 23  4  0
  7  9  1  0
  7 13  4  0
  7 19  4  0
  9 20  1  0
 10 19  4  0
 11 25  4  0
 13 14  4  0
 15 16  4  0
 15 17  4  0
 15 21  4  0
 16 24  1  0
 16 25  4  0
 20 24  1  0
 20 26  2  0
 21 23  4  0
 22 23  1  0
M  END
$$$$

 Created by Python create_sdf_string function

 26 28  0  0  0  0  0  0  0  0999 V2000
   12.4616    8.6700   19.4180 N   0  0  0  0  0  0  0  0  0  0  0  0
   11.8329   10.8148   18.6769 N   0  0  0  0  0  0  0  0  0  0  0  0
    6.1021    2.5564   21.0678 C   0  0  0  0  0  0  0  0  0  0  0  0
   10.9097   11.8051   18.4804 C   0  0  0  0  0  0  0  0  0  0  0  0
   11.2280   12.9135   17.5669 C   0  0  0  0  0  0  0  0  0  0  0  0
   12.3782    5.4231   20.7777 C   0  0  0  0  0  0  0  0  0  0  0  0
    7.7365    4.6508   21.6987 C   0  0  0  0  0  0  0  0  0  0  0  0
   13.0186   11.0102   18.0020 C   0  0  0  0  0  0  0  0  0  0  0  0
    8.6628    5.7088   21.8871 N   0  0  0  0  0  0  0  0  0  0  0  0
    5.6516    3.5258   21.9140 C   0  0  0  0  0  0  0  0  0  0  0  0
   11.5863    9.6815   19.4539 C   0  0  0  0  0  0  0  0  0  0  0  0
   12.9648    4.1543   20.9205 C   0  0  0  0  0  0  0  0  0  0  0  0
    8.2089    3.6265   20.8929 C   0  0  0  0  0  0  0  0  0  0  0  0
    7.3827    2.5724   20.5432 C   0  0  0  0  0  0  0  0  0  0  0  0
   11.1529    7.2750   20.8025 C   0  0  0  0  0  0  0  0  0  0  0  0
   10.2573    8.3215   20.9827 C   0  0  0  0  0  0  0  0  0  0  0  0
   11.1606    5.9378   21.2366 N   0  0  0  0  0  0  0  0  0  0  0  0
    9.8932   11.6736   19.0677 O   0  0  0  0  0  0  0  0  0  0  0  0
    6.4470    4.5850   22.2321 C   0  0  0  0  0  0  0  0  0  0  0  0
    8.4619    6.9895   22.2968 C   0  0  0  0  0  0  0  0  0  0  0  0
   12.2747    7.5102   20.0420 C   0  0  0  0  0  0  0  0  0  0  0  0
   14.2544    6.2142   19.4191 C   0  0  0  0  0  0  0  0  0  0  0  0
   13.0695    6.3705   20.0375 N   0  0  0  0  0  0  0  0  0  0  0  0
    9.1913    8.0876   21.8361 N   0  0  0  0  0  0  0  0  0  0  0  0
   10.4739    9.4813   20.2889 C   0  0  0  0  0  0  0  0  0  0  0  0
    7.5551    7.1270   23.1200 O   0  0  0  0  0  0  0  0  0  0  0  0
  1 11  4  0
  1 21  4  0
  2  4  1  0
  2  8  1  0
  2 11  1  0
  3 10  4  0
  3 14  4  0
  4  5  1  0
  4 18  2  0
  6 12  1  0
  6 17  4  0
  6 23  4  0
  7  9  1  0
  7 13  4  0
  7 19  4  0
  9 20  1  0
 10 19  4  0
 11 25  4  0
 13 14  4  0
 15 16  4  0
 15 17  4  0
 15 21  4  0
 16 24  1  0
 16 25  4  0
 20 24  1  0
 20 26  2  0
 21 23  4  0
 22 23  1  0
M  END
$$$$

 Created by Python create_sdf_string function

 26 28  0  0  0  0  0  0  0  0999 V2000
   12.4616    8.6700   19.4180 N   0  0  0  0  0  0  0  0  0  0  0  0
   11.8329   10.8148   18.6769 N   0  0  0  0  0  0  0  0  0  0  0  0
    6.1021    2.5564   21.0678 C   0  0  0  0  0  0  0  0  0  0  0  0
   10.9097   11.8051   18.4804 C   0  0  0  0  0  0  0  0  0  0  0  0
   11.2280   12.9135   17.5669 C   0  0  0  0  0  0  0  0  0  0  0  0
   12.3782    5.4231   20.7777 C   0  0  0  0  0  0  0  0  0  0  0  0
    7.7365    4.6508   21.6987 C   0  0  0  0  0  0  0  0  0  0  0  0
   13.0186   11.0102   18.0020 C   0  0  0  0  0  0  0  0  0  0  0  0
    8.6628    5.7088   21.8871 N   0  0  0  0  0  0  0  0  0  0  0  0
    5.6516    3.5258   21.9140 C   0  0  0  0  0  0  0  0  0  0  0  0
   11.5863    9.6815   19.4539 C   0  0  0  0  0  0  0  0  0  0  0  0
   12.9648    4.1543   20.9205 C   0  0  0  0  0  0  0  0  0  0  0  0
    8.2089    3.6265   20.8929 C   0  0  0  0  0  0  0  0  0  0  0  0
    7.3827    2.5724   20.5432 C   0  0  0  0  0  0  0  0  0  0  0  0
   11.1529    7.2750   20.8025 C   0  0  0  0  0  0  0  0  0  0  0  0
   10.2573    8.3215   20.9827 C   0  0  0  0  0  0  0  0  0  0  0  0
   11.1606    5.9378   21.2366 N   0  0  0  0  0  0  0  0  0  0  0  0
    9.8932   11.6736   19.0677 O   0  0  0  0  0  0  0  0  0  0  0  0
    6.4470    4.5850   22.2321 C   0  0  0  0  0  0  0  0  0  0  0  0
    8.4619    6.9895   22.2968 C   0  0  0  0  0  0  0  0  0  0  0  0
   12.2747    7.5102   20.0420 C   0  0  0  0  0  0  0  0  0  0  0  0
   14.2544    6.2142   19.4191 C   0  0  0  0  0  0  0  0  0  0  0  0
   13.0695    6.3705   20.0375 N   0  0  0  0  0  0  0  0  0  0  0  0
    9.1913    8.0876   21.8361 N   0  0  0  0  0  0  0  0  0  0  0  0
   10.4739    9.4813   20.2889 C   0  0  0  0  0  0  0  0  0  0  0  0
    7.5551    7.1270   23.1200 O   0  0  0  0  0  0  0  0  0  0  0  0
  1 11  4  0
  1 21  4  0
  2  4  1  0
  2  8  1  0
  2 11  1  0
  3 10  4  0
  3 14  4  0
  4  5  1  0
  4 18  2  0
  6 12  1  0
  6 17  4  0
  6 23  4  0
  7  9  1  0
  7 13  4  0
  7 19  4  0
  9 20  1  0
 10 19  4  0
 11 25  4  0
 13 14  4  0
 15 16  4  0
 15 17  4  0
 15 21  4  0
 16 24  1  0
 16 25  4  0
 20 24  1  0
 20 26  2  0
 21 23  4  0
 22 23  1  0
M  END
$$$$

 Created by Python create_sdf_string function

 26 28  0  0  0  0  0  0  0  0999 V2000
   12.4616    8.6700   19.4180 N   0  0  0  0  0  0  0  0  0  0  0  0
   11.8329   10.8148   18.6769 N   0  0  0  0  0  0  0  0  0  0  0  0
    6.1021    2.5564   21.0678 C   0  0  0  0  0  0  0  0  0  0  0  0
   10.9097   11.8051   18.4804 C   0  0  0  0  0  0  0  0  0  0  0  0
   11.2280   12.9135   17.5669 C   0  0  0  0  0  0  0  0  0  0  0  0
   12.3782    5.4231   20.7777 C   0  0  0  0  0  0  0  0  0  0  0  0
    7.7365    4.6508   21.6987 C   0  0  0  0  0  0  0  0  0  0  0  0
   13.0186   11.0102   18.0020 C   0  0  0  0  0  0  0  0  0  0  0  0
    8.6628    5.7088   21.8871 N   0  0  0  0  0  0  0  0  0  0  0  0
    5.6516    3.5258   21.9140 C   0  0  0  0  0  0  0  0  0  0  0  0
   11.5863    9.6815   19.4539 C   0  0  0  0  0  0  0  0  0  0  0  0
   12.9648    4.1543   20.9205 C   0  0  0  0  0  0  0  0  0  0  0  0
    8.2089    3.6265   20.8929 C   0  0  0  0  0  0  0  0  0  0  0  0
    7.3827    2.5724   20.5432 C   0  0  0  0  0  0  0  0  0  0  0  0
   11.1529    7.2750   20.8025 C   0  0  0  0  0  0  0  0  0  0  0  0
   10.2573    8.3215   20.9827 C   0  0  0  0  0  0  0  0  0  0  0  0
   11.1606    5.9378   21.2366 N   0  0  0  0  0  0  0  0  0  0  0  0
    9.8932   11.6736   19.0677 O   0  0  0  0  0  0  0  0  0  0  0  0
    6.4470    4.5850   22.2321 C   0  0  0  0  0  0  0  0  0  0  0  0
    8.4619    6.9895   22.2968 C   0  0  0  0  0  0  0  0  0  0  0  0
   12.2747    7.5102   20.0420 C   0  0  0  0  0  0  0  0  0  0  0  0
   14.2544    6.2142   19.4191 C   0  0  0  0  0  0  0  0  0  0  0  0
   13.0695    6.3705   20.0375 N   0  0  0  0  0  0  0  0  0  0  0  0
    9.1913    8.0876   21.8361 N   0  0  0  0  0  0  0  0  0  0  0  0
   10.4739    9.4813   20.2889 C   0  0  0  0  0  0  0  0  0  0  0  0
    7.5551    7.1270   23.1200 O   0  0  0  0  0  0  0  0  0  0  0  0
  1 11  4  0
  1 21  4  0
  2  4  1  0
  2  8  1  0
  2 11  1  0
  3 10  4  0
  3 14  4  0
  4  5  1  0
  4 18  2  0
  6 12  1  0
  6 17  4  0
  6 23  4  0
  7  9  1  0
  7 13  4  0
  7 19  4  0
  9 20  1  0
 10 19  4  0
 11 25  4  0
 13 14  4  0
 15 16  4  0
 15 17  4  0
 15 21  4  0
 16 24  1  0
 16 25  4  0
 20 24  1  0
 20 26  2  0
 21 23  4  0
 22 23  1  0
M  END
$$$$

 Created by Python create_sdf_string function

 26 28  0  0  0  0  0  0  0  0999 V2000
   12.4616    8.6700   19.4180 N   0  0  0  0  0  0  0  0  0  0  0  0
   11.8329   10.8148   18.6769 N   0  0  0  0  0  0  0  0  0  0  0  0
    6.1021    2.5564   21.0678 C   0  0  0  0  0  0  0  0  0  0  0  0
   10.9097   11.8051   18.4804 C   0  0  0  0  0  0  0  0  0  0  0  0
   11.2280   12.9135   17.5669 C   0  0  0  0  0  0  0  0  0  0  0  0
   12.3782    5.4231   20.7777 C   0  0  0  0  0  0  0  0  0  0  0  0
    7.7365    4.6508   21.6987 C   0  0  0  0  0  0  0  0  0  0  0  0
   13.0186   11.0102   18.0020 C   0  0  0  0  0  0  0  0  0  0  0  0
    8.6628    5.7088   21.8871 N   0  0  0  0  0  0  0  0  0  0  0  0
    5.6516    3.5258   21.9140 C   0  0  0  0  0  0  0  0  0  0  0  0
   11.5863    9.6815   19.4539 C   0  0  0  0  0  0  0  0  0  0  0  0
   12.9648    4.1543   20.9205 C   0  0  0  0  0  0  0  0  0  0  0  0
    8.2089    3.6265   20.8929 C   0  0  0  0  0  0  0  0  0  0  0  0
    7.3827    2.5724   20.5432 C   0  0  0  0  0  0  0  0  0  0  0  0
   11.1529    7.2750   20.8025 C   0  0  0  0  0  0  0  0  0  0  0  0
   10.2573    8.3215   20.9827 C   0  0  0  0  0  0  0  0  0  0  0  0
   11.1606    5.9378   21.2366 N   0  0  0  0  0  0  0  0  0  0  0  0
    9.8932   11.6736   19.0677 O   0  0  0  0  0  0  0  0  0  0  0  0
    6.4470    4.5850   22.2321 C   0  0  0  0  0  0  0  0  0  0  0  0
    8.4619    6.9895   22.2968 C   0  0  0  0  0  0  0  0  0  0  0  0
   12.2747    7.5102   20.0420 C   0  0  0  0  0  0  0  0  0  0  0  0
   14.2544    6.2142   19.4191 C   0  0  0  0  0  0  0  0  0  0  0  0
   13.0695    6.3705   20.0375 N   0  0  0  0  0  0  0  0  0  0  0  0
    9.1913    8.0876   21.8361 N   0  0  0  0  0  0  0  0  0  0  0  0
   10.4739    9.4813   20.2889 C   0  0  0  0  0  0  0  0  0  0  0  0
    7.5551    7.1270   23.1200 O   0  0  0  0  0  0  0  0  0  0  0  0
  1 11  4  0
  1 21  4  0
  2  4  1  0
  2  8  1  0
  2 11  1  0
  3 10  4  0
  3 14  4  0
  4  5  1  0
  4 18  2  0
  6 12  1  0
  6 17  4  0
  6 23  4  0
  7  9  1  0
  7 13  4  0
  7 19  4  0
  9 20  1  0
 10 19  4  0
 11 25  4  0
 13 14  4  0
 15 16  4  0
 15 17  4  0
 15 21  4  0
 16 24  1  0
 16 25  4  0
 20 24  1  0
 20 26  2  0
 21 23  4  0
 22 23  1  0
M  END
$$$$

 Created by Python create_sdf_string function

 26 28  0  0  0  0  0  0  0  0999 V2000
   12.4616    8.6700   19.4180 N   0  0  0  0  0  0  0  0  0  0  0  0
   11.8329   10.8148   18.6769 N   0  0  0  0  0  0  0  0  0  0  0  0
    6.1021    2.5564   21.0678 C   0  0  0  0  0  0  0  0  0  0  0  0
   10.9097   11.8051   18.4804 C   0  0  0  0  0  0  0  0  0  0  0  0
   11.2280   12.9135   17.5669 C   0  0  0  0  0  0  0  0  0  0  0  0
   12.3782    5.4231   20.7777 C   0  0  0  0  0  0  0  0  0  0  0  0
    7.7365    4.6508   21.6987 C   0  0  0  0  0  0  0  0  0  0  0  0
   13.0186   11.0102   18.0020 C   0  0  0  0  0  0  0  0  0  0  0  0
    8.6628    5.7088   21.8871 N   0  0  0  0  0  0  0  0  0  0  0  0
    5.6516    3.5258   21.9140 C   0  0  0  0  0  0  0  0  0  0  0  0
   11.5863    9.6815   19.4539 C   0  0  0  0  0  0  0  0  0  0  0  0
   12.9648    4.1543   20.9205 C   0  0  0  0  0  0  0  0  0  0  0  0
    8.2089    3.6265   20.8929 C   0  0  0  0  0  0  0  0  0  0  0  0
    7.3827    2.5724   20.5432 C   0  0  0  0  0  0  0  0  0  0  0  0
   11.1529    7.2750   20.8025 C   0  0  0  0  0  0  0  0  0  0  0  0
   10.2573    8.3215   20.9827 C   0  0  0  0  0  0  0  0  0  0  0  0
   11.1606    5.9378   21.2366 N   0  0  0  0  0  0  0  0  0  0  0  0
    9.8932   11.6736   19.0677 O   0  0  0  0  0  0  0  0  0  0  0  0
    6.4470    4.5850   22.2321 C   0  0  0  0  0  0  0  0  0  0  0  0
    8.4619    6.9895   22.2968 C   0  0  0  0  0  0  0  0  0  0  0  0
   12.2747    7.5102   20.0420 C   0  0  0  0  0  0  0  0  0  0  0  0
   14.2544    6.2142   19.4191 C   0  0  0  0  0  0  0  0  0  0  0  0
   13.0695    6.3705   20.0375 N   0  0  0  0  0  0  0  0  0  0  0  0
    9.1913    8.0876   21.8361 N   0  0  0  0  0  0  0  0  0  0  0  0
   10.4739    9.4813   20.2889 C   0  0  0  0  0  0  0  0  0  0  0  0
    7.5551    7.1270   23.1200 O   0  0  0  0  0  0  0  0  0  0  0  0
  1 11  4  0
  1 21  4  0
  2  4  1  0
  2  8  1  0
  2 11  1  0
  3 10  4  0
  3 14  4  0
  4  5  1  0
  4 18  2  0
  6 12  1  0
  6 17  4  0
  6 23  4  0
  7  9  1  0
  7 13  4  0
  7 19  4  0
  9 20  1  0
 10 19  4  0
 11 25  4  0
 13 14  4  0
 15 16  4  0
 15 17  4  0
 15 21  4  0
 16 24  1  0
 16 25  4  0
 20 24  1  0
 20 26  2  0
 21 23  4  0
 22 23  1  0
M  END
$$$$

 Created by Python create_sdf_string function

 26 28  0  0  0  0  0  0  0  0999 V2000
   12.4616    8.6700   19.4180 N   0  0  0  0  0  0  0  0  0  0  0  0
   11.8329   10.8148   18.6769 N   0  0  0  0  0  0  0  0  0  0  0  0
    6.1021    2.5564   21.0678 C   0  0  0  0  0  0  0  0  0  0  0  0
   10.9097   11.8051   18.4804 C   0  0  0  0  0  0  0  0  0  0  0  0
   11.2280   12.9135   17.5669 C   0  0  0  0  0  0  0  0  0  0  0  0
   12.3782    5.4231   20.7777 C   0  0  0  0  0  0  0  0  0  0  0  0
    7.7365    4.6508   21.6987 C   0  0  0  0  0  0  0  0  0  0  0  0
   13.0186   11.0102   18.0020 C   0  0  0  0  0  0  0  0  0  0  0  0
    8.6628    5.7088   21.8871 N   0  0  0  0  0  0  0  0  0  0  0  0
    5.6516    3.5258   21.9140 C   0  0  0  0  0  0  0  0  0  0  0  0
   11.5863    9.6815   19.4539 C   0  0  0  0  0  0  0  0  0  0  0  0
   12.9648    4.1543   20.9205 C   0  0  0  0  0  0  0  0  0  0  0  0
    8.2089    3.6265   20.8929 C   0  0  0  0  0  0  0  0  0  0  0  0
    7.3827    2.5724   20.5432 C   0  0  0  0  0  0  0  0  0  0  0  0
   11.1529    7.2750   20.8025 C   0  0  0  0  0  0  0  0  0  0  0  0
   10.2573    8.3215   20.9827 C   0  0  0  0  0  0  0  0  0  0  0  0
   11.1606    5.9378   21.2366 N   0  0  0  0  0  0  0  0  0  0  0  0
    9.8932   11.6736   19.0677 O   0  0  0  0  0  0  0  0  0  0  0  0
    6.4470    4.5850   22.2321 C   0  0  0  0  0  0  0  0  0  0  0  0
    8.4619    6.9895   22.2968 C   0  0  0  0  0  0  0  0  0  0  0  0
   12.2747    7.5102   20.0420 C   0  0  0  0  0  0  0  0  0  0  0  0
   14.2544    6.2142   19.4191 C   0  0  0  0  0  0  0  0  0  0  0  0
   13.0695    6.3705   20.0375 N   0  0  0  0  0  0  0  0  0  0  0  0
    9.1913    8.0876   21.8361 N   0  0  0  0  0  0  0  0  0  0  0  0
   10.4739    9.4813   20.2889 C   0  0  0  0  0  0  0  0  0  0  0  0
    7.5551    7.1270   23.1200 O   0  0  0  0  0  0  0  0  0  0  0  0
  1 11  4  0
  1 21  4  0
  2  4  1  0
  2  8  1  0
  2 11  1  0
  3 10  4  0
  3 14  4  0
  4  5  1  0
  4 18  2  0
  6 12  1  0
  6 17  4  0
  6 23  4  0
  7  9  1  0
  7 13  4  0
  7 19  4  0
  9 20  1  0
 10 19  4  0
 11 25  4  0
 13 14  4  0
 15 16  4  0
 15 17  4  0
 15 21  4  0
 16 24  1  0
 16 25  4  0
 20 24  1  0
 20 26  2  0
 21 23  4  0
 22 23  1  0
M  END
$$$$

 Created by Python create_sdf_string function

 26 28  0  0  0  0  0  0  0  0999 V2000
   12.4616    8.6700   19.4180 N   0  0  0  0  0  0  0  0  0  0  0  0
   11.8329   10.8148   18.6769 N   0  0  0  0  0  0  0  0  0  0  0  0
    6.1021    2.5564   21.0678 C   0  0  0  0  0  0  0  0  0  0  0  0
   10.9097   11.8051   18.4804 C   0  0  0  0  0  0  0  0  0  0  0  0
   11.2280   12.9135   17.5669 C   0  0  0  0  0  0  0  0  0  0  0  0
   12.3782    5.4231   20.7777 C   0  0  0  0  0  0  0  0  0  0  0  0
    7.7365    4.6508   21.6987 C   0  0  0  0  0  0  0  0  0  0  0  0
   13.0186   11.0102   18.0020 C   0  0  0  0  0  0  0  0  0  0  0  0
    8.6628    5.7088   21.8871 N   0  0  0  0  0  0  0  0  0  0  0  0
    5.6516    3.5258   21.9140 C   0  0  0  0  0  0  0  0  0  0  0  0
   11.5863    9.6815   19.4539 C   0  0  0  0  0  0  0  0  0  0  0  0
   12.9648    4.1543   20.9205 C   0  0  0  0  0  0  0  0  0  0  0  0
    8.2089    3.6265   20.8929 C   0  0  0  0  0  0  0  0  0  0  0  0
    7.3827    2.5724   20.5432 C   0  0  0  0  0  0  0  0  0  0  0  0
   11.1529    7.2750   20.8025 C   0  0  0  0  0  0  0  0  0  0  0  0
   10.2573    8.3215   20.9827 C   0  0  0  0  0  0  0  0  0  0  0  0
   11.1606    5.9378   21.2366 N   0  0  0  0  0  0  0  0  0  0  0  0
    9.8932   11.6736   19.0677 O   0  0  0  0  0  0  0  0  0  0  0  0
    6.4470    4.5850   22.2321 C   0  0  0  0  0  0  0  0  0  0  0  0
    8.4619    6.9895   22.2968 C   0  0  0  0  0  0  0  0  0  0  0  0
   12.2747    7.5102   20.0420 C   0  0  0  0  0  0  0  0  0  0  0  0
   14.2544    6.2142   19.4191 C   0  0  0  0  0  0  0  0  0  0  0  0
   13.0695    6.3705   20.0375 N   0  0  0  0  0  0  0  0  0  0  0  0
    9.1913    8.0876   21.8361 N   0  0  0  0  0  0  0  0  0  0  0  0
   10.4739    9.4813   20.2889 C   0  0  0  0  0  0  0  0  0  0  0  0
    7.5551    7.1270   23.1200 O   0  0  0  0  0  0  0  0  0  0  0  0
  1 11  4  0
  1 21  4  0
  2  4  1  0
  2  8  1  0
  2 11  1  0
  3 10  4  0
  3 14  4  0
  4  5  1  0
  4 18  2  0
  6 12  1  0
  6 17  4  0
  6 23  4  0
  7  9  1  0
  7 13  4  0
  7 19  4  0
  9 20  1  0
 10 19  4  0
 11 25  4  0
 13 14  4  0
 15 16  4  0
 15 17  4  0
 15 21  4  0
 16 24  1  0
 16 25  4  0
 20 24  1  0
 20 26  2  0
 21 23  4  0
 22 23  1  0
M  END
$$$$

 Created by Python create_sdf_string function

 26 28  0  0  0  0  0  0  0  0999 V2000
   12.4616    8.6700   19.4180 N   0  0  0  0  0  0  0  0  0  0  0  0
   11.8329   10.8148   18.6769 N   0  0  0  0  0  0  0  0  0  0  0  0
    6.1021    2.5564   21.0678 C   0  0  0  0  0  0  0  0  0  0  0  0
   10.9097   11.8051   18.4804 C   0  0  0  0  0  0  0  0  0  0  0  0
   11.2280   12.9135   17.5669 C   0  0  0  0  0  0  0  0  0  0  0  0
   12.3782    5.4231   20.7777 C   0  0  0  0  0  0  0  0  0  0  0  0
    7.7365    4.6508   21.6987 C   0  0  0  0  0  0  0  0  0  0  0  0
   13.0186   11.0102   18.0020 C   0  0  0  0  0  0  0  0  0  0  0  0
    8.6628    5.7088   21.8871 N   0  0  0  0  0  0  0  0  0  0  0  0
    5.6516    3.5258   21.9140 C   0  0  0  0  0  0  0  0  0  0  0  0
   11.5863    9.6815   19.4539 C   0  0  0  0  0  0  0  0  0  0  0  0
   12.9648    4.1543   20.9205 C   0  0  0  0  0  0  0  0  0  0  0  0
    8.2089    3.6265   20.8929 C   0  0  0  0  0  0  0  0  0  0  0  0
    7.3827    2.5724   20.5432 C   0  0  0  0  0  0  0  0  0  0  0  0
   11.1529    7.2750   20.8025 C   0  0  0  0  0  0  0  0  0  0  0  0
   10.2573    8.3215   20.9827 C   0  0  0  0  0  0  0  0  0  0  0  0
   11.1606    5.9378   21.2366 N   0  0  0  0  0  0  0  0  0  0  0  0
    9.8932   11.6736   19.0677 O   0  0  0  0  0  0  0  0  0  0  0  0
    6.4470    4.5850   22.2321 C   0  0  0  0  0  0  0  0  0  0  0  0
    8.4619    6.9895   22.2968 C   0  0  0  0  0  0  0  0  0  0  0  0
   12.2747    7.5102   20.0420 C   0  0  0  0  0  0  0  0  0  0  0  0
   14.2544    6.2142   19.4191 C   0  0  0  0  0  0  0  0  0  0  0  0
   13.0695    6.3705   20.0375 N   0  0  0  0  0  0  0  0  0  0  0  0
    9.1913    8.0876   21.8361 N   0  0  0  0  0  0  0  0  0  0  0  0
   10.4739    9.4813   20.2889 C   0  0  0  0  0  0  0  0  0  0  0  0
    7.5551    7.1270   23.1200 O   0  0  0  0  0  0  0  0  0  0  0  0
  1 11  4  0
  1 21  4  0
  2  4  1  0
  2  8  1  0
  2 11  1  0
  3 10  4  0
  3 14  4  0
  4  5  1  0
  4 18  2  0
  6 12  1  0
  6 17  4  0
  6 23  4  0
  7  9  1  0
  7 13  4  0
  7 19  4  0
  9 20  1  0
 10 19  4  0
 11 25  4  0
 13 14  4  0
 15 16  4  0
 15 17  4  0
 15 21  4  0
 16 24  1  0
 16 25  4  0
 20 24  1  0
 20 26  2  0
 21 23  4  0
 22 23  1  0
M  END
$$$$

 Created by Python create_sdf_string function

 26 28  0  0  0  0  0  0  0  0999 V2000
   12.4616    8.6700   19.4180 N   0  0  0  0  0  0  0  0  0  0  0  0
   11.8329   10.8148   18.6769 N   0  0  0  0  0  0  0  0  0  0  0  0
    6.1021    2.5564   21.0678 C   0  0  0  0  0  0  0  0  0  0  0  0
   10.9097   11.8051   18.4804 C   0  0  0  0  0  0  0  0  0  0  0  0
   11.2280   12.9135   17.5669 C   0  0  0  0  0  0  0  0  0  0  0  0
   12.3782    5.4231   20.7777 C   0  0  0  0  0  0  0  0  0  0  0  0
    7.7365    4.6508   21.6987 C   0  0  0  0  0  0  0  0  0  0  0  0
   13.0186   11.0102   18.0020 C   0  0  0  0  0  0  0  0  0  0  0  0
    8.6628    5.7088   21.8871 N   0  0  0  0  0  0  0  0  0  0  0  0
    5.6516    3.5258   21.9140 C   0  0  0  0  0  0  0  0  0  0  0  0
   11.5863    9.6815   19.4539 C   0  0  0  0  0  0  0  0  0  0  0  0
   12.9648    4.1543   20.9205 C   0  0  0  0  0  0  0  0  0  0  0  0
    8.2089    3.6265   20.8929 C   0  0  0  0  0  0  0  0  0  0  0  0
    7.3827    2.5724   20.5432 C   0  0  0  0  0  0  0  0  0  0  0  0
   11.1529    7.2750   20.8025 C   0  0  0  0  0  0  0  0  0  0  0  0
   10.2573    8.3215   20.9827 C   0  0  0  0  0  0  0  0  0  0  0  0
   11.1606    5.9378   21.2366 N   0  0  0  0  0  0  0  0  0  0  0  0
    9.8932   11.6736   19.0677 O   0  0  0  0  0  0  0  0  0  0  0  0
    6.4470    4.5850   22.2321 C   0  0  0  0  0  0  0  0  0  0  0  0
    8.4619    6.9895   22.2968 C   0  0  0  0  0  0  0  0  0  0  0  0
   12.2747    7.5102   20.0420 C   0  0  0  0  0  0  0  0  0  0  0  0
   14.2544    6.2142   19.4191 C   0  0  0  0  0  0  0  0  0  0  0  0
   13.0695    6.3705   20.0375 N   0  0  0  0  0  0  0  0  0  0  0  0
    9.1913    8.0876   21.8361 N   0  0  0  0  0  0  0  0  0  0  0  0
   10.4739    9.4813   20.2889 C   0  0  0  0  0  0  0  0  0  0  0  0
    7.5551    7.1270   23.1200 O   0  0  0  0  0  0  0  0  0  0  0  0
  1 11  4  0
  1 21  4  0
  2  4  1  0
  2  8  1  0
  2 11  1  0
  3 10  4  0
  3 14  4  0
  4  5  1  0
  4 18  2  0
  6 12  1  0
  6 17  4  0
  6 23  4  0
  7  9  1  0
  7 13  4  0
  7 19  4  0
  9 20  1  0
 10 19  4  0
 11 25  4  0
 13 14  4  0
 15 16  4  0
 15 17  4  0
 15 21  4  0
 16 24  1  0
 16 25  4  0
 20 24  1  0
 20 26  2  0
 21 23  4  0
 22 23  1  0
M  END
$$$$

 Created by Python create_sdf_string function

 26 28  0  0  0  0  0  0  0  0999 V2000
   12.4616    8.6700   19.4180 N   0  0  0  0  0  0  0  0  0  0  0  0
   11.8329   10.8148   18.6769 N   0  0  0  0  0  0  0  0  0  0  0  0
    6.1021    2.5564   21.0678 C   0  0  0  0  0  0  0  0  0  0  0  0
   10.9097   11.8051   18.4804 C   0  0  0  0  0  0  0  0  0  0  0  0
   11.2280   12.9135   17.5669 C   0  0  0  0  0  0  0  0  0  0  0  0
   12.3782    5.4231   20.7777 C   0  0  0  0  0  0  0  0  0  0  0  0
    7.7365    4.6508   21.6987 C   0  0  0  0  0  0  0  0  0  0  0  0
   13.0186   11.0102   18.0020 C   0  0  0  0  0  0  0  0  0  0  0  0
    8.6628    5.7088   21.8871 N   0  0  0  0  0  0  0  0  0  0  0  0
    5.6516    3.5258   21.9140 C   0  0  0  0  0  0  0  0  0  0  0  0
   11.5863    9.6815   19.4539 C   0  0  0  0  0  0  0  0  0  0  0  0
   12.9648    4.1543   20.9205 C   0  0  0  0  0  0  0  0  0  0  0  0
    8.2089    3.6265   20.8929 C   0  0  0  0  0  0  0  0  0  0  0  0
    7.3827    2.5724   20.5432 C   0  0  0  0  0  0  0  0  0  0  0  0
   11.1529    7.2750   20.8025 C   0  0  0  0  0  0  0  0  0  0  0  0
   10.2573    8.3215   20.9827 C   0  0  0  0  0  0  0  0  0  0  0  0
   11.1606    5.9378   21.2366 N   0  0  0  0  0  0  0  0  0  0  0  0
    9.8932   11.6736   19.0677 O   0  0  0  0  0  0  0  0  0  0  0  0
    6.4470    4.5850   22.2321 C   0  0  0  0  0  0  0  0  0  0  0  0
    8.4619    6.9895   22.2968 C   0  0  0  0  0  0  0  0  0  0  0  0
   12.2747    7.5102   20.0420 C   0  0  0  0  0  0  0  0  0  0  0  0
   14.2544    6.2142   19.4191 C   0  0  0  0  0  0  0  0  0  0  0  0
   13.0695    6.3705   20.0375 N   0  0  0  0  0  0  0  0  0  0  0  0
    9.1913    8.0876   21.8361 N   0  0  0  0  0  0  0  0  0  0  0  0
   10.4739    9.4813   20.2889 C   0  0  0  0  0  0  0  0  0  0  0  0
    7.5551    7.1270   23.1200 O   0  0  0  0  0  0  0  0  0  0  0  0
  1 11  4  0
  1 21  4  0
  2  4  1  0
  2  8  1  0
  2 11  1  0
  3 10  4  0
  3 14  4  0
  4  5  1  0
  4 18  2  0
  6 12  1  0
  6 17  4  0
  6 23  4  0
  7  9  1  0
  7 13  4  0
  7 19  4  0
  9 20  1  0
 10 19  4  0
 11 25  4  0
 13 14  4  0
 15 16  4  0
 15 17  4  0
 15 21  4  0
 16 24  1  0
 16 25  4  0
 20 24  1  0
 20 26  2  0
 21 23  4  0
 22 23  1  0
M  END
$$$$

 Created by Python create_sdf_string function

 26 28  0  0  0  0  0  0  0  0999 V2000
   12.4616    8.6700   19.4180 N   0  0  0  0  0  0  0  0  0  0  0  0
   11.8329   10.8148   18.6769 N   0  0  0  0  0  0  0  0  0  0  0  0
    6.1021    2.5564   21.0678 C   0  0  0  0  0  0  0  0  0  0  0  0
   10.9097   11.8051   18.4804 C   0  0  0  0  0  0  0  0  0  0  0  0
   11.2280   12.9135   17.5669 C   0  0  0  0  0  0  0  0  0  0  0  0
   12.3782    5.4231   20.7777 C   0  0  0  0  0  0  0  0  0  0  0  0
    7.7365    4.6508   21.6987 C   0  0  0  0  0  0  0  0  0  0  0  0
   13.0186   11.0102   18.0020 C   0  0  0  0  0  0  0  0  0  0  0  0
    8.6628    5.7088   21.8871 N   0  0  0  0  0  0  0  0  0  0  0  0
    5.6516    3.5258   21.9140 C   0  0  0  0  0  0  0  0  0  0  0  0
   11.5863    9.6815   19.4539 C   0  0  0  0  0  0  0  0  0  0  0  0
   12.9648    4.1543   20.9205 C   0  0  0  0  0  0  0  0  0  0  0  0
    8.2089    3.6265   20.8929 C   0  0  0  0  0  0  0  0  0  0  0  0
    7.3827    2.5724   20.5432 C   0  0  0  0  0  0  0  0  0  0  0  0
   11.1529    7.2750   20.8025 C   0  0  0  0  0  0  0  0  0  0  0  0
   10.2573    8.3215   20.9827 C   0  0  0  0  0  0  0  0  0  0  0  0
   11.1606    5.9378   21.2366 N   0  0  0  0  0  0  0  0  0  0  0  0
    9.8932   11.6736   19.0677 O   0  0  0  0  0  0  0  0  0  0  0  0
    6.4470    4.5850   22.2321 C   0  0  0  0  0  0  0  0  0  0  0  0
    8.4619    6.9895   22.2968 C   0  0  0  0  0  0  0  0  0  0  0  0
   12.2747    7.5102   20.0420 C   0  0  0  0  0  0  0  0  0  0  0  0
   14.2544    6.2142   19.4191 C   0  0  0  0  0  0  0  0  0  0  0  0
   13.0695    6.3705   20.0375 N   0  0  0  0  0  0  0  0  0  0  0  0
    9.1913    8.0876   21.8361 N   0  0  0  0  0  0  0  0  0  0  0  0
   10.4739    9.4813   20.2889 C   0  0  0  0  0  0  0  0  0  0  0  0
    7.5551    7.1270   23.1200 O   0  0  0  0  0  0  0  0  0  0  0  0
  1 11  4  0
  1 21  4  0
  2  4  1  0
  2  8  1  0
  2 11  1  0
  3 10  4  0
  3 14  4  0
  4  5  1  0
  4 18  2  0
  6 12  1  0
  6 17  4  0
  6 23  4  0
  7  9  1  0
  7 13  4  0
  7 19  4  0
  9 20  1  0
 10 19  4  0
 11 25  4  0
 13 14  4  0
 15 16  4  0
 15 17  4  0
 15 21  4  0
 16 24  1  0
 16 25  4  0
 20 24  1  0
 20 26  2  0
 21 23  4  0
 22 23  1  0
M  END
$$$$

 Created by Python create_sdf_string function

 26 28  0  0  0  0  0  0  0  0999 V2000
   12.4616    8.6700   19.4180 N   0  0  0  0  0  0  0  0  0  0  0  0
   11.8329   10.8148   18.6769 N   0  0  0  0  0  0  0  0  0  0  0  0
    6.1021    2.5564   21.0678 C   0  0  0  0  0  0  0  0  0  0  0  0
   10.9097   11.8051   18.4804 C   0  0  0  0  0  0  0  0  0  0  0  0
   11.2280   12.9135   17.5669 C   0  0  0  0  0  0  0  0  0  0  0  0
   12.3782    5.4231   20.7777 C   0  0  0  0  0  0  0  0  0  0  0  0
    7.7365    4.6508   21.6987 C   0  0  0  0  0  0  0  0  0  0  0  0
   13.0186   11.0102   18.0020 C   0  0  0  0  0  0  0  0  0  0  0  0
    8.6628    5.7088   21.8871 N   0  0  0  0  0  0  0  0  0  0  0  0
    5.6516    3.5258   21.9140 C   0  0  0  0  0  0  0  0  0  0  0  0
   11.5863    9.6815   19.4539 C   0  0  0  0  0  0  0  0  0  0  0  0
   12.9648    4.1543   20.9205 C   0  0  0  0  0  0  0  0  0  0  0  0
    8.2089    3.6265   20.8929 C   0  0  0  0  0  0  0  0  0  0  0  0
    7.3827    2.5724   20.5432 C   0  0  0  0  0  0  0  0  0  0  0  0
   11.1529    7.2750   20.8025 C   0  0  0  0  0  0  0  0  0  0  0  0
   10.2573    8.3215   20.9827 C   0  0  0  0  0  0  0  0  0  0  0  0
   11.1606    5.9378   21.2366 N   0  0  0  0  0  0  0  0  0  0  0  0
    9.8932   11.6736   19.0677 O   0  0  0  0  0  0  0  0  0  0  0  0
    6.4470    4.5850   22.2321 C   0  0  0  0  0  0  0  0  0  0  0  0
    8.4619    6.9895   22.2968 C   0  0  0  0  0  0  0  0  0  0  0  0
   12.2747    7.5102   20.0420 C   0  0  0  0  0  0  0  0  0  0  0  0
   14.2544    6.2142   19.4191 C   0  0  0  0  0  0  0  0  0  0  0  0
   13.0695    6.3705   20.0375 N   0  0  0  0  0  0  0  0  0  0  0  0
    9.1913    8.0876   21.8361 N   0  0  0  0  0  0  0  0  0  0  0  0
   10.4739    9.4813   20.2889 C   0  0  0  0  0  0  0  0  0  0  0  0
    7.5551    7.1270   23.1200 O   0  0  0  0  0  0  0  0  0  0  0  0
  1 11  4  0
  1 21  4  0
  2  4  1  0
  2  8  1  0
  2 11  1  0
  3 10  4  0
  3 14  4  0
  4  5  1  0
  4 18  2  0
  6 12  1  0
  6 17  4  0
  6 23  4  0
  7  9  1  0
  7 13  4  0
  7 19  4  0
  9 20  1  0
 10 19  4  0
 11 25  4  0
 13 14  4  0
 15 16  4  0
 15 17  4  0
 15 21  4  0
 16 24  1  0
 16 25  4  0
 20 24  1  0
 20 26  2  0
 21 23  4  0
 22 23  1  0
M  END
$$$$

 Created by Python create_sdf_string function

 26 28  0  0  0  0  0  0  0  0999 V2000
   12.4616    8.6700   19.4180 N   0  0  0  0  0  0  0  0  0  0  0  0
   11.8329   10.8148   18.6769 N   0  0  0  0  0  0  0  0  0  0  0  0
    6.1021    2.5564   21.0678 C   0  0  0  0  0  0  0  0  0  0  0  0
   10.9097   11.8051   18.4804 C   0  0  0  0  0  0  0  0  0  0  0  0
   11.2280   12.9135   17.5669 C   0  0  0  0  0  0  0  0  0  0  0  0
   12.3782    5.4231   20.7777 C   0  0  0  0  0  0  0  0  0  0  0  0
    7.7365    4.6508   21.6987 C   0  0  0  0  0  0  0  0  0  0  0  0
   13.0186   11.0102   18.0020 C   0  0  0  0  0  0  0  0  0  0  0  0
    8.6628    5.7088   21.8871 N   0  0  0  0  0  0  0  0  0  0  0  0
    5.6516    3.5258   21.9140 C   0  0  0  0  0  0  0  0  0  0  0  0
   11.5863    9.6815   19.4539 C   0  0  0  0  0  0  0  0  0  0  0  0
   12.9648    4.1543   20.9205 C   0  0  0  0  0  0  0  0  0  0  0  0
    8.2089    3.6265   20.8929 C   0  0  0  0  0  0  0  0  0  0  0  0
    7.3827    2.5724   20.5432 C   0  0  0  0  0  0  0  0  0  0  0  0
   11.1529    7.2750   20.8025 C   0  0  0  0  0  0  0  0  0  0  0  0
   10.2573    8.3215   20.9827 C   0  0  0  0  0  0  0  0  0  0  0  0
   11.1606    5.9378   21.2366 N   0  0  0  0  0  0  0  0  0  0  0  0
    9.8932   11.6736   19.0677 O   0  0  0  0  0  0  0  0  0  0  0  0
    6.4470    4.5850   22.2321 C   0  0  0  0  0  0  0  0  0  0  0  0
    8.4619    6.9895   22.2968 C   0  0  0  0  0  0  0  0  0  0  0  0
   12.2747    7.5102   20.0420 C   0  0  0  0  0  0  0  0  0  0  0  0
   14.2544    6.2142   19.4191 C   0  0  0  0  0  0  0  0  0  0  0  0
   13.0695    6.3705   20.0375 N   0  0  0  0  0  0  0  0  0  0  0  0
    9.1913    8.0876   21.8361 N   0  0  0  0  0  0  0  0  0  0  0  0
   10.4739    9.4813   20.2889 C   0  0  0  0  0  0  0  0  0  0  0  0
    7.5551    7.1270   23.1200 O   0  0  0  0  0  0  0  0  0  0  0  0
  1 11  4  0
  1 21  4  0
  2  4  1  0
  2  8  1  0
  2 11  1  0
  3 10  4  0
  3 14  4  0
  4  5  1  0
  4 18  2  0
  6 12  1  0
  6 17  4  0
  6 23  4  0
  7  9  1  0
  7 13  4  0
  7 19  4  0
  9 20  1  0
 10 19  4  0
 11 25  4  0
 13 14  4  0
 15 16  4  0
 15 17  4  0
 15 21  4  0
 16 24  1  0
 16 25  4  0
 20 24  1  0
 20 26  2  0
 21 23  4  0
 22 23  1  0
M  END
$$$$

 Created by Python create_sdf_string function

 26 28  0  0  0  0  0  0  0  0999 V2000
   12.4616    8.6700   19.4180 N   0  0  0  0  0  0  0  0  0  0  0  0
   11.8329   10.8148   18.6769 N   0  0  0  0  0  0  0  0  0  0  0  0
    6.1021    2.5564   21.0678 C   0  0  0  0  0  0  0  0  0  0  0  0
   10.9097   11.8051   18.4804 C   0  0  0  0  0  0  0  0  0  0  0  0
   11.2280   12.9135   17.5669 C   0  0  0  0  0  0  0  0  0  0  0  0
   12.3782    5.4231   20.7777 C   0  0  0  0  0  0  0  0  0  0  0  0
    7.7365    4.6508   21.6987 C   0  0  0  0  0  0  0  0  0  0  0  0
   13.0186   11.0102   18.0020 C   0  0  0  0  0  0  0  0  0  0  0  0
    8.6628    5.7088   21.8871 N   0  0  0  0  0  0  0  0  0  0  0  0
    5.6516    3.5258   21.9140 C   0  0  0  0  0  0  0  0  0  0  0  0
   11.5863    9.6815   19.4539 C   0  0  0  0  0  0  0  0  0  0  0  0
   12.9648    4.1543   20.9205 C   0  0  0  0  0  0  0  0  0  0  0  0
    8.2089    3.6265   20.8929 C   0  0  0  0  0  0  0  0  0  0  0  0
    7.3827    2.5724   20.5432 C   0  0  0  0  0  0  0  0  0  0  0  0
   11.1529    7.2750   20.8025 C   0  0  0  0  0  0  0  0  0  0  0  0
   10.2573    8.3215   20.9827 C   0  0  0  0  0  0  0  0  0  0  0  0
   11.1606    5.9378   21.2366 N   0  0  0  0  0  0  0  0  0  0  0  0
    9.8932   11.6736   19.0677 O   0  0  0  0  0  0  0  0  0  0  0  0
    6.4470    4.5850   22.2321 C   0  0  0  0  0  0  0  0  0  0  0  0
    8.4619    6.9895   22.2968 C   0  0  0  0  0  0  0  0  0  0  0  0
   12.2747    7.5102   20.0420 C   0  0  0  0  0  0  0  0  0  0  0  0
   14.2544    6.2142   19.4191 C   0  0  0  0  0  0  0  0  0  0  0  0
   13.0695    6.3705   20.0375 N   0  0  0  0  0  0  0  0  0  0  0  0
    9.1913    8.0876   21.8361 N   0  0  0  0  0  0  0  0  0  0  0  0
   10.4739    9.4813   20.2889 C   0  0  0  0  0  0  0  0  0  0  0  0
    7.5551    7.1270   23.1200 O   0  0  0  0  0  0  0  0  0  0  0  0
  1 11  4  0
  1 21  4  0
  2  4  1  0
  2  8  1  0
  2 11  1  0
  3 10  4  0
  3 14  4  0
  4  5  1  0
  4 18  2  0
  6 12  1  0
  6 17  4  0
  6 23  4  0
  7  9  1  0
  7 13  4  0
  7 19  4  0
  9 20  1  0
 10 19  4  0
 11 25  4  0
 13 14  4  0
 15 16  4  0
 15 17  4  0
 15 21  4  0
 16 24  1  0
 16 25  4  0
 20 24  1  0
 20 26  2  0
 21 23  4  0
 22 23  1  0
M  END
$$$$

 Created by Python create_sdf_string function

 26 28  0  0  0  0  0  0  0  0999 V2000
   12.4616    8.6700   19.4180 N   0  0  0  0  0  0  0  0  0  0  0  0
   11.8329   10.8148   18.6769 N   0  0  0  0  0  0  0  0  0  0  0  0
    6.1021    2.5564   21.0678 C   0  0  0  0  0  0  0  0  0  0  0  0
   10.9097   11.8051   18.4804 C   0  0  0  0  0  0  0  0  0  0  0  0
   11.2280   12.9135   17.5669 C   0  0  0  0  0  0  0  0  0  0  0  0
   12.3782    5.4231   20.7777 C   0  0  0  0  0  0  0  0  0  0  0  0
    7.7365    4.6508   21.6987 C   0  0  0  0  0  0  0  0  0  0  0  0
   13.0186   11.0102   18.0020 C   0  0  0  0  0  0  0  0  0  0  0  0
    8.6628    5.7088   21.8871 N   0  0  0  0  0  0  0  0  0  0  0  0
    5.6516    3.5258   21.9140 C   0  0  0  0  0  0  0  0  0  0  0  0
   11.5863    9.6815   19.4539 C   0  0  0  0  0  0  0  0  0  0  0  0
   12.9648    4.1543   20.9205 C   0  0  0  0  0  0  0  0  0  0  0  0
    8.2089    3.6265   20.8929 C   0  0  0  0  0  0  0  0  0  0  0  0
    7.3827    2.5724   20.5432 C   0  0  0  0  0  0  0  0  0  0  0  0
   11.1529    7.2750   20.8025 C   0  0  0  0  0  0  0  0  0  0  0  0
   10.2573    8.3215   20.9827 C   0  0  0  0  0  0  0  0  0  0  0  0
   11.1606    5.9378   21.2366 N   0  0  0  0  0  0  0  0  0  0  0  0
    9.8932   11.6736   19.0677 O   0  0  0  0  0  0  0  0  0  0  0  0
    6.4470    4.5850   22.2321 C   0  0  0  0  0  0  0  0  0  0  0  0
    8.4619    6.9895   22.2968 C   0  0  0  0  0  0  0  0  0  0  0  0
   12.2747    7.5102   20.0420 C   0  0  0  0  0  0  0  0  0  0  0  0
   14.2544    6.2142   19.4191 C   0  0  0  0  0  0  0  0  0  0  0  0
   13.0695    6.3705   20.0375 N   0  0  0  0  0  0  0  0  0  0  0  0
    9.1913    8.0876   21.8361 N   0  0  0  0  0  0  0  0  0  0  0  0
   10.4739    9.4813   20.2889 C   0  0  0  0  0  0  0  0  0  0  0  0
    7.5551    7.1270   23.1200 O   0  0  0  0  0  0  0  0  0  0  0  0
  1 11  4  0
  1 21  4  0
  2  4  1  0
  2  8  1  0
  2 11  1  0
  3 10  4  0
  3 14  4  0
  4  5  1  0
  4 18  2  0
  6 12  1  0
  6 17  4  0
  6 23  4  0
  7  9  1  0
  7 13  4  0
  7 19  4  0
  9 20  1  0
 10 19  4  0
 11 25  4  0
 13 14  4  0
 15 16  4  0
 15 17  4  0
 15 21  4  0
 16 24  1  0
 16 25  4  0
 20 24  1  0
 20 26  2  0
 21 23  4  0
 22 23  1  0
M  END
$$$$

 Created by Python create_sdf_string function

 26 28  0  0  0  0  0  0  0  0999 V2000
   12.4616    8.6700   19.4180 N   0  0  0  0  0  0  0  0  0  0  0  0
   11.8329   10.8148   18.6769 N   0  0  0  0  0  0  0  0  0  0  0  0
    6.1021    2.5564   21.0678 C   0  0  0  0  0  0  0  0  0  0  0  0
   10.9097   11.8051   18.4804 C   0  0  0  0  0  0  0  0  0  0  0  0
   11.2280   12.9135   17.5669 C   0  0  0  0  0  0  0  0  0  0  0  0
   12.3782    5.4231   20.7777 C   0  0  0  0  0  0  0  0  0  0  0  0
    7.7365    4.6508   21.6987 C   0  0  0  0  0  0  0  0  0  0  0  0
   13.0186   11.0102   18.0020 C   0  0  0  0  0  0  0  0  0  0  0  0
    8.6628    5.7088   21.8871 N   0  0  0  0  0  0  0  0  0  0  0  0
    5.6516    3.5258   21.9140 C   0  0  0  0  0  0  0  0  0  0  0  0
   11.5863    9.6815   19.4539 C   0  0  0  0  0  0  0  0  0  0  0  0
   12.9648    4.1543   20.9205 C   0  0  0  0  0  0  0  0  0  0  0  0
    8.2089    3.6265   20.8929 C   0  0  0  0  0  0  0  0  0  0  0  0
    7.3827    2.5724   20.5432 C   0  0  0  0  0  0  0  0  0  0  0  0
   11.1529    7.2750   20.8025 C   0  0  0  0  0  0  0  0  0  0  0  0
   10.2573    8.3215   20.9827 C   0  0  0  0  0  0  0  0  0  0  0  0
   11.1606    5.9378   21.2366 N   0  0  0  0  0  0  0  0  0  0  0  0
    9.8932   11.6736   19.0677 O   0  0  0  0  0  0  0  0  0  0  0  0
    6.4470    4.5850   22.2321 C   0  0  0  0  0  0  0  0  0  0  0  0
    8.4619    6.9895   22.2968 C   0  0  0  0  0  0  0  0  0  0  0  0
   12.2747    7.5102   20.0420 C   0  0  0  0  0  0  0  0  0  0  0  0
   14.2544    6.2142   19.4191 C   0  0  0  0  0  0  0  0  0  0  0  0
   13.0695    6.3705   20.0375 N   0  0  0  0  0  0  0  0  0  0  0  0
    9.1913    8.0876   21.8361 N   0  0  0  0  0  0  0  0  0  0  0  0
   10.4739    9.4813   20.2889 C   0  0  0  0  0  0  0  0  0  0  0  0
    7.5551    7.1270   23.1200 O   0  0  0  0  0  0  0  0  0  0  0  0
  1 11  4  0
  1 21  4  0
  2  4  1  0
  2  8  1  0
  2 11  1  0
  3 10  4  0
  3 14  4  0
  4  5  1  0
  4 18  2  0
  6 12  1  0
  6 17  4  0
  6 23  4  0
  7  9  1  0
  7 13  4  0
  7 19  4  0
  9 20  1  0
 10 19  4  0
 11 25  4  0
 13 14  4  0
 15 16  4  0
 15 17  4  0
 15 21  4  0
 16 24  1  0
 16 25  4  0
 20 24  1  0
 20 26  2  0
 21 23  4  0
 22 23  1  0
M  END
$$$$

 Created by Python create_sdf_string function

 26 28  0  0  0  0  0  0  0  0999 V2000
   12.4616    8.6700   19.4180 N   0  0  0  0  0  0  0  0  0  0  0  0
   11.8329   10.8148   18.6769 N   0  0  0  0  0  0  0  0  0  0  0  0
    6.1021    2.5564   21.0678 C   0  0  0  0  0  0  0  0  0  0  0  0
   10.9097   11.8051   18.4804 C   0  0  0  0  0  0  0  0  0  0  0  0
   11.2280   12.9135   17.5669 C   0  0  0  0  0  0  0  0  0  0  0  0
   12.3782    5.4231   20.7777 C   0  0  0  0  0  0  0  0  0  0  0  0
    7.7365    4.6508   21.6987 C   0  0  0  0  0  0  0  0  0  0  0  0
   13.0186   11.0102   18.0020 C   0  0  0  0  0  0  0  0  0  0  0  0
    8.6628    5.7088   21.8871 N   0  0  0  0  0  0  0  0  0  0  0  0
    5.6516    3.5258   21.9140 C   0  0  0  0  0  0  0  0  0  0  0  0
   11.5863    9.6815   19.4539 C   0  0  0  0  0  0  0  0  0  0  0  0
   12.9648    4.1543   20.9205 C   0  0  0  0  0  0  0  0  0  0  0  0
    8.2089    3.6265   20.8929 C   0  0  0  0  0  0  0  0  0  0  0  0
    7.3827    2.5724   20.5432 C   0  0  0  0  0  0  0  0  0  0  0  0
   11.1529    7.2750   20.8025 C   0  0  0  0  0  0  0  0  0  0  0  0
   10.2573    8.3215   20.9827 C   0  0  0  0  0  0  0  0  0  0  0  0
   11.1606    5.9378   21.2366 N   0  0  0  0  0  0  0  0  0  0  0  0
    9.8932   11.6736   19.0677 O   0  0  0  0  0  0  0  0  0  0  0  0
    6.4470    4.5850   22.2321 C   0  0  0  0  0  0  0  0  0  0  0  0
    8.4619    6.9895   22.2968 C   0  0  0  0  0  0  0  0  0  0  0  0
   12.2747    7.5102   20.0420 C   0  0  0  0  0  0  0  0  0  0  0  0
   14.2544    6.2142   19.4191 C   0  0  0  0  0  0  0  0  0  0  0  0
   13.0695    6.3705   20.0375 N   0  0  0  0  0  0  0  0  0  0  0  0
    9.1913    8.0876   21.8361 N   0  0  0  0  0  0  0  0  0  0  0  0
   10.4739    9.4813   20.2889 C   0  0  0  0  0  0  0  0  0  0  0  0
    7.5551    7.1270   23.1200 O   0  0  0  0  0  0  0  0  0  0  0  0
  1 11  4  0
  1 21  4  0
  2  4  1  0
  2  8  1  0
  2 11  1  0
  3 10  4  0
  3 14  4  0
  4  5  1  0
  4 18  2  0
  6 12  1  0
  6 17  4  0
  6 23  4  0
  7  9  1  0
  7 13  4  0
  7 19  4  0
  9 20  1  0
 10 19  4  0
 11 25  4  0
 13 14  4  0
 15 16  4  0
 15 17  4  0
 15 21  4  0
 16 24  1  0
 16 25  4  0
 20 24  1  0
 20 26  2  0
 21 23  4  0
 22 23  1  0
M  END
$$$$

 Created by Python create_sdf_string function

 26 28  0  0  0  0  0  0  0  0999 V2000
   12.4616    8.6700   19.4180 N   0  0  0  0  0  0  0  0  0  0  0  0
   11.8329   10.8148   18.6769 N   0  0  0  0  0  0  0  0  0  0  0  0
    6.1021    2.5564   21.0678 C   0  0  0  0  0  0  0  0  0  0  0  0
   10.9097   11.8051   18.4804 C   0  0  0  0  0  0  0  0  0  0  0  0
   11.2280   12.9135   17.5669 C   0  0  0  0  0  0  0  0  0  0  0  0
   12.3782    5.4231   20.7777 C   0  0  0  0  0  0  0  0  0  0  0  0
    7.7365    4.6508   21.6987 C   0  0  0  0  0  0  0  0  0  0  0  0
   13.0186   11.0102   18.0020 C   0  0  0  0  0  0  0  0  0  0  0  0
    8.6628    5.7088   21.8871 N   0  0  0  0  0  0  0  0  0  0  0  0
    5.6516    3.5258   21.9140 C   0  0  0  0  0  0  0  0  0  0  0  0
   11.5863    9.6815   19.4539 C   0  0  0  0  0  0  0  0  0  0  0  0
   12.9648    4.1543   20.9205 C   0  0  0  0  0  0  0  0  0  0  0  0
    8.2089    3.6265   20.8929 C   0  0  0  0  0  0  0  0  0  0  0  0
    7.3827    2.5724   20.5432 C   0  0  0  0  0  0  0  0  0  0  0  0
   11.1529    7.2750   20.8025 C   0  0  0  0  0  0  0  0  0  0  0  0
   10.2573    8.3215   20.9827 C   0  0  0  0  0  0  0  0  0  0  0  0
   11.1606    5.9378   21.2366 N   0  0  0  0  0  0  0  0  0  0  0  0
    9.8932   11.6736   19.0677 O   0  0  0  0  0  0  0  0  0  0  0  0
    6.4470    4.5850   22.2321 C   0  0  0  0  0  0  0  0  0  0  0  0
    8.4619    6.9895   22.2968 C   0  0  0  0  0  0  0  0  0  0  0  0
   12.2747    7.5102   20.0420 C   0  0  0  0  0  0  0  0  0  0  0  0
   14.2544    6.2142   19.4191 C   0  0  0  0  0  0  0  0  0  0  0  0
   13.0695    6.3705   20.0375 N   0  0  0  0  0  0  0  0  0  0  0  0
    9.1913    8.0876   21.8361 N   0  0  0  0  0  0  0  0  0  0  0  0
   10.4739    9.4813   20.2889 C   0  0  0  0  0  0  0  0  0  0  0  0
    7.5551    7.1270   23.1200 O   0  0  0  0  0  0  0  0  0  0  0  0
  1 11  4  0
  1 21  4  0
  2  4  1  0
  2  8  1  0
  2 11  1  0
  3 10  4  0
  3 14  4  0
  4  5  1  0
  4 18  2  0
  6 12  1  0
  6 17  4  0
  6 23  4  0
  7  9  1  0
  7 13  4  0
  7 19  4  0
  9 20  1  0
 10 19  4  0
 11 25  4  0
 13 14  4  0
 15 16  4  0
 15 17  4  0
 15 21  4  0
 16 24  1  0
 16 25  4  0
 20 24  1  0
 20 26  2  0
 21 23  4  0
 22 23  1  0
M  END
$$$$

 Created by Python create_sdf_string function

 26 28  0  0  0  0  0  0  0  0999 V2000
   12.4616    8.6700   19.4180 N   0  0  0  0  0  0  0  0  0  0  0  0
   11.8329   10.8148   18.6769 N   0  0  0  0  0  0  0  0  0  0  0  0
    6.1021    2.5564   21.0678 C   0  0  0  0  0  0  0  0  0  0  0  0
   10.9097   11.8051   18.4804 C   0  0  0  0  0  0  0  0  0  0  0  0
   11.2280   12.9135   17.5669 C   0  0  0  0  0  0  0  0  0  0  0  0
   12.3782    5.4231   20.7777 C   0  0  0  0  0  0  0  0  0  0  0  0
    7.7365    4.6508   21.6987 C   0  0  0  0  0  0  0  0  0  0  0  0
   13.0186   11.0102   18.0020 C   0  0  0  0  0  0  0  0  0  0  0  0
    8.6628    5.7088   21.8871 N   0  0  0  0  0  0  0  0  0  0  0  0
    5.6516    3.5258   21.9140 C   0  0  0  0  0  0  0  0  0  0  0  0
   11.5863    9.6815   19.4539 C   0  0  0  0  0  0  0  0  0  0  0  0
   12.9648    4.1543   20.9205 C   0  0  0  0  0  0  0  0  0  0  0  0
    8.2089    3.6265   20.8929 C   0  0  0  0  0  0  0  0  0  0  0  0
    7.3827    2.5724   20.5432 C   0  0  0  0  0  0  0  0  0  0  0  0
   11.1529    7.2750   20.8025 C   0  0  0  0  0  0  0  0  0  0  0  0
   10.2573    8.3215   20.9827 C   0  0  0  0  0  0  0  0  0  0  0  0
   11.1606    5.9378   21.2366 N   0  0  0  0  0  0  0  0  0  0  0  0
    9.8932   11.6736   19.0677 O   0  0  0  0  0  0  0  0  0  0  0  0
    6.4470    4.5850   22.2321 C   0  0  0  0  0  0  0  0  0  0  0  0
    8.4619    6.9895   22.2968 C   0  0  0  0  0  0  0  0  0  0  0  0
   12.2747    7.5102   20.0420 C   0  0  0  0  0  0  0  0  0  0  0  0
   14.2544    6.2142   19.4191 C   0  0  0  0  0  0  0  0  0  0  0  0
   13.0695    6.3705   20.0375 N   0  0  0  0  0  0  0  0  0  0  0  0
    9.1913    8.0876   21.8361 N   0  0  0  0  0  0  0  0  0  0  0  0
   10.4739    9.4813   20.2889 C   0  0  0  0  0  0  0  0  0  0  0  0
    7.5551    7.1270   23.1200 O   0  0  0  0  0  0  0  0  0  0  0  0
  1 11  4  0
  1 21  4  0
  2  4  1  0
  2  8  1  0
  2 11  1  0
  3 10  4  0
  3 14  4  0
  4  5  1  0
  4 18  2  0
  6 12  1  0
  6 17  4  0
  6 23  4  0
  7  9  1  0
  7 13  4  0
  7 19  4  0
  9 20  1  0
 10 19  4  0
 11 25  4  0
 13 14  4  0
 15 16  4  0
 15 17  4  0
 15 21  4  0
 16 24  1  0
 16 25  4  0
 20 24  1  0
 20 26  2  0
 21 23  4  0
 22 23  1  0
M  END
$$$$

 Created by Python create_sdf_string function

 26 28  0  0  0  0  0  0  0  0999 V2000
   12.4616    8.6700   19.4180 N   0  0  0  0  0  0  0  0  0  0  0  0
   11.8329   10.8148   18.6769 N   0  0  0  0  0  0  0  0  0  0  0  0
    6.1021    2.5564   21.0678 C   0  0  0  0  0  0  0  0  0  0  0  0
   10.9097   11.8051   18.4804 C   0  0  0  0  0  0  0  0  0  0  0  0
   11.2280   12.9135   17.5669 C   0  0  0  0  0  0  0  0  0  0  0  0
   12.3782    5.4231   20.7777 C   0  0  0  0  0  0  0  0  0  0  0  0
    7.7365    4.6508   21.6987 C   0  0  0  0  0  0  0  0  0  0  0  0
   13.0186   11.0102   18.0020 C   0  0  0  0  0  0  0  0  0  0  0  0
    8.6628    5.7088   21.8871 N   0  0  0  0  0  0  0  0  0  0  0  0
    5.6516    3.5258   21.9140 C   0  0  0  0  0  0  0  0  0  0  0  0
   11.5863    9.6815   19.4539 C   0  0  0  0  0  0  0  0  0  0  0  0
   12.9648    4.1543   20.9205 C   0  0  0  0  0  0  0  0  0  0  0  0
    8.2089    3.6265   20.8929 C   0  0  0  0  0  0  0  0  0  0  0  0
    7.3827    2.5724   20.5432 C   0  0  0  0  0  0  0  0  0  0  0  0
   11.1529    7.2750   20.8025 C   0  0  0  0  0  0  0  0  0  0  0  0
   10.2573    8.3215   20.9827 C   0  0  0  0  0  0  0  0  0  0  0  0
   11.1606    5.9378   21.2366 N   0  0  0  0  0  0  0  0  0  0  0  0
    9.8932   11.6736   19.0677 O   0  0  0  0  0  0  0  0  0  0  0  0
    6.4470    4.5850   22.2321 C   0  0  0  0  0  0  0  0  0  0  0  0
    8.4619    6.9895   22.2968 C   0  0  0  0  0  0  0  0  0  0  0  0
   12.2747    7.5102   20.0420 C   0  0  0  0  0  0  0  0  0  0  0  0
   14.2544    6.2142   19.4191 C   0  0  0  0  0  0  0  0  0  0  0  0
   13.0695    6.3705   20.0375 N   0  0  0  0  0  0  0  0  0  0  0  0
    9.1913    8.0876   21.8361 N   0  0  0  0  0  0  0  0  0  0  0  0
   10.4739    9.4813   20.2889 C   0  0  0  0  0  0  0  0  0  0  0  0
    7.5551    7.1270   23.1200 O   0  0  0  0  0  0  0  0  0  0  0  0
  1 11  4  0
  1 21  4  0
  2  4  1  0
  2  8  1  0
  2 11  1  0
  3 10  4  0
  3 14  4  0
  4  5  1  0
  4 18  2  0
  6 12  1  0
  6 17  4  0
  6 23  4  0
  7  9  1  0
  7 13  4  0
  7 19  4  0
  9 20  1  0
 10 19  4  0
 11 25  4  0
 13 14  4  0
 15 16  4  0
 15 17  4  0
 15 21  4  0
 16 24  1  0
 16 25  4  0
 20 24  1  0
 20 26  2  0
 21 23  4  0
 22 23  1  0
M  END
$$$$

 Created by Python create_sdf_string function

 26 28  0  0  0  0  0  0  0  0999 V2000
   12.4616    8.6700   19.4180 N   0  0  0  0  0  0  0  0  0  0  0  0
   11.8329   10.8148   18.6769 N   0  0  0  0  0  0  0  0  0  0  0  0
    6.1021    2.5564   21.0678 C   0  0  0  0  0  0  0  0  0  0  0  0
   10.9097   11.8051   18.4804 C   0  0  0  0  0  0  0  0  0  0  0  0
   11.2280   12.9135   17.5669 C   0  0  0  0  0  0  0  0  0  0  0  0
   12.3782    5.4231   20.7777 C   0  0  0  0  0  0  0  0  0  0  0  0
    7.7365    4.6508   21.6987 C   0  0  0  0  0  0  0  0  0  0  0  0
   13.0186   11.0102   18.0020 C   0  0  0  0  0  0  0  0  0  0  0  0
    8.6628    5.7088   21.8871 N   0  0  0  0  0  0  0  0  0  0  0  0
    5.6516    3.5258   21.9140 C   0  0  0  0  0  0  0  0  0  0  0  0
   11.5863    9.6815   19.4539 C   0  0  0  0  0  0  0  0  0  0  0  0
   12.9648    4.1543   20.9205 C   0  0  0  0  0  0  0  0  0  0  0  0
    8.2089    3.6265   20.8929 C   0  0  0  0  0  0  0  0  0  0  0  0
    7.3827    2.5724   20.5432 C   0  0  0  0  0  0  0  0  0  0  0  0
   11.1529    7.2750   20.8025 C   0  0  0  0  0  0  0  0  0  0  0  0
   10.2573    8.3215   20.9827 C   0  0  0  0  0  0  0  0  0  0  0  0
   11.1606    5.9378   21.2366 N   0  0  0  0  0  0  0  0  0  0  0  0
    9.8932   11.6736   19.0677 O   0  0  0  0  0  0  0  0  0  0  0  0
    6.4470    4.5850   22.2321 C   0  0  0  0  0  0  0  0  0  0  0  0
    8.4619    6.9895   22.2968 C   0  0  0  0  0  0  0  0  0  0  0  0
   12.2747    7.5102   20.0420 C   0  0  0  0  0  0  0  0  0  0  0  0
   14.2544    6.2142   19.4191 C   0  0  0  0  0  0  0  0  0  0  0  0
   13.0695    6.3705   20.0375 N   0  0  0  0  0  0  0  0  0  0  0  0
    9.1913    8.0876   21.8361 N   0  0  0  0  0  0  0  0  0  0  0  0
   10.4739    9.4813   20.2889 C   0  0  0  0  0  0  0  0  0  0  0  0
    7.5551    7.1270   23.1200 O   0  0  0  0  0  0  0  0  0  0  0  0
  1 11  4  0
  1 21  4  0
  2  4  1  0
  2  8  1  0
  2 11  1  0
  3 10  4  0
  3 14  4  0
  4  5  1  0
  4 18  2  0
  6 12  1  0
  6 17  4  0
  6 23  4  0
  7  9  1  0
  7 13  4  0
  7 19  4  0
  9 20  1  0
 10 19  4  0
 11 25  4  0
 13 14  4  0
 15 16  4  0
 15 17  4  0
 15 21  4  0
 16 24  1  0
 16 25  4  0
 20 24  1  0
 20 26  2  0
 21 23  4  0
 22 23  1  0
M  END
$$$$

 Created by Python create_sdf_string function

 26 28  0  0  0  0  0  0  0  0999 V2000
   12.4616    8.6700   19.4180 N   0  0  0  0  0  0  0  0  0  0  0  0
   11.8329   10.8148   18.6769 N   0  0  0  0  0  0  0  0  0  0  0  0
    6.1021    2.5564   21.0678 C   0  0  0  0  0  0  0  0  0  0  0  0
   10.9097   11.8051   18.4804 C   0  0  0  0  0  0  0  0  0  0  0  0
   11.2280   12.9135   17.5669 C   0  0  0  0  0  0  0  0  0  0  0  0
   12.3782    5.4231   20.7777 C   0  0  0  0  0  0  0  0  0  0  0  0
    7.7365    4.6508   21.6987 C   0  0  0  0  0  0  0  0  0  0  0  0
   13.0186   11.0102   18.0020 C   0  0  0  0  0  0  0  0  0  0  0  0
    8.6628    5.7088   21.8871 N   0  0  0  0  0  0  0  0  0  0  0  0
    5.6516    3.5258   21.9140 C   0  0  0  0  0  0  0  0  0  0  0  0
   11.5863    9.6815   19.4539 C   0  0  0  0  0  0  0  0  0  0  0  0
   12.9648    4.1543   20.9205 C   0  0  0  0  0  0  0  0  0  0  0  0
    8.2089    3.6265   20.8929 C   0  0  0  0  0  0  0  0  0  0  0  0
    7.3827    2.5724   20.5432 C   0  0  0  0  0  0  0  0  0  0  0  0
   11.1529    7.2750   20.8025 C   0  0  0  0  0  0  0  0  0  0  0  0
   10.2573    8.3215   20.9827 C   0  0  0  0  0  0  0  0  0  0  0  0
   11.1606    5.9378   21.2366 N   0  0  0  0  0  0  0  0  0  0  0  0
    9.8932   11.6736   19.0677 O   0  0  0  0  0  0  0  0  0  0  0  0
    6.4470    4.5850   22.2321 C   0  0  0  0  0  0  0  0  0  0  0  0
    8.4619    6.9895   22.2968 C   0  0  0  0  0  0  0  0  0  0  0  0
   12.2747    7.5102   20.0420 C   0  0  0  0  0  0  0  0  0  0  0  0
   14.2544    6.2142   19.4191 C   0  0  0  0  0  0  0  0  0  0  0  0
   13.0695    6.3705   20.0375 N   0  0  0  0  0  0  0  0  0  0  0  0
    9.1913    8.0876   21.8361 N   0  0  0  0  0  0  0  0  0  0  0  0
   10.4739    9.4813   20.2889 C   0  0  0  0  0  0  0  0  0  0  0  0
    7.5551    7.1270   23.1200 O   0  0  0  0  0  0  0  0  0  0  0  0
  1 11  4  0
  1 21  4  0
  2  4  1  0
  2  8  1  0
  2 11  1  0
  3 10  4  0
  3 14  4  0
  4  5  1  0
  4 18  2  0
  6 12  1  0
  6 17  4  0
  6 23  4  0
  7  9  1  0
  7 13  4  0
  7 19  4  0
  9 20  1  0
 10 19  4  0
 11 25  4  0
 13 14  4  0
 15 16  4  0
 15 17  4  0
 15 21  4  0
 16 24  1  0
 16 25  4  0
 20 24  1  0
 20 26  2  0
 21 23  4  0
 22 23  1  0
M  END
$$$$

 Created by Python create_sdf_string function

 26 28  0  0  0  0  0  0  0  0999 V2000
   12.4616    8.6700   19.4180 N   0  0  0  0  0  0  0  0  0  0  0  0
   11.8329   10.8148   18.6769 N   0  0  0  0  0  0  0  0  0  0  0  0
    6.1021    2.5564   21.0678 C   0  0  0  0  0  0  0  0  0  0  0  0
   10.9097   11.8051   18.4804 C   0  0  0  0  0  0  0  0  0  0  0  0
   11.2280   12.9135   17.5669 C   0  0  0  0  0  0  0  0  0  0  0  0
   12.3782    5.4231   20.7777 C   0  0  0  0  0  0  0  0  0  0  0  0
    7.7365    4.6508   21.6987 C   0  0  0  0  0  0  0  0  0  0  0  0
   13.0186   11.0102   18.0020 C   0  0  0  0  0  0  0  0  0  0  0  0
    8.6628    5.7088   21.8871 N   0  0  0  0  0  0  0  0  0  0  0  0
    5.6516    3.5258   21.9140 C   0  0  0  0  0  0  0  0  0  0  0  0
   11.5863    9.6815   19.4539 C   0  0  0  0  0  0  0  0  0  0  0  0
   12.9648    4.1543   20.9205 C   0  0  0  0  0  0  0  0  0  0  0  0
    8.2089    3.6265   20.8929 C   0  0  0  0  0  0  0  0  0  0  0  0
    7.3827    2.5724   20.5432 C   0  0  0  0  0  0  0  0  0  0  0  0
   11.1529    7.2750   20.8025 C   0  0  0  0  0  0  0  0  0  0  0  0
   10.2573    8.3215   20.9827 C   0  0  0  0  0  0  0  0  0  0  0  0
   11.1606    5.9378   21.2366 N   0  0  0  0  0  0  0  0  0  0  0  0
    9.8932   11.6736   19.0677 O   0  0  0  0  0  0  0  0  0  0  0  0
    6.4470    4.5850   22.2321 C   0  0  0  0  0  0  0  0  0  0  0  0
    8.4619    6.9895   22.2968 C   0  0  0  0  0  0  0  0  0  0  0  0
   12.2747    7.5102   20.0420 C   0  0  0  0  0  0  0  0  0  0  0  0
   14.2544    6.2142   19.4191 C   0  0  0  0  0  0  0  0  0  0  0  0
   13.0695    6.3705   20.0375 N   0  0  0  0  0  0  0  0  0  0  0  0
    9.1913    8.0876   21.8361 N   0  0  0  0  0  0  0  0  0  0  0  0
   10.4739    9.4813   20.2889 C   0  0  0  0  0  0  0  0  0  0  0  0
    7.5551    7.1270   23.1200 O   0  0  0  0  0  0  0  0  0  0  0  0
  1 11  4  0
  1 21  4  0
  2  4  1  0
  2  8  1  0
  2 11  1  0
  3 10  4  0
  3 14  4  0
  4  5  1  0
  4 18  2  0
  6 12  1  0
  6 17  4  0
  6 23  4  0
  7  9  1  0
  7 13  4  0
  7 19  4  0
  9 20  1  0
 10 19  4  0
 11 25  4  0
 13 14  4  0
 15 16  4  0
 15 17  4  0
 15 21  4  0
 16 24  1  0
 16 25  4  0
 20 24  1  0
 20 26  2  0
 21 23  4  0
 22 23  1  0
M  END
$$$$

 Created by Python create_sdf_string function

 26 28  0  0  0  0  0  0  0  0999 V2000
   12.4616    8.6700   19.4180 N   0  0  0  0  0  0  0  0  0  0  0  0
   11.8329   10.8148   18.6769 N   0  0  0  0  0  0  0  0  0  0  0  0
    6.1021    2.5564   21.0678 C   0  0  0  0  0  0  0  0  0  0  0  0
   10.9097   11.8051   18.4804 C   0  0  0  0  0  0  0  0  0  0  0  0
   11.2280   12.9135   17.5669 C   0  0  0  0  0  0  0  0  0  0  0  0
   12.3782    5.4231   20.7777 C   0  0  0  0  0  0  0  0  0  0  0  0
    7.7365    4.6508   21.6987 C   0  0  0  0  0  0  0  0  0  0  0  0
   13.0186   11.0102   18.0020 C   0  0  0  0  0  0  0  0  0  0  0  0
    8.6628    5.7088   21.8871 N   0  0  0  0  0  0  0  0  0  0  0  0
    5.6516    3.5258   21.9140 C   0  0  0  0  0  0  0  0  0  0  0  0
   11.5863    9.6815   19.4539 C   0  0  0  0  0  0  0  0  0  0  0  0
   12.9648    4.1543   20.9205 C   0  0  0  0  0  0  0  0  0  0  0  0
    8.2089    3.6265   20.8929 C   0  0  0  0  0  0  0  0  0  0  0  0
    7.3827    2.5724   20.5432 C   0  0  0  0  0  0  0  0  0  0  0  0
   11.1529    7.2750   20.8025 C   0  0  0  0  0  0  0  0  0  0  0  0
   10.2573    8.3215   20.9827 C   0  0  0  0  0  0  0  0  0  0  0  0
   11.1606    5.9378   21.2366 N   0  0  0  0  0  0  0  0  0  0  0  0
    9.8932   11.6736   19.0677 O   0  0  0  0  0  0  0  0  0  0  0  0
    6.4470    4.5850   22.2321 C   0  0  0  0  0  0  0  0  0  0  0  0
    8.4619    6.9895   22.2968 C   0  0  0  0  0  0  0  0  0  0  0  0
   12.2747    7.5102   20.0420 C   0  0  0  0  0  0  0  0  0  0  0  0
   14.2544    6.2142   19.4191 C   0  0  0  0  0  0  0  0  0  0  0  0
   13.0695    6.3705   20.0375 N   0  0  0  0  0  0  0  0  0  0  0  0
    9.1913    8.0876   21.8361 N   0  0  0  0  0  0  0  0  0  0  0  0
   10.4739    9.4813   20.2889 C   0  0  0  0  0  0  0  0  0  0  0  0
    7.5551    7.1270   23.1200 O   0  0  0  0  0  0  0  0  0  0  0  0
  1 11  4  0
  1 21  4  0
  2  4  1  0
  2  8  1  0
  2 11  1  0
  3 10  4  0
  3 14  4  0
  4  5  1  0
  4 18  2  0
  6 12  1  0
  6 17  4  0
  6 23  4  0
  7  9  1  0
  7 13  4  0
  7 19  4  0
  9 20  1  0
 10 19  4  0
 11 25  4  0
 13 14  4  0
 15 16  4  0
 15 17  4  0
 15 21  4  0
 16 24  1  0
 16 25  4  0
 20 24  1  0
 20 26  2  0
 21 23  4  0
 22 23  1  0
M  END
$$$$

 Created by Python create_sdf_string function

 26 28  0  0  0  0  0  0  0  0999 V2000
   12.4616    8.6700   19.4180 N   0  0  0  0  0  0  0  0  0  0  0  0
   11.8329   10.8148   18.6769 N   0  0  0  0  0  0  0  0  0  0  0  0
    6.1021    2.5564   21.0678 C   0  0  0  0  0  0  0  0  0  0  0  0
   10.9097   11.8051   18.4804 C   0  0  0  0  0  0  0  0  0  0  0  0
   11.2280   12.9135   17.5669 C   0  0  0  0  0  0  0  0  0  0  0  0
   12.3782    5.4231   20.7777 C   0  0  0  0  0  0  0  0  0  0  0  0
    7.7365    4.6508   21.6987 C   0  0  0  0  0  0  0  0  0  0  0  0
   13.0186   11.0102   18.0020 C   0  0  0  0  0  0  0  0  0  0  0  0
    8.6628    5.7088   21.8871 N   0  0  0  0  0  0  0  0  0  0  0  0
    5.6516    3.5258   21.9140 C   0  0  0  0  0  0  0  0  0  0  0  0
   11.5863    9.6815   19.4539 C   0  0  0  0  0  0  0  0  0  0  0  0
   12.9648    4.1543   20.9205 C   0  0  0  0  0  0  0  0  0  0  0  0
    8.2089    3.6265   20.8929 C   0  0  0  0  0  0  0  0  0  0  0  0
    7.3827    2.5724   20.5432 C   0  0  0  0  0  0  0  0  0  0  0  0
   11.1529    7.2750   20.8025 C   0  0  0  0  0  0  0  0  0  0  0  0
   10.2573    8.3215   20.9827 C   0  0  0  0  0  0  0  0  0  0  0  0
   11.1606    5.9378   21.2366 N   0  0  0  0  0  0  0  0  0  0  0  0
    9.8932   11.6736   19.0677 O   0  0  0  0  0  0  0  0  0  0  0  0
    6.4470    4.5850   22.2321 C   0  0  0  0  0  0  0  0  0  0  0  0
    8.4619    6.9895   22.2968 C   0  0  0  0  0  0  0  0  0  0  0  0
   12.2747    7.5102   20.0420 C   0  0  0  0  0  0  0  0  0  0  0  0
   14.2544    6.2142   19.4191 C   0  0  0  0  0  0  0  0  0  0  0  0
   13.0695    6.3705   20.0375 N   0  0  0  0  0  0  0  0  0  0  0  0
    9.1913    8.0876   21.8361 N   0  0  0  0  0  0  0  0  0  0  0  0
   10.4739    9.4813   20.2889 C   0  0  0  0  0  0  0  0  0  0  0  0
    7.5551    7.1270   23.1200 O   0  0  0  0  0  0  0  0  0  0  0  0
  1 11  4  0
  1 21  4  0
  2  4  1  0
  2  8  1  0
  2 11  1  0
  3 10  4  0
  3 14  4  0
  4  5  1  0
  4 18  2  0
  6 12  1  0
  6 17  4  0
  6 23  4  0
  7  9  1  0
  7 13  4  0
  7 19  4  0
  9 20  1  0
 10 19  4  0
 11 25  4  0
 13 14  4  0
 15 16  4  0
 15 17  4  0
 15 21  4  0
 16 24  1  0
 16 25  4  0
 20 24  1  0
 20 26  2  0
 21 23  4  0
 22 23  1  0
M  END
$$$$

 Created by Python create_sdf_string function

 26 28  0  0  0  0  0  0  0  0999 V2000
   12.4616    8.6700   19.4180 N   0  0  0  0  0  0  0  0  0  0  0  0
   11.8329   10.8148   18.6769 N   0  0  0  0  0  0  0  0  0  0  0  0
    6.1021    2.5564   21.0678 C   0  0  0  0  0  0  0  0  0  0  0  0
   10.9097   11.8051   18.4804 C   0  0  0  0  0  0  0  0  0  0  0  0
   11.2280   12.9135   17.5669 C   0  0  0  0  0  0  0  0  0  0  0  0
   12.3782    5.4231   20.7777 C   0  0  0  0  0  0  0  0  0  0  0  0
    7.7365    4.6508   21.6987 C   0  0  0  0  0  0  0  0  0  0  0  0
   13.0186   11.0102   18.0020 C   0  0  0  0  0  0  0  0  0  0  0  0
    8.6628    5.7088   21.8871 N   0  0  0  0  0  0  0  0  0  0  0  0
    5.6516    3.5258   21.9140 C   0  0  0  0  0  0  0  0  0  0  0  0
   11.5863    9.6815   19.4539 C   0  0  0  0  0  0  0  0  0  0  0  0
   12.9648    4.1543   20.9205 C   0  0  0  0  0  0  0  0  0  0  0  0
    8.2089    3.6265   20.8929 C   0  0  0  0  0  0  0  0  0  0  0  0
    7.3827    2.5724   20.5432 C   0  0  0  0  0  0  0  0  0  0  0  0
   11.1529    7.2750   20.8025 C   0  0  0  0  0  0  0  0  0  0  0  0
   10.2573    8.3215   20.9827 C   0  0  0  0  0  0  0  0  0  0  0  0
   11.1606    5.9378   21.2366 N   0  0  0  0  0  0  0  0  0  0  0  0
    9.8932   11.6736   19.0677 O   0  0  0  0  0  0  0  0  0  0  0  0
    6.4470    4.5850   22.2321 C   0  0  0  0  0  0  0  0  0  0  0  0
    8.4619    6.9895   22.2968 C   0  0  0  0  0  0  0  0  0  0  0  0
   12.2747    7.5102   20.0420 C   0  0  0  0  0  0  0  0  0  0  0  0
   14.2544    6.2142   19.4191 C   0  0  0  0  0  0  0  0  0  0  0  0
   13.0695    6.3705   20.0375 N   0  0  0  0  0  0  0  0  0  0  0  0
    9.1913    8.0876   21.8361 N   0  0  0  0  0  0  0  0  0  0  0  0
   10.4739    9.4813   20.2889 C   0  0  0  0  0  0  0  0  0  0  0  0
    7.5551    7.1270   23.1200 O   0  0  0  0  0  0  0  0  0  0  0  0
  1 11  4  0
  1 21  4  0
  2  4  1  0
  2  8  1  0
  2 11  1  0
  3 10  4  0
  3 14  4  0
  4  5  1  0
  4 18  2  0
  6 12  1  0
  6 17  4  0
  6 23  4  0
  7  9  1  0
  7 13  4  0
  7 19  4  0
  9 20  1  0
 10 19  4  0
 11 25  4  0
 13 14  4  0
 15 16  4  0
 15 17  4  0
 15 21  4  0
 16 24  1  0
 16 25  4  0
 20 24  1  0
 20 26  2  0
 21 23  4  0
 22 23  1  0
M  END
$$$$

 Created by Python create_sdf_string function

 26 28  0  0  0  0  0  0  0  0999 V2000
   12.4616    8.6700   19.4180 N   0  0  0  0  0  0  0  0  0  0  0  0
   11.8329   10.8148   18.6769 N   0  0  0  0  0  0  0  0  0  0  0  0
    6.1021    2.5564   21.0678 C   0  0  0  0  0  0  0  0  0  0  0  0
   10.9097   11.8051   18.4804 C   0  0  0  0  0  0  0  0  0  0  0  0
   11.2280   12.9135   17.5669 C   0  0  0  0  0  0  0  0  0  0  0  0
   12.3782    5.4231   20.7777 C   0  0  0  0  0  0  0  0  0  0  0  0
    7.7365    4.6508   21.6987 C   0  0  0  0  0  0  0  0  0  0  0  0
   13.0186   11.0102   18.0020 C   0  0  0  0  0  0  0  0  0  0  0  0
    8.6628    5.7088   21.8871 N   0  0  0  0  0  0  0  0  0  0  0  0
    5.6516    3.5258   21.9140 C   0  0  0  0  0  0  0  0  0  0  0  0
   11.5863    9.6815   19.4539 C   0  0  0  0  0  0  0  0  0  0  0  0
   12.9648    4.1543   20.9205 C   0  0  0  0  0  0  0  0  0  0  0  0
    8.2089    3.6265   20.8929 C   0  0  0  0  0  0  0  0  0  0  0  0
    7.3827    2.5724   20.5432 C   0  0  0  0  0  0  0  0  0  0  0  0
   11.1529    7.2750   20.8025 C   0  0  0  0  0  0  0  0  0  0  0  0
   10.2573    8.3215   20.9827 C   0  0  0  0  0  0  0  0  0  0  0  0
   11.1606    5.9378   21.2366 N   0  0  0  0  0  0  0  0  0  0  0  0
    9.8932   11.6736   19.0677 O   0  0  0  0  0  0  0  0  0  0  0  0
    6.4470    4.5850   22.2321 C   0  0  0  0  0  0  0  0  0  0  0  0
    8.4619    6.9895   22.2968 C   0  0  0  0  0  0  0  0  0  0  0  0
   12.2747    7.5102   20.0420 C   0  0  0  0  0  0  0  0  0  0  0  0
   14.2544    6.2142   19.4191 C   0  0  0  0  0  0  0  0  0  0  0  0
   13.0695    6.3705   20.0375 N   0  0  0  0  0  0  0  0  0  0  0  0
    9.1913    8.0876   21.8361 N   0  0  0  0  0  0  0  0  0  0  0  0
   10.4739    9.4813   20.2889 C   0  0  0  0  0  0  0  0  0  0  0  0
    7.5551    7.1270   23.1200 O   0  0  0  0  0  0  0  0  0  0  0  0
  1 11  4  0
  1 21  4  0
  2  4  1  0
  2  8  1  0
  2 11  1  0
  3 10  4  0
  3 14  4  0
  4  5  1  0
  4 18  2  0
  6 12  1  0
  6 17  4  0
  6 23  4  0
  7  9  1  0
  7 13  4  0
  7 19  4  0
  9 20  1  0
 10 19  4  0
 11 25  4  0
 13 14  4  0
 15 16  4  0
 15 17  4  0
 15 21  4  0
 16 24  1  0
 16 25  4  0
 20 24  1  0
 20 26  2  0
 21 23  4  0
 22 23  1  0
M  END
$$$$

 Created by Python create_sdf_string function

 26 28  0  0  0  0  0  0  0  0999 V2000
   12.4616    8.6700   19.4180 N   0  0  0  0  0  0  0  0  0  0  0  0
   11.8329   10.8148   18.6769 N   0  0  0  0  0  0  0  0  0  0  0  0
    6.1021    2.5564   21.0678 C   0  0  0  0  0  0  0  0  0  0  0  0
   10.9097   11.8051   18.4804 C   0  0  0  0  0  0  0  0  0  0  0  0
   11.2280   12.9135   17.5669 C   0  0  0  0  0  0  0  0  0  0  0  0
   12.3782    5.4231   20.7777 C   0  0  0  0  0  0  0  0  0  0  0  0
    7.7365    4.6508   21.6987 C   0  0  0  0  0  0  0  0  0  0  0  0
   13.0186   11.0102   18.0020 C   0  0  0  0  0  0  0  0  0  0  0  0
    8.6628    5.7088   21.8871 N   0  0  0  0  0  0  0  0  0  0  0  0
    5.6516    3.5258   21.9140 C   0  0  0  0  0  0  0  0  0  0  0  0
   11.5863    9.6815   19.4539 C   0  0  0  0  0  0  0  0  0  0  0  0
   12.9648    4.1543   20.9205 C   0  0  0  0  0  0  0  0  0  0  0  0
    8.2089    3.6265   20.8929 C   0  0  0  0  0  0  0  0  0  0  0  0
    7.3827    2.5724   20.5432 C   0  0  0  0  0  0  0  0  0  0  0  0
   11.1529    7.2750   20.8025 C   0  0  0  0  0  0  0  0  0  0  0  0
   10.2573    8.3215   20.9827 C   0  0  0  0  0  0  0  0  0  0  0  0
   11.1606    5.9378   21.2366 N   0  0  0  0  0  0  0  0  0  0  0  0
    9.8932   11.6736   19.0677 O   0  0  0  0  0  0  0  0  0  0  0  0
    6.4470    4.5850   22.2321 C   0  0  0  0  0  0  0  0  0  0  0  0
    8.4619    6.9895   22.2968 C   0  0  0  0  0  0  0  0  0  0  0  0
   12.2747    7.5102   20.0420 C   0  0  0  0  0  0  0  0  0  0  0  0
   14.2544    6.2142   19.4191 C   0  0  0  0  0  0  0  0  0  0  0  0
   13.0695    6.3705   20.0375 N   0  0  0  0  0  0  0  0  0  0  0  0
    9.1913    8.0876   21.8361 N   0  0  0  0  0  0  0  0  0  0  0  0
   10.4739    9.4813   20.2889 C   0  0  0  0  0  0  0  0  0  0  0  0
    7.5551    7.1270   23.1200 O   0  0  0  0  0  0  0  0  0  0  0  0
  1 11  4  0
  1 21  4  0
  2  4  1  0
  2  8  1  0
  2 11  1  0
  3 10  4  0
  3 14  4  0
  4  5  1  0
  4 18  2  0
  6 12  1  0
  6 17  4  0
  6 23  4  0
  7  9  1  0
  7 13  4  0
  7 19  4  0
  9 20  1  0
 10 19  4  0
 11 25  4  0
 13 14  4  0
 15 16  4  0
 15 17  4  0
 15 21  4  0
 16 24  1  0
 16 25  4  0
 20 24  1  0
 20 26  2  0
 21 23  4  0
 22 23  1  0
M  END
$$$$

 Created by Python create_sdf_string function

 26 28  0  0  0  0  0  0  0  0999 V2000
   12.4616    8.6700   19.4180 N   0  0  0  0  0  0  0  0  0  0  0  0
   11.8329   10.8148   18.6769 N   0  0  0  0  0  0  0  0  0  0  0  0
    6.1021    2.5564   21.0678 C   0  0  0  0  0  0  0  0  0  0  0  0
   10.9097   11.8051   18.4804 C   0  0  0  0  0  0  0  0  0  0  0  0
   11.2280   12.9135   17.5669 C   0  0  0  0  0  0  0  0  0  0  0  0
   12.3782    5.4231   20.7777 C   0  0  0  0  0  0  0  0  0  0  0  0
    7.7365    4.6508   21.6987 C   0  0  0  0  0  0  0  0  0  0  0  0
   13.0186   11.0102   18.0020 C   0  0  0  0  0  0  0  0  0  0  0  0
    8.6628    5.7088   21.8871 N   0  0  0  0  0  0  0  0  0  0  0  0
    5.6516    3.5258   21.9140 C   0  0  0  0  0  0  0  0  0  0  0  0
   11.5863    9.6815   19.4539 C   0  0  0  0  0  0  0  0  0  0  0  0
   12.9648    4.1543   20.9205 C   0  0  0  0  0  0  0  0  0  0  0  0
    8.2089    3.6265   20.8929 C   0  0  0  0  0  0  0  0  0  0  0  0
    7.3827    2.5724   20.5432 C   0  0  0  0  0  0  0  0  0  0  0  0
   11.1529    7.2750   20.8025 C   0  0  0  0  0  0  0  0  0  0  0  0
   10.2573    8.3215   20.9827 C   0  0  0  0  0  0  0  0  0  0  0  0
   11.1606    5.9378   21.2366 N   0  0  0  0  0  0  0  0  0  0  0  0
    9.8932   11.6736   19.0677 O   0  0  0  0  0  0  0  0  0  0  0  0
    6.4470    4.5850   22.2321 C   0  0  0  0  0  0  0  0  0  0  0  0
    8.4619    6.9895   22.2968 C   0  0  0  0  0  0  0  0  0  0  0  0
   12.2747    7.5102   20.0420 C   0  0  0  0  0  0  0  0  0  0  0  0
   14.2544    6.2142   19.4191 C   0  0  0  0  0  0  0  0  0  0  0  0
   13.0695    6.3705   20.0375 N   0  0  0  0  0  0  0  0  0  0  0  0
    9.1913    8.0876   21.8361 N   0  0  0  0  0  0  0  0  0  0  0  0
   10.4739    9.4813   20.2889 C   0  0  0  0  0  0  0  0  0  0  0  0
    7.5551    7.1270   23.1200 O   0  0  0  0  0  0  0  0  0  0  0  0
  1 11  4  0
  1 21  4  0
  2  4  1  0
  2  8  1  0
  2 11  1  0
  3 10  4  0
  3 14  4  0
  4  5  1  0
  4 18  2  0
  6 12  1  0
  6 17  4  0
  6 23  4  0
  7  9  1  0
  7 13  4  0
  7 19  4  0
  9 20  1  0
 10 19  4  0
 11 25  4  0
 13 14  4  0
 15 16  4  0
 15 17  4  0
 15 21  4  0
 16 24  1  0
 16 25  4  0
 20 24  1  0
 20 26  2  0
 21 23  4  0
 22 23  1  0
M  END
$$$$

 Created by Python create_sdf_string function

 26 28  0  0  0  0  0  0  0  0999 V2000
   12.4616    8.6700   19.4180 N   0  0  0  0  0  0  0  0  0  0  0  0
   11.8329   10.8148   18.6769 N   0  0  0  0  0  0  0  0  0  0  0  0
    6.1021    2.5564   21.0678 C   0  0  0  0  0  0  0  0  0  0  0  0
   10.9097   11.8051   18.4804 C   0  0  0  0  0  0  0  0  0  0  0  0
   11.2280   12.9135   17.5669 C   0  0  0  0  0  0  0  0  0  0  0  0
   12.3782    5.4231   20.7777 C   0  0  0  0  0  0  0  0  0  0  0  0
    7.7365    4.6508   21.6987 C   0  0  0  0  0  0  0  0  0  0  0  0
   13.0186   11.0102   18.0020 C   0  0  0  0  0  0  0  0  0  0  0  0
    8.6628    5.7088   21.8871 N   0  0  0  0  0  0  0  0  0  0  0  0
    5.6516    3.5258   21.9140 C   0  0  0  0  0  0  0  0  0  0  0  0
   11.5863    9.6815   19.4539 C   0  0  0  0  0  0  0  0  0  0  0  0
   12.9648    4.1543   20.9205 C   0  0  0  0  0  0  0  0  0  0  0  0
    8.2089    3.6265   20.8929 C   0  0  0  0  0  0  0  0  0  0  0  0
    7.3827    2.5724   20.5432 C   0  0  0  0  0  0  0  0  0  0  0  0
   11.1529    7.2750   20.8025 C   0  0  0  0  0  0  0  0  0  0  0  0
   10.2573    8.3215   20.9827 C   0  0  0  0  0  0  0  0  0  0  0  0
   11.1606    5.9378   21.2366 N   0  0  0  0  0  0  0  0  0  0  0  0
    9.8932   11.6736   19.0677 O   0  0  0  0  0  0  0  0  0  0  0  0
    6.4470    4.5850   22.2321 C   0  0  0  0  0  0  0  0  0  0  0  0
    8.4619    6.9895   22.2968 C   0  0  0  0  0  0  0  0  0  0  0  0
   12.2747    7.5102   20.0420 C   0  0  0  0  0  0  0  0  0  0  0  0
   14.2544    6.2142   19.4191 C   0  0  0  0  0  0  0  0  0  0  0  0
   13.0695    6.3705   20.0375 N   0  0  0  0  0  0  0  0  0  0  0  0
    9.1913    8.0876   21.8361 N   0  0  0  0  0  0  0  0  0  0  0  0
   10.4739    9.4813   20.2889 C   0  0  0  0  0  0  0  0  0  0  0  0
    7.5551    7.1270   23.1200 O   0  0  0  0  0  0  0  0  0  0  0  0
  1 11  4  0
  1 21  4  0
  2  4  1  0
  2  8  1  0
  2 11  1  0
  3 10  4  0
  3 14  4  0
  4  5  1  0
  4 18  2  0
  6 12  1  0
  6 17  4  0
  6 23  4  0
  7  9  1  0
  7 13  4  0
  7 19  4  0
  9 20  1  0
 10 19  4  0
 11 25  4  0
 13 14  4  0
 15 16  4  0
 15 17  4  0
 15 21  4  0
 16 24  1  0
 16 25  4  0
 20 24  1  0
 20 26  2  0
 21 23  4  0
 22 23  1  0
M  END
$$$$

 Created by Python create_sdf_string function

 26 28  0  0  0  0  0  0  0  0999 V2000
   12.4616    8.6700   19.4180 N   0  0  0  0  0  0  0  0  0  0  0  0
   11.8329   10.8148   18.6769 N   0  0  0  0  0  0  0  0  0  0  0  0
    6.1021    2.5564   21.0678 C   0  0  0  0  0  0  0  0  0  0  0  0
   10.9097   11.8051   18.4804 C   0  0  0  0  0  0  0  0  0  0  0  0
   11.2280   12.9135   17.5669 C   0  0  0  0  0  0  0  0  0  0  0  0
   12.3782    5.4231   20.7777 C   0  0  0  0  0  0  0  0  0  0  0  0
    7.7365    4.6508   21.6987 C   0  0  0  0  0  0  0  0  0  0  0  0
   13.0186   11.0102   18.0020 C   0  0  0  0  0  0  0  0  0  0  0  0
    8.6628    5.7088   21.8871 N   0  0  0  0  0  0  0  0  0  0  0  0
    5.6516    3.5258   21.9140 C   0  0  0  0  0  0  0  0  0  0  0  0
   11.5863    9.6815   19.4539 C   0  0  0  0  0  0  0  0  0  0  0  0
   12.9648    4.1543   20.9205 C   0  0  0  0  0  0  0  0  0  0  0  0
    8.2089    3.6265   20.8929 C   0  0  0  0  0  0  0  0  0  0  0  0
    7.3827    2.5724   20.5432 C   0  0  0  0  0  0  0  0  0  0  0  0
   11.1529    7.2750   20.8025 C   0  0  0  0  0  0  0  0  0  0  0  0
   10.2573    8.3215   20.9827 C   0  0  0  0  0  0  0  0  0  0  0  0
   11.1606    5.9378   21.2366 N   0  0  0  0  0  0  0  0  0  0  0  0
    9.8932   11.6736   19.0677 O   0  0  0  0  0  0  0  0  0  0  0  0
    6.4470    4.5850   22.2321 C   0  0  0  0  0  0  0  0  0  0  0  0
    8.4619    6.9895   22.2968 C   0  0  0  0  0  0  0  0  0  0  0  0
   12.2747    7.5102   20.0420 C   0  0  0  0  0  0  0  0  0  0  0  0
   14.2544    6.2142   19.4191 C   0  0  0  0  0  0  0  0  0  0  0  0
   13.0695    6.3705   20.0375 N   0  0  0  0  0  0  0  0  0  0  0  0
    9.1913    8.0876   21.8361 N   0  0  0  0  0  0  0  0  0  0  0  0
   10.4739    9.4813   20.2889 C   0  0  0  0  0  0  0  0  0  0  0  0
    7.5551    7.1270   23.1200 O   0  0  0  0  0  0  0  0  0  0  0  0
  1 11  4  0
  1 21  4  0
  2  4  1  0
  2  8  1  0
  2 11  1  0
  3 10  4  0
  3 14  4  0
  4  5  1  0
  4 18  2  0
  6 12  1  0
  6 17  4  0
  6 23  4  0
  7  9  1  0
  7 13  4  0
  7 19  4  0
  9 20  1  0
 10 19  4  0
 11 25  4  0
 13 14  4  0
 15 16  4  0
 15 17  4  0
 15 21  4  0
 16 24  1  0
 16 25  4  0
 20 24  1  0
 20 26  2  0
 21 23  4  0
 22 23  1  0
M  END
$$$$

 Created by Python create_sdf_string function

 26 28  0  0  0  0  0  0  0  0999 V2000
   12.4616    8.6700   19.4180 N   0  0  0  0  0  0  0  0  0  0  0  0
   11.8329   10.8148   18.6769 N   0  0  0  0  0  0  0  0  0  0  0  0
    6.1021    2.5564   21.0678 C   0  0  0  0  0  0  0  0  0  0  0  0
   10.9097   11.8051   18.4804 C   0  0  0  0  0  0  0  0  0  0  0  0
   11.2280   12.9135   17.5669 C   0  0  0  0  0  0  0  0  0  0  0  0
   12.3782    5.4231   20.7777 C   0  0  0  0  0  0  0  0  0  0  0  0
    7.7365    4.6508   21.6987 C   0  0  0  0  0  0  0  0  0  0  0  0
   13.0186   11.0102   18.0020 C   0  0  0  0  0  0  0  0  0  0  0  0
    8.6628    5.7088   21.8871 N   0  0  0  0  0  0  0  0  0  0  0  0
    5.6516    3.5258   21.9140 C   0  0  0  0  0  0  0  0  0  0  0  0
   11.5863    9.6815   19.4539 C   0  0  0  0  0  0  0  0  0  0  0  0
   12.9648    4.1543   20.9205 C   0  0  0  0  0  0  0  0  0  0  0  0
    8.2089    3.6265   20.8929 C   0  0  0  0  0  0  0  0  0  0  0  0
    7.3827    2.5724   20.5432 C   0  0  0  0  0  0  0  0  0  0  0  0
   11.1529    7.2750   20.8025 C   0  0  0  0  0  0  0  0  0  0  0  0
   10.2573    8.3215   20.9827 C   0  0  0  0  0  0  0  0  0  0  0  0
   11.1606    5.9378   21.2366 N   0  0  0  0  0  0  0  0  0  0  0  0
    9.8932   11.6736   19.0677 O   0  0  0  0  0  0  0  0  0  0  0  0
    6.4470    4.5850   22.2321 C   0  0  0  0  0  0  0  0  0  0  0  0
    8.4619    6.9895   22.2968 C   0  0  0  0  0  0  0  0  0  0  0  0
   12.2747    7.5102   20.0420 C   0  0  0  0  0  0  0  0  0  0  0  0
   14.2544    6.2142   19.4191 C   0  0  0  0  0  0  0  0  0  0  0  0
   13.0695    6.3705   20.0375 N   0  0  0  0  0  0  0  0  0  0  0  0
    9.1913    8.0876   21.8361 N   0  0  0  0  0  0  0  0  0  0  0  0
   10.4739    9.4813   20.2889 C   0  0  0  0  0  0  0  0  0  0  0  0
    7.5551    7.1270   23.1200 O   0  0  0  0  0  0  0  0  0  0  0  0
  1 11  4  0
  1 21  4  0
  2  4  1  0
  2  8  1  0
  2 11  1  0
  3 10  4  0
  3 14  4  0
  4  5  1  0
  4 18  2  0
  6 12  1  0
  6 17  4  0
  6 23  4  0
  7  9  1  0
  7 13  4  0
  7 19  4  0
  9 20  1  0
 10 19  4  0
 11 25  4  0
 13 14  4  0
 15 16  4  0
 15 17  4  0
 15 21  4  0
 16 24  1  0
 16 25  4  0
 20 24  1  0
 20 26  2  0
 21 23  4  0
 22 23  1  0
M  END
$$$$

 Created by Python create_sdf_string function

 26 28  0  0  0  0  0  0  0  0999 V2000
   12.4616    8.6700   19.4180 N   0  0  0  0  0  0  0  0  0  0  0  0
   11.8329   10.8148   18.6769 N   0  0  0  0  0  0  0  0  0  0  0  0
    6.1021    2.5564   21.0678 C   0  0  0  0  0  0  0  0  0  0  0  0
   10.9097   11.8051   18.4804 C   0  0  0  0  0  0  0  0  0  0  0  0
   11.2280   12.9135   17.5669 C   0  0  0  0  0  0  0  0  0  0  0  0
   12.3782    5.4231   20.7777 C   0  0  0  0  0  0  0  0  0  0  0  0
    7.7365    4.6508   21.6987 C   0  0  0  0  0  0  0  0  0  0  0  0
   13.0186   11.0102   18.0020 C   0  0  0  0  0  0  0  0  0  0  0  0
    8.6628    5.7088   21.8871 N   0  0  0  0  0  0  0  0  0  0  0  0
    5.6516    3.5258   21.9140 C   0  0  0  0  0  0  0  0  0  0  0  0
   11.5863    9.6815   19.4539 C   0  0  0  0  0  0  0  0  0  0  0  0
   12.9648    4.1543   20.9205 C   0  0  0  0  0  0  0  0  0  0  0  0
    8.2089    3.6265   20.8929 C   0  0  0  0  0  0  0  0  0  0  0  0
    7.3827    2.5724   20.5432 C   0  0  0  0  0  0  0  0  0  0  0  0
   11.1529    7.2750   20.8025 C   0  0  0  0  0  0  0  0  0  0  0  0
   10.2573    8.3215   20.9827 C   0  0  0  0  0  0  0  0  0  0  0  0
   11.1606    5.9378   21.2366 N   0  0  0  0  0  0  0  0  0  0  0  0
    9.8932   11.6736   19.0677 O   0  0  0  0  0  0  0  0  0  0  0  0
    6.4470    4.5850   22.2321 C   0  0  0  0  0  0  0  0  0  0  0  0
    8.4619    6.9895   22.2968 C   0  0  0  0  0  0  0  0  0  0  0  0
   12.2747    7.5102   20.0420 C   0  0  0  0  0  0  0  0  0  0  0  0
   14.2544    6.2142   19.4191 C   0  0  0  0  0  0  0  0  0  0  0  0
   13.0695    6.3705   20.0375 N   0  0  0  0  0  0  0  0  0  0  0  0
    9.1913    8.0876   21.8361 N   0  0  0  0  0  0  0  0  0  0  0  0
   10.4739    9.4813   20.2889 C   0  0  0  0  0  0  0  0  0  0  0  0
    7.5551    7.1270   23.1200 O   0  0  0  0  0  0  0  0  0  0  0  0
  1 11  4  0
  1 21  4  0
  2  4  1  0
  2  8  1  0
  2 11  1  0
  3 10  4  0
  3 14  4  0
  4  5  1  0
  4 18  2  0
  6 12  1  0
  6 17  4  0
  6 23  4  0
  7  9  1  0
  7 13  4  0
  7 19  4  0
  9 20  1  0
 10 19  4  0
 11 25  4  0
 13 14  4  0
 15 16  4  0
 15 17  4  0
 15 21  4  0
 16 24  1  0
 16 25  4  0
 20 24  1  0
 20 26  2  0
 21 23  4  0
 22 23  1  0
M  END
$$$$

 Created by Python create_sdf_string function

 26 28  0  0  0  0  0  0  0  0999 V2000
   12.4616    8.6700   19.4180 N   0  0  0  0  0  0  0  0  0  0  0  0
   11.8329   10.8148   18.6769 N   0  0  0  0  0  0  0  0  0  0  0  0
    6.1021    2.5564   21.0678 C   0  0  0  0  0  0  0  0  0  0  0  0
   10.9097   11.8051   18.4804 C   0  0  0  0  0  0  0  0  0  0  0  0
   11.2280   12.9135   17.5669 C   0  0  0  0  0  0  0  0  0  0  0  0
   12.3782    5.4231   20.7777 C   0  0  0  0  0  0  0  0  0  0  0  0
    7.7365    4.6508   21.6987 C   0  0  0  0  0  0  0  0  0  0  0  0
   13.0186   11.0102   18.0020 C   0  0  0  0  0  0  0  0  0  0  0  0
    8.6628    5.7088   21.8871 N   0  0  0  0  0  0  0  0  0  0  0  0
    5.6516    3.5258   21.9140 C   0  0  0  0  0  0  0  0  0  0  0  0
   11.5863    9.6815   19.4539 C   0  0  0  0  0  0  0  0  0  0  0  0
   12.9648    4.1543   20.9205 C   0  0  0  0  0  0  0  0  0  0  0  0
    8.2089    3.6265   20.8929 C   0  0  0  0  0  0  0  0  0  0  0  0
    7.3827    2.5724   20.5432 C   0  0  0  0  0  0  0  0  0  0  0  0
   11.1529    7.2750   20.8025 C   0  0  0  0  0  0  0  0  0  0  0  0
   10.2573    8.3215   20.9827 C   0  0  0  0  0  0  0  0  0  0  0  0
   11.1606    5.9378   21.2366 N   0  0  0  0  0  0  0  0  0  0  0  0
    9.8932   11.6736   19.0677 O   0  0  0  0  0  0  0  0  0  0  0  0
    6.4470    4.5850   22.2321 C   0  0  0  0  0  0  0  0  0  0  0  0
    8.4619    6.9895   22.2968 C   0  0  0  0  0  0  0  0  0  0  0  0
   12.2747    7.5102   20.0420 C   0  0  0  0  0  0  0  0  0  0  0  0
   14.2544    6.2142   19.4191 C   0  0  0  0  0  0  0  0  0  0  0  0
   13.0695    6.3705   20.0375 N   0  0  0  0  0  0  0  0  0  0  0  0
    9.1913    8.0876   21.8361 N   0  0  0  0  0  0  0  0  0  0  0  0
   10.4739    9.4813   20.2889 C   0  0  0  0  0  0  0  0  0  0  0  0
    7.5551    7.1270   23.1200 O   0  0  0  0  0  0  0  0  0  0  0  0
  1 11  4  0
  1 21  4  0
  2  4  1  0
  2  8  1  0
  2 11  1  0
  3 10  4  0
  3 14  4  0
  4  5  1  0
  4 18  2  0
  6 12  1  0
  6 17  4  0
  6 23  4  0
  7  9  1  0
  7 13  4  0
  7 19  4  0
  9 20  1  0
 10 19  4  0
 11 25  4  0
 13 14  4  0
 15 16  4  0
 15 17  4  0
 15 21  4  0
 16 24  1  0
 16 25  4  0
 20 24  1  0
 20 26  2  0
 21 23  4  0
 22 23  1  0
M  END
$$$$

 Created by Python create_sdf_string function

 26 28  0  0  0  0  0  0  0  0999 V2000
   12.4616    8.6700   19.4180 N   0  0  0  0  0  0  0  0  0  0  0  0
   11.8329   10.8148   18.6769 N   0  0  0  0  0  0  0  0  0  0  0  0
    6.1021    2.5564   21.0678 C   0  0  0  0  0  0  0  0  0  0  0  0
   10.9097   11.8051   18.4804 C   0  0  0  0  0  0  0  0  0  0  0  0
   11.2280   12.9135   17.5669 C   0  0  0  0  0  0  0  0  0  0  0  0
   12.3782    5.4231   20.7777 C   0  0  0  0  0  0  0  0  0  0  0  0
    7.7365    4.6508   21.6987 C   0  0  0  0  0  0  0  0  0  0  0  0
   13.0186   11.0102   18.0020 C   0  0  0  0  0  0  0  0  0  0  0  0
    8.6628    5.7088   21.8871 N   0  0  0  0  0  0  0  0  0  0  0  0
    5.6516    3.5258   21.9140 C   0  0  0  0  0  0  0  0  0  0  0  0
   11.5863    9.6815   19.4539 C   0  0  0  0  0  0  0  0  0  0  0  0
   12.9648    4.1543   20.9205 C   0  0  0  0  0  0  0  0  0  0  0  0
    8.2089    3.6265   20.8929 C   0  0  0  0  0  0  0  0  0  0  0  0
    7.3827    2.5724   20.5432 C   0  0  0  0  0  0  0  0  0  0  0  0
   11.1529    7.2750   20.8025 C   0  0  0  0  0  0  0  0  0  0  0  0
   10.2573    8.3215   20.9827 C   0  0  0  0  0  0  0  0  0  0  0  0
   11.1606    5.9378   21.2366 N   0  0  0  0  0  0  0  0  0  0  0  0
    9.8932   11.6736   19.0677 O   0  0  0  0  0  0  0  0  0  0  0  0
    6.4470    4.5850   22.2321 C   0  0  0  0  0  0  0  0  0  0  0  0
    8.4619    6.9895   22.2968 C   0  0  0  0  0  0  0  0  0  0  0  0
   12.2747    7.5102   20.0420 C   0  0  0  0  0  0  0  0  0  0  0  0
   14.2544    6.2142   19.4191 C   0  0  0  0  0  0  0  0  0  0  0  0
   13.0695    6.3705   20.0375 N   0  0  0  0  0  0  0  0  0  0  0  0
    9.1913    8.0876   21.8361 N   0  0  0  0  0  0  0  0  0  0  0  0
   10.4739    9.4813   20.2889 C   0  0  0  0  0  0  0  0  0  0  0  0
    7.5551    7.1270   23.1200 O   0  0  0  0  0  0  0  0  0  0  0  0
  1 11  4  0
  1 21  4  0
  2  4  1  0
  2  8  1  0
  2 11  1  0
  3 10  4  0
  3 14  4  0
  4  5  1  0
  4 18  2  0
  6 12  1  0
  6 17  4  0
  6 23  4  0
  7  9  1  0
  7 13  4  0
  7 19  4  0
  9 20  1  0
 10 19  4  0
 11 25  4  0
 13 14  4  0
 15 16  4  0
 15 17  4  0
 15 21  4  0
 16 24  1  0
 16 25  4  0
 20 24  1  0
 20 26  2  0
 21 23  4  0
 22 23  1  0
M  END
$$$$

 Created by Python create_sdf_string function

 26 28  0  0  0  0  0  0  0  0999 V2000
   12.4616    8.6700   19.4180 N   0  0  0  0  0  0  0  0  0  0  0  0
   11.8329   10.8148   18.6769 N   0  0  0  0  0  0  0  0  0  0  0  0
    6.1021    2.5564   21.0678 C   0  0  0  0  0  0  0  0  0  0  0  0
   10.9097   11.8051   18.4804 C   0  0  0  0  0  0  0  0  0  0  0  0
   11.2280   12.9135   17.5669 C   0  0  0  0  0  0  0  0  0  0  0  0
   12.3782    5.4231   20.7777 C   0  0  0  0  0  0  0  0  0  0  0  0
    7.7365    4.6508   21.6987 C   0  0  0  0  0  0  0  0  0  0  0  0
   13.0186   11.0102   18.0020 C   0  0  0  0  0  0  0  0  0  0  0  0
    8.6628    5.7088   21.8871 N   0  0  0  0  0  0  0  0  0  0  0  0
    5.6516    3.5258   21.9140 C   0  0  0  0  0  0  0  0  0  0  0  0
   11.5863    9.6815   19.4539 C   0  0  0  0  0  0  0  0  0  0  0  0
   12.9648    4.1543   20.9205 C   0  0  0  0  0  0  0  0  0  0  0  0
    8.2089    3.6265   20.8929 C   0  0  0  0  0  0  0  0  0  0  0  0
    7.3827    2.5724   20.5432 C   0  0  0  0  0  0  0  0  0  0  0  0
   11.1529    7.2750   20.8025 C   0  0  0  0  0  0  0  0  0  0  0  0
   10.2573    8.3215   20.9827 C   0  0  0  0  0  0  0  0  0  0  0  0
   11.1606    5.9378   21.2366 N   0  0  0  0  0  0  0  0  0  0  0  0
    9.8932   11.6736   19.0677 O   0  0  0  0  0  0  0  0  0  0  0  0
    6.4470    4.5850   22.2321 C   0  0  0  0  0  0  0  0  0  0  0  0
    8.4619    6.9895   22.2968 C   0  0  0  0  0  0  0  0  0  0  0  0
   12.2747    7.5102   20.0420 C   0  0  0  0  0  0  0  0  0  0  0  0
   14.2544    6.2142   19.4191 C   0  0  0  0  0  0  0  0  0  0  0  0
   13.0695    6.3705   20.0375 N   0  0  0  0  0  0  0  0  0  0  0  0
    9.1913    8.0876   21.8361 N   0  0  0  0  0  0  0  0  0  0  0  0
   10.4739    9.4813   20.2889 C   0  0  0  0  0  0  0  0  0  0  0  0
    7.5551    7.1270   23.1200 O   0  0  0  0  0  0  0  0  0  0  0  0
  1 11  4  0
  1 21  4  0
  2  4  1  0
  2  8  1  0
  2 11  1  0
  3 10  4  0
  3 14  4  0
  4  5  1  0
  4 18  2  0
  6 12  1  0
  6 17  4  0
  6 23  4  0
  7  9  1  0
  7 13  4  0
  7 19  4  0
  9 20  1  0
 10 19  4  0
 11 25  4  0
 13 14  4  0
 15 16  4  0
 15 17  4  0
 15 21  4  0
 16 24  1  0
 16 25  4  0
 20 24  1  0
 20 26  2  0
 21 23  4  0
 22 23  1  0
M  END
$$$$

 Created by Python create_sdf_string function

 26 28  0  0  0  0  0  0  0  0999 V2000
   12.4616    8.6700   19.4180 N   0  0  0  0  0  0  0  0  0  0  0  0
   11.8329   10.8148   18.6769 N   0  0  0  0  0  0  0  0  0  0  0  0
    6.1021    2.5564   21.0678 C   0  0  0  0  0  0  0  0  0  0  0  0
   10.9097   11.8051   18.4804 C   0  0  0  0  0  0  0  0  0  0  0  0
   11.2280   12.9135   17.5669 C   0  0  0  0  0  0  0  0  0  0  0  0
   12.3782    5.4231   20.7777 C   0  0  0  0  0  0  0  0  0  0  0  0
    7.7365    4.6508   21.6987 C   0  0  0  0  0  0  0  0  0  0  0  0
   13.0186   11.0102   18.0020 C   0  0  0  0  0  0  0  0  0  0  0  0
    8.6628    5.7088   21.8871 N   0  0  0  0  0  0  0  0  0  0  0  0
    5.6516    3.5258   21.9140 C   0  0  0  0  0  0  0  0  0  0  0  0
   11.5863    9.6815   19.4539 C   0  0  0  0  0  0  0  0  0  0  0  0
   12.9648    4.1543   20.9205 C   0  0  0  0  0  0  0  0  0  0  0  0
    8.2089    3.6265   20.8929 C   0  0  0  0  0  0  0  0  0  0  0  0
    7.3827    2.5724   20.5432 C   0  0  0  0  0  0  0  0  0  0  0  0
   11.1529    7.2750   20.8025 C   0  0  0  0  0  0  0  0  0  0  0  0
   10.2573    8.3215   20.9827 C   0  0  0  0  0  0  0  0  0  0  0  0
   11.1606    5.9378   21.2366 N   0  0  0  0  0  0  0  0  0  0  0  0
    9.8932   11.6736   19.0677 O   0  0  0  0  0  0  0  0  0  0  0  0
    6.4470    4.5850   22.2321 C   0  0  0  0  0  0  0  0  0  0  0  0
    8.4619    6.9895   22.2968 C   0  0  0  0  0  0  0  0  0  0  0  0
   12.2747    7.5102   20.0420 C   0  0  0  0  0  0  0  0  0  0  0  0
   14.2544    6.2142   19.4191 C   0  0  0  0  0  0  0  0  0  0  0  0
   13.0695    6.3705   20.0375 N   0  0  0  0  0  0  0  0  0  0  0  0
    9.1913    8.0876   21.8361 N   0  0  0  0  0  0  0  0  0  0  0  0
   10.4739    9.4813   20.2889 C   0  0  0  0  0  0  0  0  0  0  0  0
    7.5551    7.1270   23.1200 O   0  0  0  0  0  0  0  0  0  0  0  0
  1 11  4  0
  1 21  4  0
  2  4  1  0
  2  8  1  0
  2 11  1  0
  3 10  4  0
  3 14  4  0
  4  5  1  0
  4 18  2  0
  6 12  1  0
  6 17  4  0
  6 23  4  0
  7  9  1  0
  7 13  4  0
  7 19  4  0
  9 20  1  0
 10 19  4  0
 11 25  4  0
 13 14  4  0
 15 16  4  0
 15 17  4  0
 15 21  4  0
 16 24  1  0
 16 25  4  0
 20 24  1  0
 20 26  2  0
 21 23  4  0
 22 23  1  0
M  END
$$$$

 Created by Python create_sdf_string function

 26 28  0  0  0  0  0  0  0  0999 V2000
   12.4616    8.6700   19.4180 N   0  0  0  0  0  0  0  0  0  0  0  0
   11.8329   10.8148   18.6769 N   0  0  0  0  0  0  0  0  0  0  0  0
    6.1021    2.5564   21.0678 C   0  0  0  0  0  0  0  0  0  0  0  0
   10.9097   11.8051   18.4804 C   0  0  0  0  0  0  0  0  0  0  0  0
   11.2280   12.9135   17.5669 C   0  0  0  0  0  0  0  0  0  0  0  0
   12.3782    5.4231   20.7777 C   0  0  0  0  0  0  0  0  0  0  0  0
    7.7365    4.6508   21.6987 C   0  0  0  0  0  0  0  0  0  0  0  0
   13.0186   11.0102   18.0020 C   0  0  0  0  0  0  0  0  0  0  0  0
    8.6628    5.7088   21.8871 N   0  0  0  0  0  0  0  0  0  0  0  0
    5.6516    3.5258   21.9140 C   0  0  0  0  0  0  0  0  0  0  0  0
   11.5863    9.6815   19.4539 C   0  0  0  0  0  0  0  0  0  0  0  0
   12.9648    4.1543   20.9205 C   0  0  0  0  0  0  0  0  0  0  0  0
    8.2089    3.6265   20.8929 C   0  0  0  0  0  0  0  0  0  0  0  0
    7.3827    2.5724   20.5432 C   0  0  0  0  0  0  0  0  0  0  0  0
   11.1529    7.2750   20.8025 C   0  0  0  0  0  0  0  0  0  0  0  0
   10.2573    8.3215   20.9827 C   0  0  0  0  0  0  0  0  0  0  0  0
   11.1606    5.9378   21.2366 N   0  0  0  0  0  0  0  0  0  0  0  0
    9.8932   11.6736   19.0677 O   0  0  0  0  0  0  0  0  0  0  0  0
    6.4470    4.5850   22.2321 C   0  0  0  0  0  0  0  0  0  0  0  0
    8.4619    6.9895   22.2968 C   0  0  0  0  0  0  0  0  0  0  0  0
   12.2747    7.5102   20.0420 C   0  0  0  0  0  0  0  0  0  0  0  0
   14.2544    6.2142   19.4191 C   0  0  0  0  0  0  0  0  0  0  0  0
   13.0695    6.3705   20.0375 N   0  0  0  0  0  0  0  0  0  0  0  0
    9.1913    8.0876   21.8361 N   0  0  0  0  0  0  0  0  0  0  0  0
   10.4739    9.4813   20.2889 C   0  0  0  0  0  0  0  0  0  0  0  0
    7.5551    7.1270   23.1200 O   0  0  0  0  0  0  0  0  0  0  0  0
  1 11  4  0
  1 21  4  0
  2  4  1  0
  2  8  1  0
  2 11  1  0
  3 10  4  0
  3 14  4  0
  4  5  1  0
  4 18  2  0
  6 12  1  0
  6 17  4  0
  6 23  4  0
  7  9  1  0
  7 13  4  0
  7 19  4  0
  9 20  1  0
 10 19  4  0
 11 25  4  0
 13 14  4  0
 15 16  4  0
 15 17  4  0
 15 21  4  0
 16 24  1  0
 16 25  4  0
 20 24  1  0
 20 26  2  0
 21 23  4  0
 22 23  1  0
M  END
$$$$

 Created by Python create_sdf_string function

 26 28  0  0  0  0  0  0  0  0999 V2000
   12.4616    8.6700   19.4180 N   0  0  0  0  0  0  0  0  0  0  0  0
   11.8329   10.8148   18.6769 N   0  0  0  0  0  0  0  0  0  0  0  0
    6.1021    2.5564   21.0678 C   0  0  0  0  0  0  0  0  0  0  0  0
   10.9097   11.8051   18.4804 C   0  0  0  0  0  0  0  0  0  0  0  0
   11.2280   12.9135   17.5669 C   0  0  0  0  0  0  0  0  0  0  0  0
   12.3782    5.4231   20.7777 C   0  0  0  0  0  0  0  0  0  0  0  0
    7.7365    4.6508   21.6987 C   0  0  0  0  0  0  0  0  0  0  0  0
   13.0186   11.0102   18.0020 C   0  0  0  0  0  0  0  0  0  0  0  0
    8.6628    5.7088   21.8871 N   0  0  0  0  0  0  0  0  0  0  0  0
    5.6516    3.5258   21.9140 C   0  0  0  0  0  0  0  0  0  0  0  0
   11.5863    9.6815   19.4539 C   0  0  0  0  0  0  0  0  0  0  0  0
   12.9648    4.1543   20.9205 C   0  0  0  0  0  0  0  0  0  0  0  0
    8.2089    3.6265   20.8929 C   0  0  0  0  0  0  0  0  0  0  0  0
    7.3827    2.5724   20.5432 C   0  0  0  0  0  0  0  0  0  0  0  0
   11.1529    7.2750   20.8025 C   0  0  0  0  0  0  0  0  0  0  0  0
   10.2573    8.3215   20.9827 C   0  0  0  0  0  0  0  0  0  0  0  0
   11.1606    5.9378   21.2366 N   0  0  0  0  0  0  0  0  0  0  0  0
    9.8932   11.6736   19.0677 O   0  0  0  0  0  0  0  0  0  0  0  0
    6.4470    4.5850   22.2321 C   0  0  0  0  0  0  0  0  0  0  0  0
    8.4619    6.9895   22.2968 C   0  0  0  0  0  0  0  0  0  0  0  0
   12.2747    7.5102   20.0420 C   0  0  0  0  0  0  0  0  0  0  0  0
   14.2544    6.2142   19.4191 C   0  0  0  0  0  0  0  0  0  0  0  0
   13.0695    6.3705   20.0375 N   0  0  0  0  0  0  0  0  0  0  0  0
    9.1913    8.0876   21.8361 N   0  0  0  0  0  0  0  0  0  0  0  0
   10.4739    9.4813   20.2889 C   0  0  0  0  0  0  0  0  0  0  0  0
    7.5551    7.1270   23.1200 O   0  0  0  0  0  0  0  0  0  0  0  0
  1 11  4  0
  1 21  4  0
  2  4  1  0
  2  8  1  0
  2 11  1  0
  3 10  4  0
  3 14  4  0
  4  5  1  0
  4 18  2  0
  6 12  1  0
  6 17  4  0
  6 23  4  0
  7  9  1  0
  7 13  4  0
  7 19  4  0
  9 20  1  0
 10 19  4  0
 11 25  4  0
 13 14  4  0
 15 16  4  0
 15 17  4  0
 15 21  4  0
 16 24  1  0
 16 25  4  0
 20 24  1  0
 20 26  2  0
 21 23  4  0
 22 23  1  0
M  END
$$$$

 Created by Python create_sdf_string function

 26 28  0  0  0  0  0  0  0  0999 V2000
   12.4616    8.6700   19.4180 N   0  0  0  0  0  0  0  0  0  0  0  0
   11.8329   10.8148   18.6769 N   0  0  0  0  0  0  0  0  0  0  0  0
    6.1021    2.5564   21.0678 C   0  0  0  0  0  0  0  0  0  0  0  0
   10.9097   11.8051   18.4804 C   0  0  0  0  0  0  0  0  0  0  0  0
   11.2280   12.9135   17.5669 C   0  0  0  0  0  0  0  0  0  0  0  0
   12.3782    5.4231   20.7777 C   0  0  0  0  0  0  0  0  0  0  0  0
    7.7365    4.6508   21.6987 C   0  0  0  0  0  0  0  0  0  0  0  0
   13.0186   11.0102   18.0020 C   0  0  0  0  0  0  0  0  0  0  0  0
    8.6628    5.7088   21.8871 N   0  0  0  0  0  0  0  0  0  0  0  0
    5.6516    3.5258   21.9140 C   0  0  0  0  0  0  0  0  0  0  0  0
   11.5863    9.6815   19.4539 C   0  0  0  0  0  0  0  0  0  0  0  0
   12.9648    4.1543   20.9205 C   0  0  0  0  0  0  0  0  0  0  0  0
    8.2089    3.6265   20.8929 C   0  0  0  0  0  0  0  0  0  0  0  0
    7.3827    2.5724   20.5432 C   0  0  0  0  0  0  0  0  0  0  0  0
   11.1529    7.2750   20.8025 C   0  0  0  0  0  0  0  0  0  0  0  0
   10.2573    8.3215   20.9827 C   0  0  0  0  0  0  0  0  0  0  0  0
   11.1606    5.9378   21.2366 N   0  0  0  0  0  0  0  0  0  0  0  0
    9.8932   11.6736   19.0677 O   0  0  0  0  0  0  0  0  0  0  0  0
    6.4470    4.5850   22.2321 C   0  0  0  0  0  0  0  0  0  0  0  0
    8.4619    6.9895   22.2968 C   0  0  0  0  0  0  0  0  0  0  0  0
   12.2747    7.5102   20.0420 C   0  0  0  0  0  0  0  0  0  0  0  0
   14.2544    6.2142   19.4191 C   0  0  0  0  0  0  0  0  0  0  0  0
   13.0695    6.3705   20.0375 N   0  0  0  0  0  0  0  0  0  0  0  0
    9.1913    8.0876   21.8361 N   0  0  0  0  0  0  0  0  0  0  0  0
   10.4739    9.4813   20.2889 C   0  0  0  0  0  0  0  0  0  0  0  0
    7.5551    7.1270   23.1200 O   0  0  0  0  0  0  0  0  0  0  0  0
  1 11  4  0
  1 21  4  0
  2  4  1  0
  2  8  1  0
  2 11  1  0
  3 10  4  0
  3 14  4  0
  4  5  1  0
  4 18  2  0
  6 12  1  0
  6 17  4  0
  6 23  4  0
  7  9  1  0
  7 13  4  0
  7 19  4  0
  9 20  1  0
 10 19  4  0
 11 25  4  0
 13 14  4  0
 15 16  4  0
 15 17  4  0
 15 21  4  0
 16 24  1  0
 16 25  4  0
 20 24  1  0
 20 26  2  0
 21 23  4  0
 22 23  1  0
M  END
$$$$

 Created by Python create_sdf_string function

 26 28  0  0  0  0  0  0  0  0999 V2000
   12.4616    8.6700   19.4180 N   0  0  0  0  0  0  0  0  0  0  0  0
   11.8329   10.8148   18.6769 N   0  0  0  0  0  0  0  0  0  0  0  0
    6.1021    2.5564   21.0678 C   0  0  0  0  0  0  0  0  0  0  0  0
   10.9097   11.8051   18.4804 C   0  0  0  0  0  0  0  0  0  0  0  0
   11.2280   12.9135   17.5669 C   0  0  0  0  0  0  0  0  0  0  0  0
   12.3782    5.4231   20.7777 C   0  0  0  0  0  0  0  0  0  0  0  0
    7.7365    4.6508   21.6987 C   0  0  0  0  0  0  0  0  0  0  0  0
   13.0186   11.0102   18.0020 C   0  0  0  0  0  0  0  0  0  0  0  0
    8.6628    5.7088   21.8871 N   0  0  0  0  0  0  0  0  0  0  0  0
    5.6516    3.5258   21.9140 C   0  0  0  0  0  0  0  0  0  0  0  0
   11.5863    9.6815   19.4539 C   0  0  0  0  0  0  0  0  0  0  0  0
   12.9648    4.1543   20.9205 C   0  0  0  0  0  0  0  0  0  0  0  0
    8.2089    3.6265   20.8929 C   0  0  0  0  0  0  0  0  0  0  0  0
    7.3827    2.5724   20.5432 C   0  0  0  0  0  0  0  0  0  0  0  0
   11.1529    7.2750   20.8025 C   0  0  0  0  0  0  0  0  0  0  0  0
   10.2573    8.3215   20.9827 C   0  0  0  0  0  0  0  0  0  0  0  0
   11.1606    5.9378   21.2366 N   0  0  0  0  0  0  0  0  0  0  0  0
    9.8932   11.6736   19.0677 O   0  0  0  0  0  0  0  0  0  0  0  0
    6.4470    4.5850   22.2321 C   0  0  0  0  0  0  0  0  0  0  0  0
    8.4619    6.9895   22.2968 C   0  0  0  0  0  0  0  0  0  0  0  0
   12.2747    7.5102   20.0420 C   0  0  0  0  0  0  0  0  0  0  0  0
   14.2544    6.2142   19.4191 C   0  0  0  0  0  0  0  0  0  0  0  0
   13.0695    6.3705   20.0375 N   0  0  0  0  0  0  0  0  0  0  0  0
    9.1913    8.0876   21.8361 N   0  0  0  0  0  0  0  0  0  0  0  0
   10.4739    9.4813   20.2889 C   0  0  0  0  0  0  0  0  0  0  0  0
    7.5551    7.1270   23.1200 O   0  0  0  0  0  0  0  0  0  0  0  0
  1 11  4  0
  1 21  4  0
  2  4  1  0
  2  8  1  0
  2 11  1  0
  3 10  4  0
  3 14  4  0
  4  5  1  0
  4 18  2  0
  6 12  1  0
  6 17  4  0
  6 23  4  0
  7  9  1  0
  7 13  4  0
  7 19  4  0
  9 20  1  0
 10 19  4  0
 11 25  4  0
 13 14  4  0
 15 16  4  0
 15 17  4  0
 15 21  4  0
 16 24  1  0
 16 25  4  0
 20 24  1  0
 20 26  2  0
 21 23  4  0
 22 23  1  0
M  END
$$$$

 Created by Python create_sdf_string function

 26 28  0  0  0  0  0  0  0  0999 V2000
   12.4616    8.6700   19.4180 N   0  0  0  0  0  0  0  0  0  0  0  0
   11.8329   10.8148   18.6769 N   0  0  0  0  0  0  0  0  0  0  0  0
    6.1021    2.5564   21.0678 C   0  0  0  0  0  0  0  0  0  0  0  0
   10.9097   11.8051   18.4804 C   0  0  0  0  0  0  0  0  0  0  0  0
   11.2280   12.9135   17.5669 C   0  0  0  0  0  0  0  0  0  0  0  0
   12.3782    5.4231   20.7777 C   0  0  0  0  0  0  0  0  0  0  0  0
    7.7365    4.6508   21.6987 C   0  0  0  0  0  0  0  0  0  0  0  0
   13.0186   11.0102   18.0020 C   0  0  0  0  0  0  0  0  0  0  0  0
    8.6628    5.7088   21.8871 N   0  0  0  0  0  0  0  0  0  0  0  0
    5.6516    3.5258   21.9140 C   0  0  0  0  0  0  0  0  0  0  0  0
   11.5863    9.6815   19.4539 C   0  0  0  0  0  0  0  0  0  0  0  0
   12.9648    4.1543   20.9205 C   0  0  0  0  0  0  0  0  0  0  0  0
    8.2089    3.6265   20.8929 C   0  0  0  0  0  0  0  0  0  0  0  0
    7.3827    2.5724   20.5432 C   0  0  0  0  0  0  0  0  0  0  0  0
   11.1529    7.2750   20.8025 C   0  0  0  0  0  0  0  0  0  0  0  0
   10.2573    8.3215   20.9827 C   0  0  0  0  0  0  0  0  0  0  0  0
   11.1606    5.9378   21.2366 N   0  0  0  0  0  0  0  0  0  0  0  0
    9.8932   11.6736   19.0677 O   0  0  0  0  0  0  0  0  0  0  0  0
    6.4470    4.5850   22.2321 C   0  0  0  0  0  0  0  0  0  0  0  0
    8.4619    6.9895   22.2968 C   0  0  0  0  0  0  0  0  0  0  0  0
   12.2747    7.5102   20.0420 C   0  0  0  0  0  0  0  0  0  0  0  0
   14.2544    6.2142   19.4191 C   0  0  0  0  0  0  0  0  0  0  0  0
   13.0695    6.3705   20.0375 N   0  0  0  0  0  0  0  0  0  0  0  0
    9.1913    8.0876   21.8361 N   0  0  0  0  0  0  0  0  0  0  0  0
   10.4739    9.4813   20.2889 C   0  0  0  0  0  0  0  0  0  0  0  0
    7.5551    7.1270   23.1200 O   0  0  0  0  0  0  0  0  0  0  0  0
  1 11  4  0
  1 21  4  0
  2  4  1  0
  2  8  1  0
  2 11  1  0
  3 10  4  0
  3 14  4  0
  4  5  1  0
  4 18  2  0
  6 12  1  0
  6 17  4  0
  6 23  4  0
  7  9  1  0
  7 13  4  0
  7 19  4  0
  9 20  1  0
 10 19  4  0
 11 25  4  0
 13 14  4  0
 15 16  4  0
 15 17  4  0
 15 21  4  0
 16 24  1  0
 16 25  4  0
 20 24  1  0
 20 26  2  0
 21 23  4  0
 22 23  1  0
M  END
$$$$

 Created by Python create_sdf_string function

 26 28  0  0  0  0  0  0  0  0999 V2000
   12.4616    8.6700   19.4180 N   0  0  0  0  0  0  0  0  0  0  0  0
   11.8329   10.8148   18.6769 N   0  0  0  0  0  0  0  0  0  0  0  0
    6.1021    2.5564   21.0678 C   0  0  0  0  0  0  0  0  0  0  0  0
   10.9097   11.8051   18.4804 C   0  0  0  0  0  0  0  0  0  0  0  0
   11.2280   12.9135   17.5669 C   0  0  0  0  0  0  0  0  0  0  0  0
   12.3782    5.4231   20.7777 C   0  0  0  0  0  0  0  0  0  0  0  0
    7.7365    4.6508   21.6987 C   0  0  0  0  0  0  0  0  0  0  0  0
   13.0186   11.0102   18.0020 C   0  0  0  0  0  0  0  0  0  0  0  0
    8.6628    5.7088   21.8871 N   0  0  0  0  0  0  0  0  0  0  0  0
    5.6516    3.5258   21.9140 C   0  0  0  0  0  0  0  0  0  0  0  0
   11.5863    9.6815   19.4539 C   0  0  0  0  0  0  0  0  0  0  0  0
   12.9648    4.1543   20.9205 C   0  0  0  0  0  0  0  0  0  0  0  0
    8.2089    3.6265   20.8929 C   0  0  0  0  0  0  0  0  0  0  0  0
    7.3827    2.5724   20.5432 C   0  0  0  0  0  0  0  0  0  0  0  0
   11.1529    7.2750   20.8025 C   0  0  0  0  0  0  0  0  0  0  0  0
   10.2573    8.3215   20.9827 C   0  0  0  0  0  0  0  0  0  0  0  0
   11.1606    5.9378   21.2366 N   0  0  0  0  0  0  0  0  0  0  0  0
    9.8932   11.6736   19.0677 O   0  0  0  0  0  0  0  0  0  0  0  0
    6.4470    4.5850   22.2321 C   0  0  0  0  0  0  0  0  0  0  0  0
    8.4619    6.9895   22.2968 C   0  0  0  0  0  0  0  0  0  0  0  0
   12.2747    7.5102   20.0420 C   0  0  0  0  0  0  0  0  0  0  0  0
   14.2544    6.2142   19.4191 C   0  0  0  0  0  0  0  0  0  0  0  0
   13.0695    6.3705   20.0375 N   0  0  0  0  0  0  0  0  0  0  0  0
    9.1913    8.0876   21.8361 N   0  0  0  0  0  0  0  0  0  0  0  0
   10.4739    9.4813   20.2889 C   0  0  0  0  0  0  0  0  0  0  0  0
    7.5551    7.1270   23.1200 O   0  0  0  0  0  0  0  0  0  0  0  0
  1 11  4  0
  1 21  4  0
  2  4  1  0
  2  8  1  0
  2 11  1  0
  3 10  4  0
  3 14  4  0
  4  5  1  0
  4 18  2  0
  6 12  1  0
  6 17  4  0
  6 23  4  0
  7  9  1  0
  7 13  4  0
  7 19  4  0
  9 20  1  0
 10 19  4  0
 11 25  4  0
 13 14  4  0
 15 16  4  0
 15 17  4  0
 15 21  4  0
 16 24  1  0
 16 25  4  0
 20 24  1  0
 20 26  2  0
 21 23  4  0
 22 23  1  0
M  END
$$$$

 Created by Python create_sdf_string function

 26 28  0  0  0  0  0  0  0  0999 V2000
   12.4616    8.6700   19.4180 N   0  0  0  0  0  0  0  0  0  0  0  0
   11.8329   10.8148   18.6769 N   0  0  0  0  0  0  0  0  0  0  0  0
    6.1021    2.5564   21.0678 C   0  0  0  0  0  0  0  0  0  0  0  0
   10.9097   11.8051   18.4804 C   0  0  0  0  0  0  0  0  0  0  0  0
   11.2280   12.9135   17.5669 C   0  0  0  0  0  0  0  0  0  0  0  0
   12.3782    5.4231   20.7777 C   0  0  0  0  0  0  0  0  0  0  0  0
    7.7365    4.6508   21.6987 C   0  0  0  0  0  0  0  0  0  0  0  0
   13.0186   11.0102   18.0020 C   0  0  0  0  0  0  0  0  0  0  0  0
    8.6628    5.7088   21.8871 N   0  0  0  0  0  0  0  0  0  0  0  0
    5.6516    3.5258   21.9140 C   0  0  0  0  0  0  0  0  0  0  0  0
   11.5863    9.6815   19.4539 C   0  0  0  0  0  0  0  0  0  0  0  0
   12.9648    4.1543   20.9205 C   0  0  0  0  0  0  0  0  0  0  0  0
    8.2089    3.6265   20.8929 C   0  0  0  0  0  0  0  0  0  0  0  0
    7.3827    2.5724   20.5432 C   0  0  0  0  0  0  0  0  0  0  0  0
   11.1529    7.2750   20.8025 C   0  0  0  0  0  0  0  0  0  0  0  0
   10.2573    8.3215   20.9827 C   0  0  0  0  0  0  0  0  0  0  0  0
   11.1606    5.9378   21.2366 N   0  0  0  0  0  0  0  0  0  0  0  0
    9.8932   11.6736   19.0677 O   0  0  0  0  0  0  0  0  0  0  0  0
    6.4470    4.5850   22.2321 C   0  0  0  0  0  0  0  0  0  0  0  0
    8.4619    6.9895   22.2968 C   0  0  0  0  0  0  0  0  0  0  0  0
   12.2747    7.5102   20.0420 C   0  0  0  0  0  0  0  0  0  0  0  0
   14.2544    6.2142   19.4191 C   0  0  0  0  0  0  0  0  0  0  0  0
   13.0695    6.3705   20.0375 N   0  0  0  0  0  0  0  0  0  0  0  0
    9.1913    8.0876   21.8361 N   0  0  0  0  0  0  0  0  0  0  0  0
   10.4739    9.4813   20.2889 C   0  0  0  0  0  0  0  0  0  0  0  0
    7.5551    7.1270   23.1200 O   0  0  0  0  0  0  0  0  0  0  0  0
  1 11  4  0
  1 21  4  0
  2  4  1  0
  2  8  1  0
  2 11  1  0
  3 10  4  0
  3 14  4  0
  4  5  1  0
  4 18  2  0
  6 12  1  0
  6 17  4  0
  6 23  4  0
  7  9  1  0
  7 13  4  0
  7 19  4  0
  9 20  1  0
 10 19  4  0
 11 25  4  0
 13 14  4  0
 15 16  4  0
 15 17  4  0
 15 21  4  0
 16 24  1  0
 16 25  4  0
 20 24  1  0
 20 26  2  0
 21 23  4  0
 22 23  1  0
M  END
$$$$

 Created by Python create_sdf_string function

 26 28  0  0  0  0  0  0  0  0999 V2000
   12.4616    8.6700   19.4180 N   0  0  0  0  0  0  0  0  0  0  0  0
   11.8329   10.8148   18.6769 N   0  0  0  0  0  0  0  0  0  0  0  0
    6.1021    2.5564   21.0678 C   0  0  0  0  0  0  0  0  0  0  0  0
   10.9097   11.8051   18.4804 C   0  0  0  0  0  0  0  0  0  0  0  0
   11.2280   12.9135   17.5669 C   0  0  0  0  0  0  0  0  0  0  0  0
   12.3782    5.4231   20.7777 C   0  0  0  0  0  0  0  0  0  0  0  0
    7.7365    4.6508   21.6987 C   0  0  0  0  0  0  0  0  0  0  0  0
   13.0186   11.0102   18.0020 C   0  0  0  0  0  0  0  0  0  0  0  0
    8.6628    5.7088   21.8871 N   0  0  0  0  0  0  0  0  0  0  0  0
    5.6516    3.5258   21.9140 C   0  0  0  0  0  0  0  0  0  0  0  0
   11.5863    9.6815   19.4539 C   0  0  0  0  0  0  0  0  0  0  0  0
   12.9648    4.1543   20.9205 C   0  0  0  0  0  0  0  0  0  0  0  0
    8.2089    3.6265   20.8929 C   0  0  0  0  0  0  0  0  0  0  0  0
    7.3827    2.5724   20.5432 C   0  0  0  0  0  0  0  0  0  0  0  0
   11.1529    7.2750   20.8025 C   0  0  0  0  0  0  0  0  0  0  0  0
   10.2573    8.3215   20.9827 C   0  0  0  0  0  0  0  0  0  0  0  0
   11.1606    5.9378   21.2366 N   0  0  0  0  0  0  0  0  0  0  0  0
    9.8932   11.6736   19.0677 O   0  0  0  0  0  0  0  0  0  0  0  0
    6.4470    4.5850   22.2321 C   0  0  0  0  0  0  0  0  0  0  0  0
    8.4619    6.9895   22.2968 C   0  0  0  0  0  0  0  0  0  0  0  0
   12.2747    7.5102   20.0420 C   0  0  0  0  0  0  0  0  0  0  0  0
   14.2544    6.2142   19.4191 C   0  0  0  0  0  0  0  0  0  0  0  0
   13.0695    6.3705   20.0375 N   0  0  0  0  0  0  0  0  0  0  0  0
    9.1913    8.0876   21.8361 N   0  0  0  0  0  0  0  0  0  0  0  0
   10.4739    9.4813   20.2889 C   0  0  0  0  0  0  0  0  0  0  0  0
    7.5551    7.1270   23.1200 O   0  0  0  0  0  0  0  0  0  0  0  0
  1 11  4  0
  1 21  4  0
  2  4  1  0
  2  8  1  0
  2 11  1  0
  3 10  4  0
  3 14  4  0
  4  5  1  0
  4 18  2  0
  6 12  1  0
  6 17  4  0
  6 23  4  0
  7  9  1  0
  7 13  4  0
  7 19  4  0
  9 20  1  0
 10 19  4  0
 11 25  4  0
 13 14  4  0
 15 16  4  0
 15 17  4  0
 15 21  4  0
 16 24  1  0
 16 25  4  0
 20 24  1  0
 20 26  2  0
 21 23  4  0
 22 23  1  0
M  END
$$$$

 Created by Python create_sdf_string function

 26 28  0  0  0  0  0  0  0  0999 V2000
   12.4616    8.6700   19.4180 N   0  0  0  0  0  0  0  0  0  0  0  0
   11.8329   10.8148   18.6769 N   0  0  0  0  0  0  0  0  0  0  0  0
    6.1021    2.5564   21.0678 C   0  0  0  0  0  0  0  0  0  0  0  0
   10.9097   11.8051   18.4804 C   0  0  0  0  0  0  0  0  0  0  0  0
   11.2280   12.9135   17.5669 C   0  0  0  0  0  0  0  0  0  0  0  0
   12.3782    5.4231   20.7777 C   0  0  0  0  0  0  0  0  0  0  0  0
    7.7365    4.6508   21.6987 C   0  0  0  0  0  0  0  0  0  0  0  0
   13.0186   11.0102   18.0020 C   0  0  0  0  0  0  0  0  0  0  0  0
    8.6628    5.7088   21.8871 N   0  0  0  0  0  0  0  0  0  0  0  0
    5.6516    3.5258   21.9140 C   0  0  0  0  0  0  0  0  0  0  0  0
   11.5863    9.6815   19.4539 C   0  0  0  0  0  0  0  0  0  0  0  0
   12.9648    4.1543   20.9205 C   0  0  0  0  0  0  0  0  0  0  0  0
    8.2089    3.6265   20.8929 C   0  0  0  0  0  0  0  0  0  0  0  0
    7.3827    2.5724   20.5432 C   0  0  0  0  0  0  0  0  0  0  0  0
   11.1529    7.2750   20.8025 C   0  0  0  0  0  0  0  0  0  0  0  0
   10.2573    8.3215   20.9827 C   0  0  0  0  0  0  0  0  0  0  0  0
   11.1606    5.9378   21.2366 N   0  0  0  0  0  0  0  0  0  0  0  0
    9.8932   11.6736   19.0677 O   0  0  0  0  0  0  0  0  0  0  0  0
    6.4470    4.5850   22.2321 C   0  0  0  0  0  0  0  0  0  0  0  0
    8.4619    6.9895   22.2968 C   0  0  0  0  0  0  0  0  0  0  0  0
   12.2747    7.5102   20.0420 C   0  0  0  0  0  0  0  0  0  0  0  0
   14.2544    6.2142   19.4191 C   0  0  0  0  0  0  0  0  0  0  0  0
   13.0695    6.3705   20.0375 N   0  0  0  0  0  0  0  0  0  0  0  0
    9.1913    8.0876   21.8361 N   0  0  0  0  0  0  0  0  0  0  0  0
   10.4739    9.4813   20.2889 C   0  0  0  0  0  0  0  0  0  0  0  0
    7.5551    7.1270   23.1200 O   0  0  0  0  0  0  0  0  0  0  0  0
  1 11  4  0
  1 21  4  0
  2  4  1  0
  2  8  1  0
  2 11  1  0
  3 10  4  0
  3 14  4  0
  4  5  1  0
  4 18  2  0
  6 12  1  0
  6 17  4  0
  6 23  4  0
  7  9  1  0
  7 13  4  0
  7 19  4  0
  9 20  1  0
 10 19  4  0
 11 25  4  0
 13 14  4  0
 15 16  4  0
 15 17  4  0
 15 21  4  0
 16 24  1  0
 16 25  4  0
 20 24  1  0
 20 26  2  0
 21 23  4  0
 22 23  1  0
M  END
$$$$

 Created by Python create_sdf_string function

 26 28  0  0  0  0  0  0  0  0999 V2000
   12.4616    8.6700   19.4180 N   0  0  0  0  0  0  0  0  0  0  0  0
   11.8329   10.8148   18.6769 N   0  0  0  0  0  0  0  0  0  0  0  0
    6.1021    2.5564   21.0678 C   0  0  0  0  0  0  0  0  0  0  0  0
   10.9097   11.8051   18.4804 C   0  0  0  0  0  0  0  0  0  0  0  0
   11.2280   12.9135   17.5669 C   0  0  0  0  0  0  0  0  0  0  0  0
   12.3782    5.4231   20.7777 C   0  0  0  0  0  0  0  0  0  0  0  0
    7.7365    4.6508   21.6987 C   0  0  0  0  0  0  0  0  0  0  0  0
   13.0186   11.0102   18.0020 C   0  0  0  0  0  0  0  0  0  0  0  0
    8.6628    5.7088   21.8871 N   0  0  0  0  0  0  0  0  0  0  0  0
    5.6516    3.5258   21.9140 C   0  0  0  0  0  0  0  0  0  0  0  0
   11.5863    9.6815   19.4539 C   0  0  0  0  0  0  0  0  0  0  0  0
   12.9648    4.1543   20.9205 C   0  0  0  0  0  0  0  0  0  0  0  0
    8.2089    3.6265   20.8929 C   0  0  0  0  0  0  0  0  0  0  0  0
    7.3827    2.5724   20.5432 C   0  0  0  0  0  0  0  0  0  0  0  0
   11.1529    7.2750   20.8025 C   0  0  0  0  0  0  0  0  0  0  0  0
   10.2573    8.3215   20.9827 C   0  0  0  0  0  0  0  0  0  0  0  0
   11.1606    5.9378   21.2366 N   0  0  0  0  0  0  0  0  0  0  0  0
    9.8932   11.6736   19.0677 O   0  0  0  0  0  0  0  0  0  0  0  0
    6.4470    4.5850   22.2321 C   0  0  0  0  0  0  0  0  0  0  0  0
    8.4619    6.9895   22.2968 C   0  0  0  0  0  0  0  0  0  0  0  0
   12.2747    7.5102   20.0420 C   0  0  0  0  0  0  0  0  0  0  0  0
   14.2544    6.2142   19.4191 C   0  0  0  0  0  0  0  0  0  0  0  0
   13.0695    6.3705   20.0375 N   0  0  0  0  0  0  0  0  0  0  0  0
    9.1913    8.0876   21.8361 N   0  0  0  0  0  0  0  0  0  0  0  0
   10.4739    9.4813   20.2889 C   0  0  0  0  0  0  0  0  0  0  0  0
    7.5551    7.1270   23.1200 O   0  0  0  0  0  0  0  0  0  0  0  0
  1 11  4  0
  1 21  4  0
  2  4  1  0
  2  8  1  0
  2 11  1  0
  3 10  4  0
  3 14  4  0
  4  5  1  0
  4 18  2  0
  6 12  1  0
  6 17  4  0
  6 23  4  0
  7  9  1  0
  7 13  4  0
  7 19  4  0
  9 20  1  0
 10 19  4  0
 11 25  4  0
 13 14  4  0
 15 16  4  0
 15 17  4  0
 15 21  4  0
 16 24  1  0
 16 25  4  0
 20 24  1  0
 20 26  2  0
 21 23  4  0
 22 23  1  0
M  END
$$$$

 Created by Python create_sdf_string function

 26 28  0  0  0  0  0  0  0  0999 V2000
   12.4616    8.6700   19.4180 N   0  0  0  0  0  0  0  0  0  0  0  0
   11.8329   10.8148   18.6769 N   0  0  0  0  0  0  0  0  0  0  0  0
    6.1021    2.5564   21.0678 C   0  0  0  0  0  0  0  0  0  0  0  0
   10.9097   11.8051   18.4804 C   0  0  0  0  0  0  0  0  0  0  0  0
   11.2280   12.9135   17.5669 C   0  0  0  0  0  0  0  0  0  0  0  0
   12.3782    5.4231   20.7777 C   0  0  0  0  0  0  0  0  0  0  0  0
    7.7365    4.6508   21.6987 C   0  0  0  0  0  0  0  0  0  0  0  0
   13.0186   11.0102   18.0020 C   0  0  0  0  0  0  0  0  0  0  0  0
    8.6628    5.7088   21.8871 N   0  0  0  0  0  0  0  0  0  0  0  0
    5.6516    3.5258   21.9140 C   0  0  0  0  0  0  0  0  0  0  0  0
   11.5863    9.6815   19.4539 C   0  0  0  0  0  0  0  0  0  0  0  0
   12.9648    4.1543   20.9205 C   0  0  0  0  0  0  0  0  0  0  0  0
    8.2089    3.6265   20.8929 C   0  0  0  0  0  0  0  0  0  0  0  0
    7.3827    2.5724   20.5432 C   0  0  0  0  0  0  0  0  0  0  0  0
   11.1529    7.2750   20.8025 C   0  0  0  0  0  0  0  0  0  0  0  0
   10.2573    8.3215   20.9827 C   0  0  0  0  0  0  0  0  0  0  0  0
   11.1606    5.9378   21.2366 N   0  0  0  0  0  0  0  0  0  0  0  0
    9.8932   11.6736   19.0677 O   0  0  0  0  0  0  0  0  0  0  0  0
    6.4470    4.5850   22.2321 C   0  0  0  0  0  0  0  0  0  0  0  0
    8.4619    6.9895   22.2968 C   0  0  0  0  0  0  0  0  0  0  0  0
   12.2747    7.5102   20.0420 C   0  0  0  0  0  0  0  0  0  0  0  0
   14.2544    6.2142   19.4191 C   0  0  0  0  0  0  0  0  0  0  0  0
   13.0695    6.3705   20.0375 N   0  0  0  0  0  0  0  0  0  0  0  0
    9.1913    8.0876   21.8361 N   0  0  0  0  0  0  0  0  0  0  0  0
   10.4739    9.4813   20.2889 C   0  0  0  0  0  0  0  0  0  0  0  0
    7.5551    7.1270   23.1200 O   0  0  0  0  0  0  0  0  0  0  0  0
  1 11  4  0
  1 21  4  0
  2  4  1  0
  2  8  1  0
  2 11  1  0
  3 10  4  0
  3 14  4  0
  4  5  1  0
  4 18  2  0
  6 12  1  0
  6 17  4  0
  6 23  4  0
  7  9  1  0
  7 13  4  0
  7 19  4  0
  9 20  1  0
 10 19  4  0
 11 25  4  0
 13 14  4  0
 15 16  4  0
 15 17  4  0
 15 21  4  0
 16 24  1  0
 16 25  4  0
 20 24  1  0
 20 26  2  0
 21 23  4  0
 22 23  1  0
M  END
$$$$

 Created by Python create_sdf_string function

 26 28  0  0  0  0  0  0  0  0999 V2000
   12.4616    8.6700   19.4180 N   0  0  0  0  0  0  0  0  0  0  0  0
   11.8329   10.8148   18.6769 N   0  0  0  0  0  0  0  0  0  0  0  0
    6.1021    2.5564   21.0678 C   0  0  0  0  0  0  0  0  0  0  0  0
   10.9097   11.8051   18.4804 C   0  0  0  0  0  0  0  0  0  0  0  0
   11.2280   12.9135   17.5669 C   0  0  0  0  0  0  0  0  0  0  0  0
   12.3782    5.4231   20.7777 C   0  0  0  0  0  0  0  0  0  0  0  0
    7.7365    4.6508   21.6987 C   0  0  0  0  0  0  0  0  0  0  0  0
   13.0186   11.0102   18.0020 C   0  0  0  0  0  0  0  0  0  0  0  0
    8.6628    5.7088   21.8871 N   0  0  0  0  0  0  0  0  0  0  0  0
    5.6516    3.5258   21.9140 C   0  0  0  0  0  0  0  0  0  0  0  0
   11.5863    9.6815   19.4539 C   0  0  0  0  0  0  0  0  0  0  0  0
   12.9648    4.1543   20.9205 C   0  0  0  0  0  0  0  0  0  0  0  0
    8.2089    3.6265   20.8929 C   0  0  0  0  0  0  0  0  0  0  0  0
    7.3827    2.5724   20.5432 C   0  0  0  0  0  0  0  0  0  0  0  0
   11.1529    7.2750   20.8025 C   0  0  0  0  0  0  0  0  0  0  0  0
   10.2573    8.3215   20.9827 C   0  0  0  0  0  0  0  0  0  0  0  0
   11.1606    5.9378   21.2366 N   0  0  0  0  0  0  0  0  0  0  0  0
    9.8932   11.6736   19.0677 O   0  0  0  0  0  0  0  0  0  0  0  0
    6.4470    4.5850   22.2321 C   0  0  0  0  0  0  0  0  0  0  0  0
    8.4619    6.9895   22.2968 C   0  0  0  0  0  0  0  0  0  0  0  0
   12.2747    7.5102   20.0420 C   0  0  0  0  0  0  0  0  0  0  0  0
   14.2544    6.2142   19.4191 C   0  0  0  0  0  0  0  0  0  0  0  0
   13.0695    6.3705   20.0375 N   0  0  0  0  0  0  0  0  0  0  0  0
    9.1913    8.0876   21.8361 N   0  0  0  0  0  0  0  0  0  0  0  0
   10.4739    9.4813   20.2889 C   0  0  0  0  0  0  0  0  0  0  0  0
    7.5551    7.1270   23.1200 O   0  0  0  0  0  0  0  0  0  0  0  0
  1 11  4  0
  1 21  4  0
  2  4  1  0
  2  8  1  0
  2 11  1  0
  3 10  4  0
  3 14  4  0
  4  5  1  0
  4 18  2  0
  6 12  1  0
  6 17  4  0
  6 23  4  0
  7  9  1  0
  7 13  4  0
  7 19  4  0
  9 20  1  0
 10 19  4  0
 11 25  4  0
 13 14  4  0
 15 16  4  0
 15 17  4  0
 15 21  4  0
 16 24  1  0
 16 25  4  0
 20 24  1  0
 20 26  2  0
 21 23  4  0
 22 23  1  0
M  END
$$$$

 Created by Python create_sdf_string function

 26 28  0  0  0  0  0  0  0  0999 V2000
   12.4616    8.6700   19.4180 N   0  0  0  0  0  0  0  0  0  0  0  0
   11.8329   10.8148   18.6769 N   0  0  0  0  0  0  0  0  0  0  0  0
    6.1021    2.5564   21.0678 C   0  0  0  0  0  0  0  0  0  0  0  0
   10.9097   11.8051   18.4804 C   0  0  0  0  0  0  0  0  0  0  0  0
   11.2280   12.9135   17.5669 C   0  0  0  0  0  0  0  0  0  0  0  0
   12.3782    5.4231   20.7777 C   0  0  0  0  0  0  0  0  0  0  0  0
    7.7365    4.6508   21.6987 C   0  0  0  0  0  0  0  0  0  0  0  0
   13.0186   11.0102   18.0020 C   0  0  0  0  0  0  0  0  0  0  0  0
    8.6628    5.7088   21.8871 N   0  0  0  0  0  0  0  0  0  0  0  0
    5.6516    3.5258   21.9140 C   0  0  0  0  0  0  0  0  0  0  0  0
   11.5863    9.6815   19.4539 C   0  0  0  0  0  0  0  0  0  0  0  0
   12.9648    4.1543   20.9205 C   0  0  0  0  0  0  0  0  0  0  0  0
    8.2089    3.6265   20.8929 C   0  0  0  0  0  0  0  0  0  0  0  0
    7.3827    2.5724   20.5432 C   0  0  0  0  0  0  0  0  0  0  0  0
   11.1529    7.2750   20.8025 C   0  0  0  0  0  0  0  0  0  0  0  0
   10.2573    8.3215   20.9827 C   0  0  0  0  0  0  0  0  0  0  0  0
   11.1606    5.9378   21.2366 N   0  0  0  0  0  0  0  0  0  0  0  0
    9.8932   11.6736   19.0677 O   0  0  0  0  0  0  0  0  0  0  0  0
    6.4470    4.5850   22.2321 C   0  0  0  0  0  0  0  0  0  0  0  0
    8.4619    6.9895   22.2968 C   0  0  0  0  0  0  0  0  0  0  0  0
   12.2747    7.5102   20.0420 C   0  0  0  0  0  0  0  0  0  0  0  0
   14.2544    6.2142   19.4191 C   0  0  0  0  0  0  0  0  0  0  0  0
   13.0695    6.3705   20.0375 N   0  0  0  0  0  0  0  0  0  0  0  0
    9.1913    8.0876   21.8361 N   0  0  0  0  0  0  0  0  0  0  0  0
   10.4739    9.4813   20.2889 C   0  0  0  0  0  0  0  0  0  0  0  0
    7.5551    7.1270   23.1200 O   0  0  0  0  0  0  0  0  0  0  0  0
  1 11  4  0
  1 21  4  0
  2  4  1  0
  2  8  1  0
  2 11  1  0
  3 10  4  0
  3 14  4  0
  4  5  1  0
  4 18  2  0
  6 12  1  0
  6 17  4  0
  6 23  4  0
  7  9  1  0
  7 13  4  0
  7 19  4  0
  9 20  1  0
 10 19  4  0
 11 25  4  0
 13 14  4  0
 15 16  4  0
 15 17  4  0
 15 21  4  0
 16 24  1  0
 16 25  4  0
 20 24  1  0
 20 26  2  0
 21 23  4  0
 22 23  1  0
M  END
$$$$

 Created by Python create_sdf_string function

 26 28  0  0  0  0  0  0  0  0999 V2000
   12.4616    8.6700   19.4180 N   0  0  0  0  0  0  0  0  0  0  0  0
   11.8329   10.8148   18.6769 N   0  0  0  0  0  0  0  0  0  0  0  0
    6.1021    2.5564   21.0678 C   0  0  0  0  0  0  0  0  0  0  0  0
   10.9097   11.8051   18.4804 C   0  0  0  0  0  0  0  0  0  0  0  0
   11.2280   12.9135   17.5669 C   0  0  0  0  0  0  0  0  0  0  0  0
   12.3782    5.4231   20.7777 C   0  0  0  0  0  0  0  0  0  0  0  0
    7.7365    4.6508   21.6987 C   0  0  0  0  0  0  0  0  0  0  0  0
   13.0186   11.0102   18.0020 C   0  0  0  0  0  0  0  0  0  0  0  0
    8.6628    5.7088   21.8871 N   0  0  0  0  0  0  0  0  0  0  0  0
    5.6516    3.5258   21.9140 C   0  0  0  0  0  0  0  0  0  0  0  0
   11.5863    9.6815   19.4539 C   0  0  0  0  0  0  0  0  0  0  0  0
   12.9648    4.1543   20.9205 C   0  0  0  0  0  0  0  0  0  0  0  0
    8.2089    3.6265   20.8929 C   0  0  0  0  0  0  0  0  0  0  0  0
    7.3827    2.5724   20.5432 C   0  0  0  0  0  0  0  0  0  0  0  0
   11.1529    7.2750   20.8025 C   0  0  0  0  0  0  0  0  0  0  0  0
   10.2573    8.3215   20.9827 C   0  0  0  0  0  0  0  0  0  0  0  0
   11.1606    5.9378   21.2366 N   0  0  0  0  0  0  0  0  0  0  0  0
    9.8932   11.6736   19.0677 O   0  0  0  0  0  0  0  0  0  0  0  0
    6.4470    4.5850   22.2321 C   0  0  0  0  0  0  0  0  0  0  0  0
    8.4619    6.9895   22.2968 C   0  0  0  0  0  0  0  0  0  0  0  0
   12.2747    7.5102   20.0420 C   0  0  0  0  0  0  0  0  0  0  0  0
   14.2544    6.2142   19.4191 C   0  0  0  0  0  0  0  0  0  0  0  0
   13.0695    6.3705   20.0375 N   0  0  0  0  0  0  0  0  0  0  0  0
    9.1913    8.0876   21.8361 N   0  0  0  0  0  0  0  0  0  0  0  0
   10.4739    9.4813   20.2889 C   0  0  0  0  0  0  0  0  0  0  0  0
    7.5551    7.1270   23.1200 O   0  0  0  0  0  0  0  0  0  0  0  0
  1 11  4  0
  1 21  4  0
  2  4  1  0
  2  8  1  0
  2 11  1  0
  3 10  4  0
  3 14  4  0
  4  5  1  0
  4 18  2  0
  6 12  1  0
  6 17  4  0
  6 23  4  0
  7  9  1  0
  7 13  4  0
  7 19  4  0
  9 20  1  0
 10 19  4  0
 11 25  4  0
 13 14  4  0
 15 16  4  0
 15 17  4  0
 15 21  4  0
 16 24  1  0
 16 25  4  0
 20 24  1  0
 20 26  2  0
 21 23  4  0
 22 23  1  0
M  END
$$$$

 Created by Python create_sdf_string function

 26 28  0  0  0  0  0  0  0  0999 V2000
   12.4616    8.6700   19.4180 N   0  0  0  0  0  0  0  0  0  0  0  0
   11.8329   10.8148   18.6769 N   0  0  0  0  0  0  0  0  0  0  0  0
    6.1021    2.5564   21.0678 C   0  0  0  0  0  0  0  0  0  0  0  0
   10.9097   11.8051   18.4804 C   0  0  0  0  0  0  0  0  0  0  0  0
   11.2280   12.9135   17.5669 C   0  0  0  0  0  0  0  0  0  0  0  0
   12.3782    5.4231   20.7777 C   0  0  0  0  0  0  0  0  0  0  0  0
    7.7365    4.6508   21.6987 C   0  0  0  0  0  0  0  0  0  0  0  0
   13.0186   11.0102   18.0020 C   0  0  0  0  0  0  0  0  0  0  0  0
    8.6628    5.7088   21.8871 N   0  0  0  0  0  0  0  0  0  0  0  0
    5.6516    3.5258   21.9140 C   0  0  0  0  0  0  0  0  0  0  0  0
   11.5863    9.6815   19.4539 C   0  0  0  0  0  0  0  0  0  0  0  0
   12.9648    4.1543   20.9205 C   0  0  0  0  0  0  0  0  0  0  0  0
    8.2089    3.6265   20.8929 C   0  0  0  0  0  0  0  0  0  0  0  0
    7.3827    2.5724   20.5432 C   0  0  0  0  0  0  0  0  0  0  0  0
   11.1529    7.2750   20.8025 C   0  0  0  0  0  0  0  0  0  0  0  0
   10.2573    8.3215   20.9827 C   0  0  0  0  0  0  0  0  0  0  0  0
   11.1606    5.9378   21.2366 N   0  0  0  0  0  0  0  0  0  0  0  0
    9.8932   11.6736   19.0677 O   0  0  0  0  0  0  0  0  0  0  0  0
    6.4470    4.5850   22.2321 C   0  0  0  0  0  0  0  0  0  0  0  0
    8.4619    6.9895   22.2968 C   0  0  0  0  0  0  0  0  0  0  0  0
   12.2747    7.5102   20.0420 C   0  0  0  0  0  0  0  0  0  0  0  0
   14.2544    6.2142   19.4191 C   0  0  0  0  0  0  0  0  0  0  0  0
   13.0695    6.3705   20.0375 N   0  0  0  0  0  0  0  0  0  0  0  0
    9.1913    8.0876   21.8361 N   0  0  0  0  0  0  0  0  0  0  0  0
   10.4739    9.4813   20.2889 C   0  0  0  0  0  0  0  0  0  0  0  0
    7.5551    7.1270   23.1200 O   0  0  0  0  0  0  0  0  0  0  0  0
  1 11  4  0
  1 21  4  0
  2  4  1  0
  2  8  1  0
  2 11  1  0
  3 10  4  0
  3 14  4  0
  4  5  1  0
  4 18  2  0
  6 12  1  0
  6 17  4  0
  6 23  4  0
  7  9  1  0
  7 13  4  0
  7 19  4  0
  9 20  1  0
 10 19  4  0
 11 25  4  0
 13 14  4  0
 15 16  4  0
 15 17  4  0
 15 21  4  0
 16 24  1  0
 16 25  4  0
 20 24  1  0
 20 26  2  0
 21 23  4  0
 22 23  1  0
M  END
$$$$

 Created by Python create_sdf_string function

 26 28  0  0  0  0  0  0  0  0999 V2000
   12.4616    8.6700   19.4180 N   0  0  0  0  0  0  0  0  0  0  0  0
   11.8329   10.8148   18.6769 N   0  0  0  0  0  0  0  0  0  0  0  0
    6.1021    2.5564   21.0678 C   0  0  0  0  0  0  0  0  0  0  0  0
   10.9097   11.8051   18.4804 C   0  0  0  0  0  0  0  0  0  0  0  0
   11.2280   12.9135   17.5669 C   0  0  0  0  0  0  0  0  0  0  0  0
   12.3782    5.4231   20.7777 C   0  0  0  0  0  0  0  0  0  0  0  0
    7.7365    4.6508   21.6987 C   0  0  0  0  0  0  0  0  0  0  0  0
   13.0186   11.0102   18.0020 C   0  0  0  0  0  0  0  0  0  0  0  0
    8.6628    5.7088   21.8871 N   0  0  0  0  0  0  0  0  0  0  0  0
    5.6516    3.5258   21.9140 C   0  0  0  0  0  0  0  0  0  0  0  0
   11.5863    9.6815   19.4539 C   0  0  0  0  0  0  0  0  0  0  0  0
   12.9648    4.1543   20.9205 C   0  0  0  0  0  0  0  0  0  0  0  0
    8.2089    3.6265   20.8929 C   0  0  0  0  0  0  0  0  0  0  0  0
    7.3827    2.5724   20.5432 C   0  0  0  0  0  0  0  0  0  0  0  0
   11.1529    7.2750   20.8025 C   0  0  0  0  0  0  0  0  0  0  0  0
   10.2573    8.3215   20.9827 C   0  0  0  0  0  0  0  0  0  0  0  0
   11.1606    5.9378   21.2366 N   0  0  0  0  0  0  0  0  0  0  0  0
    9.8932   11.6736   19.0677 O   0  0  0  0  0  0  0  0  0  0  0  0
    6.4470    4.5850   22.2321 C   0  0  0  0  0  0  0  0  0  0  0  0
    8.4619    6.9895   22.2968 C   0  0  0  0  0  0  0  0  0  0  0  0
   12.2747    7.5102   20.0420 C   0  0  0  0  0  0  0  0  0  0  0  0
   14.2544    6.2142   19.4191 C   0  0  0  0  0  0  0  0  0  0  0  0
   13.0695    6.3705   20.0375 N   0  0  0  0  0  0  0  0  0  0  0  0
    9.1913    8.0876   21.8361 N   0  0  0  0  0  0  0  0  0  0  0  0
   10.4739    9.4813   20.2889 C   0  0  0  0  0  0  0  0  0  0  0  0
    7.5551    7.1270   23.1200 O   0  0  0  0  0  0  0  0  0  0  0  0
  1 11  4  0
  1 21  4  0
  2  4  1  0
  2  8  1  0
  2 11  1  0
  3 10  4  0
  3 14  4  0
  4  5  1  0
  4 18  2  0
  6 12  1  0
  6 17  4  0
  6 23  4  0
  7  9  1  0
  7 13  4  0
  7 19  4  0
  9 20  1  0
 10 19  4  0
 11 25  4  0
 13 14  4  0
 15 16  4  0
 15 17  4  0
 15 21  4  0
 16 24  1  0
 16 25  4  0
 20 24  1  0
 20 26  2  0
 21 23  4  0
 22 23  1  0
M  END
$$$$

 Created by Python create_sdf_string function

 26 28  0  0  0  0  0  0  0  0999 V2000
   12.4616    8.6700   19.4180 N   0  0  0  0  0  0  0  0  0  0  0  0
   11.8329   10.8148   18.6769 N   0  0  0  0  0  0  0  0  0  0  0  0
    6.1021    2.5564   21.0678 C   0  0  0  0  0  0  0  0  0  0  0  0
   10.9097   11.8051   18.4804 C   0  0  0  0  0  0  0  0  0  0  0  0
   11.2280   12.9135   17.5669 C   0  0  0  0  0  0  0  0  0  0  0  0
   12.3782    5.4231   20.7777 C   0  0  0  0  0  0  0  0  0  0  0  0
    7.7365    4.6508   21.6987 C   0  0  0  0  0  0  0  0  0  0  0  0
   13.0186   11.0102   18.0020 C   0  0  0  0  0  0  0  0  0  0  0  0
    8.6628    5.7088   21.8871 N   0  0  0  0  0  0  0  0  0  0  0  0
    5.6516    3.5258   21.9140 C   0  0  0  0  0  0  0  0  0  0  0  0
   11.5863    9.6815   19.4539 C   0  0  0  0  0  0  0  0  0  0  0  0
   12.9648    4.1543   20.9205 C   0  0  0  0  0  0  0  0  0  0  0  0
    8.2089    3.6265   20.8929 C   0  0  0  0  0  0  0  0  0  0  0  0
    7.3827    2.5724   20.5432 C   0  0  0  0  0  0  0  0  0  0  0  0
   11.1529    7.2750   20.8025 C   0  0  0  0  0  0  0  0  0  0  0  0
   10.2573    8.3215   20.9827 C   0  0  0  0  0  0  0  0  0  0  0  0
   11.1606    5.9378   21.2366 N   0  0  0  0  0  0  0  0  0  0  0  0
    9.8932   11.6736   19.0677 O   0  0  0  0  0  0  0  0  0  0  0  0
    6.4470    4.5850   22.2321 C   0  0  0  0  0  0  0  0  0  0  0  0
    8.4619    6.9895   22.2968 C   0  0  0  0  0  0  0  0  0  0  0  0
   12.2747    7.5102   20.0420 C   0  0  0  0  0  0  0  0  0  0  0  0
   14.2544    6.2142   19.4191 C   0  0  0  0  0  0  0  0  0  0  0  0
   13.0695    6.3705   20.0375 N   0  0  0  0  0  0  0  0  0  0  0  0
    9.1913    8.0876   21.8361 N   0  0  0  0  0  0  0  0  0  0  0  0
   10.4739    9.4813   20.2889 C   0  0  0  0  0  0  0  0  0  0  0  0
    7.5551    7.1270   23.1200 O   0  0  0  0  0  0  0  0  0  0  0  0
  1 11  4  0
  1 21  4  0
  2  4  1  0
  2  8  1  0
  2 11  1  0
  3 10  4  0
  3 14  4  0
  4  5  1  0
  4 18  2  0
  6 12  1  0
  6 17  4  0
  6 23  4  0
  7  9  1  0
  7 13  4  0
  7 19  4  0
  9 20  1  0
 10 19  4  0
 11 25  4  0
 13 14  4  0
 15 16  4  0
 15 17  4  0
 15 21  4  0
 16 24  1  0
 16 25  4  0
 20 24  1  0
 20 26  2  0
 21 23  4  0
 22 23  1  0
M  END
$$$$

 Created by Python create_sdf_string function

 26 28  0  0  0  0  0  0  0  0999 V2000
   12.4616    8.6700   19.4180 N   0  0  0  0  0  0  0  0  0  0  0  0
   11.8329   10.8148   18.6769 N   0  0  0  0  0  0  0  0  0  0  0  0
    6.1021    2.5564   21.0678 C   0  0  0  0  0  0  0  0  0  0  0  0
   10.9097   11.8051   18.4804 C   0  0  0  0  0  0  0  0  0  0  0  0
   11.2280   12.9135   17.5669 C   0  0  0  0  0  0  0  0  0  0  0  0
   12.3782    5.4231   20.7777 C   0  0  0  0  0  0  0  0  0  0  0  0
    7.7365    4.6508   21.6987 C   0  0  0  0  0  0  0  0  0  0  0  0
   13.0186   11.0102   18.0020 C   0  0  0  0  0  0  0  0  0  0  0  0
    8.6628    5.7088   21.8871 N   0  0  0  0  0  0  0  0  0  0  0  0
    5.6516    3.5258   21.9140 C   0  0  0  0  0  0  0  0  0  0  0  0
   11.5863    9.6815   19.4539 C   0  0  0  0  0  0  0  0  0  0  0  0
   12.9648    4.1543   20.9205 C   0  0  0  0  0  0  0  0  0  0  0  0
    8.2089    3.6265   20.8929 C   0  0  0  0  0  0  0  0  0  0  0  0
    7.3827    2.5724   20.5432 C   0  0  0  0  0  0  0  0  0  0  0  0
   11.1529    7.2750   20.8025 C   0  0  0  0  0  0  0  0  0  0  0  0
   10.2573    8.3215   20.9827 C   0  0  0  0  0  0  0  0  0  0  0  0
   11.1606    5.9378   21.2366 N   0  0  0  0  0  0  0  0  0  0  0  0
    9.8932   11.6736   19.0677 O   0  0  0  0  0  0  0  0  0  0  0  0
    6.4470    4.5850   22.2321 C   0  0  0  0  0  0  0  0  0  0  0  0
    8.4619    6.9895   22.2968 C   0  0  0  0  0  0  0  0  0  0  0  0
   12.2747    7.5102   20.0420 C   0  0  0  0  0  0  0  0  0  0  0  0
   14.2544    6.2142   19.4191 C   0  0  0  0  0  0  0  0  0  0  0  0
   13.0695    6.3705   20.0375 N   0  0  0  0  0  0  0  0  0  0  0  0
    9.1913    8.0876   21.8361 N   0  0  0  0  0  0  0  0  0  0  0  0
   10.4739    9.4813   20.2889 C   0  0  0  0  0  0  0  0  0  0  0  0
    7.5551    7.1270   23.1200 O   0  0  0  0  0  0  0  0  0  0  0  0
  1 11  4  0
  1 21  4  0
  2  4  1  0
  2  8  1  0
  2 11  1  0
  3 10  4  0
  3 14  4  0
  4  5  1  0
  4 18  2  0
  6 12  1  0
  6 17  4  0
  6 23  4  0
  7  9  1  0
  7 13  4  0
  7 19  4  0
  9 20  1  0
 10 19  4  0
 11 25  4  0
 13 14  4  0
 15 16  4  0
 15 17  4  0
 15 21  4  0
 16 24  1  0
 16 25  4  0
 20 24  1  0
 20 26  2  0
 21 23  4  0
 22 23  1  0
M  END
$$$$

 Created by Python create_sdf_string function

 26 28  0  0  0  0  0  0  0  0999 V2000
   12.4616    8.6700   19.4180 N   0  0  0  0  0  0  0  0  0  0  0  0
   11.8329   10.8148   18.6769 N   0  0  0  0  0  0  0  0  0  0  0  0
    6.1021    2.5564   21.0678 C   0  0  0  0  0  0  0  0  0  0  0  0
   10.9097   11.8051   18.4804 C   0  0  0  0  0  0  0  0  0  0  0  0
   11.2280   12.9135   17.5669 C   0  0  0  0  0  0  0  0  0  0  0  0
   12.3782    5.4231   20.7777 C   0  0  0  0  0  0  0  0  0  0  0  0
    7.7365    4.6508   21.6987 C   0  0  0  0  0  0  0  0  0  0  0  0
   13.0186   11.0102   18.0020 C   0  0  0  0  0  0  0  0  0  0  0  0
    8.6628    5.7088   21.8871 N   0  0  0  0  0  0  0  0  0  0  0  0
    5.6516    3.5258   21.9140 C   0  0  0  0  0  0  0  0  0  0  0  0
   11.5863    9.6815   19.4539 C   0  0  0  0  0  0  0  0  0  0  0  0
   12.9648    4.1543   20.9205 C   0  0  0  0  0  0  0  0  0  0  0  0
    8.2089    3.6265   20.8929 C   0  0  0  0  0  0  0  0  0  0  0  0
    7.3827    2.5724   20.5432 C   0  0  0  0  0  0  0  0  0  0  0  0
   11.1529    7.2750   20.8025 C   0  0  0  0  0  0  0  0  0  0  0  0
   10.2573    8.3215   20.9827 C   0  0  0  0  0  0  0  0  0  0  0  0
   11.1606    5.9378   21.2366 N   0  0  0  0  0  0  0  0  0  0  0  0
    9.8932   11.6736   19.0677 O   0  0  0  0  0  0  0  0  0  0  0  0
    6.4470    4.5850   22.2321 C   0  0  0  0  0  0  0  0  0  0  0  0
    8.4619    6.9895   22.2968 C   0  0  0  0  0  0  0  0  0  0  0  0
   12.2747    7.5102   20.0420 C   0  0  0  0  0  0  0  0  0  0  0  0
   14.2544    6.2142   19.4191 C   0  0  0  0  0  0  0  0  0  0  0  0
   13.0695    6.3705   20.0375 N   0  0  0  0  0  0  0  0  0  0  0  0
    9.1913    8.0876   21.8361 N   0  0  0  0  0  0  0  0  0  0  0  0
   10.4739    9.4813   20.2889 C   0  0  0  0  0  0  0  0  0  0  0  0
    7.5551    7.1270   23.1200 O   0  0  0  0  0  0  0  0  0  0  0  0
  1 11  4  0
  1 21  4  0
  2  4  1  0
  2  8  1  0
  2 11  1  0
  3 10  4  0
  3 14  4  0
  4  5  1  0
  4 18  2  0
  6 12  1  0
  6 17  4  0
  6 23  4  0
  7  9  1  0
  7 13  4  0
  7 19  4  0
  9 20  1  0
 10 19  4  0
 11 25  4  0
 13 14  4  0
 15 16  4  0
 15 17  4  0
 15 21  4  0
 16 24  1  0
 16 25  4  0
 20 24  1  0
 20 26  2  0
 21 23  4  0
 22 23  1  0
M  END
$$$$

 Created by Python create_sdf_string function

 26 28  0  0  0  0  0  0  0  0999 V2000
   12.4616    8.6700   19.4180 N   0  0  0  0  0  0  0  0  0  0  0  0
   11.8329   10.8148   18.6769 N   0  0  0  0  0  0  0  0  0  0  0  0
    6.1021    2.5564   21.0678 C   0  0  0  0  0  0  0  0  0  0  0  0
   10.9097   11.8051   18.4804 C   0  0  0  0  0  0  0  0  0  0  0  0
   11.2280   12.9135   17.5669 C   0  0  0  0  0  0  0  0  0  0  0  0
   12.3782    5.4231   20.7777 C   0  0  0  0  0  0  0  0  0  0  0  0
    7.7365    4.6508   21.6987 C   0  0  0  0  0  0  0  0  0  0  0  0
   13.0186   11.0102   18.0020 C   0  0  0  0  0  0  0  0  0  0  0  0
    8.6628    5.7088   21.8871 N   0  0  0  0  0  0  0  0  0  0  0  0
    5.6516    3.5258   21.9140 C   0  0  0  0  0  0  0  0  0  0  0  0
   11.5863    9.6815   19.4539 C   0  0  0  0  0  0  0  0  0  0  0  0
   12.9648    4.1543   20.9205 C   0  0  0  0  0  0  0  0  0  0  0  0
    8.2089    3.6265   20.8929 C   0  0  0  0  0  0  0  0  0  0  0  0
    7.3827    2.5724   20.5432 C   0  0  0  0  0  0  0  0  0  0  0  0
   11.1529    7.2750   20.8025 C   0  0  0  0  0  0  0  0  0  0  0  0
   10.2573    8.3215   20.9827 C   0  0  0  0  0  0  0  0  0  0  0  0
   11.1606    5.9378   21.2366 N   0  0  0  0  0  0  0  0  0  0  0  0
    9.8932   11.6736   19.0677 O   0  0  0  0  0  0  0  0  0  0  0  0
    6.4470    4.5850   22.2321 C   0  0  0  0  0  0  0  0  0  0  0  0
    8.4619    6.9895   22.2968 C   0  0  0  0  0  0  0  0  0  0  0  0
   12.2747    7.5102   20.0420 C   0  0  0  0  0  0  0  0  0  0  0  0
   14.2544    6.2142   19.4191 C   0  0  0  0  0  0  0  0  0  0  0  0
   13.0695    6.3705   20.0375 N   0  0  0  0  0  0  0  0  0  0  0  0
    9.1913    8.0876   21.8361 N   0  0  0  0  0  0  0  0  0  0  0  0
   10.4739    9.4813   20.2889 C   0  0  0  0  0  0  0  0  0  0  0  0
    7.5551    7.1270   23.1200 O   0  0  0  0  0  0  0  0  0  0  0  0
  1 11  4  0
  1 21  4  0
  2  4  1  0
  2  8  1  0
  2 11  1  0
  3 10  4  0
  3 14  4  0
  4  5  1  0
  4 18  2  0
  6 12  1  0
  6 17  4  0
  6 23  4  0
  7  9  1  0
  7 13  4  0
  7 19  4  0
  9 20  1  0
 10 19  4  0
 11 25  4  0
 13 14  4  0
 15 16  4  0
 15 17  4  0
 15 21  4  0
 16 24  1  0
 16 25  4  0
 20 24  1  0
 20 26  2  0
 21 23  4  0
 22 23  1  0
M  END
$$$$

 Created by Python create_sdf_string function

 26 28  0  0  0  0  0  0  0  0999 V2000
   12.4616    8.6700   19.4180 N   0  0  0  0  0  0  0  0  0  0  0  0
   11.8329   10.8148   18.6769 N   0  0  0  0  0  0  0  0  0  0  0  0
    6.1021    2.5564   21.0678 C   0  0  0  0  0  0  0  0  0  0  0  0
   10.9097   11.8051   18.4804 C   0  0  0  0  0  0  0  0  0  0  0  0
   11.2280   12.9135   17.5669 C   0  0  0  0  0  0  0  0  0  0  0  0
   12.3782    5.4231   20.7777 C   0  0  0  0  0  0  0  0  0  0  0  0
    7.7365    4.6508   21.6987 C   0  0  0  0  0  0  0  0  0  0  0  0
   13.0186   11.0102   18.0020 C   0  0  0  0  0  0  0  0  0  0  0  0
    8.6628    5.7088   21.8871 N   0  0  0  0  0  0  0  0  0  0  0  0
    5.6516    3.5258   21.9140 C   0  0  0  0  0  0  0  0  0  0  0  0
   11.5863    9.6815   19.4539 C   0  0  0  0  0  0  0  0  0  0  0  0
   12.9648    4.1543   20.9205 C   0  0  0  0  0  0  0  0  0  0  0  0
    8.2089    3.6265   20.8929 C   0  0  0  0  0  0  0  0  0  0  0  0
    7.3827    2.5724   20.5432 C   0  0  0  0  0  0  0  0  0  0  0  0
   11.1529    7.2750   20.8025 C   0  0  0  0  0  0  0  0  0  0  0  0
   10.2573    8.3215   20.9827 C   0  0  0  0  0  0  0  0  0  0  0  0
   11.1606    5.9378   21.2366 N   0  0  0  0  0  0  0  0  0  0  0  0
    9.8932   11.6736   19.0677 O   0  0  0  0  0  0  0  0  0  0  0  0
    6.4470    4.5850   22.2321 C   0  0  0  0  0  0  0  0  0  0  0  0
    8.4619    6.9895   22.2968 C   0  0  0  0  0  0  0  0  0  0  0  0
   12.2747    7.5102   20.0420 C   0  0  0  0  0  0  0  0  0  0  0  0
   14.2544    6.2142   19.4191 C   0  0  0  0  0  0  0  0  0  0  0  0
   13.0695    6.3705   20.0375 N   0  0  0  0  0  0  0  0  0  0  0  0
    9.1913    8.0876   21.8361 N   0  0  0  0  0  0  0  0  0  0  0  0
   10.4739    9.4813   20.2889 C   0  0  0  0  0  0  0  0  0  0  0  0
    7.5551    7.1270   23.1200 O   0  0  0  0  0  0  0  0  0  0  0  0
  1 11  4  0
  1 21  4  0
  2  4  1  0
  2  8  1  0
  2 11  1  0
  3 10  4  0
  3 14  4  0
  4  5  1  0
  4 18  2  0
  6 12  1  0
  6 17  4  0
  6 23  4  0
  7  9  1  0
  7 13  4  0
  7 19  4  0
  9 20  1  0
 10 19  4  0
 11 25  4  0
 13 14  4  0
 15 16  4  0
 15 17  4  0
 15 21  4  0
 16 24  1  0
 16 25  4  0
 20 24  1  0
 20 26  2  0
 21 23  4  0
 22 23  1  0
M  END
$$$$

 Created by Python create_sdf_string function

 26 28  0  0  0  0  0  0  0  0999 V2000
   12.4616    8.6700   19.4180 N   0  0  0  0  0  0  0  0  0  0  0  0
   11.8329   10.8148   18.6769 N   0  0  0  0  0  0  0  0  0  0  0  0
    6.1021    2.5564   21.0678 C   0  0  0  0  0  0  0  0  0  0  0  0
   10.9097   11.8051   18.4804 C   0  0  0  0  0  0  0  0  0  0  0  0
   11.2280   12.9135   17.5669 C   0  0  0  0  0  0  0  0  0  0  0  0
   12.3782    5.4231   20.7777 C   0  0  0  0  0  0  0  0  0  0  0  0
    7.7365    4.6508   21.6987 C   0  0  0  0  0  0  0  0  0  0  0  0
   13.0186   11.0102   18.0020 C   0  0  0  0  0  0  0  0  0  0  0  0
    8.6628    5.7088   21.8871 N   0  0  0  0  0  0  0  0  0  0  0  0
    5.6516    3.5258   21.9140 C   0  0  0  0  0  0  0  0  0  0  0  0
   11.5863    9.6815   19.4539 C   0  0  0  0  0  0  0  0  0  0  0  0
   12.9648    4.1543   20.9205 C   0  0  0  0  0  0  0  0  0  0  0  0
    8.2089    3.6265   20.8929 C   0  0  0  0  0  0  0  0  0  0  0  0
    7.3827    2.5724   20.5432 C   0  0  0  0  0  0  0  0  0  0  0  0
   11.1529    7.2750   20.8025 C   0  0  0  0  0  0  0  0  0  0  0  0
   10.2573    8.3215   20.9827 C   0  0  0  0  0  0  0  0  0  0  0  0
   11.1606    5.9378   21.2366 N   0  0  0  0  0  0  0  0  0  0  0  0
    9.8932   11.6736   19.0677 O   0  0  0  0  0  0  0  0  0  0  0  0
    6.4470    4.5850   22.2321 C   0  0  0  0  0  0  0  0  0  0  0  0
    8.4619    6.9895   22.2968 C   0  0  0  0  0  0  0  0  0  0  0  0
   12.2747    7.5102   20.0420 C   0  0  0  0  0  0  0  0  0  0  0  0
   14.2544    6.2142   19.4191 C   0  0  0  0  0  0  0  0  0  0  0  0
   13.0695    6.3705   20.0375 N   0  0  0  0  0  0  0  0  0  0  0  0
    9.1913    8.0876   21.8361 N   0  0  0  0  0  0  0  0  0  0  0  0
   10.4739    9.4813   20.2889 C   0  0  0  0  0  0  0  0  0  0  0  0
    7.5551    7.1270   23.1200 O   0  0  0  0  0  0  0  0  0  0  0  0
  1 11  4  0
  1 21  4  0
  2  4  1  0
  2  8  1  0
  2 11  1  0
  3 10  4  0
  3 14  4  0
  4  5  1  0
  4 18  2  0
  6 12  1  0
  6 17  4  0
  6 23  4  0
  7  9  1  0
  7 13  4  0
  7 19  4  0
  9 20  1  0
 10 19  4  0
 11 25  4  0
 13 14  4  0
 15 16  4  0
 15 17  4  0
 15 21  4  0
 16 24  1  0
 16 25  4  0
 20 24  1  0
 20 26  2  0
 21 23  4  0
 22 23  1  0
M  END
$$$$

 Created by Python create_sdf_string function

 26 28  0  0  0  0  0  0  0  0999 V2000
   12.4616    8.6700   19.4180 N   0  0  0  0  0  0  0  0  0  0  0  0
   11.8329   10.8148   18.6769 N   0  0  0  0  0  0  0  0  0  0  0  0
    6.1021    2.5564   21.0678 C   0  0  0  0  0  0  0  0  0  0  0  0
   10.9097   11.8051   18.4804 C   0  0  0  0  0  0  0  0  0  0  0  0
   11.2280   12.9135   17.5669 C   0  0  0  0  0  0  0  0  0  0  0  0
   12.3782    5.4231   20.7777 C   0  0  0  0  0  0  0  0  0  0  0  0
    7.7365    4.6508   21.6987 C   0  0  0  0  0  0  0  0  0  0  0  0
   13.0186   11.0102   18.0020 C   0  0  0  0  0  0  0  0  0  0  0  0
    8.6628    5.7088   21.8871 N   0  0  0  0  0  0  0  0  0  0  0  0
    5.6516    3.5258   21.9140 C   0  0  0  0  0  0  0  0  0  0  0  0
   11.5863    9.6815   19.4539 C   0  0  0  0  0  0  0  0  0  0  0  0
   12.9648    4.1543   20.9205 C   0  0  0  0  0  0  0  0  0  0  0  0
    8.2089    3.6265   20.8929 C   0  0  0  0  0  0  0  0  0  0  0  0
    7.3827    2.5724   20.5432 C   0  0  0  0  0  0  0  0  0  0  0  0
   11.1529    7.2750   20.8025 C   0  0  0  0  0  0  0  0  0  0  0  0
   10.2573    8.3215   20.9827 C   0  0  0  0  0  0  0  0  0  0  0  0
   11.1606    5.9378   21.2366 N   0  0  0  0  0  0  0  0  0  0  0  0
    9.8932   11.6736   19.0677 O   0  0  0  0  0  0  0  0  0  0  0  0
    6.4470    4.5850   22.2321 C   0  0  0  0  0  0  0  0  0  0  0  0
    8.4619    6.9895   22.2968 C   0  0  0  0  0  0  0  0  0  0  0  0
   12.2747    7.5102   20.0420 C   0  0  0  0  0  0  0  0  0  0  0  0
   14.2544    6.2142   19.4191 C   0  0  0  0  0  0  0  0  0  0  0  0
   13.0695    6.3705   20.0375 N   0  0  0  0  0  0  0  0  0  0  0  0
    9.1913    8.0876   21.8361 N   0  0  0  0  0  0  0  0  0  0  0  0
   10.4739    9.4813   20.2889 C   0  0  0  0  0  0  0  0  0  0  0  0
    7.5551    7.1270   23.1200 O   0  0  0  0  0  0  0  0  0  0  0  0
  1 11  4  0
  1 21  4  0
  2  4  1  0
  2  8  1  0
  2 11  1  0
  3 10  4  0
  3 14  4  0
  4  5  1  0
  4 18  2  0
  6 12  1  0
  6 17  4  0
  6 23  4  0
  7  9  1  0
  7 13  4  0
  7 19  4  0
  9 20  1  0
 10 19  4  0
 11 25  4  0
 13 14  4  0
 15 16  4  0
 15 17  4  0
 15 21  4  0
 16 24  1  0
 16 25  4  0
 20 24  1  0
 20 26  2  0
 21 23  4  0
 22 23  1  0
M  END
$$$$

 Created by Python create_sdf_string function

 26 28  0  0  0  0  0  0  0  0999 V2000
   12.4616    8.6700   19.4180 N   0  0  0  0  0  0  0  0  0  0  0  0
   11.8329   10.8148   18.6769 N   0  0  0  0  0  0  0  0  0  0  0  0
    6.1021    2.5564   21.0678 C   0  0  0  0  0  0  0  0  0  0  0  0
   10.9097   11.8051   18.4804 C   0  0  0  0  0  0  0  0  0  0  0  0
   11.2280   12.9135   17.5669 C   0  0  0  0  0  0  0  0  0  0  0  0
   12.3782    5.4231   20.7777 C   0  0  0  0  0  0  0  0  0  0  0  0
    7.7365    4.6508   21.6987 C   0  0  0  0  0  0  0  0  0  0  0  0
   13.0186   11.0102   18.0020 C   0  0  0  0  0  0  0  0  0  0  0  0
    8.6628    5.7088   21.8871 N   0  0  0  0  0  0  0  0  0  0  0  0
    5.6516    3.5258   21.9140 C   0  0  0  0  0  0  0  0  0  0  0  0
   11.5863    9.6815   19.4539 C   0  0  0  0  0  0  0  0  0  0  0  0
   12.9648    4.1543   20.9205 C   0  0  0  0  0  0  0  0  0  0  0  0
    8.2089    3.6265   20.8929 C   0  0  0  0  0  0  0  0  0  0  0  0
    7.3827    2.5724   20.5432 C   0  0  0  0  0  0  0  0  0  0  0  0
   11.1529    7.2750   20.8025 C   0  0  0  0  0  0  0  0  0  0  0  0
   10.2573    8.3215   20.9827 C   0  0  0  0  0  0  0  0  0  0  0  0
   11.1606    5.9378   21.2366 N   0  0  0  0  0  0  0  0  0  0  0  0
    9.8932   11.6736   19.0677 O   0  0  0  0  0  0  0  0  0  0  0  0
    6.4470    4.5850   22.2321 C   0  0  0  0  0  0  0  0  0  0  0  0
    8.4619    6.9895   22.2968 C   0  0  0  0  0  0  0  0  0  0  0  0
   12.2747    7.5102   20.0420 C   0  0  0  0  0  0  0  0  0  0  0  0
   14.2544    6.2142   19.4191 C   0  0  0  0  0  0  0  0  0  0  0  0
   13.0695    6.3705   20.0375 N   0  0  0  0  0  0  0  0  0  0  0  0
    9.1913    8.0876   21.8361 N   0  0  0  0  0  0  0  0  0  0  0  0
   10.4739    9.4813   20.2889 C   0  0  0  0  0  0  0  0  0  0  0  0
    7.5551    7.1270   23.1200 O   0  0  0  0  0  0  0  0  0  0  0  0
  1 11  4  0
  1 21  4  0
  2  4  1  0
  2  8  1  0
  2 11  1  0
  3 10  4  0
  3 14  4  0
  4  5  1  0
  4 18  2  0
  6 12  1  0
  6 17  4  0
  6 23  4  0
  7  9  1  0
  7 13  4  0
  7 19  4  0
  9 20  1  0
 10 19  4  0
 11 25  4  0
 13 14  4  0
 15 16  4  0
 15 17  4  0
 15 21  4  0
 16 24  1  0
 16 25  4  0
 20 24  1  0
 20 26  2  0
 21 23  4  0
 22 23  1  0
M  END
$$$$

 Created by Python create_sdf_string function

 26 28  0  0  0  0  0  0  0  0999 V2000
   12.4616    8.6700   19.4180 N   0  0  0  0  0  0  0  0  0  0  0  0
   11.8329   10.8148   18.6769 N   0  0  0  0  0  0  0  0  0  0  0  0
    6.1021    2.5564   21.0678 C   0  0  0  0  0  0  0  0  0  0  0  0
   10.9097   11.8051   18.4804 C   0  0  0  0  0  0  0  0  0  0  0  0
   11.2280   12.9135   17.5669 C   0  0  0  0  0  0  0  0  0  0  0  0
   12.3782    5.4231   20.7777 C   0  0  0  0  0  0  0  0  0  0  0  0
    7.7365    4.6508   21.6987 C   0  0  0  0  0  0  0  0  0  0  0  0
   13.0186   11.0102   18.0020 C   0  0  0  0  0  0  0  0  0  0  0  0
    8.6628    5.7088   21.8871 N   0  0  0  0  0  0  0  0  0  0  0  0
    5.6516    3.5258   21.9140 C   0  0  0  0  0  0  0  0  0  0  0  0
   11.5863    9.6815   19.4539 C   0  0  0  0  0  0  0  0  0  0  0  0
   12.9648    4.1543   20.9205 C   0  0  0  0  0  0  0  0  0  0  0  0
    8.2089    3.6265   20.8929 C   0  0  0  0  0  0  0  0  0  0  0  0
    7.3827    2.5724   20.5432 C   0  0  0  0  0  0  0  0  0  0  0  0
   11.1529    7.2750   20.8025 C   0  0  0  0  0  0  0  0  0  0  0  0
   10.2573    8.3215   20.9827 C   0  0  0  0  0  0  0  0  0  0  0  0
   11.1606    5.9378   21.2366 N   0  0  0  0  0  0  0  0  0  0  0  0
    9.8932   11.6736   19.0677 O   0  0  0  0  0  0  0  0  0  0  0  0
    6.4470    4.5850   22.2321 C   0  0  0  0  0  0  0  0  0  0  0  0
    8.4619    6.9895   22.2968 C   0  0  0  0  0  0  0  0  0  0  0  0
   12.2747    7.5102   20.0420 C   0  0  0  0  0  0  0  0  0  0  0  0
   14.2544    6.2142   19.4191 C   0  0  0  0  0  0  0  0  0  0  0  0
   13.0695    6.3705   20.0375 N   0  0  0  0  0  0  0  0  0  0  0  0
    9.1913    8.0876   21.8361 N   0  0  0  0  0  0  0  0  0  0  0  0
   10.4739    9.4813   20.2889 C   0  0  0  0  0  0  0  0  0  0  0  0
    7.5551    7.1270   23.1200 O   0  0  0  0  0  0  0  0  0  0  0  0
  1 11  4  0
  1 21  4  0
  2  4  1  0
  2  8  1  0
  2 11  1  0
  3 10  4  0
  3 14  4  0
  4  5  1  0
  4 18  2  0
  6 12  1  0
  6 17  4  0
  6 23  4  0
  7  9  1  0
  7 13  4  0
  7 19  4  0
  9 20  1  0
 10 19  4  0
 11 25  4  0
 13 14  4  0
 15 16  4  0
 15 17  4  0
 15 21  4  0
 16 24  1  0
 16 25  4  0
 20 24  1  0
 20 26  2  0
 21 23  4  0
 22 23  1  0
M  END
$$$$

 Created by Python create_sdf_string function

 26 28  0  0  0  0  0  0  0  0999 V2000
   12.4616    8.6700   19.4180 N   0  0  0  0  0  0  0  0  0  0  0  0
   11.8329   10.8148   18.6769 N   0  0  0  0  0  0  0  0  0  0  0  0
    6.1021    2.5564   21.0678 C   0  0  0  0  0  0  0  0  0  0  0  0
   10.9097   11.8051   18.4804 C   0  0  0  0  0  0  0  0  0  0  0  0
   11.2280   12.9135   17.5669 C   0  0  0  0  0  0  0  0  0  0  0  0
   12.3782    5.4231   20.7777 C   0  0  0  0  0  0  0  0  0  0  0  0
    7.7365    4.6508   21.6987 C   0  0  0  0  0  0  0  0  0  0  0  0
   13.0186   11.0102   18.0020 C   0  0  0  0  0  0  0  0  0  0  0  0
    8.6628    5.7088   21.8871 N   0  0  0  0  0  0  0  0  0  0  0  0
    5.6516    3.5258   21.9140 C   0  0  0  0  0  0  0  0  0  0  0  0
   11.5863    9.6815   19.4539 C   0  0  0  0  0  0  0  0  0  0  0  0
   12.9648    4.1543   20.9205 C   0  0  0  0  0  0  0  0  0  0  0  0
    8.2089    3.6265   20.8929 C   0  0  0  0  0  0  0  0  0  0  0  0
    7.3827    2.5724   20.5432 C   0  0  0  0  0  0  0  0  0  0  0  0
   11.1529    7.2750   20.8025 C   0  0  0  0  0  0  0  0  0  0  0  0
   10.2573    8.3215   20.9827 C   0  0  0  0  0  0  0  0  0  0  0  0
   11.1606    5.9378   21.2366 N   0  0  0  0  0  0  0  0  0  0  0  0
    9.8932   11.6736   19.0677 O   0  0  0  0  0  0  0  0  0  0  0  0
    6.4470    4.5850   22.2321 C   0  0  0  0  0  0  0  0  0  0  0  0
    8.4619    6.9895   22.2968 C   0  0  0  0  0  0  0  0  0  0  0  0
   12.2747    7.5102   20.0420 C   0  0  0  0  0  0  0  0  0  0  0  0
   14.2544    6.2142   19.4191 C   0  0  0  0  0  0  0  0  0  0  0  0
   13.0695    6.3705   20.0375 N   0  0  0  0  0  0  0  0  0  0  0  0
    9.1913    8.0876   21.8361 N   0  0  0  0  0  0  0  0  0  0  0  0
   10.4739    9.4813   20.2889 C   0  0  0  0  0  0  0  0  0  0  0  0
    7.5551    7.1270   23.1200 O   0  0  0  0  0  0  0  0  0  0  0  0
  1 11  4  0
  1 21  4  0
  2  4  1  0
  2  8  1  0
  2 11  1  0
  3 10  4  0
  3 14  4  0
  4  5  1  0
  4 18  2  0
  6 12  1  0
  6 17  4  0
  6 23  4  0
  7  9  1  0
  7 13  4  0
  7 19  4  0
  9 20  1  0
 10 19  4  0
 11 25  4  0
 13 14  4  0
 15 16  4  0
 15 17  4  0
 15 21  4  0
 16 24  1  0
 16 25  4  0
 20 24  1  0
 20 26  2  0
 21 23  4  0
 22 23  1  0
M  END
$$$$

 Created by Python create_sdf_string function

 26 28  0  0  0  0  0  0  0  0999 V2000
   12.4616    8.6700   19.4180 N   0  0  0  0  0  0  0  0  0  0  0  0
   11.8329   10.8148   18.6769 N   0  0  0  0  0  0  0  0  0  0  0  0
    6.1021    2.5564   21.0678 C   0  0  0  0  0  0  0  0  0  0  0  0
   10.9097   11.8051   18.4804 C   0  0  0  0  0  0  0  0  0  0  0  0
   11.2280   12.9135   17.5669 C   0  0  0  0  0  0  0  0  0  0  0  0
   12.3782    5.4231   20.7777 C   0  0  0  0  0  0  0  0  0  0  0  0
    7.7365    4.6508   21.6987 C   0  0  0  0  0  0  0  0  0  0  0  0
   13.0186   11.0102   18.0020 C   0  0  0  0  0  0  0  0  0  0  0  0
    8.6628    5.7088   21.8871 N   0  0  0  0  0  0  0  0  0  0  0  0
    5.6516    3.5258   21.9140 C   0  0  0  0  0  0  0  0  0  0  0  0
   11.5863    9.6815   19.4539 C   0  0  0  0  0  0  0  0  0  0  0  0
   12.9648    4.1543   20.9205 C   0  0  0  0  0  0  0  0  0  0  0  0
    8.2089    3.6265   20.8929 C   0  0  0  0  0  0  0  0  0  0  0  0
    7.3827    2.5724   20.5432 C   0  0  0  0  0  0  0  0  0  0  0  0
   11.1529    7.2750   20.8025 C   0  0  0  0  0  0  0  0  0  0  0  0
   10.2573    8.3215   20.9827 C   0  0  0  0  0  0  0  0  0  0  0  0
   11.1606    5.9378   21.2366 N   0  0  0  0  0  0  0  0  0  0  0  0
    9.8932   11.6736   19.0677 O   0  0  0  0  0  0  0  0  0  0  0  0
    6.4470    4.5850   22.2321 C   0  0  0  0  0  0  0  0  0  0  0  0
    8.4619    6.9895   22.2968 C   0  0  0  0  0  0  0  0  0  0  0  0
   12.2747    7.5102   20.0420 C   0  0  0  0  0  0  0  0  0  0  0  0
   14.2544    6.2142   19.4191 C   0  0  0  0  0  0  0  0  0  0  0  0
   13.0695    6.3705   20.0375 N   0  0  0  0  0  0  0  0  0  0  0  0
    9.1913    8.0876   21.8361 N   0  0  0  0  0  0  0  0  0  0  0  0
   10.4739    9.4813   20.2889 C   0  0  0  0  0  0  0  0  0  0  0  0
    7.5551    7.1270   23.1200 O   0  0  0  0  0  0  0  0  0  0  0  0
  1 11  4  0
  1 21  4  0
  2  4  1  0
  2  8  1  0
  2 11  1  0
  3 10  4  0
  3 14  4  0
  4  5  1  0
  4 18  2  0
  6 12  1  0
  6 17  4  0
  6 23  4  0
  7  9  1  0
  7 13  4  0
  7 19  4  0
  9 20  1  0
 10 19  4  0
 11 25  4  0
 13 14  4  0
 15 16  4  0
 15 17  4  0
 15 21  4  0
 16 24  1  0
 16 25  4  0
 20 24  1  0
 20 26  2  0
 21 23  4  0
 22 23  1  0
M  END
$$$$

 Created by Python create_sdf_string function

 26 28  0  0  0  0  0  0  0  0999 V2000
   12.4616    8.6700   19.4180 N   0  0  0  0  0  0  0  0  0  0  0  0
   11.8329   10.8148   18.6769 N   0  0  0  0  0  0  0  0  0  0  0  0
    6.1021    2.5564   21.0678 C   0  0  0  0  0  0  0  0  0  0  0  0
   10.9097   11.8051   18.4804 C   0  0  0  0  0  0  0  0  0  0  0  0
   11.2280   12.9135   17.5669 C   0  0  0  0  0  0  0  0  0  0  0  0
   12.3782    5.4231   20.7777 C   0  0  0  0  0  0  0  0  0  0  0  0
    7.7365    4.6508   21.6987 C   0  0  0  0  0  0  0  0  0  0  0  0
   13.0186   11.0102   18.0020 C   0  0  0  0  0  0  0  0  0  0  0  0
    8.6628    5.7088   21.8871 N   0  0  0  0  0  0  0  0  0  0  0  0
    5.6516    3.5258   21.9140 C   0  0  0  0  0  0  0  0  0  0  0  0
   11.5863    9.6815   19.4539 C   0  0  0  0  0  0  0  0  0  0  0  0
   12.9648    4.1543   20.9205 C   0  0  0  0  0  0  0  0  0  0  0  0
    8.2089    3.6265   20.8929 C   0  0  0  0  0  0  0  0  0  0  0  0
    7.3827    2.5724   20.5432 C   0  0  0  0  0  0  0  0  0  0  0  0
   11.1529    7.2750   20.8025 C   0  0  0  0  0  0  0  0  0  0  0  0
   10.2573    8.3215   20.9827 C   0  0  0  0  0  0  0  0  0  0  0  0
   11.1606    5.9378   21.2366 N   0  0  0  0  0  0  0  0  0  0  0  0
    9.8932   11.6736   19.0677 O   0  0  0  0  0  0  0  0  0  0  0  0
    6.4470    4.5850   22.2321 C   0  0  0  0  0  0  0  0  0  0  0  0
    8.4619    6.9895   22.2968 C   0  0  0  0  0  0  0  0  0  0  0  0
   12.2747    7.5102   20.0420 C   0  0  0  0  0  0  0  0  0  0  0  0
   14.2544    6.2142   19.4191 C   0  0  0  0  0  0  0  0  0  0  0  0
   13.0695    6.3705   20.0375 N   0  0  0  0  0  0  0  0  0  0  0  0
    9.1913    8.0876   21.8361 N   0  0  0  0  0  0  0  0  0  0  0  0
   10.4739    9.4813   20.2889 C   0  0  0  0  0  0  0  0  0  0  0  0
    7.5551    7.1270   23.1200 O   0  0  0  0  0  0  0  0  0  0  0  0
  1 11  4  0
  1 21  4  0
  2  4  1  0
  2  8  1  0
  2 11  1  0
  3 10  4  0
  3 14  4  0
  4  5  1  0
  4 18  2  0
  6 12  1  0
  6 17  4  0
  6 23  4  0
  7  9  1  0
  7 13  4  0
  7 19  4  0
  9 20  1  0
 10 19  4  0
 11 25  4  0
 13 14  4  0
 15 16  4  0
 15 17  4  0
 15 21  4  0
 16 24  1  0
 16 25  4  0
 20 24  1  0
 20 26  2  0
 21 23  4  0
 22 23  1  0
M  END
$$$$

 Created by Python create_sdf_string function

 26 28  0  0  0  0  0  0  0  0999 V2000
   12.4616    8.6700   19.4180 N   0  0  0  0  0  0  0  0  0  0  0  0
   11.8329   10.8148   18.6769 N   0  0  0  0  0  0  0  0  0  0  0  0
    6.1021    2.5564   21.0678 C   0  0  0  0  0  0  0  0  0  0  0  0
   10.9097   11.8051   18.4804 C   0  0  0  0  0  0  0  0  0  0  0  0
   11.2280   12.9135   17.5669 C   0  0  0  0  0  0  0  0  0  0  0  0
   12.3782    5.4231   20.7777 C   0  0  0  0  0  0  0  0  0  0  0  0
    7.7365    4.6508   21.6987 C   0  0  0  0  0  0  0  0  0  0  0  0
   13.0186   11.0102   18.0020 C   0  0  0  0  0  0  0  0  0  0  0  0
    8.6628    5.7088   21.8871 N   0  0  0  0  0  0  0  0  0  0  0  0
    5.6516    3.5258   21.9140 C   0  0  0  0  0  0  0  0  0  0  0  0
   11.5863    9.6815   19.4539 C   0  0  0  0  0  0  0  0  0  0  0  0
   12.9648    4.1543   20.9205 C   0  0  0  0  0  0  0  0  0  0  0  0
    8.2089    3.6265   20.8929 C   0  0  0  0  0  0  0  0  0  0  0  0
    7.3827    2.5724   20.5432 C   0  0  0  0  0  0  0  0  0  0  0  0
   11.1529    7.2750   20.8025 C   0  0  0  0  0  0  0  0  0  0  0  0
   10.2573    8.3215   20.9827 C   0  0  0  0  0  0  0  0  0  0  0  0
   11.1606    5.9378   21.2366 N   0  0  0  0  0  0  0  0  0  0  0  0
    9.8932   11.6736   19.0677 O   0  0  0  0  0  0  0  0  0  0  0  0
    6.4470    4.5850   22.2321 C   0  0  0  0  0  0  0  0  0  0  0  0
    8.4619    6.9895   22.2968 C   0  0  0  0  0  0  0  0  0  0  0  0
   12.2747    7.5102   20.0420 C   0  0  0  0  0  0  0  0  0  0  0  0
   14.2544    6.2142   19.4191 C   0  0  0  0  0  0  0  0  0  0  0  0
   13.0695    6.3705   20.0375 N   0  0  0  0  0  0  0  0  0  0  0  0
    9.1913    8.0876   21.8361 N   0  0  0  0  0  0  0  0  0  0  0  0
   10.4739    9.4813   20.2889 C   0  0  0  0  0  0  0  0  0  0  0  0
    7.5551    7.1270   23.1200 O   0  0  0  0  0  0  0  0  0  0  0  0
  1 11  4  0
  1 21  4  0
  2  4  1  0
  2  8  1  0
  2 11  1  0
  3 10  4  0
  3 14  4  0
  4  5  1  0
  4 18  2  0
  6 12  1  0
  6 17  4  0
  6 23  4  0
  7  9  1  0
  7 13  4  0
  7 19  4  0
  9 20  1  0
 10 19  4  0
 11 25  4  0
 13 14  4  0
 15 16  4  0
 15 17  4  0
 15 21  4  0
 16 24  1  0
 16 25  4  0
 20 24  1  0
 20 26  2  0
 21 23  4  0
 22 23  1  0
M  END
$$$$

 Created by Python create_sdf_string function

 26 28  0  0  0  0  0  0  0  0999 V2000
   12.4616    8.6700   19.4180 N   0  0  0  0  0  0  0  0  0  0  0  0
   11.8329   10.8148   18.6769 N   0  0  0  0  0  0  0  0  0  0  0  0
    6.1021    2.5564   21.0678 C   0  0  0  0  0  0  0  0  0  0  0  0
   10.9097   11.8051   18.4804 C   0  0  0  0  0  0  0  0  0  0  0  0
   11.2280   12.9135   17.5669 C   0  0  0  0  0  0  0  0  0  0  0  0
   12.3782    5.4231   20.7777 C   0  0  0  0  0  0  0  0  0  0  0  0
    7.7365    4.6508   21.6987 C   0  0  0  0  0  0  0  0  0  0  0  0
   13.0186   11.0102   18.0020 C   0  0  0  0  0  0  0  0  0  0  0  0
    8.6628    5.7088   21.8871 N   0  0  0  0  0  0  0  0  0  0  0  0
    5.6516    3.5258   21.9140 C   0  0  0  0  0  0  0  0  0  0  0  0
   11.5863    9.6815   19.4539 C   0  0  0  0  0  0  0  0  0  0  0  0
   12.9648    4.1543   20.9205 C   0  0  0  0  0  0  0  0  0  0  0  0
    8.2089    3.6265   20.8929 C   0  0  0  0  0  0  0  0  0  0  0  0
    7.3827    2.5724   20.5432 C   0  0  0  0  0  0  0  0  0  0  0  0
   11.1529    7.2750   20.8025 C   0  0  0  0  0  0  0  0  0  0  0  0
   10.2573    8.3215   20.9827 C   0  0  0  0  0  0  0  0  0  0  0  0
   11.1606    5.9378   21.2366 N   0  0  0  0  0  0  0  0  0  0  0  0
    9.8932   11.6736   19.0677 O   0  0  0  0  0  0  0  0  0  0  0  0
    6.4470    4.5850   22.2321 C   0  0  0  0  0  0  0  0  0  0  0  0
    8.4619    6.9895   22.2968 C   0  0  0  0  0  0  0  0  0  0  0  0
   12.2747    7.5102   20.0420 C   0  0  0  0  0  0  0  0  0  0  0  0
   14.2544    6.2142   19.4191 C   0  0  0  0  0  0  0  0  0  0  0  0
   13.0695    6.3705   20.0375 N   0  0  0  0  0  0  0  0  0  0  0  0
    9.1913    8.0876   21.8361 N   0  0  0  0  0  0  0  0  0  0  0  0
   10.4739    9.4813   20.2889 C   0  0  0  0  0  0  0  0  0  0  0  0
    7.5551    7.1270   23.1200 O   0  0  0  0  0  0  0  0  0  0  0  0
  1 11  4  0
  1 21  4  0
  2  4  1  0
  2  8  1  0
  2 11  1  0
  3 10  4  0
  3 14  4  0
  4  5  1  0
  4 18  2  0
  6 12  1  0
  6 17  4  0
  6 23  4  0
  7  9  1  0
  7 13  4  0
  7 19  4  0
  9 20  1  0
 10 19  4  0
 11 25  4  0
 13 14  4  0
 15 16  4  0
 15 17  4  0
 15 21  4  0
 16 24  1  0
 16 25  4  0
 20 24  1  0
 20 26  2  0
 21 23  4  0
 22 23  1  0
M  END
$$$$

 Created by Python create_sdf_string function

 26 28  0  0  0  0  0  0  0  0999 V2000
   12.4616    8.6700   19.4180 N   0  0  0  0  0  0  0  0  0  0  0  0
   11.8329   10.8148   18.6769 N   0  0  0  0  0  0  0  0  0  0  0  0
    6.1021    2.5564   21.0678 C   0  0  0  0  0  0  0  0  0  0  0  0
   10.9097   11.8051   18.4804 C   0  0  0  0  0  0  0  0  0  0  0  0
   11.2280   12.9135   17.5669 C   0  0  0  0  0  0  0  0  0  0  0  0
   12.3782    5.4231   20.7777 C   0  0  0  0  0  0  0  0  0  0  0  0
    7.7365    4.6508   21.6987 C   0  0  0  0  0  0  0  0  0  0  0  0
   13.0186   11.0102   18.0020 C   0  0  0  0  0  0  0  0  0  0  0  0
    8.6628    5.7088   21.8871 N   0  0  0  0  0  0  0  0  0  0  0  0
    5.6516    3.5258   21.9140 C   0  0  0  0  0  0  0  0  0  0  0  0
   11.5863    9.6815   19.4539 C   0  0  0  0  0  0  0  0  0  0  0  0
   12.9648    4.1543   20.9205 C   0  0  0  0  0  0  0  0  0  0  0  0
    8.2089    3.6265   20.8929 C   0  0  0  0  0  0  0  0  0  0  0  0
    7.3827    2.5724   20.5432 C   0  0  0  0  0  0  0  0  0  0  0  0
   11.1529    7.2750   20.8025 C   0  0  0  0  0  0  0  0  0  0  0  0
   10.2573    8.3215   20.9827 C   0  0  0  0  0  0  0  0  0  0  0  0
   11.1606    5.9378   21.2366 N   0  0  0  0  0  0  0  0  0  0  0  0
    9.8932   11.6736   19.0677 O   0  0  0  0  0  0  0  0  0  0  0  0
    6.4470    4.5850   22.2321 C   0  0  0  0  0  0  0  0  0  0  0  0
    8.4619    6.9895   22.2968 C   0  0  0  0  0  0  0  0  0  0  0  0
   12.2747    7.5102   20.0420 C   0  0  0  0  0  0  0  0  0  0  0  0
   14.2544    6.2142   19.4191 C   0  0  0  0  0  0  0  0  0  0  0  0
   13.0695    6.3705   20.0375 N   0  0  0  0  0  0  0  0  0  0  0  0
    9.1913    8.0876   21.8361 N   0  0  0  0  0  0  0  0  0  0  0  0
   10.4739    9.4813   20.2889 C   0  0  0  0  0  0  0  0  0  0  0  0
    7.5551    7.1270   23.1200 O   0  0  0  0  0  0  0  0  0  0  0  0
  1 11  4  0
  1 21  4  0
  2  4  1  0
  2  8  1  0
  2 11  1  0
  3 10  4  0
  3 14  4  0
  4  5  1  0
  4 18  2  0
  6 12  1  0
  6 17  4  0
  6 23  4  0
  7  9  1  0
  7 13  4  0
  7 19  4  0
  9 20  1  0
 10 19  4  0
 11 25  4  0
 13 14  4  0
 15 16  4  0
 15 17  4  0
 15 21  4  0
 16 24  1  0
 16 25  4  0
 20 24  1  0
 20 26  2  0
 21 23  4  0
 22 23  1  0
M  END
$$$$

 Created by Python create_sdf_string function

 26 28  0  0  0  0  0  0  0  0999 V2000
   12.4616    8.6700   19.4180 N   0  0  0  0  0  0  0  0  0  0  0  0
   11.8329   10.8148   18.6769 N   0  0  0  0  0  0  0  0  0  0  0  0
    6.1021    2.5564   21.0678 C   0  0  0  0  0  0  0  0  0  0  0  0
   10.9097   11.8051   18.4804 C   0  0  0  0  0  0  0  0  0  0  0  0
   11.2280   12.9135   17.5669 C   0  0  0  0  0  0  0  0  0  0  0  0
   12.3782    5.4231   20.7777 C   0  0  0  0  0  0  0  0  0  0  0  0
    7.7365    4.6508   21.6987 C   0  0  0  0  0  0  0  0  0  0  0  0
   13.0186   11.0102   18.0020 C   0  0  0  0  0  0  0  0  0  0  0  0
    8.6628    5.7088   21.8871 N   0  0  0  0  0  0  0  0  0  0  0  0
    5.6516    3.5258   21.9140 C   0  0  0  0  0  0  0  0  0  0  0  0
   11.5863    9.6815   19.4539 C   0  0  0  0  0  0  0  0  0  0  0  0
   12.9648    4.1543   20.9205 C   0  0  0  0  0  0  0  0  0  0  0  0
    8.2089    3.6265   20.8929 C   0  0  0  0  0  0  0  0  0  0  0  0
    7.3827    2.5724   20.5432 C   0  0  0  0  0  0  0  0  0  0  0  0
   11.1529    7.2750   20.8025 C   0  0  0  0  0  0  0  0  0  0  0  0
   10.2573    8.3215   20.9827 C   0  0  0  0  0  0  0  0  0  0  0  0
   11.1606    5.9378   21.2366 N   0  0  0  0  0  0  0  0  0  0  0  0
    9.8932   11.6736   19.0677 O   0  0  0  0  0  0  0  0  0  0  0  0
    6.4470    4.5850   22.2321 C   0  0  0  0  0  0  0  0  0  0  0  0
    8.4619    6.9895   22.2968 C   0  0  0  0  0  0  0  0  0  0  0  0
   12.2747    7.5102   20.0420 C   0  0  0  0  0  0  0  0  0  0  0  0
   14.2544    6.2142   19.4191 C   0  0  0  0  0  0  0  0  0  0  0  0
   13.0695    6.3705   20.0375 N   0  0  0  0  0  0  0  0  0  0  0  0
    9.1913    8.0876   21.8361 N   0  0  0  0  0  0  0  0  0  0  0  0
   10.4739    9.4813   20.2889 C   0  0  0  0  0  0  0  0  0  0  0  0
    7.5551    7.1270   23.1200 O   0  0  0  0  0  0  0  0  0  0  0  0
  1 11  4  0
  1 21  4  0
  2  4  1  0
  2  8  1  0
  2 11  1  0
  3 10  4  0
  3 14  4  0
  4  5  1  0
  4 18  2  0
  6 12  1  0
  6 17  4  0
  6 23  4  0
  7  9  1  0
  7 13  4  0
  7 19  4  0
  9 20  1  0
 10 19  4  0
 11 25  4  0
 13 14  4  0
 15 16  4  0
 15 17  4  0
 15 21  4  0
 16 24  1  0
 16 25  4  0
 20 24  1  0
 20 26  2  0
 21 23  4  0
 22 23  1  0
M  END
$$$$

 Created by Python create_sdf_string function

 26 28  0  0  0  0  0  0  0  0999 V2000
   12.4616    8.6700   19.4180 N   0  0  0  0  0  0  0  0  0  0  0  0
   11.8329   10.8148   18.6769 N   0  0  0  0  0  0  0  0  0  0  0  0
    6.1021    2.5564   21.0678 C   0  0  0  0  0  0  0  0  0  0  0  0
   10.9097   11.8051   18.4804 C   0  0  0  0  0  0  0  0  0  0  0  0
   11.2280   12.9135   17.5669 C   0  0  0  0  0  0  0  0  0  0  0  0
   12.3782    5.4231   20.7777 C   0  0  0  0  0  0  0  0  0  0  0  0
    7.7365    4.6508   21.6987 C   0  0  0  0  0  0  0  0  0  0  0  0
   13.0186   11.0102   18.0020 C   0  0  0  0  0  0  0  0  0  0  0  0
    8.6628    5.7088   21.8871 N   0  0  0  0  0  0  0  0  0  0  0  0
    5.6516    3.5258   21.9140 C   0  0  0  0  0  0  0  0  0  0  0  0
   11.5863    9.6815   19.4539 C   0  0  0  0  0  0  0  0  0  0  0  0
   12.9648    4.1543   20.9205 C   0  0  0  0  0  0  0  0  0  0  0  0
    8.2089    3.6265   20.8929 C   0  0  0  0  0  0  0  0  0  0  0  0
    7.3827    2.5724   20.5432 C   0  0  0  0  0  0  0  0  0  0  0  0
   11.1529    7.2750   20.8025 C   0  0  0  0  0  0  0  0  0  0  0  0
   10.2573    8.3215   20.9827 C   0  0  0  0  0  0  0  0  0  0  0  0
   11.1606    5.9378   21.2366 N   0  0  0  0  0  0  0  0  0  0  0  0
    9.8932   11.6736   19.0677 O   0  0  0  0  0  0  0  0  0  0  0  0
    6.4470    4.5850   22.2321 C   0  0  0  0  0  0  0  0  0  0  0  0
    8.4619    6.9895   22.2968 C   0  0  0  0  0  0  0  0  0  0  0  0
   12.2747    7.5102   20.0420 C   0  0  0  0  0  0  0  0  0  0  0  0
   14.2544    6.2142   19.4191 C   0  0  0  0  0  0  0  0  0  0  0  0
   13.0695    6.3705   20.0375 N   0  0  0  0  0  0  0  0  0  0  0  0
    9.1913    8.0876   21.8361 N   0  0  0  0  0  0  0  0  0  0  0  0
   10.4739    9.4813   20.2889 C   0  0  0  0  0  0  0  0  0  0  0  0
    7.5551    7.1270   23.1200 O   0  0  0  0  0  0  0  0  0  0  0  0
  1 11  4  0
  1 21  4  0
  2  4  1  0
  2  8  1  0
  2 11  1  0
  3 10  4  0
  3 14  4  0
  4  5  1  0
  4 18  2  0
  6 12  1  0
  6 17  4  0
  6 23  4  0
  7  9  1  0
  7 13  4  0
  7 19  4  0
  9 20  1  0
 10 19  4  0
 11 25  4  0
 13 14  4  0
 15 16  4  0
 15 17  4  0
 15 21  4  0
 16 24  1  0
 16 25  4  0
 20 24  1  0
 20 26  2  0
 21 23  4  0
 22 23  1  0
M  END
$$$$

 Created by Python create_sdf_string function

 26 28  0  0  0  0  0  0  0  0999 V2000
   12.4616    8.6700   19.4180 N   0  0  0  0  0  0  0  0  0  0  0  0
   11.8329   10.8148   18.6769 N   0  0  0  0  0  0  0  0  0  0  0  0
    6.1021    2.5564   21.0678 C   0  0  0  0  0  0  0  0  0  0  0  0
   10.9097   11.8051   18.4804 C   0  0  0  0  0  0  0  0  0  0  0  0
   11.2280   12.9135   17.5669 C   0  0  0  0  0  0  0  0  0  0  0  0
   12.3782    5.4231   20.7777 C   0  0  0  0  0  0  0  0  0  0  0  0
    7.7365    4.6508   21.6987 C   0  0  0  0  0  0  0  0  0  0  0  0
   13.0186   11.0102   18.0020 C   0  0  0  0  0  0  0  0  0  0  0  0
    8.6628    5.7088   21.8871 N   0  0  0  0  0  0  0  0  0  0  0  0
    5.6516    3.5258   21.9140 C   0  0  0  0  0  0  0  0  0  0  0  0
   11.5863    9.6815   19.4539 C   0  0  0  0  0  0  0  0  0  0  0  0
   12.9648    4.1543   20.9205 C   0  0  0  0  0  0  0  0  0  0  0  0
    8.2089    3.6265   20.8929 C   0  0  0  0  0  0  0  0  0  0  0  0
    7.3827    2.5724   20.5432 C   0  0  0  0  0  0  0  0  0  0  0  0
   11.1529    7.2750   20.8025 C   0  0  0  0  0  0  0  0  0  0  0  0
   10.2573    8.3215   20.9827 C   0  0  0  0  0  0  0  0  0  0  0  0
   11.1606    5.9378   21.2366 N   0  0  0  0  0  0  0  0  0  0  0  0
    9.8932   11.6736   19.0677 O   0  0  0  0  0  0  0  0  0  0  0  0
    6.4470    4.5850   22.2321 C   0  0  0  0  0  0  0  0  0  0  0  0
    8.4619    6.9895   22.2968 C   0  0  0  0  0  0  0  0  0  0  0  0
   12.2747    7.5102   20.0420 C   0  0  0  0  0  0  0  0  0  0  0  0
   14.2544    6.2142   19.4191 C   0  0  0  0  0  0  0  0  0  0  0  0
   13.0695    6.3705   20.0375 N   0  0  0  0  0  0  0  0  0  0  0  0
    9.1913    8.0876   21.8361 N   0  0  0  0  0  0  0  0  0  0  0  0
   10.4739    9.4813   20.2889 C   0  0  0  0  0  0  0  0  0  0  0  0
    7.5551    7.1270   23.1200 O   0  0  0  0  0  0  0  0  0  0  0  0
  1 11  4  0
  1 21  4  0
  2  4  1  0
  2  8  1  0
  2 11  1  0
  3 10  4  0
  3 14  4  0
  4  5  1  0
  4 18  2  0
  6 12  1  0
  6 17  4  0
  6 23  4  0
  7  9  1  0
  7 13  4  0
  7 19  4  0
  9 20  1  0
 10 19  4  0
 11 25  4  0
 13 14  4  0
 15 16  4  0
 15 17  4  0
 15 21  4  0
 16 24  1  0
 16 25  4  0
 20 24  1  0
 20 26  2  0
 21 23  4  0
 22 23  1  0
M  END
$$$$

 Created by Python create_sdf_string function

 26 28  0  0  0  0  0  0  0  0999 V2000
   12.4616    8.6700   19.4180 N   0  0  0  0  0  0  0  0  0  0  0  0
   11.8329   10.8148   18.6769 N   0  0  0  0  0  0  0  0  0  0  0  0
    6.1021    2.5564   21.0678 C   0  0  0  0  0  0  0  0  0  0  0  0
   10.9097   11.8051   18.4804 C   0  0  0  0  0  0  0  0  0  0  0  0
   11.2280   12.9135   17.5669 C   0  0  0  0  0  0  0  0  0  0  0  0
   12.3782    5.4231   20.7777 C   0  0  0  0  0  0  0  0  0  0  0  0
    7.7365    4.6508   21.6987 C   0  0  0  0  0  0  0  0  0  0  0  0
   13.0186   11.0102   18.0020 C   0  0  0  0  0  0  0  0  0  0  0  0
    8.6628    5.7088   21.8871 N   0  0  0  0  0  0  0  0  0  0  0  0
    5.6516    3.5258   21.9140 C   0  0  0  0  0  0  0  0  0  0  0  0
   11.5863    9.6815   19.4539 C   0  0  0  0  0  0  0  0  0  0  0  0
   12.9648    4.1543   20.9205 C   0  0  0  0  0  0  0  0  0  0  0  0
    8.2089    3.6265   20.8929 C   0  0  0  0  0  0  0  0  0  0  0  0
    7.3827    2.5724   20.5432 C   0  0  0  0  0  0  0  0  0  0  0  0
   11.1529    7.2750   20.8025 C   0  0  0  0  0  0  0  0  0  0  0  0
   10.2573    8.3215   20.9827 C   0  0  0  0  0  0  0  0  0  0  0  0
   11.1606    5.9378   21.2366 N   0  0  0  0  0  0  0  0  0  0  0  0
    9.8932   11.6736   19.0677 O   0  0  0  0  0  0  0  0  0  0  0  0
    6.4470    4.5850   22.2321 C   0  0  0  0  0  0  0  0  0  0  0  0
    8.4619    6.9895   22.2968 C   0  0  0  0  0  0  0  0  0  0  0  0
   12.2747    7.5102   20.0420 C   0  0  0  0  0  0  0  0  0  0  0  0
   14.2544    6.2142   19.4191 C   0  0  0  0  0  0  0  0  0  0  0  0
   13.0695    6.3705   20.0375 N   0  0  0  0  0  0  0  0  0  0  0  0
    9.1913    8.0876   21.8361 N   0  0  0  0  0  0  0  0  0  0  0  0
   10.4739    9.4813   20.2889 C   0  0  0  0  0  0  0  0  0  0  0  0
    7.5551    7.1270   23.1200 O   0  0  0  0  0  0  0  0  0  0  0  0
  1 11  4  0
  1 21  4  0
  2  4  1  0
  2  8  1  0
  2 11  1  0
  3 10  4  0
  3 14  4  0
  4  5  1  0
  4 18  2  0
  6 12  1  0
  6 17  4  0
  6 23  4  0
  7  9  1  0
  7 13  4  0
  7 19  4  0
  9 20  1  0
 10 19  4  0
 11 25  4  0
 13 14  4  0
 15 16  4  0
 15 17  4  0
 15 21  4  0
 16 24  1  0
 16 25  4  0
 20 24  1  0
 20 26  2  0
 21 23  4  0
 22 23  1  0
M  END
$$$$

 Created by Python create_sdf_string function

 26 28  0  0  0  0  0  0  0  0999 V2000
   12.4616    8.6700   19.4180 N   0  0  0  0  0  0  0  0  0  0  0  0
   11.8329   10.8148   18.6769 N   0  0  0  0  0  0  0  0  0  0  0  0
    6.1021    2.5564   21.0678 C   0  0  0  0  0  0  0  0  0  0  0  0
   10.9097   11.8051   18.4804 C   0  0  0  0  0  0  0  0  0  0  0  0
   11.2280   12.9135   17.5669 C   0  0  0  0  0  0  0  0  0  0  0  0
   12.3782    5.4231   20.7777 C   0  0  0  0  0  0  0  0  0  0  0  0
    7.7365    4.6508   21.6987 C   0  0  0  0  0  0  0  0  0  0  0  0
   13.0186   11.0102   18.0020 C   0  0  0  0  0  0  0  0  0  0  0  0
    8.6628    5.7088   21.8871 N   0  0  0  0  0  0  0  0  0  0  0  0
    5.6516    3.5258   21.9140 C   0  0  0  0  0  0  0  0  0  0  0  0
   11.5863    9.6815   19.4539 C   0  0  0  0  0  0  0  0  0  0  0  0
   12.9648    4.1543   20.9205 C   0  0  0  0  0  0  0  0  0  0  0  0
    8.2089    3.6265   20.8929 C   0  0  0  0  0  0  0  0  0  0  0  0
    7.3827    2.5724   20.5432 C   0  0  0  0  0  0  0  0  0  0  0  0
   11.1529    7.2750   20.8025 C   0  0  0  0  0  0  0  0  0  0  0  0
   10.2573    8.3215   20.9827 C   0  0  0  0  0  0  0  0  0  0  0  0
   11.1606    5.9378   21.2366 N   0  0  0  0  0  0  0  0  0  0  0  0
    9.8932   11.6736   19.0677 O   0  0  0  0  0  0  0  0  0  0  0  0
    6.4470    4.5850   22.2321 C   0  0  0  0  0  0  0  0  0  0  0  0
    8.4619    6.9895   22.2968 C   0  0  0  0  0  0  0  0  0  0  0  0
   12.2747    7.5102   20.0420 C   0  0  0  0  0  0  0  0  0  0  0  0
   14.2544    6.2142   19.4191 C   0  0  0  0  0  0  0  0  0  0  0  0
   13.0695    6.3705   20.0375 N   0  0  0  0  0  0  0  0  0  0  0  0
    9.1913    8.0876   21.8361 N   0  0  0  0  0  0  0  0  0  0  0  0
   10.4739    9.4813   20.2889 C   0  0  0  0  0  0  0  0  0  0  0  0
    7.5551    7.1270   23.1200 O   0  0  0  0  0  0  0  0  0  0  0  0
  1 11  4  0
  1 21  4  0
  2  4  1  0
  2  8  1  0
  2 11  1  0
  3 10  4  0
  3 14  4  0
  4  5  1  0
  4 18  2  0
  6 12  1  0
  6 17  4  0
  6 23  4  0
  7  9  1  0
  7 13  4  0
  7 19  4  0
  9 20  1  0
 10 19  4  0
 11 25  4  0
 13 14  4  0
 15 16  4  0
 15 17  4  0
 15 21  4  0
 16 24  1  0
 16 25  4  0
 20 24  1  0
 20 26  2  0
 21 23  4  0
 22 23  1  0
M  END
$$$$

 Created by Python create_sdf_string function

 26 28  0  0  0  0  0  0  0  0999 V2000
   12.4616    8.6700   19.4180 N   0  0  0  0  0  0  0  0  0  0  0  0
   11.8329   10.8148   18.6769 N   0  0  0  0  0  0  0  0  0  0  0  0
    6.1021    2.5564   21.0678 C   0  0  0  0  0  0  0  0  0  0  0  0
   10.9097   11.8051   18.4804 C   0  0  0  0  0  0  0  0  0  0  0  0
   11.2280   12.9135   17.5669 C   0  0  0  0  0  0  0  0  0  0  0  0
   12.3782    5.4231   20.7777 C   0  0  0  0  0  0  0  0  0  0  0  0
    7.7365    4.6508   21.6987 C   0  0  0  0  0  0  0  0  0  0  0  0
   13.0186   11.0102   18.0020 C   0  0  0  0  0  0  0  0  0  0  0  0
    8.6628    5.7088   21.8871 N   0  0  0  0  0  0  0  0  0  0  0  0
    5.6516    3.5258   21.9140 C   0  0  0  0  0  0  0  0  0  0  0  0
   11.5863    9.6815   19.4539 C   0  0  0  0  0  0  0  0  0  0  0  0
   12.9648    4.1543   20.9205 C   0  0  0  0  0  0  0  0  0  0  0  0
    8.2089    3.6265   20.8929 C   0  0  0  0  0  0  0  0  0  0  0  0
    7.3827    2.5724   20.5432 C   0  0  0  0  0  0  0  0  0  0  0  0
   11.1529    7.2750   20.8025 C   0  0  0  0  0  0  0  0  0  0  0  0
   10.2573    8.3215   20.9827 C   0  0  0  0  0  0  0  0  0  0  0  0
   11.1606    5.9378   21.2366 N   0  0  0  0  0  0  0  0  0  0  0  0
    9.8932   11.6736   19.0677 O   0  0  0  0  0  0  0  0  0  0  0  0
    6.4470    4.5850   22.2321 C   0  0  0  0  0  0  0  0  0  0  0  0
    8.4619    6.9895   22.2968 C   0  0  0  0  0  0  0  0  0  0  0  0
   12.2747    7.5102   20.0420 C   0  0  0  0  0  0  0  0  0  0  0  0
   14.2544    6.2142   19.4191 C   0  0  0  0  0  0  0  0  0  0  0  0
   13.0695    6.3705   20.0375 N   0  0  0  0  0  0  0  0  0  0  0  0
    9.1913    8.0876   21.8361 N   0  0  0  0  0  0  0  0  0  0  0  0
   10.4739    9.4813   20.2889 C   0  0  0  0  0  0  0  0  0  0  0  0
    7.5551    7.1270   23.1200 O   0  0  0  0  0  0  0  0  0  0  0  0
  1 11  4  0
  1 21  4  0
  2  4  1  0
  2  8  1  0
  2 11  1  0
  3 10  4  0
  3 14  4  0
  4  5  1  0
  4 18  2  0
  6 12  1  0
  6 17  4  0
  6 23  4  0
  7  9  1  0
  7 13  4  0
  7 19  4  0
  9 20  1  0
 10 19  4  0
 11 25  4  0
 13 14  4  0
 15 16  4  0
 15 17  4  0
 15 21  4  0
 16 24  1  0
 16 25  4  0
 20 24  1  0
 20 26  2  0
 21 23  4  0
 22 23  1  0
M  END
$$$$

 Created by Python create_sdf_string function

 26 28  0  0  0  0  0  0  0  0999 V2000
   12.4616    8.6700   19.4180 N   0  0  0  0  0  0  0  0  0  0  0  0
   11.8329   10.8148   18.6769 N   0  0  0  0  0  0  0  0  0  0  0  0
    6.1021    2.5564   21.0678 C   0  0  0  0  0  0  0  0  0  0  0  0
   10.9097   11.8051   18.4804 C   0  0  0  0  0  0  0  0  0  0  0  0
   11.2280   12.9135   17.5669 C   0  0  0  0  0  0  0  0  0  0  0  0
   12.3782    5.4231   20.7777 C   0  0  0  0  0  0  0  0  0  0  0  0
    7.7365    4.6508   21.6987 C   0  0  0  0  0  0  0  0  0  0  0  0
   13.0186   11.0102   18.0020 C   0  0  0  0  0  0  0  0  0  0  0  0
    8.6628    5.7088   21.8871 N   0  0  0  0  0  0  0  0  0  0  0  0
    5.6516    3.5258   21.9140 C   0  0  0  0  0  0  0  0  0  0  0  0
   11.5863    9.6815   19.4539 C   0  0  0  0  0  0  0  0  0  0  0  0
   12.9648    4.1543   20.9205 C   0  0  0  0  0  0  0  0  0  0  0  0
    8.2089    3.6265   20.8929 C   0  0  0  0  0  0  0  0  0  0  0  0
    7.3827    2.5724   20.5432 C   0  0  0  0  0  0  0  0  0  0  0  0
   11.1529    7.2750   20.8025 C   0  0  0  0  0  0  0  0  0  0  0  0
   10.2573    8.3215   20.9827 C   0  0  0  0  0  0  0  0  0  0  0  0
   11.1606    5.9378   21.2366 N   0  0  0  0  0  0  0  0  0  0  0  0
    9.8932   11.6736   19.0677 O   0  0  0  0  0  0  0  0  0  0  0  0
    6.4470    4.5850   22.2321 C   0  0  0  0  0  0  0  0  0  0  0  0
    8.4619    6.9895   22.2968 C   0  0  0  0  0  0  0  0  0  0  0  0
   12.2747    7.5102   20.0420 C   0  0  0  0  0  0  0  0  0  0  0  0
   14.2544    6.2142   19.4191 C   0  0  0  0  0  0  0  0  0  0  0  0
   13.0695    6.3705   20.0375 N   0  0  0  0  0  0  0  0  0  0  0  0
    9.1913    8.0876   21.8361 N   0  0  0  0  0  0  0  0  0  0  0  0
   10.4739    9.4813   20.2889 C   0  0  0  0  0  0  0  0  0  0  0  0
    7.5551    7.1270   23.1200 O   0  0  0  0  0  0  0  0  0  0  0  0
  1 11  4  0
  1 21  4  0
  2  4  1  0
  2  8  1  0
  2 11  1  0
  3 10  4  0
  3 14  4  0
  4  5  1  0
  4 18  2  0
  6 12  1  0
  6 17  4  0
  6 23  4  0
  7  9  1  0
  7 13  4  0
  7 19  4  0
  9 20  1  0
 10 19  4  0
 11 25  4  0
 13 14  4  0
 15 16  4  0
 15 17  4  0
 15 21  4  0
 16 24  1  0
 16 25  4  0
 20 24  1  0
 20 26  2  0
 21 23  4  0
 22 23  1  0
M  END
$$$$

 Created by Python create_sdf_string function

 26 28  0  0  0  0  0  0  0  0999 V2000
   12.4616    8.6700   19.4180 N   0  0  0  0  0  0  0  0  0  0  0  0
   11.8329   10.8148   18.6769 N   0  0  0  0  0  0  0  0  0  0  0  0
    6.1021    2.5564   21.0678 C   0  0  0  0  0  0  0  0  0  0  0  0
   10.9097   11.8051   18.4804 C   0  0  0  0  0  0  0  0  0  0  0  0
   11.2280   12.9135   17.5669 C   0  0  0  0  0  0  0  0  0  0  0  0
   12.3782    5.4231   20.7777 C   0  0  0  0  0  0  0  0  0  0  0  0
    7.7365    4.6508   21.6987 C   0  0  0  0  0  0  0  0  0  0  0  0
   13.0186   11.0102   18.0020 C   0  0  0  0  0  0  0  0  0  0  0  0
    8.6628    5.7088   21.8871 N   0  0  0  0  0  0  0  0  0  0  0  0
    5.6516    3.5258   21.9140 C   0  0  0  0  0  0  0  0  0  0  0  0
   11.5863    9.6815   19.4539 C   0  0  0  0  0  0  0  0  0  0  0  0
   12.9648    4.1543   20.9205 C   0  0  0  0  0  0  0  0  0  0  0  0
    8.2089    3.6265   20.8929 C   0  0  0  0  0  0  0  0  0  0  0  0
    7.3827    2.5724   20.5432 C   0  0  0  0  0  0  0  0  0  0  0  0
   11.1529    7.2750   20.8025 C   0  0  0  0  0  0  0  0  0  0  0  0
   10.2573    8.3215   20.9827 C   0  0  0  0  0  0  0  0  0  0  0  0
   11.1606    5.9378   21.2366 N   0  0  0  0  0  0  0  0  0  0  0  0
    9.8932   11.6736   19.0677 O   0  0  0  0  0  0  0  0  0  0  0  0
    6.4470    4.5850   22.2321 C   0  0  0  0  0  0  0  0  0  0  0  0
    8.4619    6.9895   22.2968 C   0  0  0  0  0  0  0  0  0  0  0  0
   12.2747    7.5102   20.0420 C   0  0  0  0  0  0  0  0  0  0  0  0
   14.2544    6.2142   19.4191 C   0  0  0  0  0  0  0  0  0  0  0  0
   13.0695    6.3705   20.0375 N   0  0  0  0  0  0  0  0  0  0  0  0
    9.1913    8.0876   21.8361 N   0  0  0  0  0  0  0  0  0  0  0  0
   10.4739    9.4813   20.2889 C   0  0  0  0  0  0  0  0  0  0  0  0
    7.5551    7.1270   23.1200 O   0  0  0  0  0  0  0  0  0  0  0  0
  1 11  4  0
  1 21  4  0
  2  4  1  0
  2  8  1  0
  2 11  1  0
  3 10  4  0
  3 14  4  0
  4  5  1  0
  4 18  2  0
  6 12  1  0
  6 17  4  0
  6 23  4  0
  7  9  1  0
  7 13  4  0
  7 19  4  0
  9 20  1  0
 10 19  4  0
 11 25  4  0
 13 14  4  0
 15 16  4  0
 15 17  4  0
 15 21  4  0
 16 24  1  0
 16 25  4  0
 20 24  1  0
 20 26  2  0
 21 23  4  0
 22 23  1  0
M  END
$$$$

 Created by Python create_sdf_string function

 26 28  0  0  0  0  0  0  0  0999 V2000
   12.4616    8.6700   19.4180 N   0  0  0  0  0  0  0  0  0  0  0  0
   11.8329   10.8148   18.6769 N   0  0  0  0  0  0  0  0  0  0  0  0
    6.1021    2.5564   21.0678 C   0  0  0  0  0  0  0  0  0  0  0  0
   10.9097   11.8051   18.4804 C   0  0  0  0  0  0  0  0  0  0  0  0
   11.2280   12.9135   17.5669 C   0  0  0  0  0  0  0  0  0  0  0  0
   12.3782    5.4231   20.7777 C   0  0  0  0  0  0  0  0  0  0  0  0
    7.7365    4.6508   21.6987 C   0  0  0  0  0  0  0  0  0  0  0  0
   13.0186   11.0102   18.0020 C   0  0  0  0  0  0  0  0  0  0  0  0
    8.6628    5.7088   21.8871 N   0  0  0  0  0  0  0  0  0  0  0  0
    5.6516    3.5258   21.9140 C   0  0  0  0  0  0  0  0  0  0  0  0
   11.5863    9.6815   19.4539 C   0  0  0  0  0  0  0  0  0  0  0  0
   12.9648    4.1543   20.9205 C   0  0  0  0  0  0  0  0  0  0  0  0
    8.2089    3.6265   20.8929 C   0  0  0  0  0  0  0  0  0  0  0  0
    7.3827    2.5724   20.5432 C   0  0  0  0  0  0  0  0  0  0  0  0
   11.1529    7.2750   20.8025 C   0  0  0  0  0  0  0  0  0  0  0  0
   10.2573    8.3215   20.9827 C   0  0  0  0  0  0  0  0  0  0  0  0
   11.1606    5.9378   21.2366 N   0  0  0  0  0  0  0  0  0  0  0  0
    9.8932   11.6736   19.0677 O   0  0  0  0  0  0  0  0  0  0  0  0
    6.4470    4.5850   22.2321 C   0  0  0  0  0  0  0  0  0  0  0  0
    8.4619    6.9895   22.2968 C   0  0  0  0  0  0  0  0  0  0  0  0
   12.2747    7.5102   20.0420 C   0  0  0  0  0  0  0  0  0  0  0  0
   14.2544    6.2142   19.4191 C   0  0  0  0  0  0  0  0  0  0  0  0
   13.0695    6.3705   20.0375 N   0  0  0  0  0  0  0  0  0  0  0  0
    9.1913    8.0876   21.8361 N   0  0  0  0  0  0  0  0  0  0  0  0
   10.4739    9.4813   20.2889 C   0  0  0  0  0  0  0  0  0  0  0  0
    7.5551    7.1270   23.1200 O   0  0  0  0  0  0  0  0  0  0  0  0
  1 11  4  0
  1 21  4  0
  2  4  1  0
  2  8  1  0
  2 11  1  0
  3 10  4  0
  3 14  4  0
  4  5  1  0
  4 18  2  0
  6 12  1  0
  6 17  4  0
  6 23  4  0
  7  9  1  0
  7 13  4  0
  7 19  4  0
  9 20  1  0
 10 19  4  0
 11 25  4  0
 13 14  4  0
 15 16  4  0
 15 17  4  0
 15 21  4  0
 16 24  1  0
 16 25  4  0
 20 24  1  0
 20 26  2  0
 21 23  4  0
 22 23  1  0
M  END
$$$$

 Created by Python create_sdf_string function

 26 28  0  0  0  0  0  0  0  0999 V2000
   12.4616    8.6700   19.4180 N   0  0  0  0  0  0  0  0  0  0  0  0
   11.8329   10.8148   18.6769 N   0  0  0  0  0  0  0  0  0  0  0  0
    6.1021    2.5564   21.0678 C   0  0  0  0  0  0  0  0  0  0  0  0
   10.9097   11.8051   18.4804 C   0  0  0  0  0  0  0  0  0  0  0  0
   11.2280   12.9135   17.5669 C   0  0  0  0  0  0  0  0  0  0  0  0
   12.3782    5.4231   20.7777 C   0  0  0  0  0  0  0  0  0  0  0  0
    7.7365    4.6508   21.6987 C   0  0  0  0  0  0  0  0  0  0  0  0
   13.0186   11.0102   18.0020 C   0  0  0  0  0  0  0  0  0  0  0  0
    8.6628    5.7088   21.8871 N   0  0  0  0  0  0  0  0  0  0  0  0
    5.6516    3.5258   21.9140 C   0  0  0  0  0  0  0  0  0  0  0  0
   11.5863    9.6815   19.4539 C   0  0  0  0  0  0  0  0  0  0  0  0
   12.9648    4.1543   20.9205 C   0  0  0  0  0  0  0  0  0  0  0  0
    8.2089    3.6265   20.8929 C   0  0  0  0  0  0  0  0  0  0  0  0
    7.3827    2.5724   20.5432 C   0  0  0  0  0  0  0  0  0  0  0  0
   11.1529    7.2750   20.8025 C   0  0  0  0  0  0  0  0  0  0  0  0
   10.2573    8.3215   20.9827 C   0  0  0  0  0  0  0  0  0  0  0  0
   11.1606    5.9378   21.2366 N   0  0  0  0  0  0  0  0  0  0  0  0
    9.8932   11.6736   19.0677 O   0  0  0  0  0  0  0  0  0  0  0  0
    6.4470    4.5850   22.2321 C   0  0  0  0  0  0  0  0  0  0  0  0
    8.4619    6.9895   22.2968 C   0  0  0  0  0  0  0  0  0  0  0  0
   12.2747    7.5102   20.0420 C   0  0  0  0  0  0  0  0  0  0  0  0
   14.2544    6.2142   19.4191 C   0  0  0  0  0  0  0  0  0  0  0  0
   13.0695    6.3705   20.0375 N   0  0  0  0  0  0  0  0  0  0  0  0
    9.1913    8.0876   21.8361 N   0  0  0  0  0  0  0  0  0  0  0  0
   10.4739    9.4813   20.2889 C   0  0  0  0  0  0  0  0  0  0  0  0
    7.5551    7.1270   23.1200 O   0  0  0  0  0  0  0  0  0  0  0  0
  1 11  4  0
  1 21  4  0
  2  4  1  0
  2  8  1  0
  2 11  1  0
  3 10  4  0
  3 14  4  0
  4  5  1  0
  4 18  2  0
  6 12  1  0
  6 17  4  0
  6 23  4  0
  7  9  1  0
  7 13  4  0
  7 19  4  0
  9 20  1  0
 10 19  4  0
 11 25  4  0
 13 14  4  0
 15 16  4  0
 15 17  4  0
 15 21  4  0
 16 24  1  0
 16 25  4  0
 20 24  1  0
 20 26  2  0
 21 23  4  0
 22 23  1  0
M  END
$$$$

 Created by Python create_sdf_string function

 26 28  0  0  0  0  0  0  0  0999 V2000
   12.4616    8.6700   19.4180 N   0  0  0  0  0  0  0  0  0  0  0  0
   11.8329   10.8148   18.6769 N   0  0  0  0  0  0  0  0  0  0  0  0
    6.1021    2.5564   21.0678 C   0  0  0  0  0  0  0  0  0  0  0  0
   10.9097   11.8051   18.4804 C   0  0  0  0  0  0  0  0  0  0  0  0
   11.2280   12.9135   17.5669 C   0  0  0  0  0  0  0  0  0  0  0  0
   12.3782    5.4231   20.7777 C   0  0  0  0  0  0  0  0  0  0  0  0
    7.7365    4.6508   21.6987 C   0  0  0  0  0  0  0  0  0  0  0  0
   13.0186   11.0102   18.0020 C   0  0  0  0  0  0  0  0  0  0  0  0
    8.6628    5.7088   21.8871 N   0  0  0  0  0  0  0  0  0  0  0  0
    5.6516    3.5258   21.9140 C   0  0  0  0  0  0  0  0  0  0  0  0
   11.5863    9.6815   19.4539 C   0  0  0  0  0  0  0  0  0  0  0  0
   12.9648    4.1543   20.9205 C   0  0  0  0  0  0  0  0  0  0  0  0
    8.2089    3.6265   20.8929 C   0  0  0  0  0  0  0  0  0  0  0  0
    7.3827    2.5724   20.5432 C   0  0  0  0  0  0  0  0  0  0  0  0
   11.1529    7.2750   20.8025 C   0  0  0  0  0  0  0  0  0  0  0  0
   10.2573    8.3215   20.9827 C   0  0  0  0  0  0  0  0  0  0  0  0
   11.1606    5.9378   21.2366 N   0  0  0  0  0  0  0  0  0  0  0  0
    9.8932   11.6736   19.0677 O   0  0  0  0  0  0  0  0  0  0  0  0
    6.4470    4.5850   22.2321 C   0  0  0  0  0  0  0  0  0  0  0  0
    8.4619    6.9895   22.2968 C   0  0  0  0  0  0  0  0  0  0  0  0
   12.2747    7.5102   20.0420 C   0  0  0  0  0  0  0  0  0  0  0  0
   14.2544    6.2142   19.4191 C   0  0  0  0  0  0  0  0  0  0  0  0
   13.0695    6.3705   20.0375 N   0  0  0  0  0  0  0  0  0  0  0  0
    9.1913    8.0876   21.8361 N   0  0  0  0  0  0  0  0  0  0  0  0
   10.4739    9.4813   20.2889 C   0  0  0  0  0  0  0  0  0  0  0  0
    7.5551    7.1270   23.1200 O   0  0  0  0  0  0  0  0  0  0  0  0
  1 11  4  0
  1 21  4  0
  2  4  1  0
  2  8  1  0
  2 11  1  0
  3 10  4  0
  3 14  4  0
  4  5  1  0
  4 18  2  0
  6 12  1  0
  6 17  4  0
  6 23  4  0
  7  9  1  0
  7 13  4  0
  7 19  4  0
  9 20  1  0
 10 19  4  0
 11 25  4  0
 13 14  4  0
 15 16  4  0
 15 17  4  0
 15 21  4  0
 16 24  1  0
 16 25  4  0
 20 24  1  0
 20 26  2  0
 21 23  4  0
 22 23  1  0
M  END
$$$$

 Created by Python create_sdf_string function

 26 28  0  0  0  0  0  0  0  0999 V2000
   12.4616    8.6700   19.4180 N   0  0  0  0  0  0  0  0  0  0  0  0
   11.8329   10.8148   18.6769 N   0  0  0  0  0  0  0  0  0  0  0  0
    6.1021    2.5564   21.0678 C   0  0  0  0  0  0  0  0  0  0  0  0
   10.9097   11.8051   18.4804 C   0  0  0  0  0  0  0  0  0  0  0  0
   11.2280   12.9135   17.5669 C   0  0  0  0  0  0  0  0  0  0  0  0
   12.3782    5.4231   20.7777 C   0  0  0  0  0  0  0  0  0  0  0  0
    7.7365    4.6508   21.6987 C   0  0  0  0  0  0  0  0  0  0  0  0
   13.0186   11.0102   18.0020 C   0  0  0  0  0  0  0  0  0  0  0  0
    8.6628    5.7088   21.8871 N   0  0  0  0  0  0  0  0  0  0  0  0
    5.6516    3.5258   21.9140 C   0  0  0  0  0  0  0  0  0  0  0  0
   11.5863    9.6815   19.4539 C   0  0  0  0  0  0  0  0  0  0  0  0
   12.9648    4.1543   20.9205 C   0  0  0  0  0  0  0  0  0  0  0  0
    8.2089    3.6265   20.8929 C   0  0  0  0  0  0  0  0  0  0  0  0
    7.3827    2.5724   20.5432 C   0  0  0  0  0  0  0  0  0  0  0  0
   11.1529    7.2750   20.8025 C   0  0  0  0  0  0  0  0  0  0  0  0
   10.2573    8.3215   20.9827 C   0  0  0  0  0  0  0  0  0  0  0  0
   11.1606    5.9378   21.2366 N   0  0  0  0  0  0  0  0  0  0  0  0
    9.8932   11.6736   19.0677 O   0  0  0  0  0  0  0  0  0  0  0  0
    6.4470    4.5850   22.2321 C   0  0  0  0  0  0  0  0  0  0  0  0
    8.4619    6.9895   22.2968 C   0  0  0  0  0  0  0  0  0  0  0  0
   12.2747    7.5102   20.0420 C   0  0  0  0  0  0  0  0  0  0  0  0
   14.2544    6.2142   19.4191 C   0  0  0  0  0  0  0  0  0  0  0  0
   13.0695    6.3705   20.0375 N   0  0  0  0  0  0  0  0  0  0  0  0
    9.1913    8.0876   21.8361 N   0  0  0  0  0  0  0  0  0  0  0  0
   10.4739    9.4813   20.2889 C   0  0  0  0  0  0  0  0  0  0  0  0
    7.5551    7.1270   23.1200 O   0  0  0  0  0  0  0  0  0  0  0  0
  1 11  4  0
  1 21  4  0
  2  4  1  0
  2  8  1  0
  2 11  1  0
  3 10  4  0
  3 14  4  0
  4  5  1  0
  4 18  2  0
  6 12  1  0
  6 17  4  0
  6 23  4  0
  7  9  1  0
  7 13  4  0
  7 19  4  0
  9 20  1  0
 10 19  4  0
 11 25  4  0
 13 14  4  0
 15 16  4  0
 15 17  4  0
 15 21  4  0
 16 24  1  0
 16 25  4  0
 20 24  1  0
 20 26  2  0
 21 23  4  0
 22 23  1  0
M  END
$$$$

 Created by Python create_sdf_string function

 26 28  0  0  0  0  0  0  0  0999 V2000
   12.4616    8.6700   19.4180 N   0  0  0  0  0  0  0  0  0  0  0  0
   11.8329   10.8148   18.6769 N   0  0  0  0  0  0  0  0  0  0  0  0
    6.1021    2.5564   21.0678 C   0  0  0  0  0  0  0  0  0  0  0  0
   10.9097   11.8051   18.4804 C   0  0  0  0  0  0  0  0  0  0  0  0
   11.2280   12.9135   17.5669 C   0  0  0  0  0  0  0  0  0  0  0  0
   12.3782    5.4231   20.7777 C   0  0  0  0  0  0  0  0  0  0  0  0
    7.7365    4.6508   21.6987 C   0  0  0  0  0  0  0  0  0  0  0  0
   13.0186   11.0102   18.0020 C   0  0  0  0  0  0  0  0  0  0  0  0
    8.6628    5.7088   21.8871 N   0  0  0  0  0  0  0  0  0  0  0  0
    5.6516    3.5258   21.9140 C   0  0  0  0  0  0  0  0  0  0  0  0
   11.5863    9.6815   19.4539 C   0  0  0  0  0  0  0  0  0  0  0  0
   12.9648    4.1543   20.9205 C   0  0  0  0  0  0  0  0  0  0  0  0
    8.2089    3.6265   20.8929 C   0  0  0  0  0  0  0  0  0  0  0  0
    7.3827    2.5724   20.5432 C   0  0  0  0  0  0  0  0  0  0  0  0
   11.1529    7.2750   20.8025 C   0  0  0  0  0  0  0  0  0  0  0  0
   10.2573    8.3215   20.9827 C   0  0  0  0  0  0  0  0  0  0  0  0
   11.1606    5.9378   21.2366 N   0  0  0  0  0  0  0  0  0  0  0  0
    9.8932   11.6736   19.0677 O   0  0  0  0  0  0  0  0  0  0  0  0
    6.4470    4.5850   22.2321 C   0  0  0  0  0  0  0  0  0  0  0  0
    8.4619    6.9895   22.2968 C   0  0  0  0  0  0  0  0  0  0  0  0
   12.2747    7.5102   20.0420 C   0  0  0  0  0  0  0  0  0  0  0  0
   14.2544    6.2142   19.4191 C   0  0  0  0  0  0  0  0  0  0  0  0
   13.0695    6.3705   20.0375 N   0  0  0  0  0  0  0  0  0  0  0  0
    9.1913    8.0876   21.8361 N   0  0  0  0  0  0  0  0  0  0  0  0
   10.4739    9.4813   20.2889 C   0  0  0  0  0  0  0  0  0  0  0  0
    7.5551    7.1270   23.1200 O   0  0  0  0  0  0  0  0  0  0  0  0
  1 11  4  0
  1 21  4  0
  2  4  1  0
  2  8  1  0
  2 11  1  0
  3 10  4  0
  3 14  4  0
  4  5  1  0
  4 18  2  0
  6 12  1  0
  6 17  4  0
  6 23  4  0
  7  9  1  0
  7 13  4  0
  7 19  4  0
  9 20  1  0
 10 19  4  0
 11 25  4  0
 13 14  4  0
 15 16  4  0
 15 17  4  0
 15 21  4  0
 16 24  1  0
 16 25  4  0
 20 24  1  0
 20 26  2  0
 21 23  4  0
 22 23  1  0
M  END
$$$$

 Created by Python create_sdf_string function

 26 28  0  0  0  0  0  0  0  0999 V2000
   12.4616    8.6700   19.4180 N   0  0  0  0  0  0  0  0  0  0  0  0
   11.8329   10.8148   18.6769 N   0  0  0  0  0  0  0  0  0  0  0  0
    6.1021    2.5564   21.0678 C   0  0  0  0  0  0  0  0  0  0  0  0
   10.9097   11.8051   18.4804 C   0  0  0  0  0  0  0  0  0  0  0  0
   11.2280   12.9135   17.5669 C   0  0  0  0  0  0  0  0  0  0  0  0
   12.3782    5.4231   20.7777 C   0  0  0  0  0  0  0  0  0  0  0  0
    7.7365    4.6508   21.6987 C   0  0  0  0  0  0  0  0  0  0  0  0
   13.0186   11.0102   18.0020 C   0  0  0  0  0  0  0  0  0  0  0  0
    8.6628    5.7088   21.8871 N   0  0  0  0  0  0  0  0  0  0  0  0
    5.6516    3.5258   21.9140 C   0  0  0  0  0  0  0  0  0  0  0  0
   11.5863    9.6815   19.4539 C   0  0  0  0  0  0  0  0  0  0  0  0
   12.9648    4.1543   20.9205 C   0  0  0  0  0  0  0  0  0  0  0  0
    8.2089    3.6265   20.8929 C   0  0  0  0  0  0  0  0  0  0  0  0
    7.3827    2.5724   20.5432 C   0  0  0  0  0  0  0  0  0  0  0  0
   11.1529    7.2750   20.8025 C   0  0  0  0  0  0  0  0  0  0  0  0
   10.2573    8.3215   20.9827 C   0  0  0  0  0  0  0  0  0  0  0  0
   11.1606    5.9378   21.2366 N   0  0  0  0  0  0  0  0  0  0  0  0
    9.8932   11.6736   19.0677 O   0  0  0  0  0  0  0  0  0  0  0  0
    6.4470    4.5850   22.2321 C   0  0  0  0  0  0  0  0  0  0  0  0
    8.4619    6.9895   22.2968 C   0  0  0  0  0  0  0  0  0  0  0  0
   12.2747    7.5102   20.0420 C   0  0  0  0  0  0  0  0  0  0  0  0
   14.2544    6.2142   19.4191 C   0  0  0  0  0  0  0  0  0  0  0  0
   13.0695    6.3705   20.0375 N   0  0  0  0  0  0  0  0  0  0  0  0
    9.1913    8.0876   21.8361 N   0  0  0  0  0  0  0  0  0  0  0  0
   10.4739    9.4813   20.2889 C   0  0  0  0  0  0  0  0  0  0  0  0
    7.5551    7.1270   23.1200 O   0  0  0  0  0  0  0  0  0  0  0  0
  1 11  4  0
  1 21  4  0
  2  4  1  0
  2  8  1  0
  2 11  1  0
  3 10  4  0
  3 14  4  0
  4  5  1  0
  4 18  2  0
  6 12  1  0
  6 17  4  0
  6 23  4  0
  7  9  1  0
  7 13  4  0
  7 19  4  0
  9 20  1  0
 10 19  4  0
 11 25  4  0
 13 14  4  0
 15 16  4  0
 15 17  4  0
 15 21  4  0
 16 24  1  0
 16 25  4  0
 20 24  1  0
 20 26  2  0
 21 23  4  0
 22 23  1  0
M  END
$$$$

 Created by Python create_sdf_string function

 26 28  0  0  0  0  0  0  0  0999 V2000
   12.4616    8.6700   19.4180 N   0  0  0  0  0  0  0  0  0  0  0  0
   11.8329   10.8148   18.6769 N   0  0  0  0  0  0  0  0  0  0  0  0
    6.1021    2.5564   21.0678 C   0  0  0  0  0  0  0  0  0  0  0  0
   10.9097   11.8051   18.4804 C   0  0  0  0  0  0  0  0  0  0  0  0
   11.2280   12.9135   17.5669 C   0  0  0  0  0  0  0  0  0  0  0  0
   12.3782    5.4231   20.7777 C   0  0  0  0  0  0  0  0  0  0  0  0
    7.7365    4.6508   21.6987 C   0  0  0  0  0  0  0  0  0  0  0  0
   13.0186   11.0102   18.0020 C   0  0  0  0  0  0  0  0  0  0  0  0
    8.6628    5.7088   21.8871 N   0  0  0  0  0  0  0  0  0  0  0  0
    5.6516    3.5258   21.9140 C   0  0  0  0  0  0  0  0  0  0  0  0
   11.5863    9.6815   19.4539 C   0  0  0  0  0  0  0  0  0  0  0  0
   12.9648    4.1543   20.9205 C   0  0  0  0  0  0  0  0  0  0  0  0
    8.2089    3.6265   20.8929 C   0  0  0  0  0  0  0  0  0  0  0  0
    7.3827    2.5724   20.5432 C   0  0  0  0  0  0  0  0  0  0  0  0
   11.1529    7.2750   20.8025 C   0  0  0  0  0  0  0  0  0  0  0  0
   10.2573    8.3215   20.9827 C   0  0  0  0  0  0  0  0  0  0  0  0
   11.1606    5.9378   21.2366 N   0  0  0  0  0  0  0  0  0  0  0  0
    9.8932   11.6736   19.0677 O   0  0  0  0  0  0  0  0  0  0  0  0
    6.4470    4.5850   22.2321 C   0  0  0  0  0  0  0  0  0  0  0  0
    8.4619    6.9895   22.2968 C   0  0  0  0  0  0  0  0  0  0  0  0
   12.2747    7.5102   20.0420 C   0  0  0  0  0  0  0  0  0  0  0  0
   14.2544    6.2142   19.4191 C   0  0  0  0  0  0  0  0  0  0  0  0
   13.0695    6.3705   20.0375 N   0  0  0  0  0  0  0  0  0  0  0  0
    9.1913    8.0876   21.8361 N   0  0  0  0  0  0  0  0  0  0  0  0
   10.4739    9.4813   20.2889 C   0  0  0  0  0  0  0  0  0  0  0  0
    7.5551    7.1270   23.1200 O   0  0  0  0  0  0  0  0  0  0  0  0
  1 11  4  0
  1 21  4  0
  2  4  1  0
  2  8  1  0
  2 11  1  0
  3 10  4  0
  3 14  4  0
  4  5  1  0
  4 18  2  0
  6 12  1  0
  6 17  4  0
  6 23  4  0
  7  9  1  0
  7 13  4  0
  7 19  4  0
  9 20  1  0
 10 19  4  0
 11 25  4  0
 13 14  4  0
 15 16  4  0
 15 17  4  0
 15 21  4  0
 16 24  1  0
 16 25  4  0
 20 24  1  0
 20 26  2  0
 21 23  4  0
 22 23  1  0
M  END
$$$$

 Created by Python create_sdf_string function

 26 28  0  0  0  0  0  0  0  0999 V2000
   12.4616    8.6700   19.4180 N   0  0  0  0  0  0  0  0  0  0  0  0
   11.8329   10.8148   18.6769 N   0  0  0  0  0  0  0  0  0  0  0  0
    6.1021    2.5564   21.0678 C   0  0  0  0  0  0  0  0  0  0  0  0
   10.9097   11.8051   18.4804 C   0  0  0  0  0  0  0  0  0  0  0  0
   11.2280   12.9135   17.5669 C   0  0  0  0  0  0  0  0  0  0  0  0
   12.3782    5.4231   20.7777 C   0  0  0  0  0  0  0  0  0  0  0  0
    7.7365    4.6508   21.6987 C   0  0  0  0  0  0  0  0  0  0  0  0
   13.0186   11.0102   18.0020 C   0  0  0  0  0  0  0  0  0  0  0  0
    8.6628    5.7088   21.8871 N   0  0  0  0  0  0  0  0  0  0  0  0
    5.6516    3.5258   21.9140 C   0  0  0  0  0  0  0  0  0  0  0  0
   11.5863    9.6815   19.4539 C   0  0  0  0  0  0  0  0  0  0  0  0
   12.9648    4.1543   20.9205 C   0  0  0  0  0  0  0  0  0  0  0  0
    8.2089    3.6265   20.8929 C   0  0  0  0  0  0  0  0  0  0  0  0
    7.3827    2.5724   20.5432 C   0  0  0  0  0  0  0  0  0  0  0  0
   11.1529    7.2750   20.8025 C   0  0  0  0  0  0  0  0  0  0  0  0
   10.2573    8.3215   20.9827 C   0  0  0  0  0  0  0  0  0  0  0  0
   11.1606    5.9378   21.2366 N   0  0  0  0  0  0  0  0  0  0  0  0
    9.8932   11.6736   19.0677 O   0  0  0  0  0  0  0  0  0  0  0  0
    6.4470    4.5850   22.2321 C   0  0  0  0  0  0  0  0  0  0  0  0
    8.4619    6.9895   22.2968 C   0  0  0  0  0  0  0  0  0  0  0  0
   12.2747    7.5102   20.0420 C   0  0  0  0  0  0  0  0  0  0  0  0
   14.2544    6.2142   19.4191 C   0  0  0  0  0  0  0  0  0  0  0  0
   13.0695    6.3705   20.0375 N   0  0  0  0  0  0  0  0  0  0  0  0
    9.1913    8.0876   21.8361 N   0  0  0  0  0  0  0  0  0  0  0  0
   10.4739    9.4813   20.2889 C   0  0  0  0  0  0  0  0  0  0  0  0
    7.5551    7.1270   23.1200 O   0  0  0  0  0  0  0  0  0  0  0  0
  1 11  4  0
  1 21  4  0
  2  4  1  0
  2  8  1  0
  2 11  1  0
  3 10  4  0
  3 14  4  0
  4  5  1  0
  4 18  2  0
  6 12  1  0
  6 17  4  0
  6 23  4  0
  7  9  1  0
  7 13  4  0
  7 19  4  0
  9 20  1  0
 10 19  4  0
 11 25  4  0
 13 14  4  0
 15 16  4  0
 15 17  4  0
 15 21  4  0
 16 24  1  0
 16 25  4  0
 20 24  1  0
 20 26  2  0
 21 23  4  0
 22 23  1  0
M  END
$$$$

 Created by Python create_sdf_string function

 26 28  0  0  0  0  0  0  0  0999 V2000
   12.4616    8.6700   19.4180 N   0  0  0  0  0  0  0  0  0  0  0  0
   11.8329   10.8148   18.6769 N   0  0  0  0  0  0  0  0  0  0  0  0
    6.1021    2.5564   21.0678 C   0  0  0  0  0  0  0  0  0  0  0  0
   10.9097   11.8051   18.4804 C   0  0  0  0  0  0  0  0  0  0  0  0
   11.2280   12.9135   17.5669 C   0  0  0  0  0  0  0  0  0  0  0  0
   12.3782    5.4231   20.7777 C   0  0  0  0  0  0  0  0  0  0  0  0
    7.7365    4.6508   21.6987 C   0  0  0  0  0  0  0  0  0  0  0  0
   13.0186   11.0102   18.0020 C   0  0  0  0  0  0  0  0  0  0  0  0
    8.6628    5.7088   21.8871 N   0  0  0  0  0  0  0  0  0  0  0  0
    5.6516    3.5258   21.9140 C   0  0  0  0  0  0  0  0  0  0  0  0
   11.5863    9.6815   19.4539 C   0  0  0  0  0  0  0  0  0  0  0  0
   12.9648    4.1543   20.9205 C   0  0  0  0  0  0  0  0  0  0  0  0
    8.2089    3.6265   20.8929 C   0  0  0  0  0  0  0  0  0  0  0  0
    7.3827    2.5724   20.5432 C   0  0  0  0  0  0  0  0  0  0  0  0
   11.1529    7.2750   20.8025 C   0  0  0  0  0  0  0  0  0  0  0  0
   10.2573    8.3215   20.9827 C   0  0  0  0  0  0  0  0  0  0  0  0
   11.1606    5.9378   21.2366 N   0  0  0  0  0  0  0  0  0  0  0  0
    9.8932   11.6736   19.0677 O   0  0  0  0  0  0  0  0  0  0  0  0
    6.4470    4.5850   22.2321 C   0  0  0  0  0  0  0  0  0  0  0  0
    8.4619    6.9895   22.2968 C   0  0  0  0  0  0  0  0  0  0  0  0
   12.2747    7.5102   20.0420 C   0  0  0  0  0  0  0  0  0  0  0  0
   14.2544    6.2142   19.4191 C   0  0  0  0  0  0  0  0  0  0  0  0
   13.0695    6.3705   20.0375 N   0  0  0  0  0  0  0  0  0  0  0  0
    9.1913    8.0876   21.8361 N   0  0  0  0  0  0  0  0  0  0  0  0
   10.4739    9.4813   20.2889 C   0  0  0  0  0  0  0  0  0  0  0  0
    7.5551    7.1270   23.1200 O   0  0  0  0  0  0  0  0  0  0  0  0
  1 11  4  0
  1 21  4  0
  2  4  1  0
  2  8  1  0
  2 11  1  0
  3 10  4  0
  3 14  4  0
  4  5  1  0
  4 18  2  0
  6 12  1  0
  6 17  4  0
  6 23  4  0
  7  9  1  0
  7 13  4  0
  7 19  4  0
  9 20  1  0
 10 19  4  0
 11 25  4  0
 13 14  4  0
 15 16  4  0
 15 17  4  0
 15 21  4  0
 16 24  1  0
 16 25  4  0
 20 24  1  0
 20 26  2  0
 21 23  4  0
 22 23  1  0
M  END
$$$$

 Created by Python create_sdf_string function

 26 28  0  0  0  0  0  0  0  0999 V2000
   12.4616    8.6700   19.4180 N   0  0  0  0  0  0  0  0  0  0  0  0
   11.8329   10.8148   18.6769 N   0  0  0  0  0  0  0  0  0  0  0  0
    6.1021    2.5564   21.0678 C   0  0  0  0  0  0  0  0  0  0  0  0
   10.9097   11.8051   18.4804 C   0  0  0  0  0  0  0  0  0  0  0  0
   11.2280   12.9135   17.5669 C   0  0  0  0  0  0  0  0  0  0  0  0
   12.3782    5.4231   20.7777 C   0  0  0  0  0  0  0  0  0  0  0  0
    7.7365    4.6508   21.6987 C   0  0  0  0  0  0  0  0  0  0  0  0
   13.0186   11.0102   18.0020 C   0  0  0  0  0  0  0  0  0  0  0  0
    8.6628    5.7088   21.8871 N   0  0  0  0  0  0  0  0  0  0  0  0
    5.6516    3.5258   21.9140 C   0  0  0  0  0  0  0  0  0  0  0  0
   11.5863    9.6815   19.4539 C   0  0  0  0  0  0  0  0  0  0  0  0
   12.9648    4.1543   20.9205 C   0  0  0  0  0  0  0  0  0  0  0  0
    8.2089    3.6265   20.8929 C   0  0  0  0  0  0  0  0  0  0  0  0
    7.3827    2.5724   20.5432 C   0  0  0  0  0  0  0  0  0  0  0  0
   11.1529    7.2750   20.8025 C   0  0  0  0  0  0  0  0  0  0  0  0
   10.2573    8.3215   20.9827 C   0  0  0  0  0  0  0  0  0  0  0  0
   11.1606    5.9378   21.2366 N   0  0  0  0  0  0  0  0  0  0  0  0
    9.8932   11.6736   19.0677 O   0  0  0  0  0  0  0  0  0  0  0  0
    6.4470    4.5850   22.2321 C   0  0  0  0  0  0  0  0  0  0  0  0
    8.4619    6.9895   22.2968 C   0  0  0  0  0  0  0  0  0  0  0  0
   12.2747    7.5102   20.0420 C   0  0  0  0  0  0  0  0  0  0  0  0
   14.2544    6.2142   19.4191 C   0  0  0  0  0  0  0  0  0  0  0  0
   13.0695    6.3705   20.0375 N   0  0  0  0  0  0  0  0  0  0  0  0
    9.1913    8.0876   21.8361 N   0  0  0  0  0  0  0  0  0  0  0  0
   10.4739    9.4813   20.2889 C   0  0  0  0  0  0  0  0  0  0  0  0
    7.5551    7.1270   23.1200 O   0  0  0  0  0  0  0  0  0  0  0  0
  1 11  4  0
  1 21  4  0
  2  4  1  0
  2  8  1  0
  2 11  1  0
  3 10  4  0
  3 14  4  0
  4  5  1  0
  4 18  2  0
  6 12  1  0
  6 17  4  0
  6 23  4  0
  7  9  1  0
  7 13  4  0
  7 19  4  0
  9 20  1  0
 10 19  4  0
 11 25  4  0
 13 14  4  0
 15 16  4  0
 15 17  4  0
 15 21  4  0
 16 24  1  0
 16 25  4  0
 20 24  1  0
 20 26  2  0
 21 23  4  0
 22 23  1  0
M  END
$$$$

 Created by Python create_sdf_string function

 26 28  0  0  0  0  0  0  0  0999 V2000
   12.4616    8.6700   19.4180 N   0  0  0  0  0  0  0  0  0  0  0  0
   11.8329   10.8148   18.6769 N   0  0  0  0  0  0  0  0  0  0  0  0
    6.1021    2.5564   21.0678 C   0  0  0  0  0  0  0  0  0  0  0  0
   10.9097   11.8051   18.4804 C   0  0  0  0  0  0  0  0  0  0  0  0
   11.2280   12.9135   17.5669 C   0  0  0  0  0  0  0  0  0  0  0  0
   12.3782    5.4231   20.7777 C   0  0  0  0  0  0  0  0  0  0  0  0
    7.7365    4.6508   21.6987 C   0  0  0  0  0  0  0  0  0  0  0  0
   13.0186   11.0102   18.0020 C   0  0  0  0  0  0  0  0  0  0  0  0
    8.6628    5.7088   21.8871 N   0  0  0  0  0  0  0  0  0  0  0  0
    5.6516    3.5258   21.9140 C   0  0  0  0  0  0  0  0  0  0  0  0
   11.5863    9.6815   19.4539 C   0  0  0  0  0  0  0  0  0  0  0  0
   12.9648    4.1543   20.9205 C   0  0  0  0  0  0  0  0  0  0  0  0
    8.2089    3.6265   20.8929 C   0  0  0  0  0  0  0  0  0  0  0  0
    7.3827    2.5724   20.5432 C   0  0  0  0  0  0  0  0  0  0  0  0
   11.1529    7.2750   20.8025 C   0  0  0  0  0  0  0  0  0  0  0  0
   10.2573    8.3215   20.9827 C   0  0  0  0  0  0  0  0  0  0  0  0
   11.1606    5.9378   21.2366 N   0  0  0  0  0  0  0  0  0  0  0  0
    9.8932   11.6736   19.0677 O   0  0  0  0  0  0  0  0  0  0  0  0
    6.4470    4.5850   22.2321 C   0  0  0  0  0  0  0  0  0  0  0  0
    8.4619    6.9895   22.2968 C   0  0  0  0  0  0  0  0  0  0  0  0
   12.2747    7.5102   20.0420 C   0  0  0  0  0  0  0  0  0  0  0  0
   14.2544    6.2142   19.4191 C   0  0  0  0  0  0  0  0  0  0  0  0
   13.0695    6.3705   20.0375 N   0  0  0  0  0  0  0  0  0  0  0  0
    9.1913    8.0876   21.8361 N   0  0  0  0  0  0  0  0  0  0  0  0
   10.4739    9.4813   20.2889 C   0  0  0  0  0  0  0  0  0  0  0  0
    7.5551    7.1270   23.1200 O   0  0  0  0  0  0  0  0  0  0  0  0
  1 11  4  0
  1 21  4  0
  2  4  1  0
  2  8  1  0
  2 11  1  0
  3 10  4  0
  3 14  4  0
  4  5  1  0
  4 18  2  0
  6 12  1  0
  6 17  4  0
  6 23  4  0
  7  9  1  0
  7 13  4  0
  7 19  4  0
  9 20  1  0
 10 19  4  0
 11 25  4  0
 13 14  4  0
 15 16  4  0
 15 17  4  0
 15 21  4  0
 16 24  1  0
 16 25  4  0
 20 24  1  0
 20 26  2  0
 21 23  4  0
 22 23  1  0
M  END
$$$$

 Created by Python create_sdf_string function

 26 28  0  0  0  0  0  0  0  0999 V2000
   12.4616    8.6700   19.4180 N   0  0  0  0  0  0  0  0  0  0  0  0
   11.8329   10.8148   18.6769 N   0  0  0  0  0  0  0  0  0  0  0  0
    6.1021    2.5564   21.0678 C   0  0  0  0  0  0  0  0  0  0  0  0
   10.9097   11.8051   18.4804 C   0  0  0  0  0  0  0  0  0  0  0  0
   11.2280   12.9135   17.5669 C   0  0  0  0  0  0  0  0  0  0  0  0
   12.3782    5.4231   20.7777 C   0  0  0  0  0  0  0  0  0  0  0  0
    7.7365    4.6508   21.6987 C   0  0  0  0  0  0  0  0  0  0  0  0
   13.0186   11.0102   18.0020 C   0  0  0  0  0  0  0  0  0  0  0  0
    8.6628    5.7088   21.8871 N   0  0  0  0  0  0  0  0  0  0  0  0
    5.6516    3.5258   21.9140 C   0  0  0  0  0  0  0  0  0  0  0  0
   11.5863    9.6815   19.4539 C   0  0  0  0  0  0  0  0  0  0  0  0
   12.9648    4.1543   20.9205 C   0  0  0  0  0  0  0  0  0  0  0  0
    8.2089    3.6265   20.8929 C   0  0  0  0  0  0  0  0  0  0  0  0
    7.3827    2.5724   20.5432 C   0  0  0  0  0  0  0  0  0  0  0  0
   11.1529    7.2750   20.8025 C   0  0  0  0  0  0  0  0  0  0  0  0
   10.2573    8.3215   20.9827 C   0  0  0  0  0  0  0  0  0  0  0  0
   11.1606    5.9378   21.2366 N   0  0  0  0  0  0  0  0  0  0  0  0
    9.8932   11.6736   19.0677 O   0  0  0  0  0  0  0  0  0  0  0  0
    6.4470    4.5850   22.2321 C   0  0  0  0  0  0  0  0  0  0  0  0
    8.4619    6.9895   22.2968 C   0  0  0  0  0  0  0  0  0  0  0  0
   12.2747    7.5102   20.0420 C   0  0  0  0  0  0  0  0  0  0  0  0
   14.2544    6.2142   19.4191 C   0  0  0  0  0  0  0  0  0  0  0  0
   13.0695    6.3705   20.0375 N   0  0  0  0  0  0  0  0  0  0  0  0
    9.1913    8.0876   21.8361 N   0  0  0  0  0  0  0  0  0  0  0  0
   10.4739    9.4813   20.2889 C   0  0  0  0  0  0  0  0  0  0  0  0
    7.5551    7.1270   23.1200 O   0  0  0  0  0  0  0  0  0  0  0  0
  1 11  4  0
  1 21  4  0
  2  4  1  0
  2  8  1  0
  2 11  1  0
  3 10  4  0
  3 14  4  0
  4  5  1  0
  4 18  2  0
  6 12  1  0
  6 17  4  0
  6 23  4  0
  7  9  1  0
  7 13  4  0
  7 19  4  0
  9 20  1  0
 10 19  4  0
 11 25  4  0
 13 14  4  0
 15 16  4  0
 15 17  4  0
 15 21  4  0
 16 24  1  0
 16 25  4  0
 20 24  1  0
 20 26  2  0
 21 23  4  0
 22 23  1  0
M  END
$$$$

 Created by Python create_sdf_string function

 26 28  0  0  0  0  0  0  0  0999 V2000
   12.4616    8.6700   19.4180 N   0  0  0  0  0  0  0  0  0  0  0  0
   11.8329   10.8148   18.6769 N   0  0  0  0  0  0  0  0  0  0  0  0
    6.1021    2.5564   21.0678 C   0  0  0  0  0  0  0  0  0  0  0  0
   10.9097   11.8051   18.4804 C   0  0  0  0  0  0  0  0  0  0  0  0
   11.2280   12.9135   17.5669 C   0  0  0  0  0  0  0  0  0  0  0  0
   12.3782    5.4231   20.7777 C   0  0  0  0  0  0  0  0  0  0  0  0
    7.7365    4.6508   21.6987 C   0  0  0  0  0  0  0  0  0  0  0  0
   13.0186   11.0102   18.0020 C   0  0  0  0  0  0  0  0  0  0  0  0
    8.6628    5.7088   21.8871 N   0  0  0  0  0  0  0  0  0  0  0  0
    5.6516    3.5258   21.9140 C   0  0  0  0  0  0  0  0  0  0  0  0
   11.5863    9.6815   19.4539 C   0  0  0  0  0  0  0  0  0  0  0  0
   12.9648    4.1543   20.9205 C   0  0  0  0  0  0  0  0  0  0  0  0
    8.2089    3.6265   20.8929 C   0  0  0  0  0  0  0  0  0  0  0  0
    7.3827    2.5724   20.5432 C   0  0  0  0  0  0  0  0  0  0  0  0
   11.1529    7.2750   20.8025 C   0  0  0  0  0  0  0  0  0  0  0  0
   10.2573    8.3215   20.9827 C   0  0  0  0  0  0  0  0  0  0  0  0
   11.1606    5.9378   21.2366 N   0  0  0  0  0  0  0  0  0  0  0  0
    9.8932   11.6736   19.0677 O   0  0  0  0  0  0  0  0  0  0  0  0
    6.4470    4.5850   22.2321 C   0  0  0  0  0  0  0  0  0  0  0  0
    8.4619    6.9895   22.2968 C   0  0  0  0  0  0  0  0  0  0  0  0
   12.2747    7.5102   20.0420 C   0  0  0  0  0  0  0  0  0  0  0  0
   14.2544    6.2142   19.4191 C   0  0  0  0  0  0  0  0  0  0  0  0
   13.0695    6.3705   20.0375 N   0  0  0  0  0  0  0  0  0  0  0  0
    9.1913    8.0876   21.8361 N   0  0  0  0  0  0  0  0  0  0  0  0
   10.4739    9.4813   20.2889 C   0  0  0  0  0  0  0  0  0  0  0  0
    7.5551    7.1270   23.1200 O   0  0  0  0  0  0  0  0  0  0  0  0
  1 11  4  0
  1 21  4  0
  2  4  1  0
  2  8  1  0
  2 11  1  0
  3 10  4  0
  3 14  4  0
  4  5  1  0
  4 18  2  0
  6 12  1  0
  6 17  4  0
  6 23  4  0
  7  9  1  0
  7 13  4  0
  7 19  4  0
  9 20  1  0
 10 19  4  0
 11 25  4  0
 13 14  4  0
 15 16  4  0
 15 17  4  0
 15 21  4  0
 16 24  1  0
 16 25  4  0
 20 24  1  0
 20 26  2  0
 21 23  4  0
 22 23  1  0
M  END
$$$$

 Created by Python create_sdf_string function

 26 28  0  0  0  0  0  0  0  0999 V2000
   12.4616    8.6700   19.4180 N   0  0  0  0  0  0  0  0  0  0  0  0
   11.8329   10.8148   18.6769 N   0  0  0  0  0  0  0  0  0  0  0  0
    6.1021    2.5564   21.0678 C   0  0  0  0  0  0  0  0  0  0  0  0
   10.9097   11.8051   18.4804 C   0  0  0  0  0  0  0  0  0  0  0  0
   11.2280   12.9135   17.5669 C   0  0  0  0  0  0  0  0  0  0  0  0
   12.3782    5.4231   20.7777 C   0  0  0  0  0  0  0  0  0  0  0  0
    7.7365    4.6508   21.6987 C   0  0  0  0  0  0  0  0  0  0  0  0
   13.0186   11.0102   18.0020 C   0  0  0  0  0  0  0  0  0  0  0  0
    8.6628    5.7088   21.8871 N   0  0  0  0  0  0  0  0  0  0  0  0
    5.6516    3.5258   21.9140 C   0  0  0  0  0  0  0  0  0  0  0  0
   11.5863    9.6815   19.4539 C   0  0  0  0  0  0  0  0  0  0  0  0
   12.9648    4.1543   20.9205 C   0  0  0  0  0  0  0  0  0  0  0  0
    8.2089    3.6265   20.8929 C   0  0  0  0  0  0  0  0  0  0  0  0
    7.3827    2.5724   20.5432 C   0  0  0  0  0  0  0  0  0  0  0  0
   11.1529    7.2750   20.8025 C   0  0  0  0  0  0  0  0  0  0  0  0
   10.2573    8.3215   20.9827 C   0  0  0  0  0  0  0  0  0  0  0  0
   11.1606    5.9378   21.2366 N   0  0  0  0  0  0  0  0  0  0  0  0
    9.8932   11.6736   19.0677 O   0  0  0  0  0  0  0  0  0  0  0  0
    6.4470    4.5850   22.2321 C   0  0  0  0  0  0  0  0  0  0  0  0
    8.4619    6.9895   22.2968 C   0  0  0  0  0  0  0  0  0  0  0  0
   12.2747    7.5102   20.0420 C   0  0  0  0  0  0  0  0  0  0  0  0
   14.2544    6.2142   19.4191 C   0  0  0  0  0  0  0  0  0  0  0  0
   13.0695    6.3705   20.0375 N   0  0  0  0  0  0  0  0  0  0  0  0
    9.1913    8.0876   21.8361 N   0  0  0  0  0  0  0  0  0  0  0  0
   10.4739    9.4813   20.2889 C   0  0  0  0  0  0  0  0  0  0  0  0
    7.5551    7.1270   23.1200 O   0  0  0  0  0  0  0  0  0  0  0  0
  1 11  4  0
  1 21  4  0
  2  4  1  0
  2  8  1  0
  2 11  1  0
  3 10  4  0
  3 14  4  0
  4  5  1  0
  4 18  2  0
  6 12  1  0
  6 17  4  0
  6 23  4  0
  7  9  1  0
  7 13  4  0
  7 19  4  0
  9 20  1  0
 10 19  4  0
 11 25  4  0
 13 14  4  0
 15 16  4  0
 15 17  4  0
 15 21  4  0
 16 24  1  0
 16 25  4  0
 20 24  1  0
 20 26  2  0
 21 23  4  0
 22 23  1  0
M  END
$$$$

 Created by Python create_sdf_string function

 26 28  0  0  0  0  0  0  0  0999 V2000
   12.4616    8.6700   19.4180 N   0  0  0  0  0  0  0  0  0  0  0  0
   11.8329   10.8148   18.6769 N   0  0  0  0  0  0  0  0  0  0  0  0
    6.1021    2.5564   21.0678 C   0  0  0  0  0  0  0  0  0  0  0  0
   10.9097   11.8051   18.4804 C   0  0  0  0  0  0  0  0  0  0  0  0
   11.2280   12.9135   17.5669 C   0  0  0  0  0  0  0  0  0  0  0  0
   12.3782    5.4231   20.7777 C   0  0  0  0  0  0  0  0  0  0  0  0
    7.7365    4.6508   21.6987 C   0  0  0  0  0  0  0  0  0  0  0  0
   13.0186   11.0102   18.0020 C   0  0  0  0  0  0  0  0  0  0  0  0
    8.6628    5.7088   21.8871 N   0  0  0  0  0  0  0  0  0  0  0  0
    5.6516    3.5258   21.9140 C   0  0  0  0  0  0  0  0  0  0  0  0
   11.5863    9.6815   19.4539 C   0  0  0  0  0  0  0  0  0  0  0  0
   12.9648    4.1543   20.9205 C   0  0  0  0  0  0  0  0  0  0  0  0
    8.2089    3.6265   20.8929 C   0  0  0  0  0  0  0  0  0  0  0  0
    7.3827    2.5724   20.5432 C   0  0  0  0  0  0  0  0  0  0  0  0
   11.1529    7.2750   20.8025 C   0  0  0  0  0  0  0  0  0  0  0  0
   10.2573    8.3215   20.9827 C   0  0  0  0  0  0  0  0  0  0  0  0
   11.1606    5.9378   21.2366 N   0  0  0  0  0  0  0  0  0  0  0  0
    9.8932   11.6736   19.0677 O   0  0  0  0  0  0  0  0  0  0  0  0
    6.4470    4.5850   22.2321 C   0  0  0  0  0  0  0  0  0  0  0  0
    8.4619    6.9895   22.2968 C   0  0  0  0  0  0  0  0  0  0  0  0
   12.2747    7.5102   20.0420 C   0  0  0  0  0  0  0  0  0  0  0  0
   14.2544    6.2142   19.4191 C   0  0  0  0  0  0  0  0  0  0  0  0
   13.0695    6.3705   20.0375 N   0  0  0  0  0  0  0  0  0  0  0  0
    9.1913    8.0876   21.8361 N   0  0  0  0  0  0  0  0  0  0  0  0
   10.4739    9.4813   20.2889 C   0  0  0  0  0  0  0  0  0  0  0  0
    7.5551    7.1270   23.1200 O   0  0  0  0  0  0  0  0  0  0  0  0
  1 11  4  0
  1 21  4  0
  2  4  1  0
  2  8  1  0
  2 11  1  0
  3 10  4  0
  3 14  4  0
  4  5  1  0
  4 18  2  0
  6 12  1  0
  6 17  4  0
  6 23  4  0
  7  9  1  0
  7 13  4  0
  7 19  4  0
  9 20  1  0
 10 19  4  0
 11 25  4  0
 13 14  4  0
 15 16  4  0
 15 17  4  0
 15 21  4  0
 16 24  1  0
 16 25  4  0
 20 24  1  0
 20 26  2  0
 21 23  4  0
 22 23  1  0
M  END
$$$$

 Created by Python create_sdf_string function

 26 28  0  0  0  0  0  0  0  0999 V2000
   12.4616    8.6700   19.4180 N   0  0  0  0  0  0  0  0  0  0  0  0
   11.8329   10.8148   18.6769 N   0  0  0  0  0  0  0  0  0  0  0  0
    6.1021    2.5564   21.0678 C   0  0  0  0  0  0  0  0  0  0  0  0
   10.9097   11.8051   18.4804 C   0  0  0  0  0  0  0  0  0  0  0  0
   11.2280   12.9135   17.5669 C   0  0  0  0  0  0  0  0  0  0  0  0
   12.3782    5.4231   20.7777 C   0  0  0  0  0  0  0  0  0  0  0  0
    7.7365    4.6508   21.6987 C   0  0  0  0  0  0  0  0  0  0  0  0
   13.0186   11.0102   18.0020 C   0  0  0  0  0  0  0  0  0  0  0  0
    8.6628    5.7088   21.8871 N   0  0  0  0  0  0  0  0  0  0  0  0
    5.6516    3.5258   21.9140 C   0  0  0  0  0  0  0  0  0  0  0  0
   11.5863    9.6815   19.4539 C   0  0  0  0  0  0  0  0  0  0  0  0
   12.9648    4.1543   20.9205 C   0  0  0  0  0  0  0  0  0  0  0  0
    8.2089    3.6265   20.8929 C   0  0  0  0  0  0  0  0  0  0  0  0
    7.3827    2.5724   20.5432 C   0  0  0  0  0  0  0  0  0  0  0  0
   11.1529    7.2750   20.8025 C   0  0  0  0  0  0  0  0  0  0  0  0
   10.2573    8.3215   20.9827 C   0  0  0  0  0  0  0  0  0  0  0  0
   11.1606    5.9378   21.2366 N   0  0  0  0  0  0  0  0  0  0  0  0
    9.8932   11.6736   19.0677 O   0  0  0  0  0  0  0  0  0  0  0  0
    6.4470    4.5850   22.2321 C   0  0  0  0  0  0  0  0  0  0  0  0
    8.4619    6.9895   22.2968 C   0  0  0  0  0  0  0  0  0  0  0  0
   12.2747    7.5102   20.0420 C   0  0  0  0  0  0  0  0  0  0  0  0
   14.2544    6.2142   19.4191 C   0  0  0  0  0  0  0  0  0  0  0  0
   13.0695    6.3705   20.0375 N   0  0  0  0  0  0  0  0  0  0  0  0
    9.1913    8.0876   21.8361 N   0  0  0  0  0  0  0  0  0  0  0  0
   10.4739    9.4813   20.2889 C   0  0  0  0  0  0  0  0  0  0  0  0
    7.5551    7.1270   23.1200 O   0  0  0  0  0  0  0  0  0  0  0  0
  1 11  4  0
  1 21  4  0
  2  4  1  0
  2  8  1  0
  2 11  1  0
  3 10  4  0
  3 14  4  0
  4  5  1  0
  4 18  2  0
  6 12  1  0
  6 17  4  0
  6 23  4  0
  7  9  1  0
  7 13  4  0
  7 19  4  0
  9 20  1  0
 10 19  4  0
 11 25  4  0
 13 14  4  0
 15 16  4  0
 15 17  4  0
 15 21  4  0
 16 24  1  0
 16 25  4  0
 20 24  1  0
 20 26  2  0
 21 23  4  0
 22 23  1  0
M  END
$$$$

 Created by Python create_sdf_string function

 26 28  0  0  0  0  0  0  0  0999 V2000
   12.4616    8.6700   19.4180 N   0  0  0  0  0  0  0  0  0  0  0  0
   11.8329   10.8148   18.6769 N   0  0  0  0  0  0  0  0  0  0  0  0
    6.1021    2.5564   21.0678 C   0  0  0  0  0  0  0  0  0  0  0  0
   10.9097   11.8051   18.4804 C   0  0  0  0  0  0  0  0  0  0  0  0
   11.2280   12.9135   17.5669 C   0  0  0  0  0  0  0  0  0  0  0  0
   12.3782    5.4231   20.7777 C   0  0  0  0  0  0  0  0  0  0  0  0
    7.7365    4.6508   21.6987 C   0  0  0  0  0  0  0  0  0  0  0  0
   13.0186   11.0102   18.0020 C   0  0  0  0  0  0  0  0  0  0  0  0
    8.6628    5.7088   21.8871 N   0  0  0  0  0  0  0  0  0  0  0  0
    5.6516    3.5258   21.9140 C   0  0  0  0  0  0  0  0  0  0  0  0
   11.5863    9.6815   19.4539 C   0  0  0  0  0  0  0  0  0  0  0  0
   12.9648    4.1543   20.9205 C   0  0  0  0  0  0  0  0  0  0  0  0
    8.2089    3.6265   20.8929 C   0  0  0  0  0  0  0  0  0  0  0  0
    7.3827    2.5724   20.5432 C   0  0  0  0  0  0  0  0  0  0  0  0
   11.1529    7.2750   20.8025 C   0  0  0  0  0  0  0  0  0  0  0  0
   10.2573    8.3215   20.9827 C   0  0  0  0  0  0  0  0  0  0  0  0
   11.1606    5.9378   21.2366 N   0  0  0  0  0  0  0  0  0  0  0  0
    9.8932   11.6736   19.0677 O   0  0  0  0  0  0  0  0  0  0  0  0
    6.4470    4.5850   22.2321 C   0  0  0  0  0  0  0  0  0  0  0  0
    8.4619    6.9895   22.2968 C   0  0  0  0  0  0  0  0  0  0  0  0
   12.2747    7.5102   20.0420 C   0  0  0  0  0  0  0  0  0  0  0  0
   14.2544    6.2142   19.4191 C   0  0  0  0  0  0  0  0  0  0  0  0
   13.0695    6.3705   20.0375 N   0  0  0  0  0  0  0  0  0  0  0  0
    9.1913    8.0876   21.8361 N   0  0  0  0  0  0  0  0  0  0  0  0
   10.4739    9.4813   20.2889 C   0  0  0  0  0  0  0  0  0  0  0  0
    7.5551    7.1270   23.1200 O   0  0  0  0  0  0  0  0  0  0  0  0
  1 11  4  0
  1 21  4  0
  2  4  1  0
  2  8  1  0
  2 11  1  0
  3 10  4  0
  3 14  4  0
  4  5  1  0
  4 18  2  0
  6 12  1  0
  6 17  4  0
  6 23  4  0
  7  9  1  0
  7 13  4  0
  7 19  4  0
  9 20  1  0
 10 19  4  0
 11 25  4  0
 13 14  4  0
 15 16  4  0
 15 17  4  0
 15 21  4  0
 16 24  1  0
 16 25  4  0
 20 24  1  0
 20 26  2  0
 21 23  4  0
 22 23  1  0
M  END
$$$$

 Created by Python create_sdf_string function

 26 28  0  0  0  0  0  0  0  0999 V2000
   12.4616    8.6700   19.4180 N   0  0  0  0  0  0  0  0  0  0  0  0
   11.8329   10.8148   18.6769 N   0  0  0  0  0  0  0  0  0  0  0  0
    6.1021    2.5564   21.0678 C   0  0  0  0  0  0  0  0  0  0  0  0
   10.9097   11.8051   18.4804 C   0  0  0  0  0  0  0  0  0  0  0  0
   11.2280   12.9135   17.5669 C   0  0  0  0  0  0  0  0  0  0  0  0
   12.3782    5.4231   20.7777 C   0  0  0  0  0  0  0  0  0  0  0  0
    7.7365    4.6508   21.6987 C   0  0  0  0  0  0  0  0  0  0  0  0
   13.0186   11.0102   18.0020 C   0  0  0  0  0  0  0  0  0  0  0  0
    8.6628    5.7088   21.8871 N   0  0  0  0  0  0  0  0  0  0  0  0
    5.6516    3.5258   21.9140 C   0  0  0  0  0  0  0  0  0  0  0  0
   11.5863    9.6815   19.4539 C   0  0  0  0  0  0  0  0  0  0  0  0
   12.9648    4.1543   20.9205 C   0  0  0  0  0  0  0  0  0  0  0  0
    8.2089    3.6265   20.8929 C   0  0  0  0  0  0  0  0  0  0  0  0
    7.3827    2.5724   20.5432 C   0  0  0  0  0  0  0  0  0  0  0  0
   11.1529    7.2750   20.8025 C   0  0  0  0  0  0  0  0  0  0  0  0
   10.2573    8.3215   20.9827 C   0  0  0  0  0  0  0  0  0  0  0  0
   11.1606    5.9378   21.2366 N   0  0  0  0  0  0  0  0  0  0  0  0
    9.8932   11.6736   19.0677 O   0  0  0  0  0  0  0  0  0  0  0  0
    6.4470    4.5850   22.2321 C   0  0  0  0  0  0  0  0  0  0  0  0
    8.4619    6.9895   22.2968 C   0  0  0  0  0  0  0  0  0  0  0  0
   12.2747    7.5102   20.0420 C   0  0  0  0  0  0  0  0  0  0  0  0
   14.2544    6.2142   19.4191 C   0  0  0  0  0  0  0  0  0  0  0  0
   13.0695    6.3705   20.0375 N   0  0  0  0  0  0  0  0  0  0  0  0
    9.1913    8.0876   21.8361 N   0  0  0  0  0  0  0  0  0  0  0  0
   10.4739    9.4813   20.2889 C   0  0  0  0  0  0  0  0  0  0  0  0
    7.5551    7.1270   23.1200 O   0  0  0  0  0  0  0  0  0  0  0  0
  1 11  4  0
  1 21  4  0
  2  4  1  0
  2  8  1  0
  2 11  1  0
  3 10  4  0
  3 14  4  0
  4  5  1  0
  4 18  2  0
  6 12  1  0
  6 17  4  0
  6 23  4  0
  7  9  1  0
  7 13  4  0
  7 19  4  0
  9 20  1  0
 10 19  4  0
 11 25  4  0
 13 14  4  0
 15 16  4  0
 15 17  4  0
 15 21  4  0
 16 24  1  0
 16 25  4  0
 20 24  1  0
 20 26  2  0
 21 23  4  0
 22 23  1  0
M  END
$$$$

 Created by Python create_sdf_string function

 26 28  0  0  0  0  0  0  0  0999 V2000
   12.4616    8.6700   19.4180 N   0  0  0  0  0  0  0  0  0  0  0  0
   11.8329   10.8148   18.6769 N   0  0  0  0  0  0  0  0  0  0  0  0
    6.1021    2.5564   21.0678 C   0  0  0  0  0  0  0  0  0  0  0  0
   10.9097   11.8051   18.4804 C   0  0  0  0  0  0  0  0  0  0  0  0
   11.2280   12.9135   17.5669 C   0  0  0  0  0  0  0  0  0  0  0  0
   12.3782    5.4231   20.7777 C   0  0  0  0  0  0  0  0  0  0  0  0
    7.7365    4.6508   21.6987 C   0  0  0  0  0  0  0  0  0  0  0  0
   13.0186   11.0102   18.0020 C   0  0  0  0  0  0  0  0  0  0  0  0
    8.6628    5.7088   21.8871 N   0  0  0  0  0  0  0  0  0  0  0  0
    5.6516    3.5258   21.9140 C   0  0  0  0  0  0  0  0  0  0  0  0
   11.5863    9.6815   19.4539 C   0  0  0  0  0  0  0  0  0  0  0  0
   12.9648    4.1543   20.9205 C   0  0  0  0  0  0  0  0  0  0  0  0
    8.2089    3.6265   20.8929 C   0  0  0  0  0  0  0  0  0  0  0  0
    7.3827    2.5724   20.5432 C   0  0  0  0  0  0  0  0  0  0  0  0
   11.1529    7.2750   20.8025 C   0  0  0  0  0  0  0  0  0  0  0  0
   10.2573    8.3215   20.9827 C   0  0  0  0  0  0  0  0  0  0  0  0
   11.1606    5.9378   21.2366 N   0  0  0  0  0  0  0  0  0  0  0  0
    9.8932   11.6736   19.0677 O   0  0  0  0  0  0  0  0  0  0  0  0
    6.4470    4.5850   22.2321 C   0  0  0  0  0  0  0  0  0  0  0  0
    8.4619    6.9895   22.2968 C   0  0  0  0  0  0  0  0  0  0  0  0
   12.2747    7.5102   20.0420 C   0  0  0  0  0  0  0  0  0  0  0  0
   14.2544    6.2142   19.4191 C   0  0  0  0  0  0  0  0  0  0  0  0
   13.0695    6.3705   20.0375 N   0  0  0  0  0  0  0  0  0  0  0  0
    9.1913    8.0876   21.8361 N   0  0  0  0  0  0  0  0  0  0  0  0
   10.4739    9.4813   20.2889 C   0  0  0  0  0  0  0  0  0  0  0  0
    7.5551    7.1270   23.1200 O   0  0  0  0  0  0  0  0  0  0  0  0
  1 11  4  0
  1 21  4  0
  2  4  1  0
  2  8  1  0
  2 11  1  0
  3 10  4  0
  3 14  4  0
  4  5  1  0
  4 18  2  0
  6 12  1  0
  6 17  4  0
  6 23  4  0
  7  9  1  0
  7 13  4  0
  7 19  4  0
  9 20  1  0
 10 19  4  0
 11 25  4  0
 13 14  4  0
 15 16  4  0
 15 17  4  0
 15 21  4  0
 16 24  1  0
 16 25  4  0
 20 24  1  0
 20 26  2  0
 21 23  4  0
 22 23  1  0
M  END
$$$$

 Created by Python create_sdf_string function

 26 28  0  0  0  0  0  0  0  0999 V2000
   12.4616    8.6700   19.4180 N   0  0  0  0  0  0  0  0  0  0  0  0
   11.8329   10.8148   18.6769 N   0  0  0  0  0  0  0  0  0  0  0  0
    6.1021    2.5564   21.0678 C   0  0  0  0  0  0  0  0  0  0  0  0
   10.9097   11.8051   18.4804 C   0  0  0  0  0  0  0  0  0  0  0  0
   11.2280   12.9135   17.5669 C   0  0  0  0  0  0  0  0  0  0  0  0
   12.3782    5.4231   20.7777 C   0  0  0  0  0  0  0  0  0  0  0  0
    7.7365    4.6508   21.6987 C   0  0  0  0  0  0  0  0  0  0  0  0
   13.0186   11.0102   18.0020 C   0  0  0  0  0  0  0  0  0  0  0  0
    8.6628    5.7088   21.8871 N   0  0  0  0  0  0  0  0  0  0  0  0
    5.6516    3.5258   21.9140 C   0  0  0  0  0  0  0  0  0  0  0  0
   11.5863    9.6815   19.4539 C   0  0  0  0  0  0  0  0  0  0  0  0
   12.9648    4.1543   20.9205 C   0  0  0  0  0  0  0  0  0  0  0  0
    8.2089    3.6265   20.8929 C   0  0  0  0  0  0  0  0  0  0  0  0
    7.3827    2.5724   20.5432 C   0  0  0  0  0  0  0  0  0  0  0  0
   11.1529    7.2750   20.8025 C   0  0  0  0  0  0  0  0  0  0  0  0
   10.2573    8.3215   20.9827 C   0  0  0  0  0  0  0  0  0  0  0  0
   11.1606    5.9378   21.2366 N   0  0  0  0  0  0  0  0  0  0  0  0
    9.8932   11.6736   19.0677 O   0  0  0  0  0  0  0  0  0  0  0  0
    6.4470    4.5850   22.2321 C   0  0  0  0  0  0  0  0  0  0  0  0
    8.4619    6.9895   22.2968 C   0  0  0  0  0  0  0  0  0  0  0  0
   12.2747    7.5102   20.0420 C   0  0  0  0  0  0  0  0  0  0  0  0
   14.2544    6.2142   19.4191 C   0  0  0  0  0  0  0  0  0  0  0  0
   13.0695    6.3705   20.0375 N   0  0  0  0  0  0  0  0  0  0  0  0
    9.1913    8.0876   21.8361 N   0  0  0  0  0  0  0  0  0  0  0  0
   10.4739    9.4813   20.2889 C   0  0  0  0  0  0  0  0  0  0  0  0
    7.5551    7.1270   23.1200 O   0  0  0  0  0  0  0  0  0  0  0  0
  1 11  4  0
  1 21  4  0
  2  4  1  0
  2  8  1  0
  2 11  1  0
  3 10  4  0
  3 14  4  0
  4  5  1  0
  4 18  2  0
  6 12  1  0
  6 17  4  0
  6 23  4  0
  7  9  1  0
  7 13  4  0
  7 19  4  0
  9 20  1  0
 10 19  4  0
 11 25  4  0
 13 14  4  0
 15 16  4  0
 15 17  4  0
 15 21  4  0
 16 24  1  0
 16 25  4  0
 20 24  1  0
 20 26  2  0
 21 23  4  0
 22 23  1  0
M  END
$$$$

 Created by Python create_sdf_string function

 26 28  0  0  0  0  0  0  0  0999 V2000
   12.4616    8.6700   19.4180 N   0  0  0  0  0  0  0  0  0  0  0  0
   11.8329   10.8148   18.6769 N   0  0  0  0  0  0  0  0  0  0  0  0
    6.1021    2.5564   21.0678 C   0  0  0  0  0  0  0  0  0  0  0  0
   10.9097   11.8051   18.4804 C   0  0  0  0  0  0  0  0  0  0  0  0
   11.2280   12.9135   17.5669 C   0  0  0  0  0  0  0  0  0  0  0  0
   12.3782    5.4231   20.7777 C   0  0  0  0  0  0  0  0  0  0  0  0
    7.7365    4.6508   21.6987 C   0  0  0  0  0  0  0  0  0  0  0  0
   13.0186   11.0102   18.0020 C   0  0  0  0  0  0  0  0  0  0  0  0
    8.6628    5.7088   21.8871 N   0  0  0  0  0  0  0  0  0  0  0  0
    5.6516    3.5258   21.9140 C   0  0  0  0  0  0  0  0  0  0  0  0
   11.5863    9.6815   19.4539 C   0  0  0  0  0  0  0  0  0  0  0  0
   12.9648    4.1543   20.9205 C   0  0  0  0  0  0  0  0  0  0  0  0
    8.2089    3.6265   20.8929 C   0  0  0  0  0  0  0  0  0  0  0  0
    7.3827    2.5724   20.5432 C   0  0  0  0  0  0  0  0  0  0  0  0
   11.1529    7.2750   20.8025 C   0  0  0  0  0  0  0  0  0  0  0  0
   10.2573    8.3215   20.9827 C   0  0  0  0  0  0  0  0  0  0  0  0
   11.1606    5.9378   21.2366 N   0  0  0  0  0  0  0  0  0  0  0  0
    9.8932   11.6736   19.0677 O   0  0  0  0  0  0  0  0  0  0  0  0
    6.4470    4.5850   22.2321 C   0  0  0  0  0  0  0  0  0  0  0  0
    8.4619    6.9895   22.2968 C   0  0  0  0  0  0  0  0  0  0  0  0
   12.2747    7.5102   20.0420 C   0  0  0  0  0  0  0  0  0  0  0  0
   14.2544    6.2142   19.4191 C   0  0  0  0  0  0  0  0  0  0  0  0
   13.0695    6.3705   20.0375 N   0  0  0  0  0  0  0  0  0  0  0  0
    9.1913    8.0876   21.8361 N   0  0  0  0  0  0  0  0  0  0  0  0
   10.4739    9.4813   20.2889 C   0  0  0  0  0  0  0  0  0  0  0  0
    7.5551    7.1270   23.1200 O   0  0  0  0  0  0  0  0  0  0  0  0
  1 11  4  0
  1 21  4  0
  2  4  1  0
  2  8  1  0
  2 11  1  0
  3 10  4  0
  3 14  4  0
  4  5  1  0
  4 18  2  0
  6 12  1  0
  6 17  4  0
  6 23  4  0
  7  9  1  0
  7 13  4  0
  7 19  4  0
  9 20  1  0
 10 19  4  0
 11 25  4  0
 13 14  4  0
 15 16  4  0
 15 17  4  0
 15 21  4  0
 16 24  1  0
 16 25  4  0
 20 24  1  0
 20 26  2  0
 21 23  4  0
 22 23  1  0
M  END
$$$$

 Created by Python create_sdf_string function

 26 28  0  0  0  0  0  0  0  0999 V2000
   12.4616    8.6700   19.4180 N   0  0  0  0  0  0  0  0  0  0  0  0
   11.8329   10.8148   18.6769 N   0  0  0  0  0  0  0  0  0  0  0  0
    6.1021    2.5564   21.0678 C   0  0  0  0  0  0  0  0  0  0  0  0
   10.9097   11.8051   18.4804 C   0  0  0  0  0  0  0  0  0  0  0  0
   11.2280   12.9135   17.5669 C   0  0  0  0  0  0  0  0  0  0  0  0
   12.3782    5.4231   20.7777 C   0  0  0  0  0  0  0  0  0  0  0  0
    7.7365    4.6508   21.6987 C   0  0  0  0  0  0  0  0  0  0  0  0
   13.0186   11.0102   18.0020 C   0  0  0  0  0  0  0  0  0  0  0  0
    8.6628    5.7088   21.8871 N   0  0  0  0  0  0  0  0  0  0  0  0
    5.6516    3.5258   21.9140 C   0  0  0  0  0  0  0  0  0  0  0  0
   11.5863    9.6815   19.4539 C   0  0  0  0  0  0  0  0  0  0  0  0
   12.9648    4.1543   20.9205 C   0  0  0  0  0  0  0  0  0  0  0  0
    8.2089    3.6265   20.8929 C   0  0  0  0  0  0  0  0  0  0  0  0
    7.3827    2.5724   20.5432 C   0  0  0  0  0  0  0  0  0  0  0  0
   11.1529    7.2750   20.8025 C   0  0  0  0  0  0  0  0  0  0  0  0
   10.2573    8.3215   20.9827 C   0  0  0  0  0  0  0  0  0  0  0  0
   11.1606    5.9378   21.2366 N   0  0  0  0  0  0  0  0  0  0  0  0
    9.8932   11.6736   19.0677 O   0  0  0  0  0  0  0  0  0  0  0  0
    6.4470    4.5850   22.2321 C   0  0  0  0  0  0  0  0  0  0  0  0
    8.4619    6.9895   22.2968 C   0  0  0  0  0  0  0  0  0  0  0  0
   12.2747    7.5102   20.0420 C   0  0  0  0  0  0  0  0  0  0  0  0
   14.2544    6.2142   19.4191 C   0  0  0  0  0  0  0  0  0  0  0  0
   13.0695    6.3705   20.0375 N   0  0  0  0  0  0  0  0  0  0  0  0
    9.1913    8.0876   21.8361 N   0  0  0  0  0  0  0  0  0  0  0  0
   10.4739    9.4813   20.2889 C   0  0  0  0  0  0  0  0  0  0  0  0
    7.5551    7.1270   23.1200 O   0  0  0  0  0  0  0  0  0  0  0  0
  1 11  4  0
  1 21  4  0
  2  4  1  0
  2  8  1  0
  2 11  1  0
  3 10  4  0
  3 14  4  0
  4  5  1  0
  4 18  2  0
  6 12  1  0
  6 17  4  0
  6 23  4  0
  7  9  1  0
  7 13  4  0
  7 19  4  0
  9 20  1  0
 10 19  4  0
 11 25  4  0
 13 14  4  0
 15 16  4  0
 15 17  4  0
 15 21  4  0
 16 24  1  0
 16 25  4  0
 20 24  1  0
 20 26  2  0
 21 23  4  0
 22 23  1  0
M  END
$$$$

 Created by Python create_sdf_string function

 26 28  0  0  0  0  0  0  0  0999 V2000
   12.4616    8.6700   19.4180 N   0  0  0  0  0  0  0  0  0  0  0  0
   11.8329   10.8148   18.6769 N   0  0  0  0  0  0  0  0  0  0  0  0
    6.1021    2.5564   21.0678 C   0  0  0  0  0  0  0  0  0  0  0  0
   10.9097   11.8051   18.4804 C   0  0  0  0  0  0  0  0  0  0  0  0
   11.2280   12.9135   17.5669 C   0  0  0  0  0  0  0  0  0  0  0  0
   12.3782    5.4231   20.7777 C   0  0  0  0  0  0  0  0  0  0  0  0
    7.7365    4.6508   21.6987 C   0  0  0  0  0  0  0  0  0  0  0  0
   13.0186   11.0102   18.0020 C   0  0  0  0  0  0  0  0  0  0  0  0
    8.6628    5.7088   21.8871 N   0  0  0  0  0  0  0  0  0  0  0  0
    5.6516    3.5258   21.9140 C   0  0  0  0  0  0  0  0  0  0  0  0
   11.5863    9.6815   19.4539 C   0  0  0  0  0  0  0  0  0  0  0  0
   12.9648    4.1543   20.9205 C   0  0  0  0  0  0  0  0  0  0  0  0
    8.2089    3.6265   20.8929 C   0  0  0  0  0  0  0  0  0  0  0  0
    7.3827    2.5724   20.5432 C   0  0  0  0  0  0  0  0  0  0  0  0
   11.1529    7.2750   20.8025 C   0  0  0  0  0  0  0  0  0  0  0  0
   10.2573    8.3215   20.9827 C   0  0  0  0  0  0  0  0  0  0  0  0
   11.1606    5.9378   21.2366 N   0  0  0  0  0  0  0  0  0  0  0  0
    9.8932   11.6736   19.0677 O   0  0  0  0  0  0  0  0  0  0  0  0
    6.4470    4.5850   22.2321 C   0  0  0  0  0  0  0  0  0  0  0  0
    8.4619    6.9895   22.2968 C   0  0  0  0  0  0  0  0  0  0  0  0
   12.2747    7.5102   20.0420 C   0  0  0  0  0  0  0  0  0  0  0  0
   14.2544    6.2142   19.4191 C   0  0  0  0  0  0  0  0  0  0  0  0
   13.0695    6.3705   20.0375 N   0  0  0  0  0  0  0  0  0  0  0  0
    9.1913    8.0876   21.8361 N   0  0  0  0  0  0  0  0  0  0  0  0
   10.4739    9.4813   20.2889 C   0  0  0  0  0  0  0  0  0  0  0  0
    7.5551    7.1270   23.1200 O   0  0  0  0  0  0  0  0  0  0  0  0
  1 11  4  0
  1 21  4  0
  2  4  1  0
  2  8  1  0
  2 11  1  0
  3 10  4  0
  3 14  4  0
  4  5  1  0
  4 18  2  0
  6 12  1  0
  6 17  4  0
  6 23  4  0
  7  9  1  0
  7 13  4  0
  7 19  4  0
  9 20  1  0
 10 19  4  0
 11 25  4  0
 13 14  4  0
 15 16  4  0
 15 17  4  0
 15 21  4  0
 16 24  1  0
 16 25  4  0
 20 24  1  0
 20 26  2  0
 21 23  4  0
 22 23  1  0
M  END
$$$$

 Created by Python create_sdf_string function

 26 28  0  0  0  0  0  0  0  0999 V2000
   12.4616    8.6700   19.4180 N   0  0  0  0  0  0  0  0  0  0  0  0
   11.8329   10.8148   18.6769 N   0  0  0  0  0  0  0  0  0  0  0  0
    6.1021    2.5564   21.0678 C   0  0  0  0  0  0  0  0  0  0  0  0
   10.9097   11.8051   18.4804 C   0  0  0  0  0  0  0  0  0  0  0  0
   11.2280   12.9135   17.5669 C   0  0  0  0  0  0  0  0  0  0  0  0
   12.3782    5.4231   20.7777 C   0  0  0  0  0  0  0  0  0  0  0  0
    7.7365    4.6508   21.6987 C   0  0  0  0  0  0  0  0  0  0  0  0
   13.0186   11.0102   18.0020 C   0  0  0  0  0  0  0  0  0  0  0  0
    8.6628    5.7088   21.8871 N   0  0  0  0  0  0  0  0  0  0  0  0
    5.6516    3.5258   21.9140 C   0  0  0  0  0  0  0  0  0  0  0  0
   11.5863    9.6815   19.4539 C   0  0  0  0  0  0  0  0  0  0  0  0
   12.9648    4.1543   20.9205 C   0  0  0  0  0  0  0  0  0  0  0  0
    8.2089    3.6265   20.8929 C   0  0  0  0  0  0  0  0  0  0  0  0
    7.3827    2.5724   20.5432 C   0  0  0  0  0  0  0  0  0  0  0  0
   11.1529    7.2750   20.8025 C   0  0  0  0  0  0  0  0  0  0  0  0
   10.2573    8.3215   20.9827 C   0  0  0  0  0  0  0  0  0  0  0  0
   11.1606    5.9378   21.2366 N   0  0  0  0  0  0  0  0  0  0  0  0
    9.8932   11.6736   19.0677 O   0  0  0  0  0  0  0  0  0  0  0  0
    6.4470    4.5850   22.2321 C   0  0  0  0  0  0  0  0  0  0  0  0
    8.4619    6.9895   22.2968 C   0  0  0  0  0  0  0  0  0  0  0  0
   12.2747    7.5102   20.0420 C   0  0  0  0  0  0  0  0  0  0  0  0
   14.2544    6.2142   19.4191 C   0  0  0  0  0  0  0  0  0  0  0  0
   13.0695    6.3705   20.0375 N   0  0  0  0  0  0  0  0  0  0  0  0
    9.1913    8.0876   21.8361 N   0  0  0  0  0  0  0  0  0  0  0  0
   10.4739    9.4813   20.2889 C   0  0  0  0  0  0  0  0  0  0  0  0
    7.5551    7.1270   23.1200 O   0  0  0  0  0  0  0  0  0  0  0  0
  1 11  4  0
  1 21  4  0
  2  4  1  0
  2  8  1  0
  2 11  1  0
  3 10  4  0
  3 14  4  0
  4  5  1  0
  4 18  2  0
  6 12  1  0
  6 17  4  0
  6 23  4  0
  7  9  1  0
  7 13  4  0
  7 19  4  0
  9 20  1  0
 10 19  4  0
 11 25  4  0
 13 14  4  0
 15 16  4  0
 15 17  4  0
 15 21  4  0
 16 24  1  0
 16 25  4  0
 20 24  1  0
 20 26  2  0
 21 23  4  0
 22 23  1  0
M  END
$$$$

 Created by Python create_sdf_string function

 26 28  0  0  0  0  0  0  0  0999 V2000
   12.4616    8.6700   19.4180 N   0  0  0  0  0  0  0  0  0  0  0  0
   11.8329   10.8148   18.6769 N   0  0  0  0  0  0  0  0  0  0  0  0
    6.1021    2.5564   21.0678 C   0  0  0  0  0  0  0  0  0  0  0  0
   10.9097   11.8051   18.4804 C   0  0  0  0  0  0  0  0  0  0  0  0
   11.2280   12.9135   17.5669 C   0  0  0  0  0  0  0  0  0  0  0  0
   12.3782    5.4231   20.7777 C   0  0  0  0  0  0  0  0  0  0  0  0
    7.7365    4.6508   21.6987 C   0  0  0  0  0  0  0  0  0  0  0  0
   13.0186   11.0102   18.0020 C   0  0  0  0  0  0  0  0  0  0  0  0
    8.6628    5.7088   21.8871 N   0  0  0  0  0  0  0  0  0  0  0  0
    5.6516    3.5258   21.9140 C   0  0  0  0  0  0  0  0  0  0  0  0
   11.5863    9.6815   19.4539 C   0  0  0  0  0  0  0  0  0  0  0  0
   12.9648    4.1543   20.9205 C   0  0  0  0  0  0  0  0  0  0  0  0
    8.2089    3.6265   20.8929 C   0  0  0  0  0  0  0  0  0  0  0  0
    7.3827    2.5724   20.5432 C   0  0  0  0  0  0  0  0  0  0  0  0
   11.1529    7.2750   20.8025 C   0  0  0  0  0  0  0  0  0  0  0  0
   10.2573    8.3215   20.9827 C   0  0  0  0  0  0  0  0  0  0  0  0
   11.1606    5.9378   21.2366 N   0  0  0  0  0  0  0  0  0  0  0  0
    9.8932   11.6736   19.0677 O   0  0  0  0  0  0  0  0  0  0  0  0
    6.4470    4.5850   22.2321 C   0  0  0  0  0  0  0  0  0  0  0  0
    8.4619    6.9895   22.2968 C   0  0  0  0  0  0  0  0  0  0  0  0
   12.2747    7.5102   20.0420 C   0  0  0  0  0  0  0  0  0  0  0  0
   14.2544    6.2142   19.4191 C   0  0  0  0  0  0  0  0  0  0  0  0
   13.0695    6.3705   20.0375 N   0  0  0  0  0  0  0  0  0  0  0  0
    9.1913    8.0876   21.8361 N   0  0  0  0  0  0  0  0  0  0  0  0
   10.4739    9.4813   20.2889 C   0  0  0  0  0  0  0  0  0  0  0  0
    7.5551    7.1270   23.1200 O   0  0  0  0  0  0  0  0  0  0  0  0
  1 11  4  0
  1 21  4  0
  2  4  1  0
  2  8  1  0
  2 11  1  0
  3 10  4  0
  3 14  4  0
  4  5  1  0
  4 18  2  0
  6 12  1  0
  6 17  4  0
  6 23  4  0
  7  9  1  0
  7 13  4  0
  7 19  4  0
  9 20  1  0
 10 19  4  0
 11 25  4  0
 13 14  4  0
 15 16  4  0
 15 17  4  0
 15 21  4  0
 16 24  1  0
 16 25  4  0
 20 24  1  0
 20 26  2  0
 21 23  4  0
 22 23  1  0
M  END
$$$$

 Created by Python create_sdf_string function

 26 28  0  0  0  0  0  0  0  0999 V2000
   12.4616    8.6700   19.4180 N   0  0  0  0  0  0  0  0  0  0  0  0
   11.8329   10.8148   18.6769 N   0  0  0  0  0  0  0  0  0  0  0  0
    6.1021    2.5564   21.0678 C   0  0  0  0  0  0  0  0  0  0  0  0
   10.9097   11.8051   18.4804 C   0  0  0  0  0  0  0  0  0  0  0  0
   11.2280   12.9135   17.5669 C   0  0  0  0  0  0  0  0  0  0  0  0
   12.3782    5.4231   20.7777 C   0  0  0  0  0  0  0  0  0  0  0  0
    7.7365    4.6508   21.6987 C   0  0  0  0  0  0  0  0  0  0  0  0
   13.0186   11.0102   18.0020 C   0  0  0  0  0  0  0  0  0  0  0  0
    8.6628    5.7088   21.8871 N   0  0  0  0  0  0  0  0  0  0  0  0
    5.6516    3.5258   21.9140 C   0  0  0  0  0  0  0  0  0  0  0  0
   11.5863    9.6815   19.4539 C   0  0  0  0  0  0  0  0  0  0  0  0
   12.9648    4.1543   20.9205 C   0  0  0  0  0  0  0  0  0  0  0  0
    8.2089    3.6265   20.8929 C   0  0  0  0  0  0  0  0  0  0  0  0
    7.3827    2.5724   20.5432 C   0  0  0  0  0  0  0  0  0  0  0  0
   11.1529    7.2750   20.8025 C   0  0  0  0  0  0  0  0  0  0  0  0
   10.2573    8.3215   20.9827 C   0  0  0  0  0  0  0  0  0  0  0  0
   11.1606    5.9378   21.2366 N   0  0  0  0  0  0  0  0  0  0  0  0
    9.8932   11.6736   19.0677 O   0  0  0  0  0  0  0  0  0  0  0  0
    6.4470    4.5850   22.2321 C   0  0  0  0  0  0  0  0  0  0  0  0
    8.4619    6.9895   22.2968 C   0  0  0  0  0  0  0  0  0  0  0  0
   12.2747    7.5102   20.0420 C   0  0  0  0  0  0  0  0  0  0  0  0
   14.2544    6.2142   19.4191 C   0  0  0  0  0  0  0  0  0  0  0  0
   13.0695    6.3705   20.0375 N   0  0  0  0  0  0  0  0  0  0  0  0
    9.1913    8.0876   21.8361 N   0  0  0  0  0  0  0  0  0  0  0  0
   10.4739    9.4813   20.2889 C   0  0  0  0  0  0  0  0  0  0  0  0
    7.5551    7.1270   23.1200 O   0  0  0  0  0  0  0  0  0  0  0  0
  1 11  4  0
  1 21  4  0
  2  4  1  0
  2  8  1  0
  2 11  1  0
  3 10  4  0
  3 14  4  0
  4  5  1  0
  4 18  2  0
  6 12  1  0
  6 17  4  0
  6 23  4  0
  7  9  1  0
  7 13  4  0
  7 19  4  0
  9 20  1  0
 10 19  4  0
 11 25  4  0
 13 14  4  0
 15 16  4  0
 15 17  4  0
 15 21  4  0
 16 24  1  0
 16 25  4  0
 20 24  1  0
 20 26  2  0
 21 23  4  0
 22 23  1  0
M  END
$$$$

 Created by Python create_sdf_string function

 26 28  0  0  0  0  0  0  0  0999 V2000
   12.4616    8.6700   19.4180 N   0  0  0  0  0  0  0  0  0  0  0  0
   11.8329   10.8148   18.6769 N   0  0  0  0  0  0  0  0  0  0  0  0
    6.1021    2.5564   21.0678 C   0  0  0  0  0  0  0  0  0  0  0  0
   10.9097   11.8051   18.4804 C   0  0  0  0  0  0  0  0  0  0  0  0
   11.2280   12.9135   17.5669 C   0  0  0  0  0  0  0  0  0  0  0  0
   12.3782    5.4231   20.7777 C   0  0  0  0  0  0  0  0  0  0  0  0
    7.7365    4.6508   21.6987 C   0  0  0  0  0  0  0  0  0  0  0  0
   13.0186   11.0102   18.0020 C   0  0  0  0  0  0  0  0  0  0  0  0
    8.6628    5.7088   21.8871 N   0  0  0  0  0  0  0  0  0  0  0  0
    5.6516    3.5258   21.9140 C   0  0  0  0  0  0  0  0  0  0  0  0
   11.5863    9.6815   19.4539 C   0  0  0  0  0  0  0  0  0  0  0  0
   12.9648    4.1543   20.9205 C   0  0  0  0  0  0  0  0  0  0  0  0
    8.2089    3.6265   20.8929 C   0  0  0  0  0  0  0  0  0  0  0  0
    7.3827    2.5724   20.5432 C   0  0  0  0  0  0  0  0  0  0  0  0
   11.1529    7.2750   20.8025 C   0  0  0  0  0  0  0  0  0  0  0  0
   10.2573    8.3215   20.9827 C   0  0  0  0  0  0  0  0  0  0  0  0
   11.1606    5.9378   21.2366 N   0  0  0  0  0  0  0  0  0  0  0  0
    9.8932   11.6736   19.0677 O   0  0  0  0  0  0  0  0  0  0  0  0
    6.4470    4.5850   22.2321 C   0  0  0  0  0  0  0  0  0  0  0  0
    8.4619    6.9895   22.2968 C   0  0  0  0  0  0  0  0  0  0  0  0
   12.2747    7.5102   20.0420 C   0  0  0  0  0  0  0  0  0  0  0  0
   14.2544    6.2142   19.4191 C   0  0  0  0  0  0  0  0  0  0  0  0
   13.0695    6.3705   20.0375 N   0  0  0  0  0  0  0  0  0  0  0  0
    9.1913    8.0876   21.8361 N   0  0  0  0  0  0  0  0  0  0  0  0
   10.4739    9.4813   20.2889 C   0  0  0  0  0  0  0  0  0  0  0  0
    7.5551    7.1270   23.1200 O   0  0  0  0  0  0  0  0  0  0  0  0
  1 11  4  0
  1 21  4  0
  2  4  1  0
  2  8  1  0
  2 11  1  0
  3 10  4  0
  3 14  4  0
  4  5  1  0
  4 18  2  0
  6 12  1  0
  6 17  4  0
  6 23  4  0
  7  9  1  0
  7 13  4  0
  7 19  4  0
  9 20  1  0
 10 19  4  0
 11 25  4  0
 13 14  4  0
 15 16  4  0
 15 17  4  0
 15 21  4  0
 16 24  1  0
 16 25  4  0
 20 24  1  0
 20 26  2  0
 21 23  4  0
 22 23  1  0
M  END
$$$$

 Created by Python create_sdf_string function

 26 28  0  0  0  0  0  0  0  0999 V2000
   12.4616    8.6700   19.4180 N   0  0  0  0  0  0  0  0  0  0  0  0
   11.8329   10.8148   18.6769 N   0  0  0  0  0  0  0  0  0  0  0  0
    6.1021    2.5564   21.0678 C   0  0  0  0  0  0  0  0  0  0  0  0
   10.9097   11.8051   18.4804 C   0  0  0  0  0  0  0  0  0  0  0  0
   11.2280   12.9135   17.5669 C   0  0  0  0  0  0  0  0  0  0  0  0
   12.3782    5.4231   20.7777 C   0  0  0  0  0  0  0  0  0  0  0  0
    7.7365    4.6508   21.6987 C   0  0  0  0  0  0  0  0  0  0  0  0
   13.0186   11.0102   18.0020 C   0  0  0  0  0  0  0  0  0  0  0  0
    8.6628    5.7088   21.8871 N   0  0  0  0  0  0  0  0  0  0  0  0
    5.6516    3.5258   21.9140 C   0  0  0  0  0  0  0  0  0  0  0  0
   11.5863    9.6815   19.4539 C   0  0  0  0  0  0  0  0  0  0  0  0
   12.9648    4.1543   20.9205 C   0  0  0  0  0  0  0  0  0  0  0  0
    8.2089    3.6265   20.8929 C   0  0  0  0  0  0  0  0  0  0  0  0
    7.3827    2.5724   20.5432 C   0  0  0  0  0  0  0  0  0  0  0  0
   11.1529    7.2750   20.8025 C   0  0  0  0  0  0  0  0  0  0  0  0
   10.2573    8.3215   20.9827 C   0  0  0  0  0  0  0  0  0  0  0  0
   11.1606    5.9378   21.2366 N   0  0  0  0  0  0  0  0  0  0  0  0
    9.8932   11.6736   19.0677 O   0  0  0  0  0  0  0  0  0  0  0  0
    6.4470    4.5850   22.2321 C   0  0  0  0  0  0  0  0  0  0  0  0
    8.4619    6.9895   22.2968 C   0  0  0  0  0  0  0  0  0  0  0  0
   12.2747    7.5102   20.0420 C   0  0  0  0  0  0  0  0  0  0  0  0
   14.2544    6.2142   19.4191 C   0  0  0  0  0  0  0  0  0  0  0  0
   13.0695    6.3705   20.0375 N   0  0  0  0  0  0  0  0  0  0  0  0
    9.1913    8.0876   21.8361 N   0  0  0  0  0  0  0  0  0  0  0  0
   10.4739    9.4813   20.2889 C   0  0  0  0  0  0  0  0  0  0  0  0
    7.5551    7.1270   23.1200 O   0  0  0  0  0  0  0  0  0  0  0  0
  1 11  4  0
  1 21  4  0
  2  4  1  0
  2  8  1  0
  2 11  1  0
  3 10  4  0
  3 14  4  0
  4  5  1  0
  4 18  2  0
  6 12  1  0
  6 17  4  0
  6 23  4  0
  7  9  1  0
  7 13  4  0
  7 19  4  0
  9 20  1  0
 10 19  4  0
 11 25  4  0
 13 14  4  0
 15 16  4  0
 15 17  4  0
 15 21  4  0
 16 24  1  0
 16 25  4  0
 20 24  1  0
 20 26  2  0
 21 23  4  0
 22 23  1  0
M  END
$$$$

 Created by Python create_sdf_string function

 26 28  0  0  0  0  0  0  0  0999 V2000
   12.4616    8.6700   19.4180 N   0  0  0  0  0  0  0  0  0  0  0  0
   11.8329   10.8148   18.6769 N   0  0  0  0  0  0  0  0  0  0  0  0
    6.1021    2.5564   21.0678 C   0  0  0  0  0  0  0  0  0  0  0  0
   10.9097   11.8051   18.4804 C   0  0  0  0  0  0  0  0  0  0  0  0
   11.2280   12.9135   17.5669 C   0  0  0  0  0  0  0  0  0  0  0  0
   12.3782    5.4231   20.7777 C   0  0  0  0  0  0  0  0  0  0  0  0
    7.7365    4.6508   21.6987 C   0  0  0  0  0  0  0  0  0  0  0  0
   13.0186   11.0102   18.0020 C   0  0  0  0  0  0  0  0  0  0  0  0
    8.6628    5.7088   21.8871 N   0  0  0  0  0  0  0  0  0  0  0  0
    5.6516    3.5258   21.9140 C   0  0  0  0  0  0  0  0  0  0  0  0
   11.5863    9.6815   19.4539 C   0  0  0  0  0  0  0  0  0  0  0  0
   12.9648    4.1543   20.9205 C   0  0  0  0  0  0  0  0  0  0  0  0
    8.2089    3.6265   20.8929 C   0  0  0  0  0  0  0  0  0  0  0  0
    7.3827    2.5724   20.5432 C   0  0  0  0  0  0  0  0  0  0  0  0
   11.1529    7.2750   20.8025 C   0  0  0  0  0  0  0  0  0  0  0  0
   10.2573    8.3215   20.9827 C   0  0  0  0  0  0  0  0  0  0  0  0
   11.1606    5.9378   21.2366 N   0  0  0  0  0  0  0  0  0  0  0  0
    9.8932   11.6736   19.0677 O   0  0  0  0  0  0  0  0  0  0  0  0
    6.4470    4.5850   22.2321 C   0  0  0  0  0  0  0  0  0  0  0  0
    8.4619    6.9895   22.2968 C   0  0  0  0  0  0  0  0  0  0  0  0
   12.2747    7.5102   20.0420 C   0  0  0  0  0  0  0  0  0  0  0  0
   14.2544    6.2142   19.4191 C   0  0  0  0  0  0  0  0  0  0  0  0
   13.0695    6.3705   20.0375 N   0  0  0  0  0  0  0  0  0  0  0  0
    9.1913    8.0876   21.8361 N   0  0  0  0  0  0  0  0  0  0  0  0
   10.4739    9.4813   20.2889 C   0  0  0  0  0  0  0  0  0  0  0  0
    7.5551    7.1270   23.1200 O   0  0  0  0  0  0  0  0  0  0  0  0
  1 11  4  0
  1 21  4  0
  2  4  1  0
  2  8  1  0
  2 11  1  0
  3 10  4  0
  3 14  4  0
  4  5  1  0
  4 18  2  0
  6 12  1  0
  6 17  4  0
  6 23  4  0
  7  9  1  0
  7 13  4  0
  7 19  4  0
  9 20  1  0
 10 19  4  0
 11 25  4  0
 13 14  4  0
 15 16  4  0
 15 17  4  0
 15 21  4  0
 16 24  1  0
 16 25  4  0
 20 24  1  0
 20 26  2  0
 21 23  4  0
 22 23  1  0
M  END
$$$$

 Created by Python create_sdf_string function

 26 28  0  0  0  0  0  0  0  0999 V2000
   12.4616    8.6700   19.4180 N   0  0  0  0  0  0  0  0  0  0  0  0
   11.8329   10.8148   18.6769 N   0  0  0  0  0  0  0  0  0  0  0  0
    6.1021    2.5564   21.0678 C   0  0  0  0  0  0  0  0  0  0  0  0
   10.9097   11.8051   18.4804 C   0  0  0  0  0  0  0  0  0  0  0  0
   11.2280   12.9135   17.5669 C   0  0  0  0  0  0  0  0  0  0  0  0
   12.3782    5.4231   20.7777 C   0  0  0  0  0  0  0  0  0  0  0  0
    7.7365    4.6508   21.6987 C   0  0  0  0  0  0  0  0  0  0  0  0
   13.0186   11.0102   18.0020 C   0  0  0  0  0  0  0  0  0  0  0  0
    8.6628    5.7088   21.8871 N   0  0  0  0  0  0  0  0  0  0  0  0
    5.6516    3.5258   21.9140 C   0  0  0  0  0  0  0  0  0  0  0  0
   11.5863    9.6815   19.4539 C   0  0  0  0  0  0  0  0  0  0  0  0
   12.9648    4.1543   20.9205 C   0  0  0  0  0  0  0  0  0  0  0  0
    8.2089    3.6265   20.8929 C   0  0  0  0  0  0  0  0  0  0  0  0
    7.3827    2.5724   20.5432 C   0  0  0  0  0  0  0  0  0  0  0  0
   11.1529    7.2750   20.8025 C   0  0  0  0  0  0  0  0  0  0  0  0
   10.2573    8.3215   20.9827 C   0  0  0  0  0  0  0  0  0  0  0  0
   11.1606    5.9378   21.2366 N   0  0  0  0  0  0  0  0  0  0  0  0
    9.8932   11.6736   19.0677 O   0  0  0  0  0  0  0  0  0  0  0  0
    6.4470    4.5850   22.2321 C   0  0  0  0  0  0  0  0  0  0  0  0
    8.4619    6.9895   22.2968 C   0  0  0  0  0  0  0  0  0  0  0  0
   12.2747    7.5102   20.0420 C   0  0  0  0  0  0  0  0  0  0  0  0
   14.2544    6.2142   19.4191 C   0  0  0  0  0  0  0  0  0  0  0  0
   13.0695    6.3705   20.0375 N   0  0  0  0  0  0  0  0  0  0  0  0
    9.1913    8.0876   21.8361 N   0  0  0  0  0  0  0  0  0  0  0  0
   10.4739    9.4813   20.2889 C   0  0  0  0  0  0  0  0  0  0  0  0
    7.5551    7.1270   23.1200 O   0  0  0  0  0  0  0  0  0  0  0  0
  1 11  4  0
  1 21  4  0
  2  4  1  0
  2  8  1  0
  2 11  1  0
  3 10  4  0
  3 14  4  0
  4  5  1  0
  4 18  2  0
  6 12  1  0
  6 17  4  0
  6 23  4  0
  7  9  1  0
  7 13  4  0
  7 19  4  0
  9 20  1  0
 10 19  4  0
 11 25  4  0
 13 14  4  0
 15 16  4  0
 15 17  4  0
 15 21  4  0
 16 24  1  0
 16 25  4  0
 20 24  1  0
 20 26  2  0
 21 23  4  0
 22 23  1  0
M  END
$$$$

 Created by Python create_sdf_string function

 26 28  0  0  0  0  0  0  0  0999 V2000
   12.4616    8.6700   19.4180 N   0  0  0  0  0  0  0  0  0  0  0  0
   11.8329   10.8148   18.6769 N   0  0  0  0  0  0  0  0  0  0  0  0
    6.1021    2.5564   21.0678 C   0  0  0  0  0  0  0  0  0  0  0  0
   10.9097   11.8051   18.4804 C   0  0  0  0  0  0  0  0  0  0  0  0
   11.2280   12.9135   17.5669 C   0  0  0  0  0  0  0  0  0  0  0  0
   12.3782    5.4231   20.7777 C   0  0  0  0  0  0  0  0  0  0  0  0
    7.7365    4.6508   21.6987 C   0  0  0  0  0  0  0  0  0  0  0  0
   13.0186   11.0102   18.0020 C   0  0  0  0  0  0  0  0  0  0  0  0
    8.6628    5.7088   21.8871 N   0  0  0  0  0  0  0  0  0  0  0  0
    5.6516    3.5258   21.9140 C   0  0  0  0  0  0  0  0  0  0  0  0
   11.5863    9.6815   19.4539 C   0  0  0  0  0  0  0  0  0  0  0  0
   12.9648    4.1543   20.9205 C   0  0  0  0  0  0  0  0  0  0  0  0
    8.2089    3.6265   20.8929 C   0  0  0  0  0  0  0  0  0  0  0  0
    7.3827    2.5724   20.5432 C   0  0  0  0  0  0  0  0  0  0  0  0
   11.1529    7.2750   20.8025 C   0  0  0  0  0  0  0  0  0  0  0  0
   10.2573    8.3215   20.9827 C   0  0  0  0  0  0  0  0  0  0  0  0
   11.1606    5.9378   21.2366 N   0  0  0  0  0  0  0  0  0  0  0  0
    9.8932   11.6736   19.0677 O   0  0  0  0  0  0  0  0  0  0  0  0
    6.4470    4.5850   22.2321 C   0  0  0  0  0  0  0  0  0  0  0  0
    8.4619    6.9895   22.2968 C   0  0  0  0  0  0  0  0  0  0  0  0
   12.2747    7.5102   20.0420 C   0  0  0  0  0  0  0  0  0  0  0  0
   14.2544    6.2142   19.4191 C   0  0  0  0  0  0  0  0  0  0  0  0
   13.0695    6.3705   20.0375 N   0  0  0  0  0  0  0  0  0  0  0  0
    9.1913    8.0876   21.8361 N   0  0  0  0  0  0  0  0  0  0  0  0
   10.4739    9.4813   20.2889 C   0  0  0  0  0  0  0  0  0  0  0  0
    7.5551    7.1270   23.1200 O   0  0  0  0  0  0  0  0  0  0  0  0
  1 11  4  0
  1 21  4  0
  2  4  1  0
  2  8  1  0
  2 11  1  0
  3 10  4  0
  3 14  4  0
  4  5  1  0
  4 18  2  0
  6 12  1  0
  6 17  4  0
  6 23  4  0
  7  9  1  0
  7 13  4  0
  7 19  4  0
  9 20  1  0
 10 19  4  0
 11 25  4  0
 13 14  4  0
 15 16  4  0
 15 17  4  0
 15 21  4  0
 16 24  1  0
 16 25  4  0
 20 24  1  0
 20 26  2  0
 21 23  4  0
 22 23  1  0
M  END
$$$$

 Created by Python create_sdf_string function

 26 28  0  0  0  0  0  0  0  0999 V2000
   12.4616    8.6700   19.4180 N   0  0  0  0  0  0  0  0  0  0  0  0
   11.8329   10.8148   18.6769 N   0  0  0  0  0  0  0  0  0  0  0  0
    6.1021    2.5564   21.0678 C   0  0  0  0  0  0  0  0  0  0  0  0
   10.9097   11.8051   18.4804 C   0  0  0  0  0  0  0  0  0  0  0  0
   11.2280   12.9135   17.5669 C   0  0  0  0  0  0  0  0  0  0  0  0
   12.3782    5.4231   20.7777 C   0  0  0  0  0  0  0  0  0  0  0  0
    7.7365    4.6508   21.6987 C   0  0  0  0  0  0  0  0  0  0  0  0
   13.0186   11.0102   18.0020 C   0  0  0  0  0  0  0  0  0  0  0  0
    8.6628    5.7088   21.8871 N   0  0  0  0  0  0  0  0  0  0  0  0
    5.6516    3.5258   21.9140 C   0  0  0  0  0  0  0  0  0  0  0  0
   11.5863    9.6815   19.4539 C   0  0  0  0  0  0  0  0  0  0  0  0
   12.9648    4.1543   20.9205 C   0  0  0  0  0  0  0  0  0  0  0  0
    8.2089    3.6265   20.8929 C   0  0  0  0  0  0  0  0  0  0  0  0
    7.3827    2.5724   20.5432 C   0  0  0  0  0  0  0  0  0  0  0  0
   11.1529    7.2750   20.8025 C   0  0  0  0  0  0  0  0  0  0  0  0
   10.2573    8.3215   20.9827 C   0  0  0  0  0  0  0  0  0  0  0  0
   11.1606    5.9378   21.2366 N   0  0  0  0  0  0  0  0  0  0  0  0
    9.8932   11.6736   19.0677 O   0  0  0  0  0  0  0  0  0  0  0  0
    6.4470    4.5850   22.2321 C   0  0  0  0  0  0  0  0  0  0  0  0
    8.4619    6.9895   22.2968 C   0  0  0  0  0  0  0  0  0  0  0  0
   12.2747    7.5102   20.0420 C   0  0  0  0  0  0  0  0  0  0  0  0
   14.2544    6.2142   19.4191 C   0  0  0  0  0  0  0  0  0  0  0  0
   13.0695    6.3705   20.0375 N   0  0  0  0  0  0  0  0  0  0  0  0
    9.1913    8.0876   21.8361 N   0  0  0  0  0  0  0  0  0  0  0  0
   10.4739    9.4813   20.2889 C   0  0  0  0  0  0  0  0  0  0  0  0
    7.5551    7.1270   23.1200 O   0  0  0  0  0  0  0  0  0  0  0  0
  1 11  4  0
  1 21  4  0
  2  4  1  0
  2  8  1  0
  2 11  1  0
  3 10  4  0
  3 14  4  0
  4  5  1  0
  4 18  2  0
  6 12  1  0
  6 17  4  0
  6 23  4  0
  7  9  1  0
  7 13  4  0
  7 19  4  0
  9 20  1  0
 10 19  4  0
 11 25  4  0
 13 14  4  0
 15 16  4  0
 15 17  4  0
 15 21  4  0
 16 24  1  0
 16 25  4  0
 20 24  1  0
 20 26  2  0
 21 23  4  0
 22 23  1  0
M  END
$$$$

 Created by Python create_sdf_string function

 26 28  0  0  0  0  0  0  0  0999 V2000
   12.4616    8.6700   19.4180 N   0  0  0  0  0  0  0  0  0  0  0  0
   11.8329   10.8148   18.6769 N   0  0  0  0  0  0  0  0  0  0  0  0
    6.1021    2.5564   21.0678 C   0  0  0  0  0  0  0  0  0  0  0  0
   10.9097   11.8051   18.4804 C   0  0  0  0  0  0  0  0  0  0  0  0
   11.2280   12.9135   17.5669 C   0  0  0  0  0  0  0  0  0  0  0  0
   12.3782    5.4231   20.7777 C   0  0  0  0  0  0  0  0  0  0  0  0
    7.7365    4.6508   21.6987 C   0  0  0  0  0  0  0  0  0  0  0  0
   13.0186   11.0102   18.0020 C   0  0  0  0  0  0  0  0  0  0  0  0
    8.6628    5.7088   21.8871 N   0  0  0  0  0  0  0  0  0  0  0  0
    5.6516    3.5258   21.9140 C   0  0  0  0  0  0  0  0  0  0  0  0
   11.5863    9.6815   19.4539 C   0  0  0  0  0  0  0  0  0  0  0  0
   12.9648    4.1543   20.9205 C   0  0  0  0  0  0  0  0  0  0  0  0
    8.2089    3.6265   20.8929 C   0  0  0  0  0  0  0  0  0  0  0  0
    7.3827    2.5724   20.5432 C   0  0  0  0  0  0  0  0  0  0  0  0
   11.1529    7.2750   20.8025 C   0  0  0  0  0  0  0  0  0  0  0  0
   10.2573    8.3215   20.9827 C   0  0  0  0  0  0  0  0  0  0  0  0
   11.1606    5.9378   21.2366 N   0  0  0  0  0  0  0  0  0  0  0  0
    9.8932   11.6736   19.0677 O   0  0  0  0  0  0  0  0  0  0  0  0
    6.4470    4.5850   22.2321 C   0  0  0  0  0  0  0  0  0  0  0  0
    8.4619    6.9895   22.2968 C   0  0  0  0  0  0  0  0  0  0  0  0
   12.2747    7.5102   20.0420 C   0  0  0  0  0  0  0  0  0  0  0  0
   14.2544    6.2142   19.4191 C   0  0  0  0  0  0  0  0  0  0  0  0
   13.0695    6.3705   20.0375 N   0  0  0  0  0  0  0  0  0  0  0  0
    9.1913    8.0876   21.8361 N   0  0  0  0  0  0  0  0  0  0  0  0
   10.4739    9.4813   20.2889 C   0  0  0  0  0  0  0  0  0  0  0  0
    7.5551    7.1270   23.1200 O   0  0  0  0  0  0  0  0  0  0  0  0
  1 11  4  0
  1 21  4  0
  2  4  1  0
  2  8  1  0
  2 11  1  0
  3 10  4  0
  3 14  4  0
  4  5  1  0
  4 18  2  0
  6 12  1  0
  6 17  4  0
  6 23  4  0
  7  9  1  0
  7 13  4  0
  7 19  4  0
  9 20  1  0
 10 19  4  0
 11 25  4  0
 13 14  4  0
 15 16  4  0
 15 17  4  0
 15 21  4  0
 16 24  1  0
 16 25  4  0
 20 24  1  0
 20 26  2  0
 21 23  4  0
 22 23  1  0
M  END
$$$$

 Created by Python create_sdf_string function

 26 28  0  0  0  0  0  0  0  0999 V2000
   12.4616    8.6700   19.4180 N   0  0  0  0  0  0  0  0  0  0  0  0
   11.8329   10.8148   18.6769 N   0  0  0  0  0  0  0  0  0  0  0  0
    6.1021    2.5564   21.0678 C   0  0  0  0  0  0  0  0  0  0  0  0
   10.9097   11.8051   18.4804 C   0  0  0  0  0  0  0  0  0  0  0  0
   11.2280   12.9135   17.5669 C   0  0  0  0  0  0  0  0  0  0  0  0
   12.3782    5.4231   20.7777 C   0  0  0  0  0  0  0  0  0  0  0  0
    7.7365    4.6508   21.6987 C   0  0  0  0  0  0  0  0  0  0  0  0
   13.0186   11.0102   18.0020 C   0  0  0  0  0  0  0  0  0  0  0  0
    8.6628    5.7088   21.8871 N   0  0  0  0  0  0  0  0  0  0  0  0
    5.6516    3.5258   21.9140 C   0  0  0  0  0  0  0  0  0  0  0  0
   11.5863    9.6815   19.4539 C   0  0  0  0  0  0  0  0  0  0  0  0
   12.9648    4.1543   20.9205 C   0  0  0  0  0  0  0  0  0  0  0  0
    8.2089    3.6265   20.8929 C   0  0  0  0  0  0  0  0  0  0  0  0
    7.3827    2.5724   20.5432 C   0  0  0  0  0  0  0  0  0  0  0  0
   11.1529    7.2750   20.8025 C   0  0  0  0  0  0  0  0  0  0  0  0
   10.2573    8.3215   20.9827 C   0  0  0  0  0  0  0  0  0  0  0  0
   11.1606    5.9378   21.2366 N   0  0  0  0  0  0  0  0  0  0  0  0
    9.8932   11.6736   19.0677 O   0  0  0  0  0  0  0  0  0  0  0  0
    6.4470    4.5850   22.2321 C   0  0  0  0  0  0  0  0  0  0  0  0
    8.4619    6.9895   22.2968 C   0  0  0  0  0  0  0  0  0  0  0  0
   12.2747    7.5102   20.0420 C   0  0  0  0  0  0  0  0  0  0  0  0
   14.2544    6.2142   19.4191 C   0  0  0  0  0  0  0  0  0  0  0  0
   13.0695    6.3705   20.0375 N   0  0  0  0  0  0  0  0  0  0  0  0
    9.1913    8.0876   21.8361 N   0  0  0  0  0  0  0  0  0  0  0  0
   10.4739    9.4813   20.2889 C   0  0  0  0  0  0  0  0  0  0  0  0
    7.5551    7.1270   23.1200 O   0  0  0  0  0  0  0  0  0  0  0  0
  1 11  4  0
  1 21  4  0
  2  4  1  0
  2  8  1  0
  2 11  1  0
  3 10  4  0
  3 14  4  0
  4  5  1  0
  4 18  2  0
  6 12  1  0
  6 17  4  0
  6 23  4  0
  7  9  1  0
  7 13  4  0
  7 19  4  0
  9 20  1  0
 10 19  4  0
 11 25  4  0
 13 14  4  0
 15 16  4  0
 15 17  4  0
 15 21  4  0
 16 24  1  0
 16 25  4  0
 20 24  1  0
 20 26  2  0
 21 23  4  0
 22 23  1  0
M  END
$$$$

 Created by Python create_sdf_string function

 26 28  0  0  0  0  0  0  0  0999 V2000
   12.4616    8.6700   19.4180 N   0  0  0  0  0  0  0  0  0  0  0  0
   11.8329   10.8148   18.6769 N   0  0  0  0  0  0  0  0  0  0  0  0
    6.1021    2.5564   21.0678 C   0  0  0  0  0  0  0  0  0  0  0  0
   10.9097   11.8051   18.4804 C   0  0  0  0  0  0  0  0  0  0  0  0
   11.2280   12.9135   17.5669 C   0  0  0  0  0  0  0  0  0  0  0  0
   12.3782    5.4231   20.7777 C   0  0  0  0  0  0  0  0  0  0  0  0
    7.7365    4.6508   21.6987 C   0  0  0  0  0  0  0  0  0  0  0  0
   13.0186   11.0102   18.0020 C   0  0  0  0  0  0  0  0  0  0  0  0
    8.6628    5.7088   21.8871 N   0  0  0  0  0  0  0  0  0  0  0  0
    5.6516    3.5258   21.9140 C   0  0  0  0  0  0  0  0  0  0  0  0
   11.5863    9.6815   19.4539 C   0  0  0  0  0  0  0  0  0  0  0  0
   12.9648    4.1543   20.9205 C   0  0  0  0  0  0  0  0  0  0  0  0
    8.2089    3.6265   20.8929 C   0  0  0  0  0  0  0  0  0  0  0  0
    7.3827    2.5724   20.5432 C   0  0  0  0  0  0  0  0  0  0  0  0
   11.1529    7.2750   20.8025 C   0  0  0  0  0  0  0  0  0  0  0  0
   10.2573    8.3215   20.9827 C   0  0  0  0  0  0  0  0  0  0  0  0
   11.1606    5.9378   21.2366 N   0  0  0  0  0  0  0  0  0  0  0  0
    9.8932   11.6736   19.0677 O   0  0  0  0  0  0  0  0  0  0  0  0
    6.4470    4.5850   22.2321 C   0  0  0  0  0  0  0  0  0  0  0  0
    8.4619    6.9895   22.2968 C   0  0  0  0  0  0  0  0  0  0  0  0
   12.2747    7.5102   20.0420 C   0  0  0  0  0  0  0  0  0  0  0  0
   14.2544    6.2142   19.4191 C   0  0  0  0  0  0  0  0  0  0  0  0
   13.0695    6.3705   20.0375 N   0  0  0  0  0  0  0  0  0  0  0  0
    9.1913    8.0876   21.8361 N   0  0  0  0  0  0  0  0  0  0  0  0
   10.4739    9.4813   20.2889 C   0  0  0  0  0  0  0  0  0  0  0  0
    7.5551    7.1270   23.1200 O   0  0  0  0  0  0  0  0  0  0  0  0
  1 11  4  0
  1 21  4  0
  2  4  1  0
  2  8  1  0
  2 11  1  0
  3 10  4  0
  3 14  4  0
  4  5  1  0
  4 18  2  0
  6 12  1  0
  6 17  4  0
  6 23  4  0
  7  9  1  0
  7 13  4  0
  7 19  4  0
  9 20  1  0
 10 19  4  0
 11 25  4  0
 13 14  4  0
 15 16  4  0
 15 17  4  0
 15 21  4  0
 16 24  1  0
 16 25  4  0
 20 24  1  0
 20 26  2  0
 21 23  4  0
 22 23  1  0
M  END
$$$$

 Created by Python create_sdf_string function

 26 28  0  0  0  0  0  0  0  0999 V2000
   12.4616    8.6700   19.4180 N   0  0  0  0  0  0  0  0  0  0  0  0
   11.8329   10.8148   18.6769 N   0  0  0  0  0  0  0  0  0  0  0  0
    6.1021    2.5564   21.0678 C   0  0  0  0  0  0  0  0  0  0  0  0
   10.9097   11.8051   18.4804 C   0  0  0  0  0  0  0  0  0  0  0  0
   11.2280   12.9135   17.5669 C   0  0  0  0  0  0  0  0  0  0  0  0
   12.3782    5.4231   20.7777 C   0  0  0  0  0  0  0  0  0  0  0  0
    7.7365    4.6508   21.6987 C   0  0  0  0  0  0  0  0  0  0  0  0
   13.0186   11.0102   18.0020 C   0  0  0  0  0  0  0  0  0  0  0  0
    8.6628    5.7088   21.8871 N   0  0  0  0  0  0  0  0  0  0  0  0
    5.6516    3.5258   21.9140 C   0  0  0  0  0  0  0  0  0  0  0  0
   11.5863    9.6815   19.4539 C   0  0  0  0  0  0  0  0  0  0  0  0
   12.9648    4.1543   20.9205 C   0  0  0  0  0  0  0  0  0  0  0  0
    8.2089    3.6265   20.8929 C   0  0  0  0  0  0  0  0  0  0  0  0
    7.3827    2.5724   20.5432 C   0  0  0  0  0  0  0  0  0  0  0  0
   11.1529    7.2750   20.8025 C   0  0  0  0  0  0  0  0  0  0  0  0
   10.2573    8.3215   20.9827 C   0  0  0  0  0  0  0  0  0  0  0  0
   11.1606    5.9378   21.2366 N   0  0  0  0  0  0  0  0  0  0  0  0
    9.8932   11.6736   19.0677 O   0  0  0  0  0  0  0  0  0  0  0  0
    6.4470    4.5850   22.2321 C   0  0  0  0  0  0  0  0  0  0  0  0
    8.4619    6.9895   22.2968 C   0  0  0  0  0  0  0  0  0  0  0  0
   12.2747    7.5102   20.0420 C   0  0  0  0  0  0  0  0  0  0  0  0
   14.2544    6.2142   19.4191 C   0  0  0  0  0  0  0  0  0  0  0  0
   13.0695    6.3705   20.0375 N   0  0  0  0  0  0  0  0  0  0  0  0
    9.1913    8.0876   21.8361 N   0  0  0  0  0  0  0  0  0  0  0  0
   10.4739    9.4813   20.2889 C   0  0  0  0  0  0  0  0  0  0  0  0
    7.5551    7.1270   23.1200 O   0  0  0  0  0  0  0  0  0  0  0  0
  1 11  4  0
  1 21  4  0
  2  4  1  0
  2  8  1  0
  2 11  1  0
  3 10  4  0
  3 14  4  0
  4  5  1  0
  4 18  2  0
  6 12  1  0
  6 17  4  0
  6 23  4  0
  7  9  1  0
  7 13  4  0
  7 19  4  0
  9 20  1  0
 10 19  4  0
 11 25  4  0
 13 14  4  0
 15 16  4  0
 15 17  4  0
 15 21  4  0
 16 24  1  0
 16 25  4  0
 20 24  1  0
 20 26  2  0
 21 23  4  0
 22 23  1  0
M  END
$$$$

 Created by Python create_sdf_string function

 26 28  0  0  0  0  0  0  0  0999 V2000
   12.4616    8.6700   19.4180 N   0  0  0  0  0  0  0  0  0  0  0  0
   11.8329   10.8148   18.6769 N   0  0  0  0  0  0  0  0  0  0  0  0
    6.1021    2.5564   21.0678 C   0  0  0  0  0  0  0  0  0  0  0  0
   10.9097   11.8051   18.4804 C   0  0  0  0  0  0  0  0  0  0  0  0
   11.2280   12.9135   17.5669 C   0  0  0  0  0  0  0  0  0  0  0  0
   12.3782    5.4231   20.7777 C   0  0  0  0  0  0  0  0  0  0  0  0
    7.7365    4.6508   21.6987 C   0  0  0  0  0  0  0  0  0  0  0  0
   13.0186   11.0102   18.0020 C   0  0  0  0  0  0  0  0  0  0  0  0
    8.6628    5.7088   21.8871 N   0  0  0  0  0  0  0  0  0  0  0  0
    5.6516    3.5258   21.9140 C   0  0  0  0  0  0  0  0  0  0  0  0
   11.5863    9.6815   19.4539 C   0  0  0  0  0  0  0  0  0  0  0  0
   12.9648    4.1543   20.9205 C   0  0  0  0  0  0  0  0  0  0  0  0
    8.2089    3.6265   20.8929 C   0  0  0  0  0  0  0  0  0  0  0  0
    7.3827    2.5724   20.5432 C   0  0  0  0  0  0  0  0  0  0  0  0
   11.1529    7.2750   20.8025 C   0  0  0  0  0  0  0  0  0  0  0  0
   10.2573    8.3215   20.9827 C   0  0  0  0  0  0  0  0  0  0  0  0
   11.1606    5.9378   21.2366 N   0  0  0  0  0  0  0  0  0  0  0  0
    9.8932   11.6736   19.0677 O   0  0  0  0  0  0  0  0  0  0  0  0
    6.4470    4.5850   22.2321 C   0  0  0  0  0  0  0  0  0  0  0  0
    8.4619    6.9895   22.2968 C   0  0  0  0  0  0  0  0  0  0  0  0
   12.2747    7.5102   20.0420 C   0  0  0  0  0  0  0  0  0  0  0  0
   14.2544    6.2142   19.4191 C   0  0  0  0  0  0  0  0  0  0  0  0
   13.0695    6.3705   20.0375 N   0  0  0  0  0  0  0  0  0  0  0  0
    9.1913    8.0876   21.8361 N   0  0  0  0  0  0  0  0  0  0  0  0
   10.4739    9.4813   20.2889 C   0  0  0  0  0  0  0  0  0  0  0  0
    7.5551    7.1270   23.1200 O   0  0  0  0  0  0  0  0  0  0  0  0
  1 11  4  0
  1 21  4  0
  2  4  1  0
  2  8  1  0
  2 11  1  0
  3 10  4  0
  3 14  4  0
  4  5  1  0
  4 18  2  0
  6 12  1  0
  6 17  4  0
  6 23  4  0
  7  9  1  0
  7 13  4  0
  7 19  4  0
  9 20  1  0
 10 19  4  0
 11 25  4  0
 13 14  4  0
 15 16  4  0
 15 17  4  0
 15 21  4  0
 16 24  1  0
 16 25  4  0
 20 24  1  0
 20 26  2  0
 21 23  4  0
 22 23  1  0
M  END
$$$$

 Created by Python create_sdf_string function

 26 28  0  0  0  0  0  0  0  0999 V2000
   12.4616    8.6700   19.4180 N   0  0  0  0  0  0  0  0  0  0  0  0
   11.8329   10.8148   18.6769 N   0  0  0  0  0  0  0  0  0  0  0  0
    6.1021    2.5564   21.0678 C   0  0  0  0  0  0  0  0  0  0  0  0
   10.9097   11.8051   18.4804 C   0  0  0  0  0  0  0  0  0  0  0  0
   11.2280   12.9135   17.5669 C   0  0  0  0  0  0  0  0  0  0  0  0
   12.3782    5.4231   20.7777 C   0  0  0  0  0  0  0  0  0  0  0  0
    7.7365    4.6508   21.6987 C   0  0  0  0  0  0  0  0  0  0  0  0
   13.0186   11.0102   18.0020 C   0  0  0  0  0  0  0  0  0  0  0  0
    8.6628    5.7088   21.8871 N   0  0  0  0  0  0  0  0  0  0  0  0
    5.6516    3.5258   21.9140 C   0  0  0  0  0  0  0  0  0  0  0  0
   11.5863    9.6815   19.4539 C   0  0  0  0  0  0  0  0  0  0  0  0
   12.9648    4.1543   20.9205 C   0  0  0  0  0  0  0  0  0  0  0  0
    8.2089    3.6265   20.8929 C   0  0  0  0  0  0  0  0  0  0  0  0
    7.3827    2.5724   20.5432 C   0  0  0  0  0  0  0  0  0  0  0  0
   11.1529    7.2750   20.8025 C   0  0  0  0  0  0  0  0  0  0  0  0
   10.2573    8.3215   20.9827 C   0  0  0  0  0  0  0  0  0  0  0  0
   11.1606    5.9378   21.2366 N   0  0  0  0  0  0  0  0  0  0  0  0
    9.8932   11.6736   19.0677 O   0  0  0  0  0  0  0  0  0  0  0  0
    6.4470    4.5850   22.2321 C   0  0  0  0  0  0  0  0  0  0  0  0
    8.4619    6.9895   22.2968 C   0  0  0  0  0  0  0  0  0  0  0  0
   12.2747    7.5102   20.0420 C   0  0  0  0  0  0  0  0  0  0  0  0
   14.2544    6.2142   19.4191 C   0  0  0  0  0  0  0  0  0  0  0  0
   13.0695    6.3705   20.0375 N   0  0  0  0  0  0  0  0  0  0  0  0
    9.1913    8.0876   21.8361 N   0  0  0  0  0  0  0  0  0  0  0  0
   10.4739    9.4813   20.2889 C   0  0  0  0  0  0  0  0  0  0  0  0
    7.5551    7.1270   23.1200 O   0  0  0  0  0  0  0  0  0  0  0  0
  1 11  4  0
  1 21  4  0
  2  4  1  0
  2  8  1  0
  2 11  1  0
  3 10  4  0
  3 14  4  0
  4  5  1  0
  4 18  2  0
  6 12  1  0
  6 17  4  0
  6 23  4  0
  7  9  1  0
  7 13  4  0
  7 19  4  0
  9 20  1  0
 10 19  4  0
 11 25  4  0
 13 14  4  0
 15 16  4  0
 15 17  4  0
 15 21  4  0
 16 24  1  0
 16 25  4  0
 20 24  1  0
 20 26  2  0
 21 23  4  0
 22 23  1  0
M  END
$$$$

 Created by Python create_sdf_string function

 26 28  0  0  0  0  0  0  0  0999 V2000
   12.4616    8.6700   19.4180 N   0  0  0  0  0  0  0  0  0  0  0  0
   11.8329   10.8148   18.6769 N   0  0  0  0  0  0  0  0  0  0  0  0
    6.1021    2.5564   21.0678 C   0  0  0  0  0  0  0  0  0  0  0  0
   10.9097   11.8051   18.4804 C   0  0  0  0  0  0  0  0  0  0  0  0
   11.2280   12.9135   17.5669 C   0  0  0  0  0  0  0  0  0  0  0  0
   12.3782    5.4231   20.7777 C   0  0  0  0  0  0  0  0  0  0  0  0
    7.7365    4.6508   21.6987 C   0  0  0  0  0  0  0  0  0  0  0  0
   13.0186   11.0102   18.0020 C   0  0  0  0  0  0  0  0  0  0  0  0
    8.6628    5.7088   21.8871 N   0  0  0  0  0  0  0  0  0  0  0  0
    5.6516    3.5258   21.9140 C   0  0  0  0  0  0  0  0  0  0  0  0
   11.5863    9.6815   19.4539 C   0  0  0  0  0  0  0  0  0  0  0  0
   12.9648    4.1543   20.9205 C   0  0  0  0  0  0  0  0  0  0  0  0
    8.2089    3.6265   20.8929 C   0  0  0  0  0  0  0  0  0  0  0  0
    7.3827    2.5724   20.5432 C   0  0  0  0  0  0  0  0  0  0  0  0
   11.1529    7.2750   20.8025 C   0  0  0  0  0  0  0  0  0  0  0  0
   10.2573    8.3215   20.9827 C   0  0  0  0  0  0  0  0  0  0  0  0
   11.1606    5.9378   21.2366 N   0  0  0  0  0  0  0  0  0  0  0  0
    9.8932   11.6736   19.0677 O   0  0  0  0  0  0  0  0  0  0  0  0
    6.4470    4.5850   22.2321 C   0  0  0  0  0  0  0  0  0  0  0  0
    8.4619    6.9895   22.2968 C   0  0  0  0  0  0  0  0  0  0  0  0
   12.2747    7.5102   20.0420 C   0  0  0  0  0  0  0  0  0  0  0  0
   14.2544    6.2142   19.4191 C   0  0  0  0  0  0  0  0  0  0  0  0
   13.0695    6.3705   20.0375 N   0  0  0  0  0  0  0  0  0  0  0  0
    9.1913    8.0876   21.8361 N   0  0  0  0  0  0  0  0  0  0  0  0
   10.4739    9.4813   20.2889 C   0  0  0  0  0  0  0  0  0  0  0  0
    7.5551    7.1270   23.1200 O   0  0  0  0  0  0  0  0  0  0  0  0
  1 11  4  0
  1 21  4  0
  2  4  1  0
  2  8  1  0
  2 11  1  0
  3 10  4  0
  3 14  4  0
  4  5  1  0
  4 18  2  0
  6 12  1  0
  6 17  4  0
  6 23  4  0
  7  9  1  0
  7 13  4  0
  7 19  4  0
  9 20  1  0
 10 19  4  0
 11 25  4  0
 13 14  4  0
 15 16  4  0
 15 17  4  0
 15 21  4  0
 16 24  1  0
 16 25  4  0
 20 24  1  0
 20 26  2  0
 21 23  4  0
 22 23  1  0
M  END
$$$$

 Created by Python create_sdf_string function

 26 28  0  0  0  0  0  0  0  0999 V2000
   12.4616    8.6700   19.4180 N   0  0  0  0  0  0  0  0  0  0  0  0
   11.8329   10.8148   18.6769 N   0  0  0  0  0  0  0  0  0  0  0  0
    6.1021    2.5564   21.0678 C   0  0  0  0  0  0  0  0  0  0  0  0
   10.9097   11.8051   18.4804 C   0  0  0  0  0  0  0  0  0  0  0  0
   11.2280   12.9135   17.5669 C   0  0  0  0  0  0  0  0  0  0  0  0
   12.3782    5.4231   20.7777 C   0  0  0  0  0  0  0  0  0  0  0  0
    7.7365    4.6508   21.6987 C   0  0  0  0  0  0  0  0  0  0  0  0
   13.0186   11.0102   18.0020 C   0  0  0  0  0  0  0  0  0  0  0  0
    8.6628    5.7088   21.8871 N   0  0  0  0  0  0  0  0  0  0  0  0
    5.6516    3.5258   21.9140 C   0  0  0  0  0  0  0  0  0  0  0  0
   11.5863    9.6815   19.4539 C   0  0  0  0  0  0  0  0  0  0  0  0
   12.9648    4.1543   20.9205 C   0  0  0  0  0  0  0  0  0  0  0  0
    8.2089    3.6265   20.8929 C   0  0  0  0  0  0  0  0  0  0  0  0
    7.3827    2.5724   20.5432 C   0  0  0  0  0  0  0  0  0  0  0  0
   11.1529    7.2750   20.8025 C   0  0  0  0  0  0  0  0  0  0  0  0
   10.2573    8.3215   20.9827 C   0  0  0  0  0  0  0  0  0  0  0  0
   11.1606    5.9378   21.2366 N   0  0  0  0  0  0  0  0  0  0  0  0
    9.8932   11.6736   19.0677 O   0  0  0  0  0  0  0  0  0  0  0  0
    6.4470    4.5850   22.2321 C   0  0  0  0  0  0  0  0  0  0  0  0
    8.4619    6.9895   22.2968 C   0  0  0  0  0  0  0  0  0  0  0  0
   12.2747    7.5102   20.0420 C   0  0  0  0  0  0  0  0  0  0  0  0
   14.2544    6.2142   19.4191 C   0  0  0  0  0  0  0  0  0  0  0  0
   13.0695    6.3705   20.0375 N   0  0  0  0  0  0  0  0  0  0  0  0
    9.1913    8.0876   21.8361 N   0  0  0  0  0  0  0  0  0  0  0  0
   10.4739    9.4813   20.2889 C   0  0  0  0  0  0  0  0  0  0  0  0
    7.5551    7.1270   23.1200 O   0  0  0  0  0  0  0  0  0  0  0  0
  1 11  4  0
  1 21  4  0
  2  4  1  0
  2  8  1  0
  2 11  1  0
  3 10  4  0
  3 14  4  0
  4  5  1  0
  4 18  2  0
  6 12  1  0
  6 17  4  0
  6 23  4  0
  7  9  1  0
  7 13  4  0
  7 19  4  0
  9 20  1  0
 10 19  4  0
 11 25  4  0
 13 14  4  0
 15 16  4  0
 15 17  4  0
 15 21  4  0
 16 24  1  0
 16 25  4  0
 20 24  1  0
 20 26  2  0
 21 23  4  0
 22 23  1  0
M  END
$$$$

 Created by Python create_sdf_string function

 26 28  0  0  0  0  0  0  0  0999 V2000
   12.4616    8.6700   19.4180 N   0  0  0  0  0  0  0  0  0  0  0  0
   11.8329   10.8148   18.6769 N   0  0  0  0  0  0  0  0  0  0  0  0
    6.1021    2.5564   21.0678 C   0  0  0  0  0  0  0  0  0  0  0  0
   10.9097   11.8051   18.4804 C   0  0  0  0  0  0  0  0  0  0  0  0
   11.2280   12.9135   17.5669 C   0  0  0  0  0  0  0  0  0  0  0  0
   12.3782    5.4231   20.7777 C   0  0  0  0  0  0  0  0  0  0  0  0
    7.7365    4.6508   21.6987 C   0  0  0  0  0  0  0  0  0  0  0  0
   13.0186   11.0102   18.0020 C   0  0  0  0  0  0  0  0  0  0  0  0
    8.6628    5.7088   21.8871 N   0  0  0  0  0  0  0  0  0  0  0  0
    5.6516    3.5258   21.9140 C   0  0  0  0  0  0  0  0  0  0  0  0
   11.5863    9.6815   19.4539 C   0  0  0  0  0  0  0  0  0  0  0  0
   12.9648    4.1543   20.9205 C   0  0  0  0  0  0  0  0  0  0  0  0
    8.2089    3.6265   20.8929 C   0  0  0  0  0  0  0  0  0  0  0  0
    7.3827    2.5724   20.5432 C   0  0  0  0  0  0  0  0  0  0  0  0
   11.1529    7.2750   20.8025 C   0  0  0  0  0  0  0  0  0  0  0  0
   10.2573    8.3215   20.9827 C   0  0  0  0  0  0  0  0  0  0  0  0
   11.1606    5.9378   21.2366 N   0  0  0  0  0  0  0  0  0  0  0  0
    9.8932   11.6736   19.0677 O   0  0  0  0  0  0  0  0  0  0  0  0
    6.4470    4.5850   22.2321 C   0  0  0  0  0  0  0  0  0  0  0  0
    8.4619    6.9895   22.2968 C   0  0  0  0  0  0  0  0  0  0  0  0
   12.2747    7.5102   20.0420 C   0  0  0  0  0  0  0  0  0  0  0  0
   14.2544    6.2142   19.4191 C   0  0  0  0  0  0  0  0  0  0  0  0
   13.0695    6.3705   20.0375 N   0  0  0  0  0  0  0  0  0  0  0  0
    9.1913    8.0876   21.8361 N   0  0  0  0  0  0  0  0  0  0  0  0
   10.4739    9.4813   20.2889 C   0  0  0  0  0  0  0  0  0  0  0  0
    7.5551    7.1270   23.1200 O   0  0  0  0  0  0  0  0  0  0  0  0
  1 11  4  0
  1 21  4  0
  2  4  1  0
  2  8  1  0
  2 11  1  0
  3 10  4  0
  3 14  4  0
  4  5  1  0
  4 18  2  0
  6 12  1  0
  6 17  4  0
  6 23  4  0
  7  9  1  0
  7 13  4  0
  7 19  4  0
  9 20  1  0
 10 19  4  0
 11 25  4  0
 13 14  4  0
 15 16  4  0
 15 17  4  0
 15 21  4  0
 16 24  1  0
 16 25  4  0
 20 24  1  0
 20 26  2  0
 21 23  4  0
 22 23  1  0
M  END
$$$$

 Created by Python create_sdf_string function

 26 28  0  0  0  0  0  0  0  0999 V2000
   12.4616    8.6700   19.4180 N   0  0  0  0  0  0  0  0  0  0  0  0
   11.8329   10.8148   18.6769 N   0  0  0  0  0  0  0  0  0  0  0  0
    6.1021    2.5564   21.0678 C   0  0  0  0  0  0  0  0  0  0  0  0
   10.9097   11.8051   18.4804 C   0  0  0  0  0  0  0  0  0  0  0  0
   11.2280   12.9135   17.5669 C   0  0  0  0  0  0  0  0  0  0  0  0
   12.3782    5.4231   20.7777 C   0  0  0  0  0  0  0  0  0  0  0  0
    7.7365    4.6508   21.6987 C   0  0  0  0  0  0  0  0  0  0  0  0
   13.0186   11.0102   18.0020 C   0  0  0  0  0  0  0  0  0  0  0  0
    8.6628    5.7088   21.8871 N   0  0  0  0  0  0  0  0  0  0  0  0
    5.6516    3.5258   21.9140 C   0  0  0  0  0  0  0  0  0  0  0  0
   11.5863    9.6815   19.4539 C   0  0  0  0  0  0  0  0  0  0  0  0
   12.9648    4.1543   20.9205 C   0  0  0  0  0  0  0  0  0  0  0  0
    8.2089    3.6265   20.8929 C   0  0  0  0  0  0  0  0  0  0  0  0
    7.3827    2.5724   20.5432 C   0  0  0  0  0  0  0  0  0  0  0  0
   11.1529    7.2750   20.8025 C   0  0  0  0  0  0  0  0  0  0  0  0
   10.2573    8.3215   20.9827 C   0  0  0  0  0  0  0  0  0  0  0  0
   11.1606    5.9378   21.2366 N   0  0  0  0  0  0  0  0  0  0  0  0
    9.8932   11.6736   19.0677 O   0  0  0  0  0  0  0  0  0  0  0  0
    6.4470    4.5850   22.2321 C   0  0  0  0  0  0  0  0  0  0  0  0
    8.4619    6.9895   22.2968 C   0  0  0  0  0  0  0  0  0  0  0  0
   12.2747    7.5102   20.0420 C   0  0  0  0  0  0  0  0  0  0  0  0
   14.2544    6.2142   19.4191 C   0  0  0  0  0  0  0  0  0  0  0  0
   13.0695    6.3705   20.0375 N   0  0  0  0  0  0  0  0  0  0  0  0
    9.1913    8.0876   21.8361 N   0  0  0  0  0  0  0  0  0  0  0  0
   10.4739    9.4813   20.2889 C   0  0  0  0  0  0  0  0  0  0  0  0
    7.5551    7.1270   23.1200 O   0  0  0  0  0  0  0  0  0  0  0  0
  1 11  4  0
  1 21  4  0
  2  4  1  0
  2  8  1  0
  2 11  1  0
  3 10  4  0
  3 14  4  0
  4  5  1  0
  4 18  2  0
  6 12  1  0
  6 17  4  0
  6 23  4  0
  7  9  1  0
  7 13  4  0
  7 19  4  0
  9 20  1  0
 10 19  4  0
 11 25  4  0
 13 14  4  0
 15 16  4  0
 15 17  4  0
 15 21  4  0
 16 24  1  0
 16 25  4  0
 20 24  1  0
 20 26  2  0
 21 23  4  0
 22 23  1  0
M  END
$$$$

 Created by Python create_sdf_string function

 26 28  0  0  0  0  0  0  0  0999 V2000
   12.4616    8.6700   19.4180 N   0  0  0  0  0  0  0  0  0  0  0  0
   11.8329   10.8148   18.6769 N   0  0  0  0  0  0  0  0  0  0  0  0
    6.1021    2.5564   21.0678 C   0  0  0  0  0  0  0  0  0  0  0  0
   10.9097   11.8051   18.4804 C   0  0  0  0  0  0  0  0  0  0  0  0
   11.2280   12.9135   17.5669 C   0  0  0  0  0  0  0  0  0  0  0  0
   12.3782    5.4231   20.7777 C   0  0  0  0  0  0  0  0  0  0  0  0
    7.7365    4.6508   21.6987 C   0  0  0  0  0  0  0  0  0  0  0  0
   13.0186   11.0102   18.0020 C   0  0  0  0  0  0  0  0  0  0  0  0
    8.6628    5.7088   21.8871 N   0  0  0  0  0  0  0  0  0  0  0  0
    5.6516    3.5258   21.9140 C   0  0  0  0  0  0  0  0  0  0  0  0
   11.5863    9.6815   19.4539 C   0  0  0  0  0  0  0  0  0  0  0  0
   12.9648    4.1543   20.9205 C   0  0  0  0  0  0  0  0  0  0  0  0
    8.2089    3.6265   20.8929 C   0  0  0  0  0  0  0  0  0  0  0  0
    7.3827    2.5724   20.5432 C   0  0  0  0  0  0  0  0  0  0  0  0
   11.1529    7.2750   20.8025 C   0  0  0  0  0  0  0  0  0  0  0  0
   10.2573    8.3215   20.9827 C   0  0  0  0  0  0  0  0  0  0  0  0
   11.1606    5.9378   21.2366 N   0  0  0  0  0  0  0  0  0  0  0  0
    9.8932   11.6736   19.0677 O   0  0  0  0  0  0  0  0  0  0  0  0
    6.4470    4.5850   22.2321 C   0  0  0  0  0  0  0  0  0  0  0  0
    8.4619    6.9895   22.2968 C   0  0  0  0  0  0  0  0  0  0  0  0
   12.2747    7.5102   20.0420 C   0  0  0  0  0  0  0  0  0  0  0  0
   14.2544    6.2142   19.4191 C   0  0  0  0  0  0  0  0  0  0  0  0
   13.0695    6.3705   20.0375 N   0  0  0  0  0  0  0  0  0  0  0  0
    9.1913    8.0876   21.8361 N   0  0  0  0  0  0  0  0  0  0  0  0
   10.4739    9.4813   20.2889 C   0  0  0  0  0  0  0  0  0  0  0  0
    7.5551    7.1270   23.1200 O   0  0  0  0  0  0  0  0  0  0  0  0
  1 11  4  0
  1 21  4  0
  2  4  1  0
  2  8  1  0
  2 11  1  0
  3 10  4  0
  3 14  4  0
  4  5  1  0
  4 18  2  0
  6 12  1  0
  6 17  4  0
  6 23  4  0
  7  9  1  0
  7 13  4  0
  7 19  4  0
  9 20  1  0
 10 19  4  0
 11 25  4  0
 13 14  4  0
 15 16  4  0
 15 17  4  0
 15 21  4  0
 16 24  1  0
 16 25  4  0
 20 24  1  0
 20 26  2  0
 21 23  4  0
 22 23  1  0
M  END
$$$$

 Created by Python create_sdf_string function

 26 28  0  0  0  0  0  0  0  0999 V2000
   12.4616    8.6700   19.4180 N   0  0  0  0  0  0  0  0  0  0  0  0
   11.8329   10.8148   18.6769 N   0  0  0  0  0  0  0  0  0  0  0  0
    6.1021    2.5564   21.0678 C   0  0  0  0  0  0  0  0  0  0  0  0
   10.9097   11.8051   18.4804 C   0  0  0  0  0  0  0  0  0  0  0  0
   11.2280   12.9135   17.5669 C   0  0  0  0  0  0  0  0  0  0  0  0
   12.3782    5.4231   20.7777 C   0  0  0  0  0  0  0  0  0  0  0  0
    7.7365    4.6508   21.6987 C   0  0  0  0  0  0  0  0  0  0  0  0
   13.0186   11.0102   18.0020 C   0  0  0  0  0  0  0  0  0  0  0  0
    8.6628    5.7088   21.8871 N   0  0  0  0  0  0  0  0  0  0  0  0
    5.6516    3.5258   21.9140 C   0  0  0  0  0  0  0  0  0  0  0  0
   11.5863    9.6815   19.4539 C   0  0  0  0  0  0  0  0  0  0  0  0
   12.9648    4.1543   20.9205 C   0  0  0  0  0  0  0  0  0  0  0  0
    8.2089    3.6265   20.8929 C   0  0  0  0  0  0  0  0  0  0  0  0
    7.3827    2.5724   20.5432 C   0  0  0  0  0  0  0  0  0  0  0  0
   11.1529    7.2750   20.8025 C   0  0  0  0  0  0  0  0  0  0  0  0
   10.2573    8.3215   20.9827 C   0  0  0  0  0  0  0  0  0  0  0  0
   11.1606    5.9378   21.2366 N   0  0  0  0  0  0  0  0  0  0  0  0
    9.8932   11.6736   19.0677 O   0  0  0  0  0  0  0  0  0  0  0  0
    6.4470    4.5850   22.2321 C   0  0  0  0  0  0  0  0  0  0  0  0
    8.4619    6.9895   22.2968 C   0  0  0  0  0  0  0  0  0  0  0  0
   12.2747    7.5102   20.0420 C   0  0  0  0  0  0  0  0  0  0  0  0
   14.2544    6.2142   19.4191 C   0  0  0  0  0  0  0  0  0  0  0  0
   13.0695    6.3705   20.0375 N   0  0  0  0  0  0  0  0  0  0  0  0
    9.1913    8.0876   21.8361 N   0  0  0  0  0  0  0  0  0  0  0  0
   10.4739    9.4813   20.2889 C   0  0  0  0  0  0  0  0  0  0  0  0
    7.5551    7.1270   23.1200 O   0  0  0  0  0  0  0  0  0  0  0  0
  1 11  4  0
  1 21  4  0
  2  4  1  0
  2  8  1  0
  2 11  1  0
  3 10  4  0
  3 14  4  0
  4  5  1  0
  4 18  2  0
  6 12  1  0
  6 17  4  0
  6 23  4  0
  7  9  1  0
  7 13  4  0
  7 19  4  0
  9 20  1  0
 10 19  4  0
 11 25  4  0
 13 14  4  0
 15 16  4  0
 15 17  4  0
 15 21  4  0
 16 24  1  0
 16 25  4  0
 20 24  1  0
 20 26  2  0
 21 23  4  0
 22 23  1  0
M  END
$$$$

 Created by Python create_sdf_string function

 26 28  0  0  0  0  0  0  0  0999 V2000
   12.4616    8.6700   19.4180 N   0  0  0  0  0  0  0  0  0  0  0  0
   11.8329   10.8148   18.6769 N   0  0  0  0  0  0  0  0  0  0  0  0
    6.1021    2.5564   21.0678 C   0  0  0  0  0  0  0  0  0  0  0  0
   10.9097   11.8051   18.4804 C   0  0  0  0  0  0  0  0  0  0  0  0
   11.2280   12.9135   17.5669 C   0  0  0  0  0  0  0  0  0  0  0  0
   12.3782    5.4231   20.7777 C   0  0  0  0  0  0  0  0  0  0  0  0
    7.7365    4.6508   21.6987 C   0  0  0  0  0  0  0  0  0  0  0  0
   13.0186   11.0102   18.0020 C   0  0  0  0  0  0  0  0  0  0  0  0
    8.6628    5.7088   21.8871 N   0  0  0  0  0  0  0  0  0  0  0  0
    5.6516    3.5258   21.9140 C   0  0  0  0  0  0  0  0  0  0  0  0
   11.5863    9.6815   19.4539 C   0  0  0  0  0  0  0  0  0  0  0  0
   12.9648    4.1543   20.9205 C   0  0  0  0  0  0  0  0  0  0  0  0
    8.2089    3.6265   20.8929 C   0  0  0  0  0  0  0  0  0  0  0  0
    7.3827    2.5724   20.5432 C   0  0  0  0  0  0  0  0  0  0  0  0
   11.1529    7.2750   20.8025 C   0  0  0  0  0  0  0  0  0  0  0  0
   10.2573    8.3215   20.9827 C   0  0  0  0  0  0  0  0  0  0  0  0
   11.1606    5.9378   21.2366 N   0  0  0  0  0  0  0  0  0  0  0  0
    9.8932   11.6736   19.0677 O   0  0  0  0  0  0  0  0  0  0  0  0
    6.4470    4.5850   22.2321 C   0  0  0  0  0  0  0  0  0  0  0  0
    8.4619    6.9895   22.2968 C   0  0  0  0  0  0  0  0  0  0  0  0
   12.2747    7.5102   20.0420 C   0  0  0  0  0  0  0  0  0  0  0  0
   14.2544    6.2142   19.4191 C   0  0  0  0  0  0  0  0  0  0  0  0
   13.0695    6.3705   20.0375 N   0  0  0  0  0  0  0  0  0  0  0  0
    9.1913    8.0876   21.8361 N   0  0  0  0  0  0  0  0  0  0  0  0
   10.4739    9.4813   20.2889 C   0  0  0  0  0  0  0  0  0  0  0  0
    7.5551    7.1270   23.1200 O   0  0  0  0  0  0  0  0  0  0  0  0
  1 11  4  0
  1 21  4  0
  2  4  1  0
  2  8  1  0
  2 11  1  0
  3 10  4  0
  3 14  4  0
  4  5  1  0
  4 18  2  0
  6 12  1  0
  6 17  4  0
  6 23  4  0
  7  9  1  0
  7 13  4  0
  7 19  4  0
  9 20  1  0
 10 19  4  0
 11 25  4  0
 13 14  4  0
 15 16  4  0
 15 17  4  0
 15 21  4  0
 16 24  1  0
 16 25  4  0
 20 24  1  0
 20 26  2  0
 21 23  4  0
 22 23  1  0
M  END
$$$$

 Created by Python create_sdf_string function

 26 28  0  0  0  0  0  0  0  0999 V2000
   12.4616    8.6700   19.4180 N   0  0  0  0  0  0  0  0  0  0  0  0
   11.8329   10.8148   18.6769 N   0  0  0  0  0  0  0  0  0  0  0  0
    6.1021    2.5564   21.0678 C   0  0  0  0  0  0  0  0  0  0  0  0
   10.9097   11.8051   18.4804 C   0  0  0  0  0  0  0  0  0  0  0  0
   11.2280   12.9135   17.5669 C   0  0  0  0  0  0  0  0  0  0  0  0
   12.3782    5.4231   20.7777 C   0  0  0  0  0  0  0  0  0  0  0  0
    7.7365    4.6508   21.6987 C   0  0  0  0  0  0  0  0  0  0  0  0
   13.0186   11.0102   18.0020 C   0  0  0  0  0  0  0  0  0  0  0  0
    8.6628    5.7088   21.8871 N   0  0  0  0  0  0  0  0  0  0  0  0
    5.6516    3.5258   21.9140 C   0  0  0  0  0  0  0  0  0  0  0  0
   11.5863    9.6815   19.4539 C   0  0  0  0  0  0  0  0  0  0  0  0
   12.9648    4.1543   20.9205 C   0  0  0  0  0  0  0  0  0  0  0  0
    8.2089    3.6265   20.8929 C   0  0  0  0  0  0  0  0  0  0  0  0
    7.3827    2.5724   20.5432 C   0  0  0  0  0  0  0  0  0  0  0  0
   11.1529    7.2750   20.8025 C   0  0  0  0  0  0  0  0  0  0  0  0
   10.2573    8.3215   20.9827 C   0  0  0  0  0  0  0  0  0  0  0  0
   11.1606    5.9378   21.2366 N   0  0  0  0  0  0  0  0  0  0  0  0
    9.8932   11.6736   19.0677 O   0  0  0  0  0  0  0  0  0  0  0  0
    6.4470    4.5850   22.2321 C   0  0  0  0  0  0  0  0  0  0  0  0
    8.4619    6.9895   22.2968 C   0  0  0  0  0  0  0  0  0  0  0  0
   12.2747    7.5102   20.0420 C   0  0  0  0  0  0  0  0  0  0  0  0
   14.2544    6.2142   19.4191 C   0  0  0  0  0  0  0  0  0  0  0  0
   13.0695    6.3705   20.0375 N   0  0  0  0  0  0  0  0  0  0  0  0
    9.1913    8.0876   21.8361 N   0  0  0  0  0  0  0  0  0  0  0  0
   10.4739    9.4813   20.2889 C   0  0  0  0  0  0  0  0  0  0  0  0
    7.5551    7.1270   23.1200 O   0  0  0  0  0  0  0  0  0  0  0  0
  1 11  4  0
  1 21  4  0
  2  4  1  0
  2  8  1  0
  2 11  1  0
  3 10  4  0
  3 14  4  0
  4  5  1  0
  4 18  2  0
  6 12  1  0
  6 17  4  0
  6 23  4  0
  7  9  1  0
  7 13  4  0
  7 19  4  0
  9 20  1  0
 10 19  4  0
 11 25  4  0
 13 14  4  0
 15 16  4  0
 15 17  4  0
 15 21  4  0
 16 24  1  0
 16 25  4  0
 20 24  1  0
 20 26  2  0
 21 23  4  0
 22 23  1  0
M  END
$$$$

 Created by Python create_sdf_string function

 26 28  0  0  0  0  0  0  0  0999 V2000
   12.4616    8.6700   19.4180 N   0  0  0  0  0  0  0  0  0  0  0  0
   11.8329   10.8148   18.6769 N   0  0  0  0  0  0  0  0  0  0  0  0
    6.1021    2.5564   21.0678 C   0  0  0  0  0  0  0  0  0  0  0  0
   10.9097   11.8051   18.4804 C   0  0  0  0  0  0  0  0  0  0  0  0
   11.2280   12.9135   17.5669 C   0  0  0  0  0  0  0  0  0  0  0  0
   12.3782    5.4231   20.7777 C   0  0  0  0  0  0  0  0  0  0  0  0
    7.7365    4.6508   21.6987 C   0  0  0  0  0  0  0  0  0  0  0  0
   13.0186   11.0102   18.0020 C   0  0  0  0  0  0  0  0  0  0  0  0
    8.6628    5.7088   21.8871 N   0  0  0  0  0  0  0  0  0  0  0  0
    5.6516    3.5258   21.9140 C   0  0  0  0  0  0  0  0  0  0  0  0
   11.5863    9.6815   19.4539 C   0  0  0  0  0  0  0  0  0  0  0  0
   12.9648    4.1543   20.9205 C   0  0  0  0  0  0  0  0  0  0  0  0
    8.2089    3.6265   20.8929 C   0  0  0  0  0  0  0  0  0  0  0  0
    7.3827    2.5724   20.5432 C   0  0  0  0  0  0  0  0  0  0  0  0
   11.1529    7.2750   20.8025 C   0  0  0  0  0  0  0  0  0  0  0  0
   10.2573    8.3215   20.9827 C   0  0  0  0  0  0  0  0  0  0  0  0
   11.1606    5.9378   21.2366 N   0  0  0  0  0  0  0  0  0  0  0  0
    9.8932   11.6736   19.0677 O   0  0  0  0  0  0  0  0  0  0  0  0
    6.4470    4.5850   22.2321 C   0  0  0  0  0  0  0  0  0  0  0  0
    8.4619    6.9895   22.2968 C   0  0  0  0  0  0  0  0  0  0  0  0
   12.2747    7.5102   20.0420 C   0  0  0  0  0  0  0  0  0  0  0  0
   14.2544    6.2142   19.4191 C   0  0  0  0  0  0  0  0  0  0  0  0
   13.0695    6.3705   20.0375 N   0  0  0  0  0  0  0  0  0  0  0  0
    9.1913    8.0876   21.8361 N   0  0  0  0  0  0  0  0  0  0  0  0
   10.4739    9.4813   20.2889 C   0  0  0  0  0  0  0  0  0  0  0  0
    7.5551    7.1270   23.1200 O   0  0  0  0  0  0  0  0  0  0  0  0
  1 11  4  0
  1 21  4  0
  2  4  1  0
  2  8  1  0
  2 11  1  0
  3 10  4  0
  3 14  4  0
  4  5  1  0
  4 18  2  0
  6 12  1  0
  6 17  4  0
  6 23  4  0
  7  9  1  0
  7 13  4  0
  7 19  4  0
  9 20  1  0
 10 19  4  0
 11 25  4  0
 13 14  4  0
 15 16  4  0
 15 17  4  0
 15 21  4  0
 16 24  1  0
 16 25  4  0
 20 24  1  0
 20 26  2  0
 21 23  4  0
 22 23  1  0
M  END
$$$$

 Created by Python create_sdf_string function

 26 28  0  0  0  0  0  0  0  0999 V2000
   12.4616    8.6700   19.4180 N   0  0  0  0  0  0  0  0  0  0  0  0
   11.8329   10.8148   18.6769 N   0  0  0  0  0  0  0  0  0  0  0  0
    6.1021    2.5564   21.0678 C   0  0  0  0  0  0  0  0  0  0  0  0
   10.9097   11.8051   18.4804 C   0  0  0  0  0  0  0  0  0  0  0  0
   11.2280   12.9135   17.5669 C   0  0  0  0  0  0  0  0  0  0  0  0
   12.3782    5.4231   20.7777 C   0  0  0  0  0  0  0  0  0  0  0  0
    7.7365    4.6508   21.6987 C   0  0  0  0  0  0  0  0  0  0  0  0
   13.0186   11.0102   18.0020 C   0  0  0  0  0  0  0  0  0  0  0  0
    8.6628    5.7088   21.8871 N   0  0  0  0  0  0  0  0  0  0  0  0
    5.6516    3.5258   21.9140 C   0  0  0  0  0  0  0  0  0  0  0  0
   11.5863    9.6815   19.4539 C   0  0  0  0  0  0  0  0  0  0  0  0
   12.9648    4.1543   20.9205 C   0  0  0  0  0  0  0  0  0  0  0  0
    8.2089    3.6265   20.8929 C   0  0  0  0  0  0  0  0  0  0  0  0
    7.3827    2.5724   20.5432 C   0  0  0  0  0  0  0  0  0  0  0  0
   11.1529    7.2750   20.8025 C   0  0  0  0  0  0  0  0  0  0  0  0
   10.2573    8.3215   20.9827 C   0  0  0  0  0  0  0  0  0  0  0  0
   11.1606    5.9378   21.2366 N   0  0  0  0  0  0  0  0  0  0  0  0
    9.8932   11.6736   19.0677 O   0  0  0  0  0  0  0  0  0  0  0  0
    6.4470    4.5850   22.2321 C   0  0  0  0  0  0  0  0  0  0  0  0
    8.4619    6.9895   22.2968 C   0  0  0  0  0  0  0  0  0  0  0  0
   12.2747    7.5102   20.0420 C   0  0  0  0  0  0  0  0  0  0  0  0
   14.2544    6.2142   19.4191 C   0  0  0  0  0  0  0  0  0  0  0  0
   13.0695    6.3705   20.0375 N   0  0  0  0  0  0  0  0  0  0  0  0
    9.1913    8.0876   21.8361 N   0  0  0  0  0  0  0  0  0  0  0  0
   10.4739    9.4813   20.2889 C   0  0  0  0  0  0  0  0  0  0  0  0
    7.5551    7.1270   23.1200 O   0  0  0  0  0  0  0  0  0  0  0  0
  1 11  4  0
  1 21  4  0
  2  4  1  0
  2  8  1  0
  2 11  1  0
  3 10  4  0
  3 14  4  0
  4  5  1  0
  4 18  2  0
  6 12  1  0
  6 17  4  0
  6 23  4  0
  7  9  1  0
  7 13  4  0
  7 19  4  0
  9 20  1  0
 10 19  4  0
 11 25  4  0
 13 14  4  0
 15 16  4  0
 15 17  4  0
 15 21  4  0
 16 24  1  0
 16 25  4  0
 20 24  1  0
 20 26  2  0
 21 23  4  0
 22 23  1  0
M  END
$$$$

 Created by Python create_sdf_string function

 26 28  0  0  0  0  0  0  0  0999 V2000
   12.4616    8.6700   19.4180 N   0  0  0  0  0  0  0  0  0  0  0  0
   11.8329   10.8148   18.6769 N   0  0  0  0  0  0  0  0  0  0  0  0
    6.1021    2.5564   21.0678 C   0  0  0  0  0  0  0  0  0  0  0  0
   10.9097   11.8051   18.4804 C   0  0  0  0  0  0  0  0  0  0  0  0
   11.2280   12.9135   17.5669 C   0  0  0  0  0  0  0  0  0  0  0  0
   12.3782    5.4231   20.7777 C   0  0  0  0  0  0  0  0  0  0  0  0
    7.7365    4.6508   21.6987 C   0  0  0  0  0  0  0  0  0  0  0  0
   13.0186   11.0102   18.0020 C   0  0  0  0  0  0  0  0  0  0  0  0
    8.6628    5.7088   21.8871 N   0  0  0  0  0  0  0  0  0  0  0  0
    5.6516    3.5258   21.9140 C   0  0  0  0  0  0  0  0  0  0  0  0
   11.5863    9.6815   19.4539 C   0  0  0  0  0  0  0  0  0  0  0  0
   12.9648    4.1543   20.9205 C   0  0  0  0  0  0  0  0  0  0  0  0
    8.2089    3.6265   20.8929 C   0  0  0  0  0  0  0  0  0  0  0  0
    7.3827    2.5724   20.5432 C   0  0  0  0  0  0  0  0  0  0  0  0
   11.1529    7.2750   20.8025 C   0  0  0  0  0  0  0  0  0  0  0  0
   10.2573    8.3215   20.9827 C   0  0  0  0  0  0  0  0  0  0  0  0
   11.1606    5.9378   21.2366 N   0  0  0  0  0  0  0  0  0  0  0  0
    9.8932   11.6736   19.0677 O   0  0  0  0  0  0  0  0  0  0  0  0
    6.4470    4.5850   22.2321 C   0  0  0  0  0  0  0  0  0  0  0  0
    8.4619    6.9895   22.2968 C   0  0  0  0  0  0  0  0  0  0  0  0
   12.2747    7.5102   20.0420 C   0  0  0  0  0  0  0  0  0  0  0  0
   14.2544    6.2142   19.4191 C   0  0  0  0  0  0  0  0  0  0  0  0
   13.0695    6.3705   20.0375 N   0  0  0  0  0  0  0  0  0  0  0  0
    9.1913    8.0876   21.8361 N   0  0  0  0  0  0  0  0  0  0  0  0
   10.4739    9.4813   20.2889 C   0  0  0  0  0  0  0  0  0  0  0  0
    7.5551    7.1270   23.1200 O   0  0  0  0  0  0  0  0  0  0  0  0
  1 11  4  0
  1 21  4  0
  2  4  1  0
  2  8  1  0
  2 11  1  0
  3 10  4  0
  3 14  4  0
  4  5  1  0
  4 18  2  0
  6 12  1  0
  6 17  4  0
  6 23  4  0
  7  9  1  0
  7 13  4  0
  7 19  4  0
  9 20  1  0
 10 19  4  0
 11 25  4  0
 13 14  4  0
 15 16  4  0
 15 17  4  0
 15 21  4  0
 16 24  1  0
 16 25  4  0
 20 24  1  0
 20 26  2  0
 21 23  4  0
 22 23  1  0
M  END
$$$$

 Created by Python create_sdf_string function

 26 28  0  0  0  0  0  0  0  0999 V2000
   12.4616    8.6700   19.4180 N   0  0  0  0  0  0  0  0  0  0  0  0
   11.8329   10.8148   18.6769 N   0  0  0  0  0  0  0  0  0  0  0  0
    6.1021    2.5564   21.0678 C   0  0  0  0  0  0  0  0  0  0  0  0
   10.9097   11.8051   18.4804 C   0  0  0  0  0  0  0  0  0  0  0  0
   11.2280   12.9135   17.5669 C   0  0  0  0  0  0  0  0  0  0  0  0
   12.3782    5.4231   20.7777 C   0  0  0  0  0  0  0  0  0  0  0  0
    7.7365    4.6508   21.6987 C   0  0  0  0  0  0  0  0  0  0  0  0
   13.0186   11.0102   18.0020 C   0  0  0  0  0  0  0  0  0  0  0  0
    8.6628    5.7088   21.8871 N   0  0  0  0  0  0  0  0  0  0  0  0
    5.6516    3.5258   21.9140 C   0  0  0  0  0  0  0  0  0  0  0  0
   11.5863    9.6815   19.4539 C   0  0  0  0  0  0  0  0  0  0  0  0
   12.9648    4.1543   20.9205 C   0  0  0  0  0  0  0  0  0  0  0  0
    8.2089    3.6265   20.8929 C   0  0  0  0  0  0  0  0  0  0  0  0
    7.3827    2.5724   20.5432 C   0  0  0  0  0  0  0  0  0  0  0  0
   11.1529    7.2750   20.8025 C   0  0  0  0  0  0  0  0  0  0  0  0
   10.2573    8.3215   20.9827 C   0  0  0  0  0  0  0  0  0  0  0  0
   11.1606    5.9378   21.2366 N   0  0  0  0  0  0  0  0  0  0  0  0
    9.8932   11.6736   19.0677 O   0  0  0  0  0  0  0  0  0  0  0  0
    6.4470    4.5850   22.2321 C   0  0  0  0  0  0  0  0  0  0  0  0
    8.4619    6.9895   22.2968 C   0  0  0  0  0  0  0  0  0  0  0  0
   12.2747    7.5102   20.0420 C   0  0  0  0  0  0  0  0  0  0  0  0
   14.2544    6.2142   19.4191 C   0  0  0  0  0  0  0  0  0  0  0  0
   13.0695    6.3705   20.0375 N   0  0  0  0  0  0  0  0  0  0  0  0
    9.1913    8.0876   21.8361 N   0  0  0  0  0  0  0  0  0  0  0  0
   10.4739    9.4813   20.2889 C   0  0  0  0  0  0  0  0  0  0  0  0
    7.5551    7.1270   23.1200 O   0  0  0  0  0  0  0  0  0  0  0  0
  1 11  4  0
  1 21  4  0
  2  4  1  0
  2  8  1  0
  2 11  1  0
  3 10  4  0
  3 14  4  0
  4  5  1  0
  4 18  2  0
  6 12  1  0
  6 17  4  0
  6 23  4  0
  7  9  1  0
  7 13  4  0
  7 19  4  0
  9 20  1  0
 10 19  4  0
 11 25  4  0
 13 14  4  0
 15 16  4  0
 15 17  4  0
 15 21  4  0
 16 24  1  0
 16 25  4  0
 20 24  1  0
 20 26  2  0
 21 23  4  0
 22 23  1  0
M  END
$$$$

 Created by Python create_sdf_string function

 26 28  0  0  0  0  0  0  0  0999 V2000
   12.4616    8.6700   19.4180 N   0  0  0  0  0  0  0  0  0  0  0  0
   11.8329   10.8148   18.6769 N   0  0  0  0  0  0  0  0  0  0  0  0
    6.1021    2.5564   21.0678 C   0  0  0  0  0  0  0  0  0  0  0  0
   10.9097   11.8051   18.4804 C   0  0  0  0  0  0  0  0  0  0  0  0
   11.2280   12.9135   17.5669 C   0  0  0  0  0  0  0  0  0  0  0  0
   12.3782    5.4231   20.7777 C   0  0  0  0  0  0  0  0  0  0  0  0
    7.7365    4.6508   21.6987 C   0  0  0  0  0  0  0  0  0  0  0  0
   13.0186   11.0102   18.0020 C   0  0  0  0  0  0  0  0  0  0  0  0
    8.6628    5.7088   21.8871 N   0  0  0  0  0  0  0  0  0  0  0  0
    5.6516    3.5258   21.9140 C   0  0  0  0  0  0  0  0  0  0  0  0
   11.5863    9.6815   19.4539 C   0  0  0  0  0  0  0  0  0  0  0  0
   12.9648    4.1543   20.9205 C   0  0  0  0  0  0  0  0  0  0  0  0
    8.2089    3.6265   20.8929 C   0  0  0  0  0  0  0  0  0  0  0  0
    7.3827    2.5724   20.5432 C   0  0  0  0  0  0  0  0  0  0  0  0
   11.1529    7.2750   20.8025 C   0  0  0  0  0  0  0  0  0  0  0  0
   10.2573    8.3215   20.9827 C   0  0  0  0  0  0  0  0  0  0  0  0
   11.1606    5.9378   21.2366 N   0  0  0  0  0  0  0  0  0  0  0  0
    9.8932   11.6736   19.0677 O   0  0  0  0  0  0  0  0  0  0  0  0
    6.4470    4.5850   22.2321 C   0  0  0  0  0  0  0  0  0  0  0  0
    8.4619    6.9895   22.2968 C   0  0  0  0  0  0  0  0  0  0  0  0
   12.2747    7.5102   20.0420 C   0  0  0  0  0  0  0  0  0  0  0  0
   14.2544    6.2142   19.4191 C   0  0  0  0  0  0  0  0  0  0  0  0
   13.0695    6.3705   20.0375 N   0  0  0  0  0  0  0  0  0  0  0  0
    9.1913    8.0876   21.8361 N   0  0  0  0  0  0  0  0  0  0  0  0
   10.4739    9.4813   20.2889 C   0  0  0  0  0  0  0  0  0  0  0  0
    7.5551    7.1270   23.1200 O   0  0  0  0  0  0  0  0  0  0  0  0
  1 11  4  0
  1 21  4  0
  2  4  1  0
  2  8  1  0
  2 11  1  0
  3 10  4  0
  3 14  4  0
  4  5  1  0
  4 18  2  0
  6 12  1  0
  6 17  4  0
  6 23  4  0
  7  9  1  0
  7 13  4  0
  7 19  4  0
  9 20  1  0
 10 19  4  0
 11 25  4  0
 13 14  4  0
 15 16  4  0
 15 17  4  0
 15 21  4  0
 16 24  1  0
 16 25  4  0
 20 24  1  0
 20 26  2  0
 21 23  4  0
 22 23  1  0
M  END
$$$$

 Created by Python create_sdf_string function

 26 28  0  0  0  0  0  0  0  0999 V2000
   12.4616    8.6700   19.4180 N   0  0  0  0  0  0  0  0  0  0  0  0
   11.8329   10.8148   18.6769 N   0  0  0  0  0  0  0  0  0  0  0  0
    6.1021    2.5564   21.0678 C   0  0  0  0  0  0  0  0  0  0  0  0
   10.9097   11.8051   18.4804 C   0  0  0  0  0  0  0  0  0  0  0  0
   11.2280   12.9135   17.5669 C   0  0  0  0  0  0  0  0  0  0  0  0
   12.3782    5.4231   20.7777 C   0  0  0  0  0  0  0  0  0  0  0  0
    7.7365    4.6508   21.6987 C   0  0  0  0  0  0  0  0  0  0  0  0
   13.0186   11.0102   18.0020 C   0  0  0  0  0  0  0  0  0  0  0  0
    8.6628    5.7088   21.8871 N   0  0  0  0  0  0  0  0  0  0  0  0
    5.6516    3.5258   21.9140 C   0  0  0  0  0  0  0  0  0  0  0  0
   11.5863    9.6815   19.4539 C   0  0  0  0  0  0  0  0  0  0  0  0
   12.9648    4.1543   20.9205 C   0  0  0  0  0  0  0  0  0  0  0  0
    8.2089    3.6265   20.8929 C   0  0  0  0  0  0  0  0  0  0  0  0
    7.3827    2.5724   20.5432 C   0  0  0  0  0  0  0  0  0  0  0  0
   11.1529    7.2750   20.8025 C   0  0  0  0  0  0  0  0  0  0  0  0
   10.2573    8.3215   20.9827 C   0  0  0  0  0  0  0  0  0  0  0  0
   11.1606    5.9378   21.2366 N   0  0  0  0  0  0  0  0  0  0  0  0
    9.8932   11.6736   19.0677 O   0  0  0  0  0  0  0  0  0  0  0  0
    6.4470    4.5850   22.2321 C   0  0  0  0  0  0  0  0  0  0  0  0
    8.4619    6.9895   22.2968 C   0  0  0  0  0  0  0  0  0  0  0  0
   12.2747    7.5102   20.0420 C   0  0  0  0  0  0  0  0  0  0  0  0
   14.2544    6.2142   19.4191 C   0  0  0  0  0  0  0  0  0  0  0  0
   13.0695    6.3705   20.0375 N   0  0  0  0  0  0  0  0  0  0  0  0
    9.1913    8.0876   21.8361 N   0  0  0  0  0  0  0  0  0  0  0  0
   10.4739    9.4813   20.2889 C   0  0  0  0  0  0  0  0  0  0  0  0
    7.5551    7.1270   23.1200 O   0  0  0  0  0  0  0  0  0  0  0  0
  1 11  4  0
  1 21  4  0
  2  4  1  0
  2  8  1  0
  2 11  1  0
  3 10  4  0
  3 14  4  0
  4  5  1  0
  4 18  2  0
  6 12  1  0
  6 17  4  0
  6 23  4  0
  7  9  1  0
  7 13  4  0
  7 19  4  0
  9 20  1  0
 10 19  4  0
 11 25  4  0
 13 14  4  0
 15 16  4  0
 15 17  4  0
 15 21  4  0
 16 24  1  0
 16 25  4  0
 20 24  1  0
 20 26  2  0
 21 23  4  0
 22 23  1  0
M  END
$$$$

 Created by Python create_sdf_string function

 26 28  0  0  0  0  0  0  0  0999 V2000
   12.4616    8.6700   19.4180 N   0  0  0  0  0  0  0  0  0  0  0  0
   11.8329   10.8148   18.6769 N   0  0  0  0  0  0  0  0  0  0  0  0
    6.1021    2.5564   21.0678 C   0  0  0  0  0  0  0  0  0  0  0  0
   10.9097   11.8051   18.4804 C   0  0  0  0  0  0  0  0  0  0  0  0
   11.2280   12.9135   17.5669 C   0  0  0  0  0  0  0  0  0  0  0  0
   12.3782    5.4231   20.7777 C   0  0  0  0  0  0  0  0  0  0  0  0
    7.7365    4.6508   21.6987 C   0  0  0  0  0  0  0  0  0  0  0  0
   13.0186   11.0102   18.0020 C   0  0  0  0  0  0  0  0  0  0  0  0
    8.6628    5.7088   21.8871 N   0  0  0  0  0  0  0  0  0  0  0  0
    5.6516    3.5258   21.9140 C   0  0  0  0  0  0  0  0  0  0  0  0
   11.5863    9.6815   19.4539 C   0  0  0  0  0  0  0  0  0  0  0  0
   12.9648    4.1543   20.9205 C   0  0  0  0  0  0  0  0  0  0  0  0
    8.2089    3.6265   20.8929 C   0  0  0  0  0  0  0  0  0  0  0  0
    7.3827    2.5724   20.5432 C   0  0  0  0  0  0  0  0  0  0  0  0
   11.1529    7.2750   20.8025 C   0  0  0  0  0  0  0  0  0  0  0  0
   10.2573    8.3215   20.9827 C   0  0  0  0  0  0  0  0  0  0  0  0
   11.1606    5.9378   21.2366 N   0  0  0  0  0  0  0  0  0  0  0  0
    9.8932   11.6736   19.0677 O   0  0  0  0  0  0  0  0  0  0  0  0
    6.4470    4.5850   22.2321 C   0  0  0  0  0  0  0  0  0  0  0  0
    8.4619    6.9895   22.2968 C   0  0  0  0  0  0  0  0  0  0  0  0
   12.2747    7.5102   20.0420 C   0  0  0  0  0  0  0  0  0  0  0  0
   14.2544    6.2142   19.4191 C   0  0  0  0  0  0  0  0  0  0  0  0
   13.0695    6.3705   20.0375 N   0  0  0  0  0  0  0  0  0  0  0  0
    9.1913    8.0876   21.8361 N   0  0  0  0  0  0  0  0  0  0  0  0
   10.4739    9.4813   20.2889 C   0  0  0  0  0  0  0  0  0  0  0  0
    7.5551    7.1270   23.1200 O   0  0  0  0  0  0  0  0  0  0  0  0
  1 11  4  0
  1 21  4  0
  2  4  1  0
  2  8  1  0
  2 11  1  0
  3 10  4  0
  3 14  4  0
  4  5  1  0
  4 18  2  0
  6 12  1  0
  6 17  4  0
  6 23  4  0
  7  9  1  0
  7 13  4  0
  7 19  4  0
  9 20  1  0
 10 19  4  0
 11 25  4  0
 13 14  4  0
 15 16  4  0
 15 17  4  0
 15 21  4  0
 16 24  1  0
 16 25  4  0
 20 24  1  0
 20 26  2  0
 21 23  4  0
 22 23  1  0
M  END
$$$$

 Created by Python create_sdf_string function

 26 28  0  0  0  0  0  0  0  0999 V2000
   12.4616    8.6700   19.4180 N   0  0  0  0  0  0  0  0  0  0  0  0
   11.8329   10.8148   18.6769 N   0  0  0  0  0  0  0  0  0  0  0  0
    6.1021    2.5564   21.0678 C   0  0  0  0  0  0  0  0  0  0  0  0
   10.9097   11.8051   18.4804 C   0  0  0  0  0  0  0  0  0  0  0  0
   11.2280   12.9135   17.5669 C   0  0  0  0  0  0  0  0  0  0  0  0
   12.3782    5.4231   20.7777 C   0  0  0  0  0  0  0  0  0  0  0  0
    7.7365    4.6508   21.6987 C   0  0  0  0  0  0  0  0  0  0  0  0
   13.0186   11.0102   18.0020 C   0  0  0  0  0  0  0  0  0  0  0  0
    8.6628    5.7088   21.8871 N   0  0  0  0  0  0  0  0  0  0  0  0
    5.6516    3.5258   21.9140 C   0  0  0  0  0  0  0  0  0  0  0  0
   11.5863    9.6815   19.4539 C   0  0  0  0  0  0  0  0  0  0  0  0
   12.9648    4.1543   20.9205 C   0  0  0  0  0  0  0  0  0  0  0  0
    8.2089    3.6265   20.8929 C   0  0  0  0  0  0  0  0  0  0  0  0
    7.3827    2.5724   20.5432 C   0  0  0  0  0  0  0  0  0  0  0  0
   11.1529    7.2750   20.8025 C   0  0  0  0  0  0  0  0  0  0  0  0
   10.2573    8.3215   20.9827 C   0  0  0  0  0  0  0  0  0  0  0  0
   11.1606    5.9378   21.2366 N   0  0  0  0  0  0  0  0  0  0  0  0
    9.8932   11.6736   19.0677 O   0  0  0  0  0  0  0  0  0  0  0  0
    6.4470    4.5850   22.2321 C   0  0  0  0  0  0  0  0  0  0  0  0
    8.4619    6.9895   22.2968 C   0  0  0  0  0  0  0  0  0  0  0  0
   12.2747    7.5102   20.0420 C   0  0  0  0  0  0  0  0  0  0  0  0
   14.2544    6.2142   19.4191 C   0  0  0  0  0  0  0  0  0  0  0  0
   13.0695    6.3705   20.0375 N   0  0  0  0  0  0  0  0  0  0  0  0
    9.1913    8.0876   21.8361 N   0  0  0  0  0  0  0  0  0  0  0  0
   10.4739    9.4813   20.2889 C   0  0  0  0  0  0  0  0  0  0  0  0
    7.5551    7.1270   23.1200 O   0  0  0  0  0  0  0  0  0  0  0  0
  1 11  4  0
  1 21  4  0
  2  4  1  0
  2  8  1  0
  2 11  1  0
  3 10  4  0
  3 14  4  0
  4  5  1  0
  4 18  2  0
  6 12  1  0
  6 17  4  0
  6 23  4  0
  7  9  1  0
  7 13  4  0
  7 19  4  0
  9 20  1  0
 10 19  4  0
 11 25  4  0
 13 14  4  0
 15 16  4  0
 15 17  4  0
 15 21  4  0
 16 24  1  0
 16 25  4  0
 20 24  1  0
 20 26  2  0
 21 23  4  0
 22 23  1  0
M  END
$$$$

 Created by Python create_sdf_string function

 26 28  0  0  0  0  0  0  0  0999 V2000
   12.4616    8.6700   19.4180 N   0  0  0  0  0  0  0  0  0  0  0  0
   11.8329   10.8148   18.6769 N   0  0  0  0  0  0  0  0  0  0  0  0
    6.1021    2.5564   21.0678 C   0  0  0  0  0  0  0  0  0  0  0  0
   10.9097   11.8051   18.4804 C   0  0  0  0  0  0  0  0  0  0  0  0
   11.2280   12.9135   17.5669 C   0  0  0  0  0  0  0  0  0  0  0  0
   12.3782    5.4231   20.7777 C   0  0  0  0  0  0  0  0  0  0  0  0
    7.7365    4.6508   21.6987 C   0  0  0  0  0  0  0  0  0  0  0  0
   13.0186   11.0102   18.0020 C   0  0  0  0  0  0  0  0  0  0  0  0
    8.6628    5.7088   21.8871 N   0  0  0  0  0  0  0  0  0  0  0  0
    5.6516    3.5258   21.9140 C   0  0  0  0  0  0  0  0  0  0  0  0
   11.5863    9.6815   19.4539 C   0  0  0  0  0  0  0  0  0  0  0  0
   12.9648    4.1543   20.9205 C   0  0  0  0  0  0  0  0  0  0  0  0
    8.2089    3.6265   20.8929 C   0  0  0  0  0  0  0  0  0  0  0  0
    7.3827    2.5724   20.5432 C   0  0  0  0  0  0  0  0  0  0  0  0
   11.1529    7.2750   20.8025 C   0  0  0  0  0  0  0  0  0  0  0  0
   10.2573    8.3215   20.9827 C   0  0  0  0  0  0  0  0  0  0  0  0
   11.1606    5.9378   21.2366 N   0  0  0  0  0  0  0  0  0  0  0  0
    9.8932   11.6736   19.0677 O   0  0  0  0  0  0  0  0  0  0  0  0
    6.4470    4.5850   22.2321 C   0  0  0  0  0  0  0  0  0  0  0  0
    8.4619    6.9895   22.2968 C   0  0  0  0  0  0  0  0  0  0  0  0
   12.2747    7.5102   20.0420 C   0  0  0  0  0  0  0  0  0  0  0  0
   14.2544    6.2142   19.4191 C   0  0  0  0  0  0  0  0  0  0  0  0
   13.0695    6.3705   20.0375 N   0  0  0  0  0  0  0  0  0  0  0  0
    9.1913    8.0876   21.8361 N   0  0  0  0  0  0  0  0  0  0  0  0
   10.4739    9.4813   20.2889 C   0  0  0  0  0  0  0  0  0  0  0  0
    7.5551    7.1270   23.1200 O   0  0  0  0  0  0  0  0  0  0  0  0
  1 11  4  0
  1 21  4  0
  2  4  1  0
  2  8  1  0
  2 11  1  0
  3 10  4  0
  3 14  4  0
  4  5  1  0
  4 18  2  0
  6 12  1  0
  6 17  4  0
  6 23  4  0
  7  9  1  0
  7 13  4  0
  7 19  4  0
  9 20  1  0
 10 19  4  0
 11 25  4  0
 13 14  4  0
 15 16  4  0
 15 17  4  0
 15 21  4  0
 16 24  1  0
 16 25  4  0
 20 24  1  0
 20 26  2  0
 21 23  4  0
 22 23  1  0
M  END
$$$$

 Created by Python create_sdf_string function

 26 28  0  0  0  0  0  0  0  0999 V2000
   12.4616    8.6700   19.4180 N   0  0  0  0  0  0  0  0  0  0  0  0
   11.8329   10.8148   18.6769 N   0  0  0  0  0  0  0  0  0  0  0  0
    6.1021    2.5564   21.0678 C   0  0  0  0  0  0  0  0  0  0  0  0
   10.9097   11.8051   18.4804 C   0  0  0  0  0  0  0  0  0  0  0  0
   11.2280   12.9135   17.5669 C   0  0  0  0  0  0  0  0  0  0  0  0
   12.3782    5.4231   20.7777 C   0  0  0  0  0  0  0  0  0  0  0  0
    7.7365    4.6508   21.6987 C   0  0  0  0  0  0  0  0  0  0  0  0
   13.0186   11.0102   18.0020 C   0  0  0  0  0  0  0  0  0  0  0  0
    8.6628    5.7088   21.8871 N   0  0  0  0  0  0  0  0  0  0  0  0
    5.6516    3.5258   21.9140 C   0  0  0  0  0  0  0  0  0  0  0  0
   11.5863    9.6815   19.4539 C   0  0  0  0  0  0  0  0  0  0  0  0
   12.9648    4.1543   20.9205 C   0  0  0  0  0  0  0  0  0  0  0  0
    8.2089    3.6265   20.8929 C   0  0  0  0  0  0  0  0  0  0  0  0
    7.3827    2.5724   20.5432 C   0  0  0  0  0  0  0  0  0  0  0  0
   11.1529    7.2750   20.8025 C   0  0  0  0  0  0  0  0  0  0  0  0
   10.2573    8.3215   20.9827 C   0  0  0  0  0  0  0  0  0  0  0  0
   11.1606    5.9378   21.2366 N   0  0  0  0  0  0  0  0  0  0  0  0
    9.8932   11.6736   19.0677 O   0  0  0  0  0  0  0  0  0  0  0  0
    6.4470    4.5850   22.2321 C   0  0  0  0  0  0  0  0  0  0  0  0
    8.4619    6.9895   22.2968 C   0  0  0  0  0  0  0  0  0  0  0  0
   12.2747    7.5102   20.0420 C   0  0  0  0  0  0  0  0  0  0  0  0
   14.2544    6.2142   19.4191 C   0  0  0  0  0  0  0  0  0  0  0  0
   13.0695    6.3705   20.0375 N   0  0  0  0  0  0  0  0  0  0  0  0
    9.1913    8.0876   21.8361 N   0  0  0  0  0  0  0  0  0  0  0  0
   10.4739    9.4813   20.2889 C   0  0  0  0  0  0  0  0  0  0  0  0
    7.5551    7.1270   23.1200 O   0  0  0  0  0  0  0  0  0  0  0  0
  1 11  4  0
  1 21  4  0
  2  4  1  0
  2  8  1  0
  2 11  1  0
  3 10  4  0
  3 14  4  0
  4  5  1  0
  4 18  2  0
  6 12  1  0
  6 17  4  0
  6 23  4  0
  7  9  1  0
  7 13  4  0
  7 19  4  0
  9 20  1  0
 10 19  4  0
 11 25  4  0
 13 14  4  0
 15 16  4  0
 15 17  4  0
 15 21  4  0
 16 24  1  0
 16 25  4  0
 20 24  1  0
 20 26  2  0
 21 23  4  0
 22 23  1  0
M  END
$$$$

 Created by Python create_sdf_string function

 26 28  0  0  0  0  0  0  0  0999 V2000
   12.4616    8.6700   19.4180 N   0  0  0  0  0  0  0  0  0  0  0  0
   11.8329   10.8148   18.6769 N   0  0  0  0  0  0  0  0  0  0  0  0
    6.1021    2.5564   21.0678 C   0  0  0  0  0  0  0  0  0  0  0  0
   10.9097   11.8051   18.4804 C   0  0  0  0  0  0  0  0  0  0  0  0
   11.2280   12.9135   17.5669 C   0  0  0  0  0  0  0  0  0  0  0  0
   12.3782    5.4231   20.7777 C   0  0  0  0  0  0  0  0  0  0  0  0
    7.7365    4.6508   21.6987 C   0  0  0  0  0  0  0  0  0  0  0  0
   13.0186   11.0102   18.0020 C   0  0  0  0  0  0  0  0  0  0  0  0
    8.6628    5.7088   21.8871 N   0  0  0  0  0  0  0  0  0  0  0  0
    5.6516    3.5258   21.9140 C   0  0  0  0  0  0  0  0  0  0  0  0
   11.5863    9.6815   19.4539 C   0  0  0  0  0  0  0  0  0  0  0  0
   12.9648    4.1543   20.9205 C   0  0  0  0  0  0  0  0  0  0  0  0
    8.2089    3.6265   20.8929 C   0  0  0  0  0  0  0  0  0  0  0  0
    7.3827    2.5724   20.5432 C   0  0  0  0  0  0  0  0  0  0  0  0
   11.1529    7.2750   20.8025 C   0  0  0  0  0  0  0  0  0  0  0  0
   10.2573    8.3215   20.9827 C   0  0  0  0  0  0  0  0  0  0  0  0
   11.1606    5.9378   21.2366 N   0  0  0  0  0  0  0  0  0  0  0  0
    9.8932   11.6736   19.0677 O   0  0  0  0  0  0  0  0  0  0  0  0
    6.4470    4.5850   22.2321 C   0  0  0  0  0  0  0  0  0  0  0  0
    8.4619    6.9895   22.2968 C   0  0  0  0  0  0  0  0  0  0  0  0
   12.2747    7.5102   20.0420 C   0  0  0  0  0  0  0  0  0  0  0  0
   14.2544    6.2142   19.4191 C   0  0  0  0  0  0  0  0  0  0  0  0
   13.0695    6.3705   20.0375 N   0  0  0  0  0  0  0  0  0  0  0  0
    9.1913    8.0876   21.8361 N   0  0  0  0  0  0  0  0  0  0  0  0
   10.4739    9.4813   20.2889 C   0  0  0  0  0  0  0  0  0  0  0  0
    7.5551    7.1270   23.1200 O   0  0  0  0  0  0  0  0  0  0  0  0
  1 11  4  0
  1 21  4  0
  2  4  1  0
  2  8  1  0
  2 11  1  0
  3 10  4  0
  3 14  4  0
  4  5  1  0
  4 18  2  0
  6 12  1  0
  6 17  4  0
  6 23  4  0
  7  9  1  0
  7 13  4  0
  7 19  4  0
  9 20  1  0
 10 19  4  0
 11 25  4  0
 13 14  4  0
 15 16  4  0
 15 17  4  0
 15 21  4  0
 16 24  1  0
 16 25  4  0
 20 24  1  0
 20 26  2  0
 21 23  4  0
 22 23  1  0
M  END
$$$$

 Created by Python create_sdf_string function

 26 28  0  0  0  0  0  0  0  0999 V2000
   12.4616    8.6700   19.4180 N   0  0  0  0  0  0  0  0  0  0  0  0
   11.8329   10.8148   18.6769 N   0  0  0  0  0  0  0  0  0  0  0  0
    6.1021    2.5564   21.0678 C   0  0  0  0  0  0  0  0  0  0  0  0
   10.9097   11.8051   18.4804 C   0  0  0  0  0  0  0  0  0  0  0  0
   11.2280   12.9135   17.5669 C   0  0  0  0  0  0  0  0  0  0  0  0
   12.3782    5.4231   20.7777 C   0  0  0  0  0  0  0  0  0  0  0  0
    7.7365    4.6508   21.6987 C   0  0  0  0  0  0  0  0  0  0  0  0
   13.0186   11.0102   18.0020 C   0  0  0  0  0  0  0  0  0  0  0  0
    8.6628    5.7088   21.8871 N   0  0  0  0  0  0  0  0  0  0  0  0
    5.6516    3.5258   21.9140 C   0  0  0  0  0  0  0  0  0  0  0  0
   11.5863    9.6815   19.4539 C   0  0  0  0  0  0  0  0  0  0  0  0
   12.9648    4.1543   20.9205 C   0  0  0  0  0  0  0  0  0  0  0  0
    8.2089    3.6265   20.8929 C   0  0  0  0  0  0  0  0  0  0  0  0
    7.3827    2.5724   20.5432 C   0  0  0  0  0  0  0  0  0  0  0  0
   11.1529    7.2750   20.8025 C   0  0  0  0  0  0  0  0  0  0  0  0
   10.2573    8.3215   20.9827 C   0  0  0  0  0  0  0  0  0  0  0  0
   11.1606    5.9378   21.2366 N   0  0  0  0  0  0  0  0  0  0  0  0
    9.8932   11.6736   19.0677 O   0  0  0  0  0  0  0  0  0  0  0  0
    6.4470    4.5850   22.2321 C   0  0  0  0  0  0  0  0  0  0  0  0
    8.4619    6.9895   22.2968 C   0  0  0  0  0  0  0  0  0  0  0  0
   12.2747    7.5102   20.0420 C   0  0  0  0  0  0  0  0  0  0  0  0
   14.2544    6.2142   19.4191 C   0  0  0  0  0  0  0  0  0  0  0  0
   13.0695    6.3705   20.0375 N   0  0  0  0  0  0  0  0  0  0  0  0
    9.1913    8.0876   21.8361 N   0  0  0  0  0  0  0  0  0  0  0  0
   10.4739    9.4813   20.2889 C   0  0  0  0  0  0  0  0  0  0  0  0
    7.5551    7.1270   23.1200 O   0  0  0  0  0  0  0  0  0  0  0  0
  1 11  4  0
  1 21  4  0
  2  4  1  0
  2  8  1  0
  2 11  1  0
  3 10  4  0
  3 14  4  0
  4  5  1  0
  4 18  2  0
  6 12  1  0
  6 17  4  0
  6 23  4  0
  7  9  1  0
  7 13  4  0
  7 19  4  0
  9 20  1  0
 10 19  4  0
 11 25  4  0
 13 14  4  0
 15 16  4  0
 15 17  4  0
 15 21  4  0
 16 24  1  0
 16 25  4  0
 20 24  1  0
 20 26  2  0
 21 23  4  0
 22 23  1  0
M  END
$$$$

 Created by Python create_sdf_string function

 26 28  0  0  0  0  0  0  0  0999 V2000
   12.4616    8.6700   19.4180 N   0  0  0  0  0  0  0  0  0  0  0  0
   11.8329   10.8148   18.6769 N   0  0  0  0  0  0  0  0  0  0  0  0
    6.1021    2.5564   21.0678 C   0  0  0  0  0  0  0  0  0  0  0  0
   10.9097   11.8051   18.4804 C   0  0  0  0  0  0  0  0  0  0  0  0
   11.2280   12.9135   17.5669 C   0  0  0  0  0  0  0  0  0  0  0  0
   12.3782    5.4231   20.7777 C   0  0  0  0  0  0  0  0  0  0  0  0
    7.7365    4.6508   21.6987 C   0  0  0  0  0  0  0  0  0  0  0  0
   13.0186   11.0102   18.0020 C   0  0  0  0  0  0  0  0  0  0  0  0
    8.6628    5.7088   21.8871 N   0  0  0  0  0  0  0  0  0  0  0  0
    5.6516    3.5258   21.9140 C   0  0  0  0  0  0  0  0  0  0  0  0
   11.5863    9.6815   19.4539 C   0  0  0  0  0  0  0  0  0  0  0  0
   12.9648    4.1543   20.9205 C   0  0  0  0  0  0  0  0  0  0  0  0
    8.2089    3.6265   20.8929 C   0  0  0  0  0  0  0  0  0  0  0  0
    7.3827    2.5724   20.5432 C   0  0  0  0  0  0  0  0  0  0  0  0
   11.1529    7.2750   20.8025 C   0  0  0  0  0  0  0  0  0  0  0  0
   10.2573    8.3215   20.9827 C   0  0  0  0  0  0  0  0  0  0  0  0
   11.1606    5.9378   21.2366 N   0  0  0  0  0  0  0  0  0  0  0  0
    9.8932   11.6736   19.0677 O   0  0  0  0  0  0  0  0  0  0  0  0
    6.4470    4.5850   22.2321 C   0  0  0  0  0  0  0  0  0  0  0  0
    8.4619    6.9895   22.2968 C   0  0  0  0  0  0  0  0  0  0  0  0
   12.2747    7.5102   20.0420 C   0  0  0  0  0  0  0  0  0  0  0  0
   14.2544    6.2142   19.4191 C   0  0  0  0  0  0  0  0  0  0  0  0
   13.0695    6.3705   20.0375 N   0  0  0  0  0  0  0  0  0  0  0  0
    9.1913    8.0876   21.8361 N   0  0  0  0  0  0  0  0  0  0  0  0
   10.4739    9.4813   20.2889 C   0  0  0  0  0  0  0  0  0  0  0  0
    7.5551    7.1270   23.1200 O   0  0  0  0  0  0  0  0  0  0  0  0
  1 11  4  0
  1 21  4  0
  2  4  1  0
  2  8  1  0
  2 11  1  0
  3 10  4  0
  3 14  4  0
  4  5  1  0
  4 18  2  0
  6 12  1  0
  6 17  4  0
  6 23  4  0
  7  9  1  0
  7 13  4  0
  7 19  4  0
  9 20  1  0
 10 19  4  0
 11 25  4  0
 13 14  4  0
 15 16  4  0
 15 17  4  0
 15 21  4  0
 16 24  1  0
 16 25  4  0
 20 24  1  0
 20 26  2  0
 21 23  4  0
 22 23  1  0
M  END
$$$$

 Created by Python create_sdf_string function

 26 28  0  0  0  0  0  0  0  0999 V2000
   12.4616    8.6700   19.4180 N   0  0  0  0  0  0  0  0  0  0  0  0
   11.8329   10.8148   18.6769 N   0  0  0  0  0  0  0  0  0  0  0  0
    6.1021    2.5564   21.0678 C   0  0  0  0  0  0  0  0  0  0  0  0
   10.9097   11.8051   18.4804 C   0  0  0  0  0  0  0  0  0  0  0  0
   11.2280   12.9135   17.5669 C   0  0  0  0  0  0  0  0  0  0  0  0
   12.3782    5.4231   20.7777 C   0  0  0  0  0  0  0  0  0  0  0  0
    7.7365    4.6508   21.6987 C   0  0  0  0  0  0  0  0  0  0  0  0
   13.0186   11.0102   18.0020 C   0  0  0  0  0  0  0  0  0  0  0  0
    8.6628    5.7088   21.8871 N   0  0  0  0  0  0  0  0  0  0  0  0
    5.6516    3.5258   21.9140 C   0  0  0  0  0  0  0  0  0  0  0  0
   11.5863    9.6815   19.4539 C   0  0  0  0  0  0  0  0  0  0  0  0
   12.9648    4.1543   20.9205 C   0  0  0  0  0  0  0  0  0  0  0  0
    8.2089    3.6265   20.8929 C   0  0  0  0  0  0  0  0  0  0  0  0
    7.3827    2.5724   20.5432 C   0  0  0  0  0  0  0  0  0  0  0  0
   11.1529    7.2750   20.8025 C   0  0  0  0  0  0  0  0  0  0  0  0
   10.2573    8.3215   20.9827 C   0  0  0  0  0  0  0  0  0  0  0  0
   11.1606    5.9378   21.2366 N   0  0  0  0  0  0  0  0  0  0  0  0
    9.8932   11.6736   19.0677 O   0  0  0  0  0  0  0  0  0  0  0  0
    6.4470    4.5850   22.2321 C   0  0  0  0  0  0  0  0  0  0  0  0
    8.4619    6.9895   22.2968 C   0  0  0  0  0  0  0  0  0  0  0  0
   12.2747    7.5102   20.0420 C   0  0  0  0  0  0  0  0  0  0  0  0
   14.2544    6.2142   19.4191 C   0  0  0  0  0  0  0  0  0  0  0  0
   13.0695    6.3705   20.0375 N   0  0  0  0  0  0  0  0  0  0  0  0
    9.1913    8.0876   21.8361 N   0  0  0  0  0  0  0  0  0  0  0  0
   10.4739    9.4813   20.2889 C   0  0  0  0  0  0  0  0  0  0  0  0
    7.5551    7.1270   23.1200 O   0  0  0  0  0  0  0  0  0  0  0  0
  1 11  4  0
  1 21  4  0
  2  4  1  0
  2  8  1  0
  2 11  1  0
  3 10  4  0
  3 14  4  0
  4  5  1  0
  4 18  2  0
  6 12  1  0
  6 17  4  0
  6 23  4  0
  7  9  1  0
  7 13  4  0
  7 19  4  0
  9 20  1  0
 10 19  4  0
 11 25  4  0
 13 14  4  0
 15 16  4  0
 15 17  4  0
 15 21  4  0
 16 24  1  0
 16 25  4  0
 20 24  1  0
 20 26  2  0
 21 23  4  0
 22 23  1  0
M  END
$$$$

 Created by Python create_sdf_string function

 26 28  0  0  0  0  0  0  0  0999 V2000
   12.4616    8.6700   19.4180 N   0  0  0  0  0  0  0  0  0  0  0  0
   11.8329   10.8148   18.6769 N   0  0  0  0  0  0  0  0  0  0  0  0
    6.1021    2.5564   21.0678 C   0  0  0  0  0  0  0  0  0  0  0  0
   10.9097   11.8051   18.4804 C   0  0  0  0  0  0  0  0  0  0  0  0
   11.2280   12.9135   17.5669 C   0  0  0  0  0  0  0  0  0  0  0  0
   12.3782    5.4231   20.7777 C   0  0  0  0  0  0  0  0  0  0  0  0
    7.7365    4.6508   21.6987 C   0  0  0  0  0  0  0  0  0  0  0  0
   13.0186   11.0102   18.0020 C   0  0  0  0  0  0  0  0  0  0  0  0
    8.6628    5.7088   21.8871 N   0  0  0  0  0  0  0  0  0  0  0  0
    5.6516    3.5258   21.9140 C   0  0  0  0  0  0  0  0  0  0  0  0
   11.5863    9.6815   19.4539 C   0  0  0  0  0  0  0  0  0  0  0  0
   12.9648    4.1543   20.9205 C   0  0  0  0  0  0  0  0  0  0  0  0
    8.2089    3.6265   20.8929 C   0  0  0  0  0  0  0  0  0  0  0  0
    7.3827    2.5724   20.5432 C   0  0  0  0  0  0  0  0  0  0  0  0
   11.1529    7.2750   20.8025 C   0  0  0  0  0  0  0  0  0  0  0  0
   10.2573    8.3215   20.9827 C   0  0  0  0  0  0  0  0  0  0  0  0
   11.1606    5.9378   21.2366 N   0  0  0  0  0  0  0  0  0  0  0  0
    9.8932   11.6736   19.0677 O   0  0  0  0  0  0  0  0  0  0  0  0
    6.4470    4.5850   22.2321 C   0  0  0  0  0  0  0  0  0  0  0  0
    8.4619    6.9895   22.2968 C   0  0  0  0  0  0  0  0  0  0  0  0
   12.2747    7.5102   20.0420 C   0  0  0  0  0  0  0  0  0  0  0  0
   14.2544    6.2142   19.4191 C   0  0  0  0  0  0  0  0  0  0  0  0
   13.0695    6.3705   20.0375 N   0  0  0  0  0  0  0  0  0  0  0  0
    9.1913    8.0876   21.8361 N   0  0  0  0  0  0  0  0  0  0  0  0
   10.4739    9.4813   20.2889 C   0  0  0  0  0  0  0  0  0  0  0  0
    7.5551    7.1270   23.1200 O   0  0  0  0  0  0  0  0  0  0  0  0
  1 11  4  0
  1 21  4  0
  2  4  1  0
  2  8  1  0
  2 11  1  0
  3 10  4  0
  3 14  4  0
  4  5  1  0
  4 18  2  0
  6 12  1  0
  6 17  4  0
  6 23  4  0
  7  9  1  0
  7 13  4  0
  7 19  4  0
  9 20  1  0
 10 19  4  0
 11 25  4  0
 13 14  4  0
 15 16  4  0
 15 17  4  0
 15 21  4  0
 16 24  1  0
 16 25  4  0
 20 24  1  0
 20 26  2  0
 21 23  4  0
 22 23  1  0
M  END
$$$$

 Created by Python create_sdf_string function

 26 28  0  0  0  0  0  0  0  0999 V2000
   12.4616    8.6700   19.4180 N   0  0  0  0  0  0  0  0  0  0  0  0
   11.8329   10.8148   18.6769 N   0  0  0  0  0  0  0  0  0  0  0  0
    6.1021    2.5564   21.0678 C   0  0  0  0  0  0  0  0  0  0  0  0
   10.9097   11.8051   18.4804 C   0  0  0  0  0  0  0  0  0  0  0  0
   11.2280   12.9135   17.5669 C   0  0  0  0  0  0  0  0  0  0  0  0
   12.3782    5.4231   20.7777 C   0  0  0  0  0  0  0  0  0  0  0  0
    7.7365    4.6508   21.6987 C   0  0  0  0  0  0  0  0  0  0  0  0
   13.0186   11.0102   18.0020 C   0  0  0  0  0  0  0  0  0  0  0  0
    8.6628    5.7088   21.8871 N   0  0  0  0  0  0  0  0  0  0  0  0
    5.6516    3.5258   21.9140 C   0  0  0  0  0  0  0  0  0  0  0  0
   11.5863    9.6815   19.4539 C   0  0  0  0  0  0  0  0  0  0  0  0
   12.9648    4.1543   20.9205 C   0  0  0  0  0  0  0  0  0  0  0  0
    8.2089    3.6265   20.8929 C   0  0  0  0  0  0  0  0  0  0  0  0
    7.3827    2.5724   20.5432 C   0  0  0  0  0  0  0  0  0  0  0  0
   11.1529    7.2750   20.8025 C   0  0  0  0  0  0  0  0  0  0  0  0
   10.2573    8.3215   20.9827 C   0  0  0  0  0  0  0  0  0  0  0  0
   11.1606    5.9378   21.2366 N   0  0  0  0  0  0  0  0  0  0  0  0
    9.8932   11.6736   19.0677 O   0  0  0  0  0  0  0  0  0  0  0  0
    6.4470    4.5850   22.2321 C   0  0  0  0  0  0  0  0  0  0  0  0
    8.4619    6.9895   22.2968 C   0  0  0  0  0  0  0  0  0  0  0  0
   12.2747    7.5102   20.0420 C   0  0  0  0  0  0  0  0  0  0  0  0
   14.2544    6.2142   19.4191 C   0  0  0  0  0  0  0  0  0  0  0  0
   13.0695    6.3705   20.0375 N   0  0  0  0  0  0  0  0  0  0  0  0
    9.1913    8.0876   21.8361 N   0  0  0  0  0  0  0  0  0  0  0  0
   10.4739    9.4813   20.2889 C   0  0  0  0  0  0  0  0  0  0  0  0
    7.5551    7.1270   23.1200 O   0  0  0  0  0  0  0  0  0  0  0  0
  1 11  4  0
  1 21  4  0
  2  4  1  0
  2  8  1  0
  2 11  1  0
  3 10  4  0
  3 14  4  0
  4  5  1  0
  4 18  2  0
  6 12  1  0
  6 17  4  0
  6 23  4  0
  7  9  1  0
  7 13  4  0
  7 19  4  0
  9 20  1  0
 10 19  4  0
 11 25  4  0
 13 14  4  0
 15 16  4  0
 15 17  4  0
 15 21  4  0
 16 24  1  0
 16 25  4  0
 20 24  1  0
 20 26  2  0
 21 23  4  0
 22 23  1  0
M  END
$$$$

 Created by Python create_sdf_string function

 26 28  0  0  0  0  0  0  0  0999 V2000
   12.4616    8.6700   19.4180 N   0  0  0  0  0  0  0  0  0  0  0  0
   11.8329   10.8148   18.6769 N   0  0  0  0  0  0  0  0  0  0  0  0
    6.1021    2.5564   21.0678 C   0  0  0  0  0  0  0  0  0  0  0  0
   10.9097   11.8051   18.4804 C   0  0  0  0  0  0  0  0  0  0  0  0
   11.2280   12.9135   17.5669 C   0  0  0  0  0  0  0  0  0  0  0  0
   12.3782    5.4231   20.7777 C   0  0  0  0  0  0  0  0  0  0  0  0
    7.7365    4.6508   21.6987 C   0  0  0  0  0  0  0  0  0  0  0  0
   13.0186   11.0102   18.0020 C   0  0  0  0  0  0  0  0  0  0  0  0
    8.6628    5.7088   21.8871 N   0  0  0  0  0  0  0  0  0  0  0  0
    5.6516    3.5258   21.9140 C   0  0  0  0  0  0  0  0  0  0  0  0
   11.5863    9.6815   19.4539 C   0  0  0  0  0  0  0  0  0  0  0  0
   12.9648    4.1543   20.9205 C   0  0  0  0  0  0  0  0  0  0  0  0
    8.2089    3.6265   20.8929 C   0  0  0  0  0  0  0  0  0  0  0  0
    7.3827    2.5724   20.5432 C   0  0  0  0  0  0  0  0  0  0  0  0
   11.1529    7.2750   20.8025 C   0  0  0  0  0  0  0  0  0  0  0  0
   10.2573    8.3215   20.9827 C   0  0  0  0  0  0  0  0  0  0  0  0
   11.1606    5.9378   21.2366 N   0  0  0  0  0  0  0  0  0  0  0  0
    9.8932   11.6736   19.0677 O   0  0  0  0  0  0  0  0  0  0  0  0
    6.4470    4.5850   22.2321 C   0  0  0  0  0  0  0  0  0  0  0  0
    8.4619    6.9895   22.2968 C   0  0  0  0  0  0  0  0  0  0  0  0
   12.2747    7.5102   20.0420 C   0  0  0  0  0  0  0  0  0  0  0  0
   14.2544    6.2142   19.4191 C   0  0  0  0  0  0  0  0  0  0  0  0
   13.0695    6.3705   20.0375 N   0  0  0  0  0  0  0  0  0  0  0  0
    9.1913    8.0876   21.8361 N   0  0  0  0  0  0  0  0  0  0  0  0
   10.4739    9.4813   20.2889 C   0  0  0  0  0  0  0  0  0  0  0  0
    7.5551    7.1270   23.1200 O   0  0  0  0  0  0  0  0  0  0  0  0
  1 11  4  0
  1 21  4  0
  2  4  1  0
  2  8  1  0
  2 11  1  0
  3 10  4  0
  3 14  4  0
  4  5  1  0
  4 18  2  0
  6 12  1  0
  6 17  4  0
  6 23  4  0
  7  9  1  0
  7 13  4  0
  7 19  4  0
  9 20  1  0
 10 19  4  0
 11 25  4  0
 13 14  4  0
 15 16  4  0
 15 17  4  0
 15 21  4  0
 16 24  1  0
 16 25  4  0
 20 24  1  0
 20 26  2  0
 21 23  4  0
 22 23  1  0
M  END
$$$$

 Created by Python create_sdf_string function

 26 28  0  0  0  0  0  0  0  0999 V2000
   12.4616    8.6700   19.4180 N   0  0  0  0  0  0  0  0  0  0  0  0
   11.8329   10.8148   18.6769 N   0  0  0  0  0  0  0  0  0  0  0  0
    6.1021    2.5564   21.0678 C   0  0  0  0  0  0  0  0  0  0  0  0
   10.9097   11.8051   18.4804 C   0  0  0  0  0  0  0  0  0  0  0  0
   11.2280   12.9135   17.5669 C   0  0  0  0  0  0  0  0  0  0  0  0
   12.3782    5.4231   20.7777 C   0  0  0  0  0  0  0  0  0  0  0  0
    7.7365    4.6508   21.6987 C   0  0  0  0  0  0  0  0  0  0  0  0
   13.0186   11.0102   18.0020 C   0  0  0  0  0  0  0  0  0  0  0  0
    8.6628    5.7088   21.8871 N   0  0  0  0  0  0  0  0  0  0  0  0
    5.6516    3.5258   21.9140 C   0  0  0  0  0  0  0  0  0  0  0  0
   11.5863    9.6815   19.4539 C   0  0  0  0  0  0  0  0  0  0  0  0
   12.9648    4.1543   20.9205 C   0  0  0  0  0  0  0  0  0  0  0  0
    8.2089    3.6265   20.8929 C   0  0  0  0  0  0  0  0  0  0  0  0
    7.3827    2.5724   20.5432 C   0  0  0  0  0  0  0  0  0  0  0  0
   11.1529    7.2750   20.8025 C   0  0  0  0  0  0  0  0  0  0  0  0
   10.2573    8.3215   20.9827 C   0  0  0  0  0  0  0  0  0  0  0  0
   11.1606    5.9378   21.2366 N   0  0  0  0  0  0  0  0  0  0  0  0
    9.8932   11.6736   19.0677 O   0  0  0  0  0  0  0  0  0  0  0  0
    6.4470    4.5850   22.2321 C   0  0  0  0  0  0  0  0  0  0  0  0
    8.4619    6.9895   22.2968 C   0  0  0  0  0  0  0  0  0  0  0  0
   12.2747    7.5102   20.0420 C   0  0  0  0  0  0  0  0  0  0  0  0
   14.2544    6.2142   19.4191 C   0  0  0  0  0  0  0  0  0  0  0  0
   13.0695    6.3705   20.0375 N   0  0  0  0  0  0  0  0  0  0  0  0
    9.1913    8.0876   21.8361 N   0  0  0  0  0  0  0  0  0  0  0  0
   10.4739    9.4813   20.2889 C   0  0  0  0  0  0  0  0  0  0  0  0
    7.5551    7.1270   23.1200 O   0  0  0  0  0  0  0  0  0  0  0  0
  1 11  4  0
  1 21  4  0
  2  4  1  0
  2  8  1  0
  2 11  1  0
  3 10  4  0
  3 14  4  0
  4  5  1  0
  4 18  2  0
  6 12  1  0
  6 17  4  0
  6 23  4  0
  7  9  1  0
  7 13  4  0
  7 19  4  0
  9 20  1  0
 10 19  4  0
 11 25  4  0
 13 14  4  0
 15 16  4  0
 15 17  4  0
 15 21  4  0
 16 24  1  0
 16 25  4  0
 20 24  1  0
 20 26  2  0
 21 23  4  0
 22 23  1  0
M  END
$$$$

 Created by Python create_sdf_string function

 26 28  0  0  0  0  0  0  0  0999 V2000
   12.4616    8.6700   19.4180 N   0  0  0  0  0  0  0  0  0  0  0  0
   11.8329   10.8148   18.6769 N   0  0  0  0  0  0  0  0  0  0  0  0
    6.1021    2.5564   21.0678 C   0  0  0  0  0  0  0  0  0  0  0  0
   10.9097   11.8051   18.4804 C   0  0  0  0  0  0  0  0  0  0  0  0
   11.2280   12.9135   17.5669 C   0  0  0  0  0  0  0  0  0  0  0  0
   12.3782    5.4231   20.7777 C   0  0  0  0  0  0  0  0  0  0  0  0
    7.7365    4.6508   21.6987 C   0  0  0  0  0  0  0  0  0  0  0  0
   13.0186   11.0102   18.0020 C   0  0  0  0  0  0  0  0  0  0  0  0
    8.6628    5.7088   21.8871 N   0  0  0  0  0  0  0  0  0  0  0  0
    5.6516    3.5258   21.9140 C   0  0  0  0  0  0  0  0  0  0  0  0
   11.5863    9.6815   19.4539 C   0  0  0  0  0  0  0  0  0  0  0  0
   12.9648    4.1543   20.9205 C   0  0  0  0  0  0  0  0  0  0  0  0
    8.2089    3.6265   20.8929 C   0  0  0  0  0  0  0  0  0  0  0  0
    7.3827    2.5724   20.5432 C   0  0  0  0  0  0  0  0  0  0  0  0
   11.1529    7.2750   20.8025 C   0  0  0  0  0  0  0  0  0  0  0  0
   10.2573    8.3215   20.9827 C   0  0  0  0  0  0  0  0  0  0  0  0
   11.1606    5.9378   21.2366 N   0  0  0  0  0  0  0  0  0  0  0  0
    9.8932   11.6736   19.0677 O   0  0  0  0  0  0  0  0  0  0  0  0
    6.4470    4.5850   22.2321 C   0  0  0  0  0  0  0  0  0  0  0  0
    8.4619    6.9895   22.2968 C   0  0  0  0  0  0  0  0  0  0  0  0
   12.2747    7.5102   20.0420 C   0  0  0  0  0  0  0  0  0  0  0  0
   14.2544    6.2142   19.4191 C   0  0  0  0  0  0  0  0  0  0  0  0
   13.0695    6.3705   20.0375 N   0  0  0  0  0  0  0  0  0  0  0  0
    9.1913    8.0876   21.8361 N   0  0  0  0  0  0  0  0  0  0  0  0
   10.4739    9.4813   20.2889 C   0  0  0  0  0  0  0  0  0  0  0  0
    7.5551    7.1270   23.1200 O   0  0  0  0  0  0  0  0  0  0  0  0
  1 11  4  0
  1 21  4  0
  2  4  1  0
  2  8  1  0
  2 11  1  0
  3 10  4  0
  3 14  4  0
  4  5  1  0
  4 18  2  0
  6 12  1  0
  6 17  4  0
  6 23  4  0
  7  9  1  0
  7 13  4  0
  7 19  4  0
  9 20  1  0
 10 19  4  0
 11 25  4  0
 13 14  4  0
 15 16  4  0
 15 17  4  0
 15 21  4  0
 16 24  1  0
 16 25  4  0
 20 24  1  0
 20 26  2  0
 21 23  4  0
 22 23  1  0
M  END
$$$$

 Created by Python create_sdf_string function

 26 28  0  0  0  0  0  0  0  0999 V2000
   12.4616    8.6700   19.4180 N   0  0  0  0  0  0  0  0  0  0  0  0
   11.8329   10.8148   18.6769 N   0  0  0  0  0  0  0  0  0  0  0  0
    6.1021    2.5564   21.0678 C   0  0  0  0  0  0  0  0  0  0  0  0
   10.9097   11.8051   18.4804 C   0  0  0  0  0  0  0  0  0  0  0  0
   11.2280   12.9135   17.5669 C   0  0  0  0  0  0  0  0  0  0  0  0
   12.3782    5.4231   20.7777 C   0  0  0  0  0  0  0  0  0  0  0  0
    7.7365    4.6508   21.6987 C   0  0  0  0  0  0  0  0  0  0  0  0
   13.0186   11.0102   18.0020 C   0  0  0  0  0  0  0  0  0  0  0  0
    8.6628    5.7088   21.8871 N   0  0  0  0  0  0  0  0  0  0  0  0
    5.6516    3.5258   21.9140 C   0  0  0  0  0  0  0  0  0  0  0  0
   11.5863    9.6815   19.4539 C   0  0  0  0  0  0  0  0  0  0  0  0
   12.9648    4.1543   20.9205 C   0  0  0  0  0  0  0  0  0  0  0  0
    8.2089    3.6265   20.8929 C   0  0  0  0  0  0  0  0  0  0  0  0
    7.3827    2.5724   20.5432 C   0  0  0  0  0  0  0  0  0  0  0  0
   11.1529    7.2750   20.8025 C   0  0  0  0  0  0  0  0  0  0  0  0
   10.2573    8.3215   20.9827 C   0  0  0  0  0  0  0  0  0  0  0  0
   11.1606    5.9378   21.2366 N   0  0  0  0  0  0  0  0  0  0  0  0
    9.8932   11.6736   19.0677 O   0  0  0  0  0  0  0  0  0  0  0  0
    6.4470    4.5850   22.2321 C   0  0  0  0  0  0  0  0  0  0  0  0
    8.4619    6.9895   22.2968 C   0  0  0  0  0  0  0  0  0  0  0  0
   12.2747    7.5102   20.0420 C   0  0  0  0  0  0  0  0  0  0  0  0
   14.2544    6.2142   19.4191 C   0  0  0  0  0  0  0  0  0  0  0  0
   13.0695    6.3705   20.0375 N   0  0  0  0  0  0  0  0  0  0  0  0
    9.1913    8.0876   21.8361 N   0  0  0  0  0  0  0  0  0  0  0  0
   10.4739    9.4813   20.2889 C   0  0  0  0  0  0  0  0  0  0  0  0
    7.5551    7.1270   23.1200 O   0  0  0  0  0  0  0  0  0  0  0  0
  1 11  4  0
  1 21  4  0
  2  4  1  0
  2  8  1  0
  2 11  1  0
  3 10  4  0
  3 14  4  0
  4  5  1  0
  4 18  2  0
  6 12  1  0
  6 17  4  0
  6 23  4  0
  7  9  1  0
  7 13  4  0
  7 19  4  0
  9 20  1  0
 10 19  4  0
 11 25  4  0
 13 14  4  0
 15 16  4  0
 15 17  4  0
 15 21  4  0
 16 24  1  0
 16 25  4  0
 20 24  1  0
 20 26  2  0
 21 23  4  0
 22 23  1  0
M  END
$$$$

 Created by Python create_sdf_string function

 26 28  0  0  0  0  0  0  0  0999 V2000
   12.4616    8.6700   19.4180 N   0  0  0  0  0  0  0  0  0  0  0  0
   11.8329   10.8148   18.6769 N   0  0  0  0  0  0  0  0  0  0  0  0
    6.1021    2.5564   21.0678 C   0  0  0  0  0  0  0  0  0  0  0  0
   10.9097   11.8051   18.4804 C   0  0  0  0  0  0  0  0  0  0  0  0
   11.2280   12.9135   17.5669 C   0  0  0  0  0  0  0  0  0  0  0  0
   12.3782    5.4231   20.7777 C   0  0  0  0  0  0  0  0  0  0  0  0
    7.7365    4.6508   21.6987 C   0  0  0  0  0  0  0  0  0  0  0  0
   13.0186   11.0102   18.0020 C   0  0  0  0  0  0  0  0  0  0  0  0
    8.6628    5.7088   21.8871 N   0  0  0  0  0  0  0  0  0  0  0  0
    5.6516    3.5258   21.9140 C   0  0  0  0  0  0  0  0  0  0  0  0
   11.5863    9.6815   19.4539 C   0  0  0  0  0  0  0  0  0  0  0  0
   12.9648    4.1543   20.9205 C   0  0  0  0  0  0  0  0  0  0  0  0
    8.2089    3.6265   20.8929 C   0  0  0  0  0  0  0  0  0  0  0  0
    7.3827    2.5724   20.5432 C   0  0  0  0  0  0  0  0  0  0  0  0
   11.1529    7.2750   20.8025 C   0  0  0  0  0  0  0  0  0  0  0  0
   10.2573    8.3215   20.9827 C   0  0  0  0  0  0  0  0  0  0  0  0
   11.1606    5.9378   21.2366 N   0  0  0  0  0  0  0  0  0  0  0  0
    9.8932   11.6736   19.0677 O   0  0  0  0  0  0  0  0  0  0  0  0
    6.4470    4.5850   22.2321 C   0  0  0  0  0  0  0  0  0  0  0  0
    8.4619    6.9895   22.2968 C   0  0  0  0  0  0  0  0  0  0  0  0
   12.2747    7.5102   20.0420 C   0  0  0  0  0  0  0  0  0  0  0  0
   14.2544    6.2142   19.4191 C   0  0  0  0  0  0  0  0  0  0  0  0
   13.0695    6.3705   20.0375 N   0  0  0  0  0  0  0  0  0  0  0  0
    9.1913    8.0876   21.8361 N   0  0  0  0  0  0  0  0  0  0  0  0
   10.4739    9.4813   20.2889 C   0  0  0  0  0  0  0  0  0  0  0  0
    7.5551    7.1270   23.1200 O   0  0  0  0  0  0  0  0  0  0  0  0
  1 11  4  0
  1 21  4  0
  2  4  1  0
  2  8  1  0
  2 11  1  0
  3 10  4  0
  3 14  4  0
  4  5  1  0
  4 18  2  0
  6 12  1  0
  6 17  4  0
  6 23  4  0
  7  9  1  0
  7 13  4  0
  7 19  4  0
  9 20  1  0
 10 19  4  0
 11 25  4  0
 13 14  4  0
 15 16  4  0
 15 17  4  0
 15 21  4  0
 16 24  1  0
 16 25  4  0
 20 24  1  0
 20 26  2  0
 21 23  4  0
 22 23  1  0
M  END
$$$$

 Created by Python create_sdf_string function

 26 28  0  0  0  0  0  0  0  0999 V2000
   12.4616    8.6700   19.4180 N   0  0  0  0  0  0  0  0  0  0  0  0
   11.8329   10.8148   18.6769 N   0  0  0  0  0  0  0  0  0  0  0  0
    6.1021    2.5564   21.0678 C   0  0  0  0  0  0  0  0  0  0  0  0
   10.9097   11.8051   18.4804 C   0  0  0  0  0  0  0  0  0  0  0  0
   11.2280   12.9135   17.5669 C   0  0  0  0  0  0  0  0  0  0  0  0
   12.3782    5.4231   20.7777 C   0  0  0  0  0  0  0  0  0  0  0  0
    7.7365    4.6508   21.6987 C   0  0  0  0  0  0  0  0  0  0  0  0
   13.0186   11.0102   18.0020 C   0  0  0  0  0  0  0  0  0  0  0  0
    8.6628    5.7088   21.8871 N   0  0  0  0  0  0  0  0  0  0  0  0
    5.6516    3.5258   21.9140 C   0  0  0  0  0  0  0  0  0  0  0  0
   11.5863    9.6815   19.4539 C   0  0  0  0  0  0  0  0  0  0  0  0
   12.9648    4.1543   20.9205 C   0  0  0  0  0  0  0  0  0  0  0  0
    8.2089    3.6265   20.8929 C   0  0  0  0  0  0  0  0  0  0  0  0
    7.3827    2.5724   20.5432 C   0  0  0  0  0  0  0  0  0  0  0  0
   11.1529    7.2750   20.8025 C   0  0  0  0  0  0  0  0  0  0  0  0
   10.2573    8.3215   20.9827 C   0  0  0  0  0  0  0  0  0  0  0  0
   11.1606    5.9378   21.2366 N   0  0  0  0  0  0  0  0  0  0  0  0
    9.8932   11.6736   19.0677 O   0  0  0  0  0  0  0  0  0  0  0  0
    6.4470    4.5850   22.2321 C   0  0  0  0  0  0  0  0  0  0  0  0
    8.4619    6.9895   22.2968 C   0  0  0  0  0  0  0  0  0  0  0  0
   12.2747    7.5102   20.0420 C   0  0  0  0  0  0  0  0  0  0  0  0
   14.2544    6.2142   19.4191 C   0  0  0  0  0  0  0  0  0  0  0  0
   13.0695    6.3705   20.0375 N   0  0  0  0  0  0  0  0  0  0  0  0
    9.1913    8.0876   21.8361 N   0  0  0  0  0  0  0  0  0  0  0  0
   10.4739    9.4813   20.2889 C   0  0  0  0  0  0  0  0  0  0  0  0
    7.5551    7.1270   23.1200 O   0  0  0  0  0  0  0  0  0  0  0  0
  1 11  4  0
  1 21  4  0
  2  4  1  0
  2  8  1  0
  2 11  1  0
  3 10  4  0
  3 14  4  0
  4  5  1  0
  4 18  2  0
  6 12  1  0
  6 17  4  0
  6 23  4  0
  7  9  1  0
  7 13  4  0
  7 19  4  0
  9 20  1  0
 10 19  4  0
 11 25  4  0
 13 14  4  0
 15 16  4  0
 15 17  4  0
 15 21  4  0
 16 24  1  0
 16 25  4  0
 20 24  1  0
 20 26  2  0
 21 23  4  0
 22 23  1  0
M  END
$$$$

 Created by Python create_sdf_string function

 26 28  0  0  0  0  0  0  0  0999 V2000
   12.4616    8.6700   19.4180 N   0  0  0  0  0  0  0  0  0  0  0  0
   11.8329   10.8148   18.6769 N   0  0  0  0  0  0  0  0  0  0  0  0
    6.1021    2.5564   21.0678 C   0  0  0  0  0  0  0  0  0  0  0  0
   10.9097   11.8051   18.4804 C   0  0  0  0  0  0  0  0  0  0  0  0
   11.2280   12.9135   17.5669 C   0  0  0  0  0  0  0  0  0  0  0  0
   12.3782    5.4231   20.7777 C   0  0  0  0  0  0  0  0  0  0  0  0
    7.7365    4.6508   21.6987 C   0  0  0  0  0  0  0  0  0  0  0  0
   13.0186   11.0102   18.0020 C   0  0  0  0  0  0  0  0  0  0  0  0
    8.6628    5.7088   21.8871 N   0  0  0  0  0  0  0  0  0  0  0  0
    5.6516    3.5258   21.9140 C   0  0  0  0  0  0  0  0  0  0  0  0
   11.5863    9.6815   19.4539 C   0  0  0  0  0  0  0  0  0  0  0  0
   12.9648    4.1543   20.9205 C   0  0  0  0  0  0  0  0  0  0  0  0
    8.2089    3.6265   20.8929 C   0  0  0  0  0  0  0  0  0  0  0  0
    7.3827    2.5724   20.5432 C   0  0  0  0  0  0  0  0  0  0  0  0
   11.1529    7.2750   20.8025 C   0  0  0  0  0  0  0  0  0  0  0  0
   10.2573    8.3215   20.9827 C   0  0  0  0  0  0  0  0  0  0  0  0
   11.1606    5.9378   21.2366 N   0  0  0  0  0  0  0  0  0  0  0  0
    9.8932   11.6736   19.0677 O   0  0  0  0  0  0  0  0  0  0  0  0
    6.4470    4.5850   22.2321 C   0  0  0  0  0  0  0  0  0  0  0  0
    8.4619    6.9895   22.2968 C   0  0  0  0  0  0  0  0  0  0  0  0
   12.2747    7.5102   20.0420 C   0  0  0  0  0  0  0  0  0  0  0  0
   14.2544    6.2142   19.4191 C   0  0  0  0  0  0  0  0  0  0  0  0
   13.0695    6.3705   20.0375 N   0  0  0  0  0  0  0  0  0  0  0  0
    9.1913    8.0876   21.8361 N   0  0  0  0  0  0  0  0  0  0  0  0
   10.4739    9.4813   20.2889 C   0  0  0  0  0  0  0  0  0  0  0  0
    7.5551    7.1270   23.1200 O   0  0  0  0  0  0  0  0  0  0  0  0
  1 11  4  0
  1 21  4  0
  2  4  1  0
  2  8  1  0
  2 11  1  0
  3 10  4  0
  3 14  4  0
  4  5  1  0
  4 18  2  0
  6 12  1  0
  6 17  4  0
  6 23  4  0
  7  9  1  0
  7 13  4  0
  7 19  4  0
  9 20  1  0
 10 19  4  0
 11 25  4  0
 13 14  4  0
 15 16  4  0
 15 17  4  0
 15 21  4  0
 16 24  1  0
 16 25  4  0
 20 24  1  0
 20 26  2  0
 21 23  4  0
 22 23  1  0
M  END
$$$$

 Created by Python create_sdf_string function

 26 28  0  0  0  0  0  0  0  0999 V2000
   12.4616    8.6700   19.4180 N   0  0  0  0  0  0  0  0  0  0  0  0
   11.8329   10.8148   18.6769 N   0  0  0  0  0  0  0  0  0  0  0  0
    6.1021    2.5564   21.0678 C   0  0  0  0  0  0  0  0  0  0  0  0
   10.9097   11.8051   18.4804 C   0  0  0  0  0  0  0  0  0  0  0  0
   11.2280   12.9135   17.5669 C   0  0  0  0  0  0  0  0  0  0  0  0
   12.3782    5.4231   20.7777 C   0  0  0  0  0  0  0  0  0  0  0  0
    7.7365    4.6508   21.6987 C   0  0  0  0  0  0  0  0  0  0  0  0
   13.0186   11.0102   18.0020 C   0  0  0  0  0  0  0  0  0  0  0  0
    8.6628    5.7088   21.8871 N   0  0  0  0  0  0  0  0  0  0  0  0
    5.6516    3.5258   21.9140 C   0  0  0  0  0  0  0  0  0  0  0  0
   11.5863    9.6815   19.4539 C   0  0  0  0  0  0  0  0  0  0  0  0
   12.9648    4.1543   20.9205 C   0  0  0  0  0  0  0  0  0  0  0  0
    8.2089    3.6265   20.8929 C   0  0  0  0  0  0  0  0  0  0  0  0
    7.3827    2.5724   20.5432 C   0  0  0  0  0  0  0  0  0  0  0  0
   11.1529    7.2750   20.8025 C   0  0  0  0  0  0  0  0  0  0  0  0
   10.2573    8.3215   20.9827 C   0  0  0  0  0  0  0  0  0  0  0  0
   11.1606    5.9378   21.2366 N   0  0  0  0  0  0  0  0  0  0  0  0
    9.8932   11.6736   19.0677 O   0  0  0  0  0  0  0  0  0  0  0  0
    6.4470    4.5850   22.2321 C   0  0  0  0  0  0  0  0  0  0  0  0
    8.4619    6.9895   22.2968 C   0  0  0  0  0  0  0  0  0  0  0  0
   12.2747    7.5102   20.0420 C   0  0  0  0  0  0  0  0  0  0  0  0
   14.2544    6.2142   19.4191 C   0  0  0  0  0  0  0  0  0  0  0  0
   13.0695    6.3705   20.0375 N   0  0  0  0  0  0  0  0  0  0  0  0
    9.1913    8.0876   21.8361 N   0  0  0  0  0  0  0  0  0  0  0  0
   10.4739    9.4813   20.2889 C   0  0  0  0  0  0  0  0  0  0  0  0
    7.5551    7.1270   23.1200 O   0  0  0  0  0  0  0  0  0  0  0  0
  1 11  4  0
  1 21  4  0
  2  4  1  0
  2  8  1  0
  2 11  1  0
  3 10  4  0
  3 14  4  0
  4  5  1  0
  4 18  2  0
  6 12  1  0
  6 17  4  0
  6 23  4  0
  7  9  1  0
  7 13  4  0
  7 19  4  0
  9 20  1  0
 10 19  4  0
 11 25  4  0
 13 14  4  0
 15 16  4  0
 15 17  4  0
 15 21  4  0
 16 24  1  0
 16 25  4  0
 20 24  1  0
 20 26  2  0
 21 23  4  0
 22 23  1  0
M  END
$$$$

 Created by Python create_sdf_string function

 26 28  0  0  0  0  0  0  0  0999 V2000
   12.4616    8.6700   19.4180 N   0  0  0  0  0  0  0  0  0  0  0  0
   11.8329   10.8148   18.6769 N   0  0  0  0  0  0  0  0  0  0  0  0
    6.1021    2.5564   21.0678 C   0  0  0  0  0  0  0  0  0  0  0  0
   10.9097   11.8051   18.4804 C   0  0  0  0  0  0  0  0  0  0  0  0
   11.2280   12.9135   17.5669 C   0  0  0  0  0  0  0  0  0  0  0  0
   12.3782    5.4231   20.7777 C   0  0  0  0  0  0  0  0  0  0  0  0
    7.7365    4.6508   21.6987 C   0  0  0  0  0  0  0  0  0  0  0  0
   13.0186   11.0102   18.0020 C   0  0  0  0  0  0  0  0  0  0  0  0
    8.6628    5.7088   21.8871 N   0  0  0  0  0  0  0  0  0  0  0  0
    5.6516    3.5258   21.9140 C   0  0  0  0  0  0  0  0  0  0  0  0
   11.5863    9.6815   19.4539 C   0  0  0  0  0  0  0  0  0  0  0  0
   12.9648    4.1543   20.9205 C   0  0  0  0  0  0  0  0  0  0  0  0
    8.2089    3.6265   20.8929 C   0  0  0  0  0  0  0  0  0  0  0  0
    7.3827    2.5724   20.5432 C   0  0  0  0  0  0  0  0  0  0  0  0
   11.1529    7.2750   20.8025 C   0  0  0  0  0  0  0  0  0  0  0  0
   10.2573    8.3215   20.9827 C   0  0  0  0  0  0  0  0  0  0  0  0
   11.1606    5.9378   21.2366 N   0  0  0  0  0  0  0  0  0  0  0  0
    9.8932   11.6736   19.0677 O   0  0  0  0  0  0  0  0  0  0  0  0
    6.4470    4.5850   22.2321 C   0  0  0  0  0  0  0  0  0  0  0  0
    8.4619    6.9895   22.2968 C   0  0  0  0  0  0  0  0  0  0  0  0
   12.2747    7.5102   20.0420 C   0  0  0  0  0  0  0  0  0  0  0  0
   14.2544    6.2142   19.4191 C   0  0  0  0  0  0  0  0  0  0  0  0
   13.0695    6.3705   20.0375 N   0  0  0  0  0  0  0  0  0  0  0  0
    9.1913    8.0876   21.8361 N   0  0  0  0  0  0  0  0  0  0  0  0
   10.4739    9.4813   20.2889 C   0  0  0  0  0  0  0  0  0  0  0  0
    7.5551    7.1270   23.1200 O   0  0  0  0  0  0  0  0  0  0  0  0
  1 11  4  0
  1 21  4  0
  2  4  1  0
  2  8  1  0
  2 11  1  0
  3 10  4  0
  3 14  4  0
  4  5  1  0
  4 18  2  0
  6 12  1  0
  6 17  4  0
  6 23  4  0
  7  9  1  0
  7 13  4  0
  7 19  4  0
  9 20  1  0
 10 19  4  0
 11 25  4  0
 13 14  4  0
 15 16  4  0
 15 17  4  0
 15 21  4  0
 16 24  1  0
 16 25  4  0
 20 24  1  0
 20 26  2  0
 21 23  4  0
 22 23  1  0
M  END
$$$$

 Created by Python create_sdf_string function

 26 28  0  0  0  0  0  0  0  0999 V2000
   12.4616    8.6700   19.4180 N   0  0  0  0  0  0  0  0  0  0  0  0
   11.8329   10.8148   18.6769 N   0  0  0  0  0  0  0  0  0  0  0  0
    6.1021    2.5564   21.0678 C   0  0  0  0  0  0  0  0  0  0  0  0
   10.9097   11.8051   18.4804 C   0  0  0  0  0  0  0  0  0  0  0  0
   11.2280   12.9135   17.5669 C   0  0  0  0  0  0  0  0  0  0  0  0
   12.3782    5.4231   20.7777 C   0  0  0  0  0  0  0  0  0  0  0  0
    7.7365    4.6508   21.6987 C   0  0  0  0  0  0  0  0  0  0  0  0
   13.0186   11.0102   18.0020 C   0  0  0  0  0  0  0  0  0  0  0  0
    8.6628    5.7088   21.8871 N   0  0  0  0  0  0  0  0  0  0  0  0
    5.6516    3.5258   21.9140 C   0  0  0  0  0  0  0  0  0  0  0  0
   11.5863    9.6815   19.4539 C   0  0  0  0  0  0  0  0  0  0  0  0
   12.9648    4.1543   20.9205 C   0  0  0  0  0  0  0  0  0  0  0  0
    8.2089    3.6265   20.8929 C   0  0  0  0  0  0  0  0  0  0  0  0
    7.3827    2.5724   20.5432 C   0  0  0  0  0  0  0  0  0  0  0  0
   11.1529    7.2750   20.8025 C   0  0  0  0  0  0  0  0  0  0  0  0
   10.2573    8.3215   20.9827 C   0  0  0  0  0  0  0  0  0  0  0  0
   11.1606    5.9378   21.2366 N   0  0  0  0  0  0  0  0  0  0  0  0
    9.8932   11.6736   19.0677 O   0  0  0  0  0  0  0  0  0  0  0  0
    6.4470    4.5850   22.2321 C   0  0  0  0  0  0  0  0  0  0  0  0
    8.4619    6.9895   22.2968 C   0  0  0  0  0  0  0  0  0  0  0  0
   12.2747    7.5102   20.0420 C   0  0  0  0  0  0  0  0  0  0  0  0
   14.2544    6.2142   19.4191 C   0  0  0  0  0  0  0  0  0  0  0  0
   13.0695    6.3705   20.0375 N   0  0  0  0  0  0  0  0  0  0  0  0
    9.1913    8.0876   21.8361 N   0  0  0  0  0  0  0  0  0  0  0  0
   10.4739    9.4813   20.2889 C   0  0  0  0  0  0  0  0  0  0  0  0
    7.5551    7.1270   23.1200 O   0  0  0  0  0  0  0  0  0  0  0  0
  1 11  4  0
  1 21  4  0
  2  4  1  0
  2  8  1  0
  2 11  1  0
  3 10  4  0
  3 14  4  0
  4  5  1  0
  4 18  2  0
  6 12  1  0
  6 17  4  0
  6 23  4  0
  7  9  1  0
  7 13  4  0
  7 19  4  0
  9 20  1  0
 10 19  4  0
 11 25  4  0
 13 14  4  0
 15 16  4  0
 15 17  4  0
 15 21  4  0
 16 24  1  0
 16 25  4  0
 20 24  1  0
 20 26  2  0
 21 23  4  0
 22 23  1  0
M  END
$$$$

 Created by Python create_sdf_string function

 26 28  0  0  0  0  0  0  0  0999 V2000
   12.4616    8.6700   19.4180 N   0  0  0  0  0  0  0  0  0  0  0  0
   11.8329   10.8148   18.6769 N   0  0  0  0  0  0  0  0  0  0  0  0
    6.1021    2.5564   21.0678 C   0  0  0  0  0  0  0  0  0  0  0  0
   10.9097   11.8051   18.4804 C   0  0  0  0  0  0  0  0  0  0  0  0
   11.2280   12.9135   17.5669 C   0  0  0  0  0  0  0  0  0  0  0  0
   12.3782    5.4231   20.7777 C   0  0  0  0  0  0  0  0  0  0  0  0
    7.7365    4.6508   21.6987 C   0  0  0  0  0  0  0  0  0  0  0  0
   13.0186   11.0102   18.0020 C   0  0  0  0  0  0  0  0  0  0  0  0
    8.6628    5.7088   21.8871 N   0  0  0  0  0  0  0  0  0  0  0  0
    5.6516    3.5258   21.9140 C   0  0  0  0  0  0  0  0  0  0  0  0
   11.5863    9.6815   19.4539 C   0  0  0  0  0  0  0  0  0  0  0  0
   12.9648    4.1543   20.9205 C   0  0  0  0  0  0  0  0  0  0  0  0
    8.2089    3.6265   20.8929 C   0  0  0  0  0  0  0  0  0  0  0  0
    7.3827    2.5724   20.5432 C   0  0  0  0  0  0  0  0  0  0  0  0
   11.1529    7.2750   20.8025 C   0  0  0  0  0  0  0  0  0  0  0  0
   10.2573    8.3215   20.9827 C   0  0  0  0  0  0  0  0  0  0  0  0
   11.1606    5.9378   21.2366 N   0  0  0  0  0  0  0  0  0  0  0  0
    9.8932   11.6736   19.0677 O   0  0  0  0  0  0  0  0  0  0  0  0
    6.4470    4.5850   22.2321 C   0  0  0  0  0  0  0  0  0  0  0  0
    8.4619    6.9895   22.2968 C   0  0  0  0  0  0  0  0  0  0  0  0
   12.2747    7.5102   20.0420 C   0  0  0  0  0  0  0  0  0  0  0  0
   14.2544    6.2142   19.4191 C   0  0  0  0  0  0  0  0  0  0  0  0
   13.0695    6.3705   20.0375 N   0  0  0  0  0  0  0  0  0  0  0  0
    9.1913    8.0876   21.8361 N   0  0  0  0  0  0  0  0  0  0  0  0
   10.4739    9.4813   20.2889 C   0  0  0  0  0  0  0  0  0  0  0  0
    7.5551    7.1270   23.1200 O   0  0  0  0  0  0  0  0  0  0  0  0
  1 11  4  0
  1 21  4  0
  2  4  1  0
  2  8  1  0
  2 11  1  0
  3 10  4  0
  3 14  4  0
  4  5  1  0
  4 18  2  0
  6 12  1  0
  6 17  4  0
  6 23  4  0
  7  9  1  0
  7 13  4  0
  7 19  4  0
  9 20  1  0
 10 19  4  0
 11 25  4  0
 13 14  4  0
 15 16  4  0
 15 17  4  0
 15 21  4  0
 16 24  1  0
 16 25  4  0
 20 24  1  0
 20 26  2  0
 21 23  4  0
 22 23  1  0
M  END
$$$$

 Created by Python create_sdf_string function

 26 28  0  0  0  0  0  0  0  0999 V2000
   12.4616    8.6700   19.4180 N   0  0  0  0  0  0  0  0  0  0  0  0
   11.8329   10.8148   18.6769 N   0  0  0  0  0  0  0  0  0  0  0  0
    6.1021    2.5564   21.0678 C   0  0  0  0  0  0  0  0  0  0  0  0
   10.9097   11.8051   18.4804 C   0  0  0  0  0  0  0  0  0  0  0  0
   11.2280   12.9135   17.5669 C   0  0  0  0  0  0  0  0  0  0  0  0
   12.3782    5.4231   20.7777 C   0  0  0  0  0  0  0  0  0  0  0  0
    7.7365    4.6508   21.6987 C   0  0  0  0  0  0  0  0  0  0  0  0
   13.0186   11.0102   18.0020 C   0  0  0  0  0  0  0  0  0  0  0  0
    8.6628    5.7088   21.8871 N   0  0  0  0  0  0  0  0  0  0  0  0
    5.6516    3.5258   21.9140 C   0  0  0  0  0  0  0  0  0  0  0  0
   11.5863    9.6815   19.4539 C   0  0  0  0  0  0  0  0  0  0  0  0
   12.9648    4.1543   20.9205 C   0  0  0  0  0  0  0  0  0  0  0  0
    8.2089    3.6265   20.8929 C   0  0  0  0  0  0  0  0  0  0  0  0
    7.3827    2.5724   20.5432 C   0  0  0  0  0  0  0  0  0  0  0  0
   11.1529    7.2750   20.8025 C   0  0  0  0  0  0  0  0  0  0  0  0
   10.2573    8.3215   20.9827 C   0  0  0  0  0  0  0  0  0  0  0  0
   11.1606    5.9378   21.2366 N   0  0  0  0  0  0  0  0  0  0  0  0
    9.8932   11.6736   19.0677 O   0  0  0  0  0  0  0  0  0  0  0  0
    6.4470    4.5850   22.2321 C   0  0  0  0  0  0  0  0  0  0  0  0
    8.4619    6.9895   22.2968 C   0  0  0  0  0  0  0  0  0  0  0  0
   12.2747    7.5102   20.0420 C   0  0  0  0  0  0  0  0  0  0  0  0
   14.2544    6.2142   19.4191 C   0  0  0  0  0  0  0  0  0  0  0  0
   13.0695    6.3705   20.0375 N   0  0  0  0  0  0  0  0  0  0  0  0
    9.1913    8.0876   21.8361 N   0  0  0  0  0  0  0  0  0  0  0  0
   10.4739    9.4813   20.2889 C   0  0  0  0  0  0  0  0  0  0  0  0
    7.5551    7.1270   23.1200 O   0  0  0  0  0  0  0  0  0  0  0  0
  1 11  4  0
  1 21  4  0
  2  4  1  0
  2  8  1  0
  2 11  1  0
  3 10  4  0
  3 14  4  0
  4  5  1  0
  4 18  2  0
  6 12  1  0
  6 17  4  0
  6 23  4  0
  7  9  1  0
  7 13  4  0
  7 19  4  0
  9 20  1  0
 10 19  4  0
 11 25  4  0
 13 14  4  0
 15 16  4  0
 15 17  4  0
 15 21  4  0
 16 24  1  0
 16 25  4  0
 20 24  1  0
 20 26  2  0
 21 23  4  0
 22 23  1  0
M  END
$$$$

 Created by Python create_sdf_string function

 26 28  0  0  0  0  0  0  0  0999 V2000
   12.4616    8.6700   19.4180 N   0  0  0  0  0  0  0  0  0  0  0  0
   11.8329   10.8148   18.6769 N   0  0  0  0  0  0  0  0  0  0  0  0
    6.1021    2.5564   21.0678 C   0  0  0  0  0  0  0  0  0  0  0  0
   10.9097   11.8051   18.4804 C   0  0  0  0  0  0  0  0  0  0  0  0
   11.2280   12.9135   17.5669 C   0  0  0  0  0  0  0  0  0  0  0  0
   12.3782    5.4231   20.7777 C   0  0  0  0  0  0  0  0  0  0  0  0
    7.7365    4.6508   21.6987 C   0  0  0  0  0  0  0  0  0  0  0  0
   13.0186   11.0102   18.0020 C   0  0  0  0  0  0  0  0  0  0  0  0
    8.6628    5.7088   21.8871 N   0  0  0  0  0  0  0  0  0  0  0  0
    5.6516    3.5258   21.9140 C   0  0  0  0  0  0  0  0  0  0  0  0
   11.5863    9.6815   19.4539 C   0  0  0  0  0  0  0  0  0  0  0  0
   12.9648    4.1543   20.9205 C   0  0  0  0  0  0  0  0  0  0  0  0
    8.2089    3.6265   20.8929 C   0  0  0  0  0  0  0  0  0  0  0  0
    7.3827    2.5724   20.5432 C   0  0  0  0  0  0  0  0  0  0  0  0
   11.1529    7.2750   20.8025 C   0  0  0  0  0  0  0  0  0  0  0  0
   10.2573    8.3215   20.9827 C   0  0  0  0  0  0  0  0  0  0  0  0
   11.1606    5.9378   21.2366 N   0  0  0  0  0  0  0  0  0  0  0  0
    9.8932   11.6736   19.0677 O   0  0  0  0  0  0  0  0  0  0  0  0
    6.4470    4.5850   22.2321 C   0  0  0  0  0  0  0  0  0  0  0  0
    8.4619    6.9895   22.2968 C   0  0  0  0  0  0  0  0  0  0  0  0
   12.2747    7.5102   20.0420 C   0  0  0  0  0  0  0  0  0  0  0  0
   14.2544    6.2142   19.4191 C   0  0  0  0  0  0  0  0  0  0  0  0
   13.0695    6.3705   20.0375 N   0  0  0  0  0  0  0  0  0  0  0  0
    9.1913    8.0876   21.8361 N   0  0  0  0  0  0  0  0  0  0  0  0
   10.4739    9.4813   20.2889 C   0  0  0  0  0  0  0  0  0  0  0  0
    7.5551    7.1270   23.1200 O   0  0  0  0  0  0  0  0  0  0  0  0
  1 11  4  0
  1 21  4  0
  2  4  1  0
  2  8  1  0
  2 11  1  0
  3 10  4  0
  3 14  4  0
  4  5  1  0
  4 18  2  0
  6 12  1  0
  6 17  4  0
  6 23  4  0
  7  9  1  0
  7 13  4  0
  7 19  4  0
  9 20  1  0
 10 19  4  0
 11 25  4  0
 13 14  4  0
 15 16  4  0
 15 17  4  0
 15 21  4  0
 16 24  1  0
 16 25  4  0
 20 24  1  0
 20 26  2  0
 21 23  4  0
 22 23  1  0
M  END
$$$$

 Created by Python create_sdf_string function

 26 28  0  0  0  0  0  0  0  0999 V2000
   12.4616    8.6700   19.4180 N   0  0  0  0  0  0  0  0  0  0  0  0
   11.8329   10.8148   18.6769 N   0  0  0  0  0  0  0  0  0  0  0  0
    6.1021    2.5564   21.0678 C   0  0  0  0  0  0  0  0  0  0  0  0
   10.9097   11.8051   18.4804 C   0  0  0  0  0  0  0  0  0  0  0  0
   11.2280   12.9135   17.5669 C   0  0  0  0  0  0  0  0  0  0  0  0
   12.3782    5.4231   20.7777 C   0  0  0  0  0  0  0  0  0  0  0  0
    7.7365    4.6508   21.6987 C   0  0  0  0  0  0  0  0  0  0  0  0
   13.0186   11.0102   18.0020 C   0  0  0  0  0  0  0  0  0  0  0  0
    8.6628    5.7088   21.8871 N   0  0  0  0  0  0  0  0  0  0  0  0
    5.6516    3.5258   21.9140 C   0  0  0  0  0  0  0  0  0  0  0  0
   11.5863    9.6815   19.4539 C   0  0  0  0  0  0  0  0  0  0  0  0
   12.9648    4.1543   20.9205 C   0  0  0  0  0  0  0  0  0  0  0  0
    8.2089    3.6265   20.8929 C   0  0  0  0  0  0  0  0  0  0  0  0
    7.3827    2.5724   20.5432 C   0  0  0  0  0  0  0  0  0  0  0  0
   11.1529    7.2750   20.8025 C   0  0  0  0  0  0  0  0  0  0  0  0
   10.2573    8.3215   20.9827 C   0  0  0  0  0  0  0  0  0  0  0  0
   11.1606    5.9378   21.2366 N   0  0  0  0  0  0  0  0  0  0  0  0
    9.8932   11.6736   19.0677 O   0  0  0  0  0  0  0  0  0  0  0  0
    6.4470    4.5850   22.2321 C   0  0  0  0  0  0  0  0  0  0  0  0
    8.4619    6.9895   22.2968 C   0  0  0  0  0  0  0  0  0  0  0  0
   12.2747    7.5102   20.0420 C   0  0  0  0  0  0  0  0  0  0  0  0
   14.2544    6.2142   19.4191 C   0  0  0  0  0  0  0  0  0  0  0  0
   13.0695    6.3705   20.0375 N   0  0  0  0  0  0  0  0  0  0  0  0
    9.1913    8.0876   21.8361 N   0  0  0  0  0  0  0  0  0  0  0  0
   10.4739    9.4813   20.2889 C   0  0  0  0  0  0  0  0  0  0  0  0
    7.5551    7.1270   23.1200 O   0  0  0  0  0  0  0  0  0  0  0  0
  1 11  4  0
  1 21  4  0
  2  4  1  0
  2  8  1  0
  2 11  1  0
  3 10  4  0
  3 14  4  0
  4  5  1  0
  4 18  2  0
  6 12  1  0
  6 17  4  0
  6 23  4  0
  7  9  1  0
  7 13  4  0
  7 19  4  0
  9 20  1  0
 10 19  4  0
 11 25  4  0
 13 14  4  0
 15 16  4  0
 15 17  4  0
 15 21  4  0
 16 24  1  0
 16 25  4  0
 20 24  1  0
 20 26  2  0
 21 23  4  0
 22 23  1  0
M  END
$$$$

 Created by Python create_sdf_string function

 26 28  0  0  0  0  0  0  0  0999 V2000
   12.4616    8.6700   19.4180 N   0  0  0  0  0  0  0  0  0  0  0  0
   11.8329   10.8148   18.6769 N   0  0  0  0  0  0  0  0  0  0  0  0
    6.1021    2.5564   21.0678 C   0  0  0  0  0  0  0  0  0  0  0  0
   10.9097   11.8051   18.4804 C   0  0  0  0  0  0  0  0  0  0  0  0
   11.2280   12.9135   17.5669 C   0  0  0  0  0  0  0  0  0  0  0  0
   12.3782    5.4231   20.7777 C   0  0  0  0  0  0  0  0  0  0  0  0
    7.7365    4.6508   21.6987 C   0  0  0  0  0  0  0  0  0  0  0  0
   13.0186   11.0102   18.0020 C   0  0  0  0  0  0  0  0  0  0  0  0
    8.6628    5.7088   21.8871 N   0  0  0  0  0  0  0  0  0  0  0  0
    5.6516    3.5258   21.9140 C   0  0  0  0  0  0  0  0  0  0  0  0
   11.5863    9.6815   19.4539 C   0  0  0  0  0  0  0  0  0  0  0  0
   12.9648    4.1543   20.9205 C   0  0  0  0  0  0  0  0  0  0  0  0
    8.2089    3.6265   20.8929 C   0  0  0  0  0  0  0  0  0  0  0  0
    7.3827    2.5724   20.5432 C   0  0  0  0  0  0  0  0  0  0  0  0
   11.1529    7.2750   20.8025 C   0  0  0  0  0  0  0  0  0  0  0  0
   10.2573    8.3215   20.9827 C   0  0  0  0  0  0  0  0  0  0  0  0
   11.1606    5.9378   21.2366 N   0  0  0  0  0  0  0  0  0  0  0  0
    9.8932   11.6736   19.0677 O   0  0  0  0  0  0  0  0  0  0  0  0
    6.4470    4.5850   22.2321 C   0  0  0  0  0  0  0  0  0  0  0  0
    8.4619    6.9895   22.2968 C   0  0  0  0  0  0  0  0  0  0  0  0
   12.2747    7.5102   20.0420 C   0  0  0  0  0  0  0  0  0  0  0  0
   14.2544    6.2142   19.4191 C   0  0  0  0  0  0  0  0  0  0  0  0
   13.0695    6.3705   20.0375 N   0  0  0  0  0  0  0  0  0  0  0  0
    9.1913    8.0876   21.8361 N   0  0  0  0  0  0  0  0  0  0  0  0
   10.4739    9.4813   20.2889 C   0  0  0  0  0  0  0  0  0  0  0  0
    7.5551    7.1270   23.1200 O   0  0  0  0  0  0  0  0  0  0  0  0
  1 11  4  0
  1 21  4  0
  2  4  1  0
  2  8  1  0
  2 11  1  0
  3 10  4  0
  3 14  4  0
  4  5  1  0
  4 18  2  0
  6 12  1  0
  6 17  4  0
  6 23  4  0
  7  9  1  0
  7 13  4  0
  7 19  4  0
  9 20  1  0
 10 19  4  0
 11 25  4  0
 13 14  4  0
 15 16  4  0
 15 17  4  0
 15 21  4  0
 16 24  1  0
 16 25  4  0
 20 24  1  0
 20 26  2  0
 21 23  4  0
 22 23  1  0
M  END
$$$$

 Created by Python create_sdf_string function

 26 28  0  0  0  0  0  0  0  0999 V2000
   12.4616    8.6700   19.4180 N   0  0  0  0  0  0  0  0  0  0  0  0
   11.8329   10.8148   18.6769 N   0  0  0  0  0  0  0  0  0  0  0  0
    6.1021    2.5564   21.0678 C   0  0  0  0  0  0  0  0  0  0  0  0
   10.9097   11.8051   18.4804 C   0  0  0  0  0  0  0  0  0  0  0  0
   11.2280   12.9135   17.5669 C   0  0  0  0  0  0  0  0  0  0  0  0
   12.3782    5.4231   20.7777 C   0  0  0  0  0  0  0  0  0  0  0  0
    7.7365    4.6508   21.6987 C   0  0  0  0  0  0  0  0  0  0  0  0
   13.0186   11.0102   18.0020 C   0  0  0  0  0  0  0  0  0  0  0  0
    8.6628    5.7088   21.8871 N   0  0  0  0  0  0  0  0  0  0  0  0
    5.6516    3.5258   21.9140 C   0  0  0  0  0  0  0  0  0  0  0  0
   11.5863    9.6815   19.4539 C   0  0  0  0  0  0  0  0  0  0  0  0
   12.9648    4.1543   20.9205 C   0  0  0  0  0  0  0  0  0  0  0  0
    8.2089    3.6265   20.8929 C   0  0  0  0  0  0  0  0  0  0  0  0
    7.3827    2.5724   20.5432 C   0  0  0  0  0  0  0  0  0  0  0  0
   11.1529    7.2750   20.8025 C   0  0  0  0  0  0  0  0  0  0  0  0
   10.2573    8.3215   20.9827 C   0  0  0  0  0  0  0  0  0  0  0  0
   11.1606    5.9378   21.2366 N   0  0  0  0  0  0  0  0  0  0  0  0
    9.8932   11.6736   19.0677 O   0  0  0  0  0  0  0  0  0  0  0  0
    6.4470    4.5850   22.2321 C   0  0  0  0  0  0  0  0  0  0  0  0
    8.4619    6.9895   22.2968 C   0  0  0  0  0  0  0  0  0  0  0  0
   12.2747    7.5102   20.0420 C   0  0  0  0  0  0  0  0  0  0  0  0
   14.2544    6.2142   19.4191 C   0  0  0  0  0  0  0  0  0  0  0  0
   13.0695    6.3705   20.0375 N   0  0  0  0  0  0  0  0  0  0  0  0
    9.1913    8.0876   21.8361 N   0  0  0  0  0  0  0  0  0  0  0  0
   10.4739    9.4813   20.2889 C   0  0  0  0  0  0  0  0  0  0  0  0
    7.5551    7.1270   23.1200 O   0  0  0  0  0  0  0  0  0  0  0  0
  1 11  4  0
  1 21  4  0
  2  4  1  0
  2  8  1  0
  2 11  1  0
  3 10  4  0
  3 14  4  0
  4  5  1  0
  4 18  2  0
  6 12  1  0
  6 17  4  0
  6 23  4  0
  7  9  1  0
  7 13  4  0
  7 19  4  0
  9 20  1  0
 10 19  4  0
 11 25  4  0
 13 14  4  0
 15 16  4  0
 15 17  4  0
 15 21  4  0
 16 24  1  0
 16 25  4  0
 20 24  1  0
 20 26  2  0
 21 23  4  0
 22 23  1  0
M  END
$$$$

 Created by Python create_sdf_string function

 26 28  0  0  0  0  0  0  0  0999 V2000
   12.4616    8.6700   19.4180 N   0  0  0  0  0  0  0  0  0  0  0  0
   11.8329   10.8148   18.6769 N   0  0  0  0  0  0  0  0  0  0  0  0
    6.1021    2.5564   21.0678 C   0  0  0  0  0  0  0  0  0  0  0  0
   10.9097   11.8051   18.4804 C   0  0  0  0  0  0  0  0  0  0  0  0
   11.2280   12.9135   17.5669 C   0  0  0  0  0  0  0  0  0  0  0  0
   12.3782    5.4231   20.7777 C   0  0  0  0  0  0  0  0  0  0  0  0
    7.7365    4.6508   21.6987 C   0  0  0  0  0  0  0  0  0  0  0  0
   13.0186   11.0102   18.0020 C   0  0  0  0  0  0  0  0  0  0  0  0
    8.6628    5.7088   21.8871 N   0  0  0  0  0  0  0  0  0  0  0  0
    5.6516    3.5258   21.9140 C   0  0  0  0  0  0  0  0  0  0  0  0
   11.5863    9.6815   19.4539 C   0  0  0  0  0  0  0  0  0  0  0  0
   12.9648    4.1543   20.9205 C   0  0  0  0  0  0  0  0  0  0  0  0
    8.2089    3.6265   20.8929 C   0  0  0  0  0  0  0  0  0  0  0  0
    7.3827    2.5724   20.5432 C   0  0  0  0  0  0  0  0  0  0  0  0
   11.1529    7.2750   20.8025 C   0  0  0  0  0  0  0  0  0  0  0  0
   10.2573    8.3215   20.9827 C   0  0  0  0  0  0  0  0  0  0  0  0
   11.1606    5.9378   21.2366 N   0  0  0  0  0  0  0  0  0  0  0  0
    9.8932   11.6736   19.0677 O   0  0  0  0  0  0  0  0  0  0  0  0
    6.4470    4.5850   22.2321 C   0  0  0  0  0  0  0  0  0  0  0  0
    8.4619    6.9895   22.2968 C   0  0  0  0  0  0  0  0  0  0  0  0
   12.2747    7.5102   20.0420 C   0  0  0  0  0  0  0  0  0  0  0  0
   14.2544    6.2142   19.4191 C   0  0  0  0  0  0  0  0  0  0  0  0
   13.0695    6.3705   20.0375 N   0  0  0  0  0  0  0  0  0  0  0  0
    9.1913    8.0876   21.8361 N   0  0  0  0  0  0  0  0  0  0  0  0
   10.4739    9.4813   20.2889 C   0  0  0  0  0  0  0  0  0  0  0  0
    7.5551    7.1270   23.1200 O   0  0  0  0  0  0  0  0  0  0  0  0
  1 11  4  0
  1 21  4  0
  2  4  1  0
  2  8  1  0
  2 11  1  0
  3 10  4  0
  3 14  4  0
  4  5  1  0
  4 18  2  0
  6 12  1  0
  6 17  4  0
  6 23  4  0
  7  9  1  0
  7 13  4  0
  7 19  4  0
  9 20  1  0
 10 19  4  0
 11 25  4  0
 13 14  4  0
 15 16  4  0
 15 17  4  0
 15 21  4  0
 16 24  1  0
 16 25  4  0
 20 24  1  0
 20 26  2  0
 21 23  4  0
 22 23  1  0
M  END
$$$$

 Created by Python create_sdf_string function

 26 28  0  0  0  0  0  0  0  0999 V2000
   12.4616    8.6700   19.4180 N   0  0  0  0  0  0  0  0  0  0  0  0
   11.8329   10.8148   18.6769 N   0  0  0  0  0  0  0  0  0  0  0  0
    6.1021    2.5564   21.0678 C   0  0  0  0  0  0  0  0  0  0  0  0
   10.9097   11.8051   18.4804 C   0  0  0  0  0  0  0  0  0  0  0  0
   11.2280   12.9135   17.5669 C   0  0  0  0  0  0  0  0  0  0  0  0
   12.3782    5.4231   20.7777 C   0  0  0  0  0  0  0  0  0  0  0  0
    7.7365    4.6508   21.6987 C   0  0  0  0  0  0  0  0  0  0  0  0
   13.0186   11.0102   18.0020 C   0  0  0  0  0  0  0  0  0  0  0  0
    8.6628    5.7088   21.8871 N   0  0  0  0  0  0  0  0  0  0  0  0
    5.6516    3.5258   21.9140 C   0  0  0  0  0  0  0  0  0  0  0  0
   11.5863    9.6815   19.4539 C   0  0  0  0  0  0  0  0  0  0  0  0
   12.9648    4.1543   20.9205 C   0  0  0  0  0  0  0  0  0  0  0  0
    8.2089    3.6265   20.8929 C   0  0  0  0  0  0  0  0  0  0  0  0
    7.3827    2.5724   20.5432 C   0  0  0  0  0  0  0  0  0  0  0  0
   11.1529    7.2750   20.8025 C   0  0  0  0  0  0  0  0  0  0  0  0
   10.2573    8.3215   20.9827 C   0  0  0  0  0  0  0  0  0  0  0  0
   11.1606    5.9378   21.2366 N   0  0  0  0  0  0  0  0  0  0  0  0
    9.8932   11.6736   19.0677 O   0  0  0  0  0  0  0  0  0  0  0  0
    6.4470    4.5850   22.2321 C   0  0  0  0  0  0  0  0  0  0  0  0
    8.4619    6.9895   22.2968 C   0  0  0  0  0  0  0  0  0  0  0  0
   12.2747    7.5102   20.0420 C   0  0  0  0  0  0  0  0  0  0  0  0
   14.2544    6.2142   19.4191 C   0  0  0  0  0  0  0  0  0  0  0  0
   13.0695    6.3705   20.0375 N   0  0  0  0  0  0  0  0  0  0  0  0
    9.1913    8.0876   21.8361 N   0  0  0  0  0  0  0  0  0  0  0  0
   10.4739    9.4813   20.2889 C   0  0  0  0  0  0  0  0  0  0  0  0
    7.5551    7.1270   23.1200 O   0  0  0  0  0  0  0  0  0  0  0  0
  1 11  4  0
  1 21  4  0
  2  4  1  0
  2  8  1  0
  2 11  1  0
  3 10  4  0
  3 14  4  0
  4  5  1  0
  4 18  2  0
  6 12  1  0
  6 17  4  0
  6 23  4  0
  7  9  1  0
  7 13  4  0
  7 19  4  0
  9 20  1  0
 10 19  4  0
 11 25  4  0
 13 14  4  0
 15 16  4  0
 15 17  4  0
 15 21  4  0
 16 24  1  0
 16 25  4  0
 20 24  1  0
 20 26  2  0
 21 23  4  0
 22 23  1  0
M  END
$$$$

 Created by Python create_sdf_string function

 26 28  0  0  0  0  0  0  0  0999 V2000
   12.4616    8.6700   19.4180 N   0  0  0  0  0  0  0  0  0  0  0  0
   11.8329   10.8148   18.6769 N   0  0  0  0  0  0  0  0  0  0  0  0
    6.1021    2.5564   21.0678 C   0  0  0  0  0  0  0  0  0  0  0  0
   10.9097   11.8051   18.4804 C   0  0  0  0  0  0  0  0  0  0  0  0
   11.2280   12.9135   17.5669 C   0  0  0  0  0  0  0  0  0  0  0  0
   12.3782    5.4231   20.7777 C   0  0  0  0  0  0  0  0  0  0  0  0
    7.7365    4.6508   21.6987 C   0  0  0  0  0  0  0  0  0  0  0  0
   13.0186   11.0102   18.0020 C   0  0  0  0  0  0  0  0  0  0  0  0
    8.6628    5.7088   21.8871 N   0  0  0  0  0  0  0  0  0  0  0  0
    5.6516    3.5258   21.9140 C   0  0  0  0  0  0  0  0  0  0  0  0
   11.5863    9.6815   19.4539 C   0  0  0  0  0  0  0  0  0  0  0  0
   12.9648    4.1543   20.9205 C   0  0  0  0  0  0  0  0  0  0  0  0
    8.2089    3.6265   20.8929 C   0  0  0  0  0  0  0  0  0  0  0  0
    7.3827    2.5724   20.5432 C   0  0  0  0  0  0  0  0  0  0  0  0
   11.1529    7.2750   20.8025 C   0  0  0  0  0  0  0  0  0  0  0  0
   10.2573    8.3215   20.9827 C   0  0  0  0  0  0  0  0  0  0  0  0
   11.1606    5.9378   21.2366 N   0  0  0  0  0  0  0  0  0  0  0  0
    9.8932   11.6736   19.0677 O   0  0  0  0  0  0  0  0  0  0  0  0
    6.4470    4.5850   22.2321 C   0  0  0  0  0  0  0  0  0  0  0  0
    8.4619    6.9895   22.2968 C   0  0  0  0  0  0  0  0  0  0  0  0
   12.2747    7.5102   20.0420 C   0  0  0  0  0  0  0  0  0  0  0  0
   14.2544    6.2142   19.4191 C   0  0  0  0  0  0  0  0  0  0  0  0
   13.0695    6.3705   20.0375 N   0  0  0  0  0  0  0  0  0  0  0  0
    9.1913    8.0876   21.8361 N   0  0  0  0  0  0  0  0  0  0  0  0
   10.4739    9.4813   20.2889 C   0  0  0  0  0  0  0  0  0  0  0  0
    7.5551    7.1270   23.1200 O   0  0  0  0  0  0  0  0  0  0  0  0
  1 11  4  0
  1 21  4  0
  2  4  1  0
  2  8  1  0
  2 11  1  0
  3 10  4  0
  3 14  4  0
  4  5  1  0
  4 18  2  0
  6 12  1  0
  6 17  4  0
  6 23  4  0
  7  9  1  0
  7 13  4  0
  7 19  4  0
  9 20  1  0
 10 19  4  0
 11 25  4  0
 13 14  4  0
 15 16  4  0
 15 17  4  0
 15 21  4  0
 16 24  1  0
 16 25  4  0
 20 24  1  0
 20 26  2  0
 21 23  4  0
 22 23  1  0
M  END
$$$$

 Created by Python create_sdf_string function

 26 28  0  0  0  0  0  0  0  0999 V2000
   12.4616    8.6700   19.4180 N   0  0  0  0  0  0  0  0  0  0  0  0
   11.8329   10.8148   18.6769 N   0  0  0  0  0  0  0  0  0  0  0  0
    6.1021    2.5564   21.0678 C   0  0  0  0  0  0  0  0  0  0  0  0
   10.9097   11.8051   18.4804 C   0  0  0  0  0  0  0  0  0  0  0  0
   11.2280   12.9135   17.5669 C   0  0  0  0  0  0  0  0  0  0  0  0
   12.3782    5.4231   20.7777 C   0  0  0  0  0  0  0  0  0  0  0  0
    7.7365    4.6508   21.6987 C   0  0  0  0  0  0  0  0  0  0  0  0
   13.0186   11.0102   18.0020 C   0  0  0  0  0  0  0  0  0  0  0  0
    8.6628    5.7088   21.8871 N   0  0  0  0  0  0  0  0  0  0  0  0
    5.6516    3.5258   21.9140 C   0  0  0  0  0  0  0  0  0  0  0  0
   11.5863    9.6815   19.4539 C   0  0  0  0  0  0  0  0  0  0  0  0
   12.9648    4.1543   20.9205 C   0  0  0  0  0  0  0  0  0  0  0  0
    8.2089    3.6265   20.8929 C   0  0  0  0  0  0  0  0  0  0  0  0
    7.3827    2.5724   20.5432 C   0  0  0  0  0  0  0  0  0  0  0  0
   11.1529    7.2750   20.8025 C   0  0  0  0  0  0  0  0  0  0  0  0
   10.2573    8.3215   20.9827 C   0  0  0  0  0  0  0  0  0  0  0  0
   11.1606    5.9378   21.2366 N   0  0  0  0  0  0  0  0  0  0  0  0
    9.8932   11.6736   19.0677 O   0  0  0  0  0  0  0  0  0  0  0  0
    6.4470    4.5850   22.2321 C   0  0  0  0  0  0  0  0  0  0  0  0
    8.4619    6.9895   22.2968 C   0  0  0  0  0  0  0  0  0  0  0  0
   12.2747    7.5102   20.0420 C   0  0  0  0  0  0  0  0  0  0  0  0
   14.2544    6.2142   19.4191 C   0  0  0  0  0  0  0  0  0  0  0  0
   13.0695    6.3705   20.0375 N   0  0  0  0  0  0  0  0  0  0  0  0
    9.1913    8.0876   21.8361 N   0  0  0  0  0  0  0  0  0  0  0  0
   10.4739    9.4813   20.2889 C   0  0  0  0  0  0  0  0  0  0  0  0
    7.5551    7.1270   23.1200 O   0  0  0  0  0  0  0  0  0  0  0  0
  1 11  4  0
  1 21  4  0
  2  4  1  0
  2  8  1  0
  2 11  1  0
  3 10  4  0
  3 14  4  0
  4  5  1  0
  4 18  2  0
  6 12  1  0
  6 17  4  0
  6 23  4  0
  7  9  1  0
  7 13  4  0
  7 19  4  0
  9 20  1  0
 10 19  4  0
 11 25  4  0
 13 14  4  0
 15 16  4  0
 15 17  4  0
 15 21  4  0
 16 24  1  0
 16 25  4  0
 20 24  1  0
 20 26  2  0
 21 23  4  0
 22 23  1  0
M  END
$$$$

 Created by Python create_sdf_string function

 26 28  0  0  0  0  0  0  0  0999 V2000
   12.4616    8.6700   19.4180 N   0  0  0  0  0  0  0  0  0  0  0  0
   11.8329   10.8148   18.6769 N   0  0  0  0  0  0  0  0  0  0  0  0
    6.1021    2.5564   21.0678 C   0  0  0  0  0  0  0  0  0  0  0  0
   10.9097   11.8051   18.4804 C   0  0  0  0  0  0  0  0  0  0  0  0
   11.2280   12.9135   17.5669 C   0  0  0  0  0  0  0  0  0  0  0  0
   12.3782    5.4231   20.7777 C   0  0  0  0  0  0  0  0  0  0  0  0
    7.7365    4.6508   21.6987 C   0  0  0  0  0  0  0  0  0  0  0  0
   13.0186   11.0102   18.0020 C   0  0  0  0  0  0  0  0  0  0  0  0
    8.6628    5.7088   21.8871 N   0  0  0  0  0  0  0  0  0  0  0  0
    5.6516    3.5258   21.9140 C   0  0  0  0  0  0  0  0  0  0  0  0
   11.5863    9.6815   19.4539 C   0  0  0  0  0  0  0  0  0  0  0  0
   12.9648    4.1543   20.9205 C   0  0  0  0  0  0  0  0  0  0  0  0
    8.2089    3.6265   20.8929 C   0  0  0  0  0  0  0  0  0  0  0  0
    7.3827    2.5724   20.5432 C   0  0  0  0  0  0  0  0  0  0  0  0
   11.1529    7.2750   20.8025 C   0  0  0  0  0  0  0  0  0  0  0  0
   10.2573    8.3215   20.9827 C   0  0  0  0  0  0  0  0  0  0  0  0
   11.1606    5.9378   21.2366 N   0  0  0  0  0  0  0  0  0  0  0  0
    9.8932   11.6736   19.0677 O   0  0  0  0  0  0  0  0  0  0  0  0
    6.4470    4.5850   22.2321 C   0  0  0  0  0  0  0  0  0  0  0  0
    8.4619    6.9895   22.2968 C   0  0  0  0  0  0  0  0  0  0  0  0
   12.2747    7.5102   20.0420 C   0  0  0  0  0  0  0  0  0  0  0  0
   14.2544    6.2142   19.4191 C   0  0  0  0  0  0  0  0  0  0  0  0
   13.0695    6.3705   20.0375 N   0  0  0  0  0  0  0  0  0  0  0  0
    9.1913    8.0876   21.8361 N   0  0  0  0  0  0  0  0  0  0  0  0
   10.4739    9.4813   20.2889 C   0  0  0  0  0  0  0  0  0  0  0  0
    7.5551    7.1270   23.1200 O   0  0  0  0  0  0  0  0  0  0  0  0
  1 11  4  0
  1 21  4  0
  2  4  1  0
  2  8  1  0
  2 11  1  0
  3 10  4  0
  3 14  4  0
  4  5  1  0
  4 18  2  0
  6 12  1  0
  6 17  4  0
  6 23  4  0
  7  9  1  0
  7 13  4  0
  7 19  4  0
  9 20  1  0
 10 19  4  0
 11 25  4  0
 13 14  4  0
 15 16  4  0
 15 17  4  0
 15 21  4  0
 16 24  1  0
 16 25  4  0
 20 24  1  0
 20 26  2  0
 21 23  4  0
 22 23  1  0
M  END
$$$$

 Created by Python create_sdf_string function

 26 28  0  0  0  0  0  0  0  0999 V2000
   12.4616    8.6700   19.4180 N   0  0  0  0  0  0  0  0  0  0  0  0
   11.8329   10.8148   18.6769 N   0  0  0  0  0  0  0  0  0  0  0  0
    6.1021    2.5564   21.0678 C   0  0  0  0  0  0  0  0  0  0  0  0
   10.9097   11.8051   18.4804 C   0  0  0  0  0  0  0  0  0  0  0  0
   11.2280   12.9135   17.5669 C   0  0  0  0  0  0  0  0  0  0  0  0
   12.3782    5.4231   20.7777 C   0  0  0  0  0  0  0  0  0  0  0  0
    7.7365    4.6508   21.6987 C   0  0  0  0  0  0  0  0  0  0  0  0
   13.0186   11.0102   18.0020 C   0  0  0  0  0  0  0  0  0  0  0  0
    8.6628    5.7088   21.8871 N   0  0  0  0  0  0  0  0  0  0  0  0
    5.6516    3.5258   21.9140 C   0  0  0  0  0  0  0  0  0  0  0  0
   11.5863    9.6815   19.4539 C   0  0  0  0  0  0  0  0  0  0  0  0
   12.9648    4.1543   20.9205 C   0  0  0  0  0  0  0  0  0  0  0  0
    8.2089    3.6265   20.8929 C   0  0  0  0  0  0  0  0  0  0  0  0
    7.3827    2.5724   20.5432 C   0  0  0  0  0  0  0  0  0  0  0  0
   11.1529    7.2750   20.8025 C   0  0  0  0  0  0  0  0  0  0  0  0
   10.2573    8.3215   20.9827 C   0  0  0  0  0  0  0  0  0  0  0  0
   11.1606    5.9378   21.2366 N   0  0  0  0  0  0  0  0  0  0  0  0
    9.8932   11.6736   19.0677 O   0  0  0  0  0  0  0  0  0  0  0  0
    6.4470    4.5850   22.2321 C   0  0  0  0  0  0  0  0  0  0  0  0
    8.4619    6.9895   22.2968 C   0  0  0  0  0  0  0  0  0  0  0  0
   12.2747    7.5102   20.0420 C   0  0  0  0  0  0  0  0  0  0  0  0
   14.2544    6.2142   19.4191 C   0  0  0  0  0  0  0  0  0  0  0  0
   13.0695    6.3705   20.0375 N   0  0  0  0  0  0  0  0  0  0  0  0
    9.1913    8.0876   21.8361 N   0  0  0  0  0  0  0  0  0  0  0  0
   10.4739    9.4813   20.2889 C   0  0  0  0  0  0  0  0  0  0  0  0
    7.5551    7.1270   23.1200 O   0  0  0  0  0  0  0  0  0  0  0  0
  1 11  4  0
  1 21  4  0
  2  4  1  0
  2  8  1  0
  2 11  1  0
  3 10  4  0
  3 14  4  0
  4  5  1  0
  4 18  2  0
  6 12  1  0
  6 17  4  0
  6 23  4  0
  7  9  1  0
  7 13  4  0
  7 19  4  0
  9 20  1  0
 10 19  4  0
 11 25  4  0
 13 14  4  0
 15 16  4  0
 15 17  4  0
 15 21  4  0
 16 24  1  0
 16 25  4  0
 20 24  1  0
 20 26  2  0
 21 23  4  0
 22 23  1  0
M  END
$$$$

 Created by Python create_sdf_string function

 26 28  0  0  0  0  0  0  0  0999 V2000
   12.4616    8.6700   19.4180 N   0  0  0  0  0  0  0  0  0  0  0  0
   11.8329   10.8148   18.6769 N   0  0  0  0  0  0  0  0  0  0  0  0
    6.1021    2.5564   21.0678 C   0  0  0  0  0  0  0  0  0  0  0  0
   10.9097   11.8051   18.4804 C   0  0  0  0  0  0  0  0  0  0  0  0
   11.2280   12.9135   17.5669 C   0  0  0  0  0  0  0  0  0  0  0  0
   12.3782    5.4231   20.7777 C   0  0  0  0  0  0  0  0  0  0  0  0
    7.7365    4.6508   21.6987 C   0  0  0  0  0  0  0  0  0  0  0  0
   13.0186   11.0102   18.0020 C   0  0  0  0  0  0  0  0  0  0  0  0
    8.6628    5.7088   21.8871 N   0  0  0  0  0  0  0  0  0  0  0  0
    5.6516    3.5258   21.9140 C   0  0  0  0  0  0  0  0  0  0  0  0
   11.5863    9.6815   19.4539 C   0  0  0  0  0  0  0  0  0  0  0  0
   12.9648    4.1543   20.9205 C   0  0  0  0  0  0  0  0  0  0  0  0
    8.2089    3.6265   20.8929 C   0  0  0  0  0  0  0  0  0  0  0  0
    7.3827    2.5724   20.5432 C   0  0  0  0  0  0  0  0  0  0  0  0
   11.1529    7.2750   20.8025 C   0  0  0  0  0  0  0  0  0  0  0  0
   10.2573    8.3215   20.9827 C   0  0  0  0  0  0  0  0  0  0  0  0
   11.1606    5.9378   21.2366 N   0  0  0  0  0  0  0  0  0  0  0  0
    9.8932   11.6736   19.0677 O   0  0  0  0  0  0  0  0  0  0  0  0
    6.4470    4.5850   22.2321 C   0  0  0  0  0  0  0  0  0  0  0  0
    8.4619    6.9895   22.2968 C   0  0  0  0  0  0  0  0  0  0  0  0
   12.2747    7.5102   20.0420 C   0  0  0  0  0  0  0  0  0  0  0  0
   14.2544    6.2142   19.4191 C   0  0  0  0  0  0  0  0  0  0  0  0
   13.0695    6.3705   20.0375 N   0  0  0  0  0  0  0  0  0  0  0  0
    9.1913    8.0876   21.8361 N   0  0  0  0  0  0  0  0  0  0  0  0
   10.4739    9.4813   20.2889 C   0  0  0  0  0  0  0  0  0  0  0  0
    7.5551    7.1270   23.1200 O   0  0  0  0  0  0  0  0  0  0  0  0
  1 11  4  0
  1 21  4  0
  2  4  1  0
  2  8  1  0
  2 11  1  0
  3 10  4  0
  3 14  4  0
  4  5  1  0
  4 18  2  0
  6 12  1  0
  6 17  4  0
  6 23  4  0
  7  9  1  0
  7 13  4  0
  7 19  4  0
  9 20  1  0
 10 19  4  0
 11 25  4  0
 13 14  4  0
 15 16  4  0
 15 17  4  0
 15 21  4  0
 16 24  1  0
 16 25  4  0
 20 24  1  0
 20 26  2  0
 21 23  4  0
 22 23  1  0
M  END
$$$$

 Created by Python create_sdf_string function

 26 28  0  0  0  0  0  0  0  0999 V2000
   12.4616    8.6700   19.4180 N   0  0  0  0  0  0  0  0  0  0  0  0
   11.8329   10.8148   18.6769 N   0  0  0  0  0  0  0  0  0  0  0  0
    6.1021    2.5564   21.0678 C   0  0  0  0  0  0  0  0  0  0  0  0
   10.9097   11.8051   18.4804 C   0  0  0  0  0  0  0  0  0  0  0  0
   11.2280   12.9135   17.5669 C   0  0  0  0  0  0  0  0  0  0  0  0
   12.3782    5.4231   20.7777 C   0  0  0  0  0  0  0  0  0  0  0  0
    7.7365    4.6508   21.6987 C   0  0  0  0  0  0  0  0  0  0  0  0
   13.0186   11.0102   18.0020 C   0  0  0  0  0  0  0  0  0  0  0  0
    8.6628    5.7088   21.8871 N   0  0  0  0  0  0  0  0  0  0  0  0
    5.6516    3.5258   21.9140 C   0  0  0  0  0  0  0  0  0  0  0  0
   11.5863    9.6815   19.4539 C   0  0  0  0  0  0  0  0  0  0  0  0
   12.9648    4.1543   20.9205 C   0  0  0  0  0  0  0  0  0  0  0  0
    8.2089    3.6265   20.8929 C   0  0  0  0  0  0  0  0  0  0  0  0
    7.3827    2.5724   20.5432 C   0  0  0  0  0  0  0  0  0  0  0  0
   11.1529    7.2750   20.8025 C   0  0  0  0  0  0  0  0  0  0  0  0
   10.2573    8.3215   20.9827 C   0  0  0  0  0  0  0  0  0  0  0  0
   11.1606    5.9378   21.2366 N   0  0  0  0  0  0  0  0  0  0  0  0
    9.8932   11.6736   19.0677 O   0  0  0  0  0  0  0  0  0  0  0  0
    6.4470    4.5850   22.2321 C   0  0  0  0  0  0  0  0  0  0  0  0
    8.4619    6.9895   22.2968 C   0  0  0  0  0  0  0  0  0  0  0  0
   12.2747    7.5102   20.0420 C   0  0  0  0  0  0  0  0  0  0  0  0
   14.2544    6.2142   19.4191 C   0  0  0  0  0  0  0  0  0  0  0  0
   13.0695    6.3705   20.0375 N   0  0  0  0  0  0  0  0  0  0  0  0
    9.1913    8.0876   21.8361 N   0  0  0  0  0  0  0  0  0  0  0  0
   10.4739    9.4813   20.2889 C   0  0  0  0  0  0  0  0  0  0  0  0
    7.5551    7.1270   23.1200 O   0  0  0  0  0  0  0  0  0  0  0  0
  1 11  4  0
  1 21  4  0
  2  4  1  0
  2  8  1  0
  2 11  1  0
  3 10  4  0
  3 14  4  0
  4  5  1  0
  4 18  2  0
  6 12  1  0
  6 17  4  0
  6 23  4  0
  7  9  1  0
  7 13  4  0
  7 19  4  0
  9 20  1  0
 10 19  4  0
 11 25  4  0
 13 14  4  0
 15 16  4  0
 15 17  4  0
 15 21  4  0
 16 24  1  0
 16 25  4  0
 20 24  1  0
 20 26  2  0
 21 23  4  0
 22 23  1  0
M  END
$$$$

 Created by Python create_sdf_string function

 26 28  0  0  0  0  0  0  0  0999 V2000
   12.4616    8.6700   19.4180 N   0  0  0  0  0  0  0  0  0  0  0  0
   11.8329   10.8148   18.6769 N   0  0  0  0  0  0  0  0  0  0  0  0
    6.1021    2.5564   21.0678 C   0  0  0  0  0  0  0  0  0  0  0  0
   10.9097   11.8051   18.4804 C   0  0  0  0  0  0  0  0  0  0  0  0
   11.2280   12.9135   17.5669 C   0  0  0  0  0  0  0  0  0  0  0  0
   12.3782    5.4231   20.7777 C   0  0  0  0  0  0  0  0  0  0  0  0
    7.7365    4.6508   21.6987 C   0  0  0  0  0  0  0  0  0  0  0  0
   13.0186   11.0102   18.0020 C   0  0  0  0  0  0  0  0  0  0  0  0
    8.6628    5.7088   21.8871 N   0  0  0  0  0  0  0  0  0  0  0  0
    5.6516    3.5258   21.9140 C   0  0  0  0  0  0  0  0  0  0  0  0
   11.5863    9.6815   19.4539 C   0  0  0  0  0  0  0  0  0  0  0  0
   12.9648    4.1543   20.9205 C   0  0  0  0  0  0  0  0  0  0  0  0
    8.2089    3.6265   20.8929 C   0  0  0  0  0  0  0  0  0  0  0  0
    7.3827    2.5724   20.5432 C   0  0  0  0  0  0  0  0  0  0  0  0
   11.1529    7.2750   20.8025 C   0  0  0  0  0  0  0  0  0  0  0  0
   10.2573    8.3215   20.9827 C   0  0  0  0  0  0  0  0  0  0  0  0
   11.1606    5.9378   21.2366 N   0  0  0  0  0  0  0  0  0  0  0  0
    9.8932   11.6736   19.0677 O   0  0  0  0  0  0  0  0  0  0  0  0
    6.4470    4.5850   22.2321 C   0  0  0  0  0  0  0  0  0  0  0  0
    8.4619    6.9895   22.2968 C   0  0  0  0  0  0  0  0  0  0  0  0
   12.2747    7.5102   20.0420 C   0  0  0  0  0  0  0  0  0  0  0  0
   14.2544    6.2142   19.4191 C   0  0  0  0  0  0  0  0  0  0  0  0
   13.0695    6.3705   20.0375 N   0  0  0  0  0  0  0  0  0  0  0  0
    9.1913    8.0876   21.8361 N   0  0  0  0  0  0  0  0  0  0  0  0
   10.4739    9.4813   20.2889 C   0  0  0  0  0  0  0  0  0  0  0  0
    7.5551    7.1270   23.1200 O   0  0  0  0  0  0  0  0  0  0  0  0
  1 11  4  0
  1 21  4  0
  2  4  1  0
  2  8  1  0
  2 11  1  0
  3 10  4  0
  3 14  4  0
  4  5  1  0
  4 18  2  0
  6 12  1  0
  6 17  4  0
  6 23  4  0
  7  9  1  0
  7 13  4  0
  7 19  4  0
  9 20  1  0
 10 19  4  0
 11 25  4  0
 13 14  4  0
 15 16  4  0
 15 17  4  0
 15 21  4  0
 16 24  1  0
 16 25  4  0
 20 24  1  0
 20 26  2  0
 21 23  4  0
 22 23  1  0
M  END
$$$$

 Created by Python create_sdf_string function

 26 28  0  0  0  0  0  0  0  0999 V2000
   12.4616    8.6700   19.4180 N   0  0  0  0  0  0  0  0  0  0  0  0
   11.8329   10.8148   18.6769 N   0  0  0  0  0  0  0  0  0  0  0  0
    6.1021    2.5564   21.0678 C   0  0  0  0  0  0  0  0  0  0  0  0
   10.9097   11.8051   18.4804 C   0  0  0  0  0  0  0  0  0  0  0  0
   11.2280   12.9135   17.5669 C   0  0  0  0  0  0  0  0  0  0  0  0
   12.3782    5.4231   20.7777 C   0  0  0  0  0  0  0  0  0  0  0  0
    7.7365    4.6508   21.6987 C   0  0  0  0  0  0  0  0  0  0  0  0
   13.0186   11.0102   18.0020 C   0  0  0  0  0  0  0  0  0  0  0  0
    8.6628    5.7088   21.8871 N   0  0  0  0  0  0  0  0  0  0  0  0
    5.6516    3.5258   21.9140 C   0  0  0  0  0  0  0  0  0  0  0  0
   11.5863    9.6815   19.4539 C   0  0  0  0  0  0  0  0  0  0  0  0
   12.9648    4.1543   20.9205 C   0  0  0  0  0  0  0  0  0  0  0  0
    8.2089    3.6265   20.8929 C   0  0  0  0  0  0  0  0  0  0  0  0
    7.3827    2.5724   20.5432 C   0  0  0  0  0  0  0  0  0  0  0  0
   11.1529    7.2750   20.8025 C   0  0  0  0  0  0  0  0  0  0  0  0
   10.2573    8.3215   20.9827 C   0  0  0  0  0  0  0  0  0  0  0  0
   11.1606    5.9378   21.2366 N   0  0  0  0  0  0  0  0  0  0  0  0
    9.8932   11.6736   19.0677 O   0  0  0  0  0  0  0  0  0  0  0  0
    6.4470    4.5850   22.2321 C   0  0  0  0  0  0  0  0  0  0  0  0
    8.4619    6.9895   22.2968 C   0  0  0  0  0  0  0  0  0  0  0  0
   12.2747    7.5102   20.0420 C   0  0  0  0  0  0  0  0  0  0  0  0
   14.2544    6.2142   19.4191 C   0  0  0  0  0  0  0  0  0  0  0  0
   13.0695    6.3705   20.0375 N   0  0  0  0  0  0  0  0  0  0  0  0
    9.1913    8.0876   21.8361 N   0  0  0  0  0  0  0  0  0  0  0  0
   10.4739    9.4813   20.2889 C   0  0  0  0  0  0  0  0  0  0  0  0
    7.5551    7.1270   23.1200 O   0  0  0  0  0  0  0  0  0  0  0  0
  1 11  4  0
  1 21  4  0
  2  4  1  0
  2  8  1  0
  2 11  1  0
  3 10  4  0
  3 14  4  0
  4  5  1  0
  4 18  2  0
  6 12  1  0
  6 17  4  0
  6 23  4  0
  7  9  1  0
  7 13  4  0
  7 19  4  0
  9 20  1  0
 10 19  4  0
 11 25  4  0
 13 14  4  0
 15 16  4  0
 15 17  4  0
 15 21  4  0
 16 24  1  0
 16 25  4  0
 20 24  1  0
 20 26  2  0
 21 23  4  0
 22 23  1  0
M  END
$$$$

 Created by Python create_sdf_string function

 26 28  0  0  0  0  0  0  0  0999 V2000
   12.4616    8.6700   19.4180 N   0  0  0  0  0  0  0  0  0  0  0  0
   11.8329   10.8148   18.6769 N   0  0  0  0  0  0  0  0  0  0  0  0
    6.1021    2.5564   21.0678 C   0  0  0  0  0  0  0  0  0  0  0  0
   10.9097   11.8051   18.4804 C   0  0  0  0  0  0  0  0  0  0  0  0
   11.2280   12.9135   17.5669 C   0  0  0  0  0  0  0  0  0  0  0  0
   12.3782    5.4231   20.7777 C   0  0  0  0  0  0  0  0  0  0  0  0
    7.7365    4.6508   21.6987 C   0  0  0  0  0  0  0  0  0  0  0  0
   13.0186   11.0102   18.0020 C   0  0  0  0  0  0  0  0  0  0  0  0
    8.6628    5.7088   21.8871 N   0  0  0  0  0  0  0  0  0  0  0  0
    5.6516    3.5258   21.9140 C   0  0  0  0  0  0  0  0  0  0  0  0
   11.5863    9.6815   19.4539 C   0  0  0  0  0  0  0  0  0  0  0  0
   12.9648    4.1543   20.9205 C   0  0  0  0  0  0  0  0  0  0  0  0
    8.2089    3.6265   20.8929 C   0  0  0  0  0  0  0  0  0  0  0  0
    7.3827    2.5724   20.5432 C   0  0  0  0  0  0  0  0  0  0  0  0
   11.1529    7.2750   20.8025 C   0  0  0  0  0  0  0  0  0  0  0  0
   10.2573    8.3215   20.9827 C   0  0  0  0  0  0  0  0  0  0  0  0
   11.1606    5.9378   21.2366 N   0  0  0  0  0  0  0  0  0  0  0  0
    9.8932   11.6736   19.0677 O   0  0  0  0  0  0  0  0  0  0  0  0
    6.4470    4.5850   22.2321 C   0  0  0  0  0  0  0  0  0  0  0  0
    8.4619    6.9895   22.2968 C   0  0  0  0  0  0  0  0  0  0  0  0
   12.2747    7.5102   20.0420 C   0  0  0  0  0  0  0  0  0  0  0  0
   14.2544    6.2142   19.4191 C   0  0  0  0  0  0  0  0  0  0  0  0
   13.0695    6.3705   20.0375 N   0  0  0  0  0  0  0  0  0  0  0  0
    9.1913    8.0876   21.8361 N   0  0  0  0  0  0  0  0  0  0  0  0
   10.4739    9.4813   20.2889 C   0  0  0  0  0  0  0  0  0  0  0  0
    7.5551    7.1270   23.1200 O   0  0  0  0  0  0  0  0  0  0  0  0
  1 11  4  0
  1 21  4  0
  2  4  1  0
  2  8  1  0
  2 11  1  0
  3 10  4  0
  3 14  4  0
  4  5  1  0
  4 18  2  0
  6 12  1  0
  6 17  4  0
  6 23  4  0
  7  9  1  0
  7 13  4  0
  7 19  4  0
  9 20  1  0
 10 19  4  0
 11 25  4  0
 13 14  4  0
 15 16  4  0
 15 17  4  0
 15 21  4  0
 16 24  1  0
 16 25  4  0
 20 24  1  0
 20 26  2  0
 21 23  4  0
 22 23  1  0
M  END
$$$$

 Created by Python create_sdf_string function

 26 28  0  0  0  0  0  0  0  0999 V2000
   12.4616    8.6700   19.4180 N   0  0  0  0  0  0  0  0  0  0  0  0
   11.8329   10.8148   18.6769 N   0  0  0  0  0  0  0  0  0  0  0  0
    6.1021    2.5564   21.0678 C   0  0  0  0  0  0  0  0  0  0  0  0
   10.9097   11.8051   18.4804 C   0  0  0  0  0  0  0  0  0  0  0  0
   11.2280   12.9135   17.5669 C   0  0  0  0  0  0  0  0  0  0  0  0
   12.3782    5.4231   20.7777 C   0  0  0  0  0  0  0  0  0  0  0  0
    7.7365    4.6508   21.6987 C   0  0  0  0  0  0  0  0  0  0  0  0
   13.0186   11.0102   18.0020 C   0  0  0  0  0  0  0  0  0  0  0  0
    8.6628    5.7088   21.8871 N   0  0  0  0  0  0  0  0  0  0  0  0
    5.6516    3.5258   21.9140 C   0  0  0  0  0  0  0  0  0  0  0  0
   11.5863    9.6815   19.4539 C   0  0  0  0  0  0  0  0  0  0  0  0
   12.9648    4.1543   20.9205 C   0  0  0  0  0  0  0  0  0  0  0  0
    8.2089    3.6265   20.8929 C   0  0  0  0  0  0  0  0  0  0  0  0
    7.3827    2.5724   20.5432 C   0  0  0  0  0  0  0  0  0  0  0  0
   11.1529    7.2750   20.8025 C   0  0  0  0  0  0  0  0  0  0  0  0
   10.2573    8.3215   20.9827 C   0  0  0  0  0  0  0  0  0  0  0  0
   11.1606    5.9378   21.2366 N   0  0  0  0  0  0  0  0  0  0  0  0
    9.8932   11.6736   19.0677 O   0  0  0  0  0  0  0  0  0  0  0  0
    6.4470    4.5850   22.2321 C   0  0  0  0  0  0  0  0  0  0  0  0
    8.4619    6.9895   22.2968 C   0  0  0  0  0  0  0  0  0  0  0  0
   12.2747    7.5102   20.0420 C   0  0  0  0  0  0  0  0  0  0  0  0
   14.2544    6.2142   19.4191 C   0  0  0  0  0  0  0  0  0  0  0  0
   13.0695    6.3705   20.0375 N   0  0  0  0  0  0  0  0  0  0  0  0
    9.1913    8.0876   21.8361 N   0  0  0  0  0  0  0  0  0  0  0  0
   10.4739    9.4813   20.2889 C   0  0  0  0  0  0  0  0  0  0  0  0
    7.5551    7.1270   23.1200 O   0  0  0  0  0  0  0  0  0  0  0  0
  1 11  4  0
  1 21  4  0
  2  4  1  0
  2  8  1  0
  2 11  1  0
  3 10  4  0
  3 14  4  0
  4  5  1  0
  4 18  2  0
  6 12  1  0
  6 17  4  0
  6 23  4  0
  7  9  1  0
  7 13  4  0
  7 19  4  0
  9 20  1  0
 10 19  4  0
 11 25  4  0
 13 14  4  0
 15 16  4  0
 15 17  4  0
 15 21  4  0
 16 24  1  0
 16 25  4  0
 20 24  1  0
 20 26  2  0
 21 23  4  0
 22 23  1  0
M  END
$$$$

 Created by Python create_sdf_string function

 26 28  0  0  0  0  0  0  0  0999 V2000
   12.4616    8.6700   19.4180 N   0  0  0  0  0  0  0  0  0  0  0  0
   11.8329   10.8148   18.6769 N   0  0  0  0  0  0  0  0  0  0  0  0
    6.1021    2.5564   21.0678 C   0  0  0  0  0  0  0  0  0  0  0  0
   10.9097   11.8051   18.4804 C   0  0  0  0  0  0  0  0  0  0  0  0
   11.2280   12.9135   17.5669 C   0  0  0  0  0  0  0  0  0  0  0  0
   12.3782    5.4231   20.7777 C   0  0  0  0  0  0  0  0  0  0  0  0
    7.7365    4.6508   21.6987 C   0  0  0  0  0  0  0  0  0  0  0  0
   13.0186   11.0102   18.0020 C   0  0  0  0  0  0  0  0  0  0  0  0
    8.6628    5.7088   21.8871 N   0  0  0  0  0  0  0  0  0  0  0  0
    5.6516    3.5258   21.9140 C   0  0  0  0  0  0  0  0  0  0  0  0
   11.5863    9.6815   19.4539 C   0  0  0  0  0  0  0  0  0  0  0  0
   12.9648    4.1543   20.9205 C   0  0  0  0  0  0  0  0  0  0  0  0
    8.2089    3.6265   20.8929 C   0  0  0  0  0  0  0  0  0  0  0  0
    7.3827    2.5724   20.5432 C   0  0  0  0  0  0  0  0  0  0  0  0
   11.1529    7.2750   20.8025 C   0  0  0  0  0  0  0  0  0  0  0  0
   10.2573    8.3215   20.9827 C   0  0  0  0  0  0  0  0  0  0  0  0
   11.1606    5.9378   21.2366 N   0  0  0  0  0  0  0  0  0  0  0  0
    9.8932   11.6736   19.0677 O   0  0  0  0  0  0  0  0  0  0  0  0
    6.4470    4.5850   22.2321 C   0  0  0  0  0  0  0  0  0  0  0  0
    8.4619    6.9895   22.2968 C   0  0  0  0  0  0  0  0  0  0  0  0
   12.2747    7.5102   20.0420 C   0  0  0  0  0  0  0  0  0  0  0  0
   14.2544    6.2142   19.4191 C   0  0  0  0  0  0  0  0  0  0  0  0
   13.0695    6.3705   20.0375 N   0  0  0  0  0  0  0  0  0  0  0  0
    9.1913    8.0876   21.8361 N   0  0  0  0  0  0  0  0  0  0  0  0
   10.4739    9.4813   20.2889 C   0  0  0  0  0  0  0  0  0  0  0  0
    7.5551    7.1270   23.1200 O   0  0  0  0  0  0  0  0  0  0  0  0
  1 11  4  0
  1 21  4  0
  2  4  1  0
  2  8  1  0
  2 11  1  0
  3 10  4  0
  3 14  4  0
  4  5  1  0
  4 18  2  0
  6 12  1  0
  6 17  4  0
  6 23  4  0
  7  9  1  0
  7 13  4  0
  7 19  4  0
  9 20  1  0
 10 19  4  0
 11 25  4  0
 13 14  4  0
 15 16  4  0
 15 17  4  0
 15 21  4  0
 16 24  1  0
 16 25  4  0
 20 24  1  0
 20 26  2  0
 21 23  4  0
 22 23  1  0
M  END
$$$$

 Created by Python create_sdf_string function

 26 28  0  0  0  0  0  0  0  0999 V2000
   12.4616    8.6700   19.4180 N   0  0  0  0  0  0  0  0  0  0  0  0
   11.8329   10.8148   18.6769 N   0  0  0  0  0  0  0  0  0  0  0  0
    6.1021    2.5564   21.0678 C   0  0  0  0  0  0  0  0  0  0  0  0
   10.9097   11.8051   18.4804 C   0  0  0  0  0  0  0  0  0  0  0  0
   11.2280   12.9135   17.5669 C   0  0  0  0  0  0  0  0  0  0  0  0
   12.3782    5.4231   20.7777 C   0  0  0  0  0  0  0  0  0  0  0  0
    7.7365    4.6508   21.6987 C   0  0  0  0  0  0  0  0  0  0  0  0
   13.0186   11.0102   18.0020 C   0  0  0  0  0  0  0  0  0  0  0  0
    8.6628    5.7088   21.8871 N   0  0  0  0  0  0  0  0  0  0  0  0
    5.6516    3.5258   21.9140 C   0  0  0  0  0  0  0  0  0  0  0  0
   11.5863    9.6815   19.4539 C   0  0  0  0  0  0  0  0  0  0  0  0
   12.9648    4.1543   20.9205 C   0  0  0  0  0  0  0  0  0  0  0  0
    8.2089    3.6265   20.8929 C   0  0  0  0  0  0  0  0  0  0  0  0
    7.3827    2.5724   20.5432 C   0  0  0  0  0  0  0  0  0  0  0  0
   11.1529    7.2750   20.8025 C   0  0  0  0  0  0  0  0  0  0  0  0
   10.2573    8.3215   20.9827 C   0  0  0  0  0  0  0  0  0  0  0  0
   11.1606    5.9378   21.2366 N   0  0  0  0  0  0  0  0  0  0  0  0
    9.8932   11.6736   19.0677 O   0  0  0  0  0  0  0  0  0  0  0  0
    6.4470    4.5850   22.2321 C   0  0  0  0  0  0  0  0  0  0  0  0
    8.4619    6.9895   22.2968 C   0  0  0  0  0  0  0  0  0  0  0  0
   12.2747    7.5102   20.0420 C   0  0  0  0  0  0  0  0  0  0  0  0
   14.2544    6.2142   19.4191 C   0  0  0  0  0  0  0  0  0  0  0  0
   13.0695    6.3705   20.0375 N   0  0  0  0  0  0  0  0  0  0  0  0
    9.1913    8.0876   21.8361 N   0  0  0  0  0  0  0  0  0  0  0  0
   10.4739    9.4813   20.2889 C   0  0  0  0  0  0  0  0  0  0  0  0
    7.5551    7.1270   23.1200 O   0  0  0  0  0  0  0  0  0  0  0  0
  1 11  4  0
  1 21  4  0
  2  4  1  0
  2  8  1  0
  2 11  1  0
  3 10  4  0
  3 14  4  0
  4  5  1  0
  4 18  2  0
  6 12  1  0
  6 17  4  0
  6 23  4  0
  7  9  1  0
  7 13  4  0
  7 19  4  0
  9 20  1  0
 10 19  4  0
 11 25  4  0
 13 14  4  0
 15 16  4  0
 15 17  4  0
 15 21  4  0
 16 24  1  0
 16 25  4  0
 20 24  1  0
 20 26  2  0
 21 23  4  0
 22 23  1  0
M  END
$$$$

 Created by Python create_sdf_string function

 26 28  0  0  0  0  0  0  0  0999 V2000
   12.4616    8.6700   19.4180 N   0  0  0  0  0  0  0  0  0  0  0  0
   11.8329   10.8148   18.6769 N   0  0  0  0  0  0  0  0  0  0  0  0
    6.1021    2.5564   21.0678 C   0  0  0  0  0  0  0  0  0  0  0  0
   10.9097   11.8051   18.4804 C   0  0  0  0  0  0  0  0  0  0  0  0
   11.2280   12.9135   17.5669 C   0  0  0  0  0  0  0  0  0  0  0  0
   12.3782    5.4231   20.7777 C   0  0  0  0  0  0  0  0  0  0  0  0
    7.7365    4.6508   21.6987 C   0  0  0  0  0  0  0  0  0  0  0  0
   13.0186   11.0102   18.0020 C   0  0  0  0  0  0  0  0  0  0  0  0
    8.6628    5.7088   21.8871 N   0  0  0  0  0  0  0  0  0  0  0  0
    5.6516    3.5258   21.9140 C   0  0  0  0  0  0  0  0  0  0  0  0
   11.5863    9.6815   19.4539 C   0  0  0  0  0  0  0  0  0  0  0  0
   12.9648    4.1543   20.9205 C   0  0  0  0  0  0  0  0  0  0  0  0
    8.2089    3.6265   20.8929 C   0  0  0  0  0  0  0  0  0  0  0  0
    7.3827    2.5724   20.5432 C   0  0  0  0  0  0  0  0  0  0  0  0
   11.1529    7.2750   20.8025 C   0  0  0  0  0  0  0  0  0  0  0  0
   10.2573    8.3215   20.9827 C   0  0  0  0  0  0  0  0  0  0  0  0
   11.1606    5.9378   21.2366 N   0  0  0  0  0  0  0  0  0  0  0  0
    9.8932   11.6736   19.0677 O   0  0  0  0  0  0  0  0  0  0  0  0
    6.4470    4.5850   22.2321 C   0  0  0  0  0  0  0  0  0  0  0  0
    8.4619    6.9895   22.2968 C   0  0  0  0  0  0  0  0  0  0  0  0
   12.2747    7.5102   20.0420 C   0  0  0  0  0  0  0  0  0  0  0  0
   14.2544    6.2142   19.4191 C   0  0  0  0  0  0  0  0  0  0  0  0
   13.0695    6.3705   20.0375 N   0  0  0  0  0  0  0  0  0  0  0  0
    9.1913    8.0876   21.8361 N   0  0  0  0  0  0  0  0  0  0  0  0
   10.4739    9.4813   20.2889 C   0  0  0  0  0  0  0  0  0  0  0  0
    7.5551    7.1270   23.1200 O   0  0  0  0  0  0  0  0  0  0  0  0
  1 11  4  0
  1 21  4  0
  2  4  1  0
  2  8  1  0
  2 11  1  0
  3 10  4  0
  3 14  4  0
  4  5  1  0
  4 18  2  0
  6 12  1  0
  6 17  4  0
  6 23  4  0
  7  9  1  0
  7 13  4  0
  7 19  4  0
  9 20  1  0
 10 19  4  0
 11 25  4  0
 13 14  4  0
 15 16  4  0
 15 17  4  0
 15 21  4  0
 16 24  1  0
 16 25  4  0
 20 24  1  0
 20 26  2  0
 21 23  4  0
 22 23  1  0
M  END
$$$$

 Created by Python create_sdf_string function

 26 28  0  0  0  0  0  0  0  0999 V2000
   12.4616    8.6700   19.4180 N   0  0  0  0  0  0  0  0  0  0  0  0
   11.8329   10.8148   18.6769 N   0  0  0  0  0  0  0  0  0  0  0  0
    6.1021    2.5564   21.0678 C   0  0  0  0  0  0  0  0  0  0  0  0
   10.9097   11.8051   18.4804 C   0  0  0  0  0  0  0  0  0  0  0  0
   11.2280   12.9135   17.5669 C   0  0  0  0  0  0  0  0  0  0  0  0
   12.3782    5.4231   20.7777 C   0  0  0  0  0  0  0  0  0  0  0  0
    7.7365    4.6508   21.6987 C   0  0  0  0  0  0  0  0  0  0  0  0
   13.0186   11.0102   18.0020 C   0  0  0  0  0  0  0  0  0  0  0  0
    8.6628    5.7088   21.8871 N   0  0  0  0  0  0  0  0  0  0  0  0
    5.6516    3.5258   21.9140 C   0  0  0  0  0  0  0  0  0  0  0  0
   11.5863    9.6815   19.4539 C   0  0  0  0  0  0  0  0  0  0  0  0
   12.9648    4.1543   20.9205 C   0  0  0  0  0  0  0  0  0  0  0  0
    8.2089    3.6265   20.8929 C   0  0  0  0  0  0  0  0  0  0  0  0
    7.3827    2.5724   20.5432 C   0  0  0  0  0  0  0  0  0  0  0  0
   11.1529    7.2750   20.8025 C   0  0  0  0  0  0  0  0  0  0  0  0
   10.2573    8.3215   20.9827 C   0  0  0  0  0  0  0  0  0  0  0  0
   11.1606    5.9378   21.2366 N   0  0  0  0  0  0  0  0  0  0  0  0
    9.8932   11.6736   19.0677 O   0  0  0  0  0  0  0  0  0  0  0  0
    6.4470    4.5850   22.2321 C   0  0  0  0  0  0  0  0  0  0  0  0
    8.4619    6.9895   22.2968 C   0  0  0  0  0  0  0  0  0  0  0  0
   12.2747    7.5102   20.0420 C   0  0  0  0  0  0  0  0  0  0  0  0
   14.2544    6.2142   19.4191 C   0  0  0  0  0  0  0  0  0  0  0  0
   13.0695    6.3705   20.0375 N   0  0  0  0  0  0  0  0  0  0  0  0
    9.1913    8.0876   21.8361 N   0  0  0  0  0  0  0  0  0  0  0  0
   10.4739    9.4813   20.2889 C   0  0  0  0  0  0  0  0  0  0  0  0
    7.5551    7.1270   23.1200 O   0  0  0  0  0  0  0  0  0  0  0  0
  1 11  4  0
  1 21  4  0
  2  4  1  0
  2  8  1  0
  2 11  1  0
  3 10  4  0
  3 14  4  0
  4  5  1  0
  4 18  2  0
  6 12  1  0
  6 17  4  0
  6 23  4  0
  7  9  1  0
  7 13  4  0
  7 19  4  0
  9 20  1  0
 10 19  4  0
 11 25  4  0
 13 14  4  0
 15 16  4  0
 15 17  4  0
 15 21  4  0
 16 24  1  0
 16 25  4  0
 20 24  1  0
 20 26  2  0
 21 23  4  0
 22 23  1  0
M  END
$$$$

 Created by Python create_sdf_string function

 26 28  0  0  0  0  0  0  0  0999 V2000
   12.4616    8.6700   19.4180 N   0  0  0  0  0  0  0  0  0  0  0  0
   11.8329   10.8148   18.6769 N   0  0  0  0  0  0  0  0  0  0  0  0
    6.1021    2.5564   21.0678 C   0  0  0  0  0  0  0  0  0  0  0  0
   10.9097   11.8051   18.4804 C   0  0  0  0  0  0  0  0  0  0  0  0
   11.2280   12.9135   17.5669 C   0  0  0  0  0  0  0  0  0  0  0  0
   12.3782    5.4231   20.7777 C   0  0  0  0  0  0  0  0  0  0  0  0
    7.7365    4.6508   21.6987 C   0  0  0  0  0  0  0  0  0  0  0  0
   13.0186   11.0102   18.0020 C   0  0  0  0  0  0  0  0  0  0  0  0
    8.6628    5.7088   21.8871 N   0  0  0  0  0  0  0  0  0  0  0  0
    5.6516    3.5258   21.9140 C   0  0  0  0  0  0  0  0  0  0  0  0
   11.5863    9.6815   19.4539 C   0  0  0  0  0  0  0  0  0  0  0  0
   12.9648    4.1543   20.9205 C   0  0  0  0  0  0  0  0  0  0  0  0
    8.2089    3.6265   20.8929 C   0  0  0  0  0  0  0  0  0  0  0  0
    7.3827    2.5724   20.5432 C   0  0  0  0  0  0  0  0  0  0  0  0
   11.1529    7.2750   20.8025 C   0  0  0  0  0  0  0  0  0  0  0  0
   10.2573    8.3215   20.9827 C   0  0  0  0  0  0  0  0  0  0  0  0
   11.1606    5.9378   21.2366 N   0  0  0  0  0  0  0  0  0  0  0  0
    9.8932   11.6736   19.0677 O   0  0  0  0  0  0  0  0  0  0  0  0
    6.4470    4.5850   22.2321 C   0  0  0  0  0  0  0  0  0  0  0  0
    8.4619    6.9895   22.2968 C   0  0  0  0  0  0  0  0  0  0  0  0
   12.2747    7.5102   20.0420 C   0  0  0  0  0  0  0  0  0  0  0  0
   14.2544    6.2142   19.4191 C   0  0  0  0  0  0  0  0  0  0  0  0
   13.0695    6.3705   20.0375 N   0  0  0  0  0  0  0  0  0  0  0  0
    9.1913    8.0876   21.8361 N   0  0  0  0  0  0  0  0  0  0  0  0
   10.4739    9.4813   20.2889 C   0  0  0  0  0  0  0  0  0  0  0  0
    7.5551    7.1270   23.1200 O   0  0  0  0  0  0  0  0  0  0  0  0
  1 11  4  0
  1 21  4  0
  2  4  1  0
  2  8  1  0
  2 11  1  0
  3 10  4  0
  3 14  4  0
  4  5  1  0
  4 18  2  0
  6 12  1  0
  6 17  4  0
  6 23  4  0
  7  9  1  0
  7 13  4  0
  7 19  4  0
  9 20  1  0
 10 19  4  0
 11 25  4  0
 13 14  4  0
 15 16  4  0
 15 17  4  0
 15 21  4  0
 16 24  1  0
 16 25  4  0
 20 24  1  0
 20 26  2  0
 21 23  4  0
 22 23  1  0
M  END
$$$$

 Created by Python create_sdf_string function

 26 28  0  0  0  0  0  0  0  0999 V2000
   12.4616    8.6700   19.4180 N   0  0  0  0  0  0  0  0  0  0  0  0
   11.8329   10.8148   18.6769 N   0  0  0  0  0  0  0  0  0  0  0  0
    6.1021    2.5564   21.0678 C   0  0  0  0  0  0  0  0  0  0  0  0
   10.9097   11.8051   18.4804 C   0  0  0  0  0  0  0  0  0  0  0  0
   11.2280   12.9135   17.5669 C   0  0  0  0  0  0  0  0  0  0  0  0
   12.3782    5.4231   20.7777 C   0  0  0  0  0  0  0  0  0  0  0  0
    7.7365    4.6508   21.6987 C   0  0  0  0  0  0  0  0  0  0  0  0
   13.0186   11.0102   18.0020 C   0  0  0  0  0  0  0  0  0  0  0  0
    8.6628    5.7088   21.8871 N   0  0  0  0  0  0  0  0  0  0  0  0
    5.6516    3.5258   21.9140 C   0  0  0  0  0  0  0  0  0  0  0  0
   11.5863    9.6815   19.4539 C   0  0  0  0  0  0  0  0  0  0  0  0
   12.9648    4.1543   20.9205 C   0  0  0  0  0  0  0  0  0  0  0  0
    8.2089    3.6265   20.8929 C   0  0  0  0  0  0  0  0  0  0  0  0
    7.3827    2.5724   20.5432 C   0  0  0  0  0  0  0  0  0  0  0  0
   11.1529    7.2750   20.8025 C   0  0  0  0  0  0  0  0  0  0  0  0
   10.2573    8.3215   20.9827 C   0  0  0  0  0  0  0  0  0  0  0  0
   11.1606    5.9378   21.2366 N   0  0  0  0  0  0  0  0  0  0  0  0
    9.8932   11.6736   19.0677 O   0  0  0  0  0  0  0  0  0  0  0  0
    6.4470    4.5850   22.2321 C   0  0  0  0  0  0  0  0  0  0  0  0
    8.4619    6.9895   22.2968 C   0  0  0  0  0  0  0  0  0  0  0  0
   12.2747    7.5102   20.0420 C   0  0  0  0  0  0  0  0  0  0  0  0
   14.2544    6.2142   19.4191 C   0  0  0  0  0  0  0  0  0  0  0  0
   13.0695    6.3705   20.0375 N   0  0  0  0  0  0  0  0  0  0  0  0
    9.1913    8.0876   21.8361 N   0  0  0  0  0  0  0  0  0  0  0  0
   10.4739    9.4813   20.2889 C   0  0  0  0  0  0  0  0  0  0  0  0
    7.5551    7.1270   23.1200 O   0  0  0  0  0  0  0  0  0  0  0  0
  1 11  4  0
  1 21  4  0
  2  4  1  0
  2  8  1  0
  2 11  1  0
  3 10  4  0
  3 14  4  0
  4  5  1  0
  4 18  2  0
  6 12  1  0
  6 17  4  0
  6 23  4  0
  7  9  1  0
  7 13  4  0
  7 19  4  0
  9 20  1  0
 10 19  4  0
 11 25  4  0
 13 14  4  0
 15 16  4  0
 15 17  4  0
 15 21  4  0
 16 24  1  0
 16 25  4  0
 20 24  1  0
 20 26  2  0
 21 23  4  0
 22 23  1  0
M  END
$$$$

 Created by Python create_sdf_string function

 26 28  0  0  0  0  0  0  0  0999 V2000
   12.4616    8.6700   19.4180 N   0  0  0  0  0  0  0  0  0  0  0  0
   11.8329   10.8148   18.6769 N   0  0  0  0  0  0  0  0  0  0  0  0
    6.1021    2.5564   21.0678 C   0  0  0  0  0  0  0  0  0  0  0  0
   10.9097   11.8051   18.4804 C   0  0  0  0  0  0  0  0  0  0  0  0
   11.2280   12.9135   17.5669 C   0  0  0  0  0  0  0  0  0  0  0  0
   12.3782    5.4231   20.7777 C   0  0  0  0  0  0  0  0  0  0  0  0
    7.7365    4.6508   21.6987 C   0  0  0  0  0  0  0  0  0  0  0  0
   13.0186   11.0102   18.0020 C   0  0  0  0  0  0  0  0  0  0  0  0
    8.6628    5.7088   21.8871 N   0  0  0  0  0  0  0  0  0  0  0  0
    5.6516    3.5258   21.9140 C   0  0  0  0  0  0  0  0  0  0  0  0
   11.5863    9.6815   19.4539 C   0  0  0  0  0  0  0  0  0  0  0  0
   12.9648    4.1543   20.9205 C   0  0  0  0  0  0  0  0  0  0  0  0
    8.2089    3.6265   20.8929 C   0  0  0  0  0  0  0  0  0  0  0  0
    7.3827    2.5724   20.5432 C   0  0  0  0  0  0  0  0  0  0  0  0
   11.1529    7.2750   20.8025 C   0  0  0  0  0  0  0  0  0  0  0  0
   10.2573    8.3215   20.9827 C   0  0  0  0  0  0  0  0  0  0  0  0
   11.1606    5.9378   21.2366 N   0  0  0  0  0  0  0  0  0  0  0  0
    9.8932   11.6736   19.0677 O   0  0  0  0  0  0  0  0  0  0  0  0
    6.4470    4.5850   22.2321 C   0  0  0  0  0  0  0  0  0  0  0  0
    8.4619    6.9895   22.2968 C   0  0  0  0  0  0  0  0  0  0  0  0
   12.2747    7.5102   20.0420 C   0  0  0  0  0  0  0  0  0  0  0  0
   14.2544    6.2142   19.4191 C   0  0  0  0  0  0  0  0  0  0  0  0
   13.0695    6.3705   20.0375 N   0  0  0  0  0  0  0  0  0  0  0  0
    9.1913    8.0876   21.8361 N   0  0  0  0  0  0  0  0  0  0  0  0
   10.4739    9.4813   20.2889 C   0  0  0  0  0  0  0  0  0  0  0  0
    7.5551    7.1270   23.1200 O   0  0  0  0  0  0  0  0  0  0  0  0
  1 11  4  0
  1 21  4  0
  2  4  1  0
  2  8  1  0
  2 11  1  0
  3 10  4  0
  3 14  4  0
  4  5  1  0
  4 18  2  0
  6 12  1  0
  6 17  4  0
  6 23  4  0
  7  9  1  0
  7 13  4  0
  7 19  4  0
  9 20  1  0
 10 19  4  0
 11 25  4  0
 13 14  4  0
 15 16  4  0
 15 17  4  0
 15 21  4  0
 16 24  1  0
 16 25  4  0
 20 24  1  0
 20 26  2  0
 21 23  4  0
 22 23  1  0
M  END
$$$$

 Created by Python create_sdf_string function

 26 28  0  0  0  0  0  0  0  0999 V2000
   12.4616    8.6700   19.4180 N   0  0  0  0  0  0  0  0  0  0  0  0
   11.8329   10.8148   18.6769 N   0  0  0  0  0  0  0  0  0  0  0  0
    6.1021    2.5564   21.0678 C   0  0  0  0  0  0  0  0  0  0  0  0
   10.9097   11.8051   18.4804 C   0  0  0  0  0  0  0  0  0  0  0  0
   11.2280   12.9135   17.5669 C   0  0  0  0  0  0  0  0  0  0  0  0
   12.3782    5.4231   20.7777 C   0  0  0  0  0  0  0  0  0  0  0  0
    7.7365    4.6508   21.6987 C   0  0  0  0  0  0  0  0  0  0  0  0
   13.0186   11.0102   18.0020 C   0  0  0  0  0  0  0  0  0  0  0  0
    8.6628    5.7088   21.8871 N   0  0  0  0  0  0  0  0  0  0  0  0
    5.6516    3.5258   21.9140 C   0  0  0  0  0  0  0  0  0  0  0  0
   11.5863    9.6815   19.4539 C   0  0  0  0  0  0  0  0  0  0  0  0
   12.9648    4.1543   20.9205 C   0  0  0  0  0  0  0  0  0  0  0  0
    8.2089    3.6265   20.8929 C   0  0  0  0  0  0  0  0  0  0  0  0
    7.3827    2.5724   20.5432 C   0  0  0  0  0  0  0  0  0  0  0  0
   11.1529    7.2750   20.8025 C   0  0  0  0  0  0  0  0  0  0  0  0
   10.2573    8.3215   20.9827 C   0  0  0  0  0  0  0  0  0  0  0  0
   11.1606    5.9378   21.2366 N   0  0  0  0  0  0  0  0  0  0  0  0
    9.8932   11.6736   19.0677 O   0  0  0  0  0  0  0  0  0  0  0  0
    6.4470    4.5850   22.2321 C   0  0  0  0  0  0  0  0  0  0  0  0
    8.4619    6.9895   22.2968 C   0  0  0  0  0  0  0  0  0  0  0  0
   12.2747    7.5102   20.0420 C   0  0  0  0  0  0  0  0  0  0  0  0
   14.2544    6.2142   19.4191 C   0  0  0  0  0  0  0  0  0  0  0  0
   13.0695    6.3705   20.0375 N   0  0  0  0  0  0  0  0  0  0  0  0
    9.1913    8.0876   21.8361 N   0  0  0  0  0  0  0  0  0  0  0  0
   10.4739    9.4813   20.2889 C   0  0  0  0  0  0  0  0  0  0  0  0
    7.5551    7.1270   23.1200 O   0  0  0  0  0  0  0  0  0  0  0  0
  1 11  4  0
  1 21  4  0
  2  4  1  0
  2  8  1  0
  2 11  1  0
  3 10  4  0
  3 14  4  0
  4  5  1  0
  4 18  2  0
  6 12  1  0
  6 17  4  0
  6 23  4  0
  7  9  1  0
  7 13  4  0
  7 19  4  0
  9 20  1  0
 10 19  4  0
 11 25  4  0
 13 14  4  0
 15 16  4  0
 15 17  4  0
 15 21  4  0
 16 24  1  0
 16 25  4  0
 20 24  1  0
 20 26  2  0
 21 23  4  0
 22 23  1  0
M  END
$$$$

 Created by Python create_sdf_string function

 26 28  0  0  0  0  0  0  0  0999 V2000
   12.4616    8.6700   19.4180 N   0  0  0  0  0  0  0  0  0  0  0  0
   11.8329   10.8148   18.6769 N   0  0  0  0  0  0  0  0  0  0  0  0
    6.1021    2.5564   21.0678 C   0  0  0  0  0  0  0  0  0  0  0  0
   10.9097   11.8051   18.4804 C   0  0  0  0  0  0  0  0  0  0  0  0
   11.2280   12.9135   17.5669 C   0  0  0  0  0  0  0  0  0  0  0  0
   12.3782    5.4231   20.7777 C   0  0  0  0  0  0  0  0  0  0  0  0
    7.7365    4.6508   21.6987 C   0  0  0  0  0  0  0  0  0  0  0  0
   13.0186   11.0102   18.0020 C   0  0  0  0  0  0  0  0  0  0  0  0
    8.6628    5.7088   21.8871 N   0  0  0  0  0  0  0  0  0  0  0  0
    5.6516    3.5258   21.9140 C   0  0  0  0  0  0  0  0  0  0  0  0
   11.5863    9.6815   19.4539 C   0  0  0  0  0  0  0  0  0  0  0  0
   12.9648    4.1543   20.9205 C   0  0  0  0  0  0  0  0  0  0  0  0
    8.2089    3.6265   20.8929 C   0  0  0  0  0  0  0  0  0  0  0  0
    7.3827    2.5724   20.5432 C   0  0  0  0  0  0  0  0  0  0  0  0
   11.1529    7.2750   20.8025 C   0  0  0  0  0  0  0  0  0  0  0  0
   10.2573    8.3215   20.9827 C   0  0  0  0  0  0  0  0  0  0  0  0
   11.1606    5.9378   21.2366 N   0  0  0  0  0  0  0  0  0  0  0  0
    9.8932   11.6736   19.0677 O   0  0  0  0  0  0  0  0  0  0  0  0
    6.4470    4.5850   22.2321 C   0  0  0  0  0  0  0  0  0  0  0  0
    8.4619    6.9895   22.2968 C   0  0  0  0  0  0  0  0  0  0  0  0
   12.2747    7.5102   20.0420 C   0  0  0  0  0  0  0  0  0  0  0  0
   14.2544    6.2142   19.4191 C   0  0  0  0  0  0  0  0  0  0  0  0
   13.0695    6.3705   20.0375 N   0  0  0  0  0  0  0  0  0  0  0  0
    9.1913    8.0876   21.8361 N   0  0  0  0  0  0  0  0  0  0  0  0
   10.4739    9.4813   20.2889 C   0  0  0  0  0  0  0  0  0  0  0  0
    7.5551    7.1270   23.1200 O   0  0  0  0  0  0  0  0  0  0  0  0
  1 11  4  0
  1 21  4  0
  2  4  1  0
  2  8  1  0
  2 11  1  0
  3 10  4  0
  3 14  4  0
  4  5  1  0
  4 18  2  0
  6 12  1  0
  6 17  4  0
  6 23  4  0
  7  9  1  0
  7 13  4  0
  7 19  4  0
  9 20  1  0
 10 19  4  0
 11 25  4  0
 13 14  4  0
 15 16  4  0
 15 17  4  0
 15 21  4  0
 16 24  1  0
 16 25  4  0
 20 24  1  0
 20 26  2  0
 21 23  4  0
 22 23  1  0
M  END
$$$$

 Created by Python create_sdf_string function

 26 28  0  0  0  0  0  0  0  0999 V2000
   12.4616    8.6700   19.4180 N   0  0  0  0  0  0  0  0  0  0  0  0
   11.8329   10.8148   18.6769 N   0  0  0  0  0  0  0  0  0  0  0  0
    6.1021    2.5564   21.0678 C   0  0  0  0  0  0  0  0  0  0  0  0
   10.9097   11.8051   18.4804 C   0  0  0  0  0  0  0  0  0  0  0  0
   11.2280   12.9135   17.5669 C   0  0  0  0  0  0  0  0  0  0  0  0
   12.3782    5.4231   20.7777 C   0  0  0  0  0  0  0  0  0  0  0  0
    7.7365    4.6508   21.6987 C   0  0  0  0  0  0  0  0  0  0  0  0
   13.0186   11.0102   18.0020 C   0  0  0  0  0  0  0  0  0  0  0  0
    8.6628    5.7088   21.8871 N   0  0  0  0  0  0  0  0  0  0  0  0
    5.6516    3.5258   21.9140 C   0  0  0  0  0  0  0  0  0  0  0  0
   11.5863    9.6815   19.4539 C   0  0  0  0  0  0  0  0  0  0  0  0
   12.9648    4.1543   20.9205 C   0  0  0  0  0  0  0  0  0  0  0  0
    8.2089    3.6265   20.8929 C   0  0  0  0  0  0  0  0  0  0  0  0
    7.3827    2.5724   20.5432 C   0  0  0  0  0  0  0  0  0  0  0  0
   11.1529    7.2750   20.8025 C   0  0  0  0  0  0  0  0  0  0  0  0
   10.2573    8.3215   20.9827 C   0  0  0  0  0  0  0  0  0  0  0  0
   11.1606    5.9378   21.2366 N   0  0  0  0  0  0  0  0  0  0  0  0
    9.8932   11.6736   19.0677 O   0  0  0  0  0  0  0  0  0  0  0  0
    6.4470    4.5850   22.2321 C   0  0  0  0  0  0  0  0  0  0  0  0
    8.4619    6.9895   22.2968 C   0  0  0  0  0  0  0  0  0  0  0  0
   12.2747    7.5102   20.0420 C   0  0  0  0  0  0  0  0  0  0  0  0
   14.2544    6.2142   19.4191 C   0  0  0  0  0  0  0  0  0  0  0  0
   13.0695    6.3705   20.0375 N   0  0  0  0  0  0  0  0  0  0  0  0
    9.1913    8.0876   21.8361 N   0  0  0  0  0  0  0  0  0  0  0  0
   10.4739    9.4813   20.2889 C   0  0  0  0  0  0  0  0  0  0  0  0
    7.5551    7.1270   23.1200 O   0  0  0  0  0  0  0  0  0  0  0  0
  1 11  4  0
  1 21  4  0
  2  4  1  0
  2  8  1  0
  2 11  1  0
  3 10  4  0
  3 14  4  0
  4  5  1  0
  4 18  2  0
  6 12  1  0
  6 17  4  0
  6 23  4  0
  7  9  1  0
  7 13  4  0
  7 19  4  0
  9 20  1  0
 10 19  4  0
 11 25  4  0
 13 14  4  0
 15 16  4  0
 15 17  4  0
 15 21  4  0
 16 24  1  0
 16 25  4  0
 20 24  1  0
 20 26  2  0
 21 23  4  0
 22 23  1  0
M  END
$$$$

 Created by Python create_sdf_string function

 26 28  0  0  0  0  0  0  0  0999 V2000
   12.4616    8.6700   19.4180 N   0  0  0  0  0  0  0  0  0  0  0  0
   11.8329   10.8148   18.6769 N   0  0  0  0  0  0  0  0  0  0  0  0
    6.1021    2.5564   21.0678 C   0  0  0  0  0  0  0  0  0  0  0  0
   10.9097   11.8051   18.4804 C   0  0  0  0  0  0  0  0  0  0  0  0
   11.2280   12.9135   17.5669 C   0  0  0  0  0  0  0  0  0  0  0  0
   12.3782    5.4231   20.7777 C   0  0  0  0  0  0  0  0  0  0  0  0
    7.7365    4.6508   21.6987 C   0  0  0  0  0  0  0  0  0  0  0  0
   13.0186   11.0102   18.0020 C   0  0  0  0  0  0  0  0  0  0  0  0
    8.6628    5.7088   21.8871 N   0  0  0  0  0  0  0  0  0  0  0  0
    5.6516    3.5258   21.9140 C   0  0  0  0  0  0  0  0  0  0  0  0
   11.5863    9.6815   19.4539 C   0  0  0  0  0  0  0  0  0  0  0  0
   12.9648    4.1543   20.9205 C   0  0  0  0  0  0  0  0  0  0  0  0
    8.2089    3.6265   20.8929 C   0  0  0  0  0  0  0  0  0  0  0  0
    7.3827    2.5724   20.5432 C   0  0  0  0  0  0  0  0  0  0  0  0
   11.1529    7.2750   20.8025 C   0  0  0  0  0  0  0  0  0  0  0  0
   10.2573    8.3215   20.9827 C   0  0  0  0  0  0  0  0  0  0  0  0
   11.1606    5.9378   21.2366 N   0  0  0  0  0  0  0  0  0  0  0  0
    9.8932   11.6736   19.0677 O   0  0  0  0  0  0  0  0  0  0  0  0
    6.4470    4.5850   22.2321 C   0  0  0  0  0  0  0  0  0  0  0  0
    8.4619    6.9895   22.2968 C   0  0  0  0  0  0  0  0  0  0  0  0
   12.2747    7.5102   20.0420 C   0  0  0  0  0  0  0  0  0  0  0  0
   14.2544    6.2142   19.4191 C   0  0  0  0  0  0  0  0  0  0  0  0
   13.0695    6.3705   20.0375 N   0  0  0  0  0  0  0  0  0  0  0  0
    9.1913    8.0876   21.8361 N   0  0  0  0  0  0  0  0  0  0  0  0
   10.4739    9.4813   20.2889 C   0  0  0  0  0  0  0  0  0  0  0  0
    7.5551    7.1270   23.1200 O   0  0  0  0  0  0  0  0  0  0  0  0
  1 11  4  0
  1 21  4  0
  2  4  1  0
  2  8  1  0
  2 11  1  0
  3 10  4  0
  3 14  4  0
  4  5  1  0
  4 18  2  0
  6 12  1  0
  6 17  4  0
  6 23  4  0
  7  9  1  0
  7 13  4  0
  7 19  4  0
  9 20  1  0
 10 19  4  0
 11 25  4  0
 13 14  4  0
 15 16  4  0
 15 17  4  0
 15 21  4  0
 16 24  1  0
 16 25  4  0
 20 24  1  0
 20 26  2  0
 21 23  4  0
 22 23  1  0
M  END
$$$$

 Created by Python create_sdf_string function

 26 28  0  0  0  0  0  0  0  0999 V2000
   12.4616    8.6700   19.4180 N   0  0  0  0  0  0  0  0  0  0  0  0
   11.8329   10.8148   18.6769 N   0  0  0  0  0  0  0  0  0  0  0  0
    6.1021    2.5564   21.0678 C   0  0  0  0  0  0  0  0  0  0  0  0
   10.9097   11.8051   18.4804 C   0  0  0  0  0  0  0  0  0  0  0  0
   11.2280   12.9135   17.5669 C   0  0  0  0  0  0  0  0  0  0  0  0
   12.3782    5.4231   20.7777 C   0  0  0  0  0  0  0  0  0  0  0  0
    7.7365    4.6508   21.6987 C   0  0  0  0  0  0  0  0  0  0  0  0
   13.0186   11.0102   18.0020 C   0  0  0  0  0  0  0  0  0  0  0  0
    8.6628    5.7088   21.8871 N   0  0  0  0  0  0  0  0  0  0  0  0
    5.6516    3.5258   21.9140 C   0  0  0  0  0  0  0  0  0  0  0  0
   11.5863    9.6815   19.4539 C   0  0  0  0  0  0  0  0  0  0  0  0
   12.9648    4.1543   20.9205 C   0  0  0  0  0  0  0  0  0  0  0  0
    8.2089    3.6265   20.8929 C   0  0  0  0  0  0  0  0  0  0  0  0
    7.3827    2.5724   20.5432 C   0  0  0  0  0  0  0  0  0  0  0  0
   11.1529    7.2750   20.8025 C   0  0  0  0  0  0  0  0  0  0  0  0
   10.2573    8.3215   20.9827 C   0  0  0  0  0  0  0  0  0  0  0  0
   11.1606    5.9378   21.2366 N   0  0  0  0  0  0  0  0  0  0  0  0
    9.8932   11.6736   19.0677 O   0  0  0  0  0  0  0  0  0  0  0  0
    6.4470    4.5850   22.2321 C   0  0  0  0  0  0  0  0  0  0  0  0
    8.4619    6.9895   22.2968 C   0  0  0  0  0  0  0  0  0  0  0  0
   12.2747    7.5102   20.0420 C   0  0  0  0  0  0  0  0  0  0  0  0
   14.2544    6.2142   19.4191 C   0  0  0  0  0  0  0  0  0  0  0  0
   13.0695    6.3705   20.0375 N   0  0  0  0  0  0  0  0  0  0  0  0
    9.1913    8.0876   21.8361 N   0  0  0  0  0  0  0  0  0  0  0  0
   10.4739    9.4813   20.2889 C   0  0  0  0  0  0  0  0  0  0  0  0
    7.5551    7.1270   23.1200 O   0  0  0  0  0  0  0  0  0  0  0  0
  1 11  4  0
  1 21  4  0
  2  4  1  0
  2  8  1  0
  2 11  1  0
  3 10  4  0
  3 14  4  0
  4  5  1  0
  4 18  2  0
  6 12  1  0
  6 17  4  0
  6 23  4  0
  7  9  1  0
  7 13  4  0
  7 19  4  0
  9 20  1  0
 10 19  4  0
 11 25  4  0
 13 14  4  0
 15 16  4  0
 15 17  4  0
 15 21  4  0
 16 24  1  0
 16 25  4  0
 20 24  1  0
 20 26  2  0
 21 23  4  0
 22 23  1  0
M  END
$$$$

 Created by Python create_sdf_string function

 26 28  0  0  0  0  0  0  0  0999 V2000
   12.4616    8.6700   19.4180 N   0  0  0  0  0  0  0  0  0  0  0  0
   11.8329   10.8148   18.6769 N   0  0  0  0  0  0  0  0  0  0  0  0
    6.1021    2.5564   21.0678 C   0  0  0  0  0  0  0  0  0  0  0  0
   10.9097   11.8051   18.4804 C   0  0  0  0  0  0  0  0  0  0  0  0
   11.2280   12.9135   17.5669 C   0  0  0  0  0  0  0  0  0  0  0  0
   12.3782    5.4231   20.7777 C   0  0  0  0  0  0  0  0  0  0  0  0
    7.7365    4.6508   21.6987 C   0  0  0  0  0  0  0  0  0  0  0  0
   13.0186   11.0102   18.0020 C   0  0  0  0  0  0  0  0  0  0  0  0
    8.6628    5.7088   21.8871 N   0  0  0  0  0  0  0  0  0  0  0  0
    5.6516    3.5258   21.9140 C   0  0  0  0  0  0  0  0  0  0  0  0
   11.5863    9.6815   19.4539 C   0  0  0  0  0  0  0  0  0  0  0  0
   12.9648    4.1543   20.9205 C   0  0  0  0  0  0  0  0  0  0  0  0
    8.2089    3.6265   20.8929 C   0  0  0  0  0  0  0  0  0  0  0  0
    7.3827    2.5724   20.5432 C   0  0  0  0  0  0  0  0  0  0  0  0
   11.1529    7.2750   20.8025 C   0  0  0  0  0  0  0  0  0  0  0  0
   10.2573    8.3215   20.9827 C   0  0  0  0  0  0  0  0  0  0  0  0
   11.1606    5.9378   21.2366 N   0  0  0  0  0  0  0  0  0  0  0  0
    9.8932   11.6736   19.0677 O   0  0  0  0  0  0  0  0  0  0  0  0
    6.4470    4.5850   22.2321 C   0  0  0  0  0  0  0  0  0  0  0  0
    8.4619    6.9895   22.2968 C   0  0  0  0  0  0  0  0  0  0  0  0
   12.2747    7.5102   20.0420 C   0  0  0  0  0  0  0  0  0  0  0  0
   14.2544    6.2142   19.4191 C   0  0  0  0  0  0  0  0  0  0  0  0
   13.0695    6.3705   20.0375 N   0  0  0  0  0  0  0  0  0  0  0  0
    9.1913    8.0876   21.8361 N   0  0  0  0  0  0  0  0  0  0  0  0
   10.4739    9.4813   20.2889 C   0  0  0  0  0  0  0  0  0  0  0  0
    7.5551    7.1270   23.1200 O   0  0  0  0  0  0  0  0  0  0  0  0
  1 11  4  0
  1 21  4  0
  2  4  1  0
  2  8  1  0
  2 11  1  0
  3 10  4  0
  3 14  4  0
  4  5  1  0
  4 18  2  0
  6 12  1  0
  6 17  4  0
  6 23  4  0
  7  9  1  0
  7 13  4  0
  7 19  4  0
  9 20  1  0
 10 19  4  0
 11 25  4  0
 13 14  4  0
 15 16  4  0
 15 17  4  0
 15 21  4  0
 16 24  1  0
 16 25  4  0
 20 24  1  0
 20 26  2  0
 21 23  4  0
 22 23  1  0
M  END
$$$$

 Created by Python create_sdf_string function

 26 28  0  0  0  0  0  0  0  0999 V2000
   12.4616    8.6700   19.4180 N   0  0  0  0  0  0  0  0  0  0  0  0
   11.8329   10.8148   18.6769 N   0  0  0  0  0  0  0  0  0  0  0  0
    6.1021    2.5564   21.0678 C   0  0  0  0  0  0  0  0  0  0  0  0
   10.9097   11.8051   18.4804 C   0  0  0  0  0  0  0  0  0  0  0  0
   11.2280   12.9135   17.5669 C   0  0  0  0  0  0  0  0  0  0  0  0
   12.3782    5.4231   20.7777 C   0  0  0  0  0  0  0  0  0  0  0  0
    7.7365    4.6508   21.6987 C   0  0  0  0  0  0  0  0  0  0  0  0
   13.0186   11.0102   18.0020 C   0  0  0  0  0  0  0  0  0  0  0  0
    8.6628    5.7088   21.8871 N   0  0  0  0  0  0  0  0  0  0  0  0
    5.6516    3.5258   21.9140 C   0  0  0  0  0  0  0  0  0  0  0  0
   11.5863    9.6815   19.4539 C   0  0  0  0  0  0  0  0  0  0  0  0
   12.9648    4.1543   20.9205 C   0  0  0  0  0  0  0  0  0  0  0  0
    8.2089    3.6265   20.8929 C   0  0  0  0  0  0  0  0  0  0  0  0
    7.3827    2.5724   20.5432 C   0  0  0  0  0  0  0  0  0  0  0  0
   11.1529    7.2750   20.8025 C   0  0  0  0  0  0  0  0  0  0  0  0
   10.2573    8.3215   20.9827 C   0  0  0  0  0  0  0  0  0  0  0  0
   11.1606    5.9378   21.2366 N   0  0  0  0  0  0  0  0  0  0  0  0
    9.8932   11.6736   19.0677 O   0  0  0  0  0  0  0  0  0  0  0  0
    6.4470    4.5850   22.2321 C   0  0  0  0  0  0  0  0  0  0  0  0
    8.4619    6.9895   22.2968 C   0  0  0  0  0  0  0  0  0  0  0  0
   12.2747    7.5102   20.0420 C   0  0  0  0  0  0  0  0  0  0  0  0
   14.2544    6.2142   19.4191 C   0  0  0  0  0  0  0  0  0  0  0  0
   13.0695    6.3705   20.0375 N   0  0  0  0  0  0  0  0  0  0  0  0
    9.1913    8.0876   21.8361 N   0  0  0  0  0  0  0  0  0  0  0  0
   10.4739    9.4813   20.2889 C   0  0  0  0  0  0  0  0  0  0  0  0
    7.5551    7.1270   23.1200 O   0  0  0  0  0  0  0  0  0  0  0  0
  1 11  4  0
  1 21  4  0
  2  4  1  0
  2  8  1  0
  2 11  1  0
  3 10  4  0
  3 14  4  0
  4  5  1  0
  4 18  2  0
  6 12  1  0
  6 17  4  0
  6 23  4  0
  7  9  1  0
  7 13  4  0
  7 19  4  0
  9 20  1  0
 10 19  4  0
 11 25  4  0
 13 14  4  0
 15 16  4  0
 15 17  4  0
 15 21  4  0
 16 24  1  0
 16 25  4  0
 20 24  1  0
 20 26  2  0
 21 23  4  0
 22 23  1  0
M  END
$$$$

 Created by Python create_sdf_string function

 26 28  0  0  0  0  0  0  0  0999 V2000
   12.4616    8.6700   19.4180 N   0  0  0  0  0  0  0  0  0  0  0  0
   11.8329   10.8148   18.6769 N   0  0  0  0  0  0  0  0  0  0  0  0
    6.1021    2.5564   21.0678 C   0  0  0  0  0  0  0  0  0  0  0  0
   10.9097   11.8051   18.4804 C   0  0  0  0  0  0  0  0  0  0  0  0
   11.2280   12.9135   17.5669 C   0  0  0  0  0  0  0  0  0  0  0  0
   12.3782    5.4231   20.7777 C   0  0  0  0  0  0  0  0  0  0  0  0
    7.7365    4.6508   21.6987 C   0  0  0  0  0  0  0  0  0  0  0  0
   13.0186   11.0102   18.0020 C   0  0  0  0  0  0  0  0  0  0  0  0
    8.6628    5.7088   21.8871 N   0  0  0  0  0  0  0  0  0  0  0  0
    5.6516    3.5258   21.9140 C   0  0  0  0  0  0  0  0  0  0  0  0
   11.5863    9.6815   19.4539 C   0  0  0  0  0  0  0  0  0  0  0  0
   12.9648    4.1543   20.9205 C   0  0  0  0  0  0  0  0  0  0  0  0
    8.2089    3.6265   20.8929 C   0  0  0  0  0  0  0  0  0  0  0  0
    7.3827    2.5724   20.5432 C   0  0  0  0  0  0  0  0  0  0  0  0
   11.1529    7.2750   20.8025 C   0  0  0  0  0  0  0  0  0  0  0  0
   10.2573    8.3215   20.9827 C   0  0  0  0  0  0  0  0  0  0  0  0
   11.1606    5.9378   21.2366 N   0  0  0  0  0  0  0  0  0  0  0  0
    9.8932   11.6736   19.0677 O   0  0  0  0  0  0  0  0  0  0  0  0
    6.4470    4.5850   22.2321 C   0  0  0  0  0  0  0  0  0  0  0  0
    8.4619    6.9895   22.2968 C   0  0  0  0  0  0  0  0  0  0  0  0
   12.2747    7.5102   20.0420 C   0  0  0  0  0  0  0  0  0  0  0  0
   14.2544    6.2142   19.4191 C   0  0  0  0  0  0  0  0  0  0  0  0
   13.0695    6.3705   20.0375 N   0  0  0  0  0  0  0  0  0  0  0  0
    9.1913    8.0876   21.8361 N   0  0  0  0  0  0  0  0  0  0  0  0
   10.4739    9.4813   20.2889 C   0  0  0  0  0  0  0  0  0  0  0  0
    7.5551    7.1270   23.1200 O   0  0  0  0  0  0  0  0  0  0  0  0
  1 11  4  0
  1 21  4  0
  2  4  1  0
  2  8  1  0
  2 11  1  0
  3 10  4  0
  3 14  4  0
  4  5  1  0
  4 18  2  0
  6 12  1  0
  6 17  4  0
  6 23  4  0
  7  9  1  0
  7 13  4  0
  7 19  4  0
  9 20  1  0
 10 19  4  0
 11 25  4  0
 13 14  4  0
 15 16  4  0
 15 17  4  0
 15 21  4  0
 16 24  1  0
 16 25  4  0
 20 24  1  0
 20 26  2  0
 21 23  4  0
 22 23  1  0
M  END
$$$$

 Created by Python create_sdf_string function

 26 28  0  0  0  0  0  0  0  0999 V2000
   12.4616    8.6700   19.4180 N   0  0  0  0  0  0  0  0  0  0  0  0
   11.8329   10.8148   18.6769 N   0  0  0  0  0  0  0  0  0  0  0  0
    6.1021    2.5564   21.0678 C   0  0  0  0  0  0  0  0  0  0  0  0
   10.9097   11.8051   18.4804 C   0  0  0  0  0  0  0  0  0  0  0  0
   11.2280   12.9135   17.5669 C   0  0  0  0  0  0  0  0  0  0  0  0
   12.3782    5.4231   20.7777 C   0  0  0  0  0  0  0  0  0  0  0  0
    7.7365    4.6508   21.6987 C   0  0  0  0  0  0  0  0  0  0  0  0
   13.0186   11.0102   18.0020 C   0  0  0  0  0  0  0  0  0  0  0  0
    8.6628    5.7088   21.8871 N   0  0  0  0  0  0  0  0  0  0  0  0
    5.6516    3.5258   21.9140 C   0  0  0  0  0  0  0  0  0  0  0  0
   11.5863    9.6815   19.4539 C   0  0  0  0  0  0  0  0  0  0  0  0
   12.9648    4.1543   20.9205 C   0  0  0  0  0  0  0  0  0  0  0  0
    8.2089    3.6265   20.8929 C   0  0  0  0  0  0  0  0  0  0  0  0
    7.3827    2.5724   20.5432 C   0  0  0  0  0  0  0  0  0  0  0  0
   11.1529    7.2750   20.8025 C   0  0  0  0  0  0  0  0  0  0  0  0
   10.2573    8.3215   20.9827 C   0  0  0  0  0  0  0  0  0  0  0  0
   11.1606    5.9378   21.2366 N   0  0  0  0  0  0  0  0  0  0  0  0
    9.8932   11.6736   19.0677 O   0  0  0  0  0  0  0  0  0  0  0  0
    6.4470    4.5850   22.2321 C   0  0  0  0  0  0  0  0  0  0  0  0
    8.4619    6.9895   22.2968 C   0  0  0  0  0  0  0  0  0  0  0  0
   12.2747    7.5102   20.0420 C   0  0  0  0  0  0  0  0  0  0  0  0
   14.2544    6.2142   19.4191 C   0  0  0  0  0  0  0  0  0  0  0  0
   13.0695    6.3705   20.0375 N   0  0  0  0  0  0  0  0  0  0  0  0
    9.1913    8.0876   21.8361 N   0  0  0  0  0  0  0  0  0  0  0  0
   10.4739    9.4813   20.2889 C   0  0  0  0  0  0  0  0  0  0  0  0
    7.5551    7.1270   23.1200 O   0  0  0  0  0  0  0  0  0  0  0  0
  1 11  4  0
  1 21  4  0
  2  4  1  0
  2  8  1  0
  2 11  1  0
  3 10  4  0
  3 14  4  0
  4  5  1  0
  4 18  2  0
  6 12  1  0
  6 17  4  0
  6 23  4  0
  7  9  1  0
  7 13  4  0
  7 19  4  0
  9 20  1  0
 10 19  4  0
 11 25  4  0
 13 14  4  0
 15 16  4  0
 15 17  4  0
 15 21  4  0
 16 24  1  0
 16 25  4  0
 20 24  1  0
 20 26  2  0
 21 23  4  0
 22 23  1  0
M  END
$$$$

 Created by Python create_sdf_string function

 26 28  0  0  0  0  0  0  0  0999 V2000
   12.4616    8.6700   19.4180 N   0  0  0  0  0  0  0  0  0  0  0  0
   11.8329   10.8148   18.6769 N   0  0  0  0  0  0  0  0  0  0  0  0
    6.1021    2.5564   21.0678 C   0  0  0  0  0  0  0  0  0  0  0  0
   10.9097   11.8051   18.4804 C   0  0  0  0  0  0  0  0  0  0  0  0
   11.2280   12.9135   17.5669 C   0  0  0  0  0  0  0  0  0  0  0  0
   12.3782    5.4231   20.7777 C   0  0  0  0  0  0  0  0  0  0  0  0
    7.7365    4.6508   21.6987 C   0  0  0  0  0  0  0  0  0  0  0  0
   13.0186   11.0102   18.0020 C   0  0  0  0  0  0  0  0  0  0  0  0
    8.6628    5.7088   21.8871 N   0  0  0  0  0  0  0  0  0  0  0  0
    5.6516    3.5258   21.9140 C   0  0  0  0  0  0  0  0  0  0  0  0
   11.5863    9.6815   19.4539 C   0  0  0  0  0  0  0  0  0  0  0  0
   12.9648    4.1543   20.9205 C   0  0  0  0  0  0  0  0  0  0  0  0
    8.2089    3.6265   20.8929 C   0  0  0  0  0  0  0  0  0  0  0  0
    7.3827    2.5724   20.5432 C   0  0  0  0  0  0  0  0  0  0  0  0
   11.1529    7.2750   20.8025 C   0  0  0  0  0  0  0  0  0  0  0  0
   10.2573    8.3215   20.9827 C   0  0  0  0  0  0  0  0  0  0  0  0
   11.1606    5.9378   21.2366 N   0  0  0  0  0  0  0  0  0  0  0  0
    9.8932   11.6736   19.0677 O   0  0  0  0  0  0  0  0  0  0  0  0
    6.4470    4.5850   22.2321 C   0  0  0  0  0  0  0  0  0  0  0  0
    8.4619    6.9895   22.2968 C   0  0  0  0  0  0  0  0  0  0  0  0
   12.2747    7.5102   20.0420 C   0  0  0  0  0  0  0  0  0  0  0  0
   14.2544    6.2142   19.4191 C   0  0  0  0  0  0  0  0  0  0  0  0
   13.0695    6.3705   20.0375 N   0  0  0  0  0  0  0  0  0  0  0  0
    9.1913    8.0876   21.8361 N   0  0  0  0  0  0  0  0  0  0  0  0
   10.4739    9.4813   20.2889 C   0  0  0  0  0  0  0  0  0  0  0  0
    7.5551    7.1270   23.1200 O   0  0  0  0  0  0  0  0  0  0  0  0
  1 11  4  0
  1 21  4  0
  2  4  1  0
  2  8  1  0
  2 11  1  0
  3 10  4  0
  3 14  4  0
  4  5  1  0
  4 18  2  0
  6 12  1  0
  6 17  4  0
  6 23  4  0
  7  9  1  0
  7 13  4  0
  7 19  4  0
  9 20  1  0
 10 19  4  0
 11 25  4  0
 13 14  4  0
 15 16  4  0
 15 17  4  0
 15 21  4  0
 16 24  1  0
 16 25  4  0
 20 24  1  0
 20 26  2  0
 21 23  4  0
 22 23  1  0
M  END
$$$$

 Created by Python create_sdf_string function

 26 28  0  0  0  0  0  0  0  0999 V2000
   12.4616    8.6700   19.4180 N   0  0  0  0  0  0  0  0  0  0  0  0
   11.8329   10.8148   18.6769 N   0  0  0  0  0  0  0  0  0  0  0  0
    6.1021    2.5564   21.0678 C   0  0  0  0  0  0  0  0  0  0  0  0
   10.9097   11.8051   18.4804 C   0  0  0  0  0  0  0  0  0  0  0  0
   11.2280   12.9135   17.5669 C   0  0  0  0  0  0  0  0  0  0  0  0
   12.3782    5.4231   20.7777 C   0  0  0  0  0  0  0  0  0  0  0  0
    7.7365    4.6508   21.6987 C   0  0  0  0  0  0  0  0  0  0  0  0
   13.0186   11.0102   18.0020 C   0  0  0  0  0  0  0  0  0  0  0  0
    8.6628    5.7088   21.8871 N   0  0  0  0  0  0  0  0  0  0  0  0
    5.6516    3.5258   21.9140 C   0  0  0  0  0  0  0  0  0  0  0  0
   11.5863    9.6815   19.4539 C   0  0  0  0  0  0  0  0  0  0  0  0
   12.9648    4.1543   20.9205 C   0  0  0  0  0  0  0  0  0  0  0  0
    8.2089    3.6265   20.8929 C   0  0  0  0  0  0  0  0  0  0  0  0
    7.3827    2.5724   20.5432 C   0  0  0  0  0  0  0  0  0  0  0  0
   11.1529    7.2750   20.8025 C   0  0  0  0  0  0  0  0  0  0  0  0
   10.2573    8.3215   20.9827 C   0  0  0  0  0  0  0  0  0  0  0  0
   11.1606    5.9378   21.2366 N   0  0  0  0  0  0  0  0  0  0  0  0
    9.8932   11.6736   19.0677 O   0  0  0  0  0  0  0  0  0  0  0  0
    6.4470    4.5850   22.2321 C   0  0  0  0  0  0  0  0  0  0  0  0
    8.4619    6.9895   22.2968 C   0  0  0  0  0  0  0  0  0  0  0  0
   12.2747    7.5102   20.0420 C   0  0  0  0  0  0  0  0  0  0  0  0
   14.2544    6.2142   19.4191 C   0  0  0  0  0  0  0  0  0  0  0  0
   13.0695    6.3705   20.0375 N   0  0  0  0  0  0  0  0  0  0  0  0
    9.1913    8.0876   21.8361 N   0  0  0  0  0  0  0  0  0  0  0  0
   10.4739    9.4813   20.2889 C   0  0  0  0  0  0  0  0  0  0  0  0
    7.5551    7.1270   23.1200 O   0  0  0  0  0  0  0  0  0  0  0  0
  1 11  4  0
  1 21  4  0
  2  4  1  0
  2  8  1  0
  2 11  1  0
  3 10  4  0
  3 14  4  0
  4  5  1  0
  4 18  2  0
  6 12  1  0
  6 17  4  0
  6 23  4  0
  7  9  1  0
  7 13  4  0
  7 19  4  0
  9 20  1  0
 10 19  4  0
 11 25  4  0
 13 14  4  0
 15 16  4  0
 15 17  4  0
 15 21  4  0
 16 24  1  0
 16 25  4  0
 20 24  1  0
 20 26  2  0
 21 23  4  0
 22 23  1  0
M  END
$$$$

 Created by Python create_sdf_string function

 26 28  0  0  0  0  0  0  0  0999 V2000
   12.4616    8.6700   19.4180 N   0  0  0  0  0  0  0  0  0  0  0  0
   11.8329   10.8148   18.6769 N   0  0  0  0  0  0  0  0  0  0  0  0
    6.1021    2.5564   21.0678 C   0  0  0  0  0  0  0  0  0  0  0  0
   10.9097   11.8051   18.4804 C   0  0  0  0  0  0  0  0  0  0  0  0
   11.2280   12.9135   17.5669 C   0  0  0  0  0  0  0  0  0  0  0  0
   12.3782    5.4231   20.7777 C   0  0  0  0  0  0  0  0  0  0  0  0
    7.7365    4.6508   21.6987 C   0  0  0  0  0  0  0  0  0  0  0  0
   13.0186   11.0102   18.0020 C   0  0  0  0  0  0  0  0  0  0  0  0
    8.6628    5.7088   21.8871 N   0  0  0  0  0  0  0  0  0  0  0  0
    5.6516    3.5258   21.9140 C   0  0  0  0  0  0  0  0  0  0  0  0
   11.5863    9.6815   19.4539 C   0  0  0  0  0  0  0  0  0  0  0  0
   12.9648    4.1543   20.9205 C   0  0  0  0  0  0  0  0  0  0  0  0
    8.2089    3.6265   20.8929 C   0  0  0  0  0  0  0  0  0  0  0  0
    7.3827    2.5724   20.5432 C   0  0  0  0  0  0  0  0  0  0  0  0
   11.1529    7.2750   20.8025 C   0  0  0  0  0  0  0  0  0  0  0  0
   10.2573    8.3215   20.9827 C   0  0  0  0  0  0  0  0  0  0  0  0
   11.1606    5.9378   21.2366 N   0  0  0  0  0  0  0  0  0  0  0  0
    9.8932   11.6736   19.0677 O   0  0  0  0  0  0  0  0  0  0  0  0
    6.4470    4.5850   22.2321 C   0  0  0  0  0  0  0  0  0  0  0  0
    8.4619    6.9895   22.2968 C   0  0  0  0  0  0  0  0  0  0  0  0
   12.2747    7.5102   20.0420 C   0  0  0  0  0  0  0  0  0  0  0  0
   14.2544    6.2142   19.4191 C   0  0  0  0  0  0  0  0  0  0  0  0
   13.0695    6.3705   20.0375 N   0  0  0  0  0  0  0  0  0  0  0  0
    9.1913    8.0876   21.8361 N   0  0  0  0  0  0  0  0  0  0  0  0
   10.4739    9.4813   20.2889 C   0  0  0  0  0  0  0  0  0  0  0  0
    7.5551    7.1270   23.1200 O   0  0  0  0  0  0  0  0  0  0  0  0
  1 11  4  0
  1 21  4  0
  2  4  1  0
  2  8  1  0
  2 11  1  0
  3 10  4  0
  3 14  4  0
  4  5  1  0
  4 18  2  0
  6 12  1  0
  6 17  4  0
  6 23  4  0
  7  9  1  0
  7 13  4  0
  7 19  4  0
  9 20  1  0
 10 19  4  0
 11 25  4  0
 13 14  4  0
 15 16  4  0
 15 17  4  0
 15 21  4  0
 16 24  1  0
 16 25  4  0
 20 24  1  0
 20 26  2  0
 21 23  4  0
 22 23  1  0
M  END
$$$$

 Created by Python create_sdf_string function

 26 28  0  0  0  0  0  0  0  0999 V2000
   12.4616    8.6700   19.4180 N   0  0  0  0  0  0  0  0  0  0  0  0
   11.8329   10.8148   18.6769 N   0  0  0  0  0  0  0  0  0  0  0  0
    6.1021    2.5564   21.0678 C   0  0  0  0  0  0  0  0  0  0  0  0
   10.9097   11.8051   18.4804 C   0  0  0  0  0  0  0  0  0  0  0  0
   11.2280   12.9135   17.5669 C   0  0  0  0  0  0  0  0  0  0  0  0
   12.3782    5.4231   20.7777 C   0  0  0  0  0  0  0  0  0  0  0  0
    7.7365    4.6508   21.6987 C   0  0  0  0  0  0  0  0  0  0  0  0
   13.0186   11.0102   18.0020 C   0  0  0  0  0  0  0  0  0  0  0  0
    8.6628    5.7088   21.8871 N   0  0  0  0  0  0  0  0  0  0  0  0
    5.6516    3.5258   21.9140 C   0  0  0  0  0  0  0  0  0  0  0  0
   11.5863    9.6815   19.4539 C   0  0  0  0  0  0  0  0  0  0  0  0
   12.9648    4.1543   20.9205 C   0  0  0  0  0  0  0  0  0  0  0  0
    8.2089    3.6265   20.8929 C   0  0  0  0  0  0  0  0  0  0  0  0
    7.3827    2.5724   20.5432 C   0  0  0  0  0  0  0  0  0  0  0  0
   11.1529    7.2750   20.8025 C   0  0  0  0  0  0  0  0  0  0  0  0
   10.2573    8.3215   20.9827 C   0  0  0  0  0  0  0  0  0  0  0  0
   11.1606    5.9378   21.2366 N   0  0  0  0  0  0  0  0  0  0  0  0
    9.8932   11.6736   19.0677 O   0  0  0  0  0  0  0  0  0  0  0  0
    6.4470    4.5850   22.2321 C   0  0  0  0  0  0  0  0  0  0  0  0
    8.4619    6.9895   22.2968 C   0  0  0  0  0  0  0  0  0  0  0  0
   12.2747    7.5102   20.0420 C   0  0  0  0  0  0  0  0  0  0  0  0
   14.2544    6.2142   19.4191 C   0  0  0  0  0  0  0  0  0  0  0  0
   13.0695    6.3705   20.0375 N   0  0  0  0  0  0  0  0  0  0  0  0
    9.1913    8.0876   21.8361 N   0  0  0  0  0  0  0  0  0  0  0  0
   10.4739    9.4813   20.2889 C   0  0  0  0  0  0  0  0  0  0  0  0
    7.5551    7.1270   23.1200 O   0  0  0  0  0  0  0  0  0  0  0  0
  1 11  4  0
  1 21  4  0
  2  4  1  0
  2  8  1  0
  2 11  1  0
  3 10  4  0
  3 14  4  0
  4  5  1  0
  4 18  2  0
  6 12  1  0
  6 17  4  0
  6 23  4  0
  7  9  1  0
  7 13  4  0
  7 19  4  0
  9 20  1  0
 10 19  4  0
 11 25  4  0
 13 14  4  0
 15 16  4  0
 15 17  4  0
 15 21  4  0
 16 24  1  0
 16 25  4  0
 20 24  1  0
 20 26  2  0
 21 23  4  0
 22 23  1  0
M  END
$$$$

 Created by Python create_sdf_string function

 26 28  0  0  0  0  0  0  0  0999 V2000
   12.4616    8.6700   19.4180 N   0  0  0  0  0  0  0  0  0  0  0  0
   11.8329   10.8148   18.6769 N   0  0  0  0  0  0  0  0  0  0  0  0
    6.1021    2.5564   21.0678 C   0  0  0  0  0  0  0  0  0  0  0  0
   10.9097   11.8051   18.4804 C   0  0  0  0  0  0  0  0  0  0  0  0
   11.2280   12.9135   17.5669 C   0  0  0  0  0  0  0  0  0  0  0  0
   12.3782    5.4231   20.7777 C   0  0  0  0  0  0  0  0  0  0  0  0
    7.7365    4.6508   21.6987 C   0  0  0  0  0  0  0  0  0  0  0  0
   13.0186   11.0102   18.0020 C   0  0  0  0  0  0  0  0  0  0  0  0
    8.6628    5.7088   21.8871 N   0  0  0  0  0  0  0  0  0  0  0  0
    5.6516    3.5258   21.9140 C   0  0  0  0  0  0  0  0  0  0  0  0
   11.5863    9.6815   19.4539 C   0  0  0  0  0  0  0  0  0  0  0  0
   12.9648    4.1543   20.9205 C   0  0  0  0  0  0  0  0  0  0  0  0
    8.2089    3.6265   20.8929 C   0  0  0  0  0  0  0  0  0  0  0  0
    7.3827    2.5724   20.5432 C   0  0  0  0  0  0  0  0  0  0  0  0
   11.1529    7.2750   20.8025 C   0  0  0  0  0  0  0  0  0  0  0  0
   10.2573    8.3215   20.9827 C   0  0  0  0  0  0  0  0  0  0  0  0
   11.1606    5.9378   21.2366 N   0  0  0  0  0  0  0  0  0  0  0  0
    9.8932   11.6736   19.0677 O   0  0  0  0  0  0  0  0  0  0  0  0
    6.4470    4.5850   22.2321 C   0  0  0  0  0  0  0  0  0  0  0  0
    8.4619    6.9895   22.2968 C   0  0  0  0  0  0  0  0  0  0  0  0
   12.2747    7.5102   20.0420 C   0  0  0  0  0  0  0  0  0  0  0  0
   14.2544    6.2142   19.4191 C   0  0  0  0  0  0  0  0  0  0  0  0
   13.0695    6.3705   20.0375 N   0  0  0  0  0  0  0  0  0  0  0  0
    9.1913    8.0876   21.8361 N   0  0  0  0  0  0  0  0  0  0  0  0
   10.4739    9.4813   20.2889 C   0  0  0  0  0  0  0  0  0  0  0  0
    7.5551    7.1270   23.1200 O   0  0  0  0  0  0  0  0  0  0  0  0
  1 11  4  0
  1 21  4  0
  2  4  1  0
  2  8  1  0
  2 11  1  0
  3 10  4  0
  3 14  4  0
  4  5  1  0
  4 18  2  0
  6 12  1  0
  6 17  4  0
  6 23  4  0
  7  9  1  0
  7 13  4  0
  7 19  4  0
  9 20  1  0
 10 19  4  0
 11 25  4  0
 13 14  4  0
 15 16  4  0
 15 17  4  0
 15 21  4  0
 16 24  1  0
 16 25  4  0
 20 24  1  0
 20 26  2  0
 21 23  4  0
 22 23  1  0
M  END
$$$$

 Created by Python create_sdf_string function

 26 28  0  0  0  0  0  0  0  0999 V2000
   12.4616    8.6700   19.4180 N   0  0  0  0  0  0  0  0  0  0  0  0
   11.8329   10.8148   18.6769 N   0  0  0  0  0  0  0  0  0  0  0  0
    6.1021    2.5564   21.0678 C   0  0  0  0  0  0  0  0  0  0  0  0
   10.9097   11.8051   18.4804 C   0  0  0  0  0  0  0  0  0  0  0  0
   11.2280   12.9135   17.5669 C   0  0  0  0  0  0  0  0  0  0  0  0
   12.3782    5.4231   20.7777 C   0  0  0  0  0  0  0  0  0  0  0  0
    7.7365    4.6508   21.6987 C   0  0  0  0  0  0  0  0  0  0  0  0
   13.0186   11.0102   18.0020 C   0  0  0  0  0  0  0  0  0  0  0  0
    8.6628    5.7088   21.8871 N   0  0  0  0  0  0  0  0  0  0  0  0
    5.6516    3.5258   21.9140 C   0  0  0  0  0  0  0  0  0  0  0  0
   11.5863    9.6815   19.4539 C   0  0  0  0  0  0  0  0  0  0  0  0
   12.9648    4.1543   20.9205 C   0  0  0  0  0  0  0  0  0  0  0  0
    8.2089    3.6265   20.8929 C   0  0  0  0  0  0  0  0  0  0  0  0
    7.3827    2.5724   20.5432 C   0  0  0  0  0  0  0  0  0  0  0  0
   11.1529    7.2750   20.8025 C   0  0  0  0  0  0  0  0  0  0  0  0
   10.2573    8.3215   20.9827 C   0  0  0  0  0  0  0  0  0  0  0  0
   11.1606    5.9378   21.2366 N   0  0  0  0  0  0  0  0  0  0  0  0
    9.8932   11.6736   19.0677 O   0  0  0  0  0  0  0  0  0  0  0  0
    6.4470    4.5850   22.2321 C   0  0  0  0  0  0  0  0  0  0  0  0
    8.4619    6.9895   22.2968 C   0  0  0  0  0  0  0  0  0  0  0  0
   12.2747    7.5102   20.0420 C   0  0  0  0  0  0  0  0  0  0  0  0
   14.2544    6.2142   19.4191 C   0  0  0  0  0  0  0  0  0  0  0  0
   13.0695    6.3705   20.0375 N   0  0  0  0  0  0  0  0  0  0  0  0
    9.1913    8.0876   21.8361 N   0  0  0  0  0  0  0  0  0  0  0  0
   10.4739    9.4813   20.2889 C   0  0  0  0  0  0  0  0  0  0  0  0
    7.5551    7.1270   23.1200 O   0  0  0  0  0  0  0  0  0  0  0  0
  1 11  4  0
  1 21  4  0
  2  4  1  0
  2  8  1  0
  2 11  1  0
  3 10  4  0
  3 14  4  0
  4  5  1  0
  4 18  2  0
  6 12  1  0
  6 17  4  0
  6 23  4  0
  7  9  1  0
  7 13  4  0
  7 19  4  0
  9 20  1  0
 10 19  4  0
 11 25  4  0
 13 14  4  0
 15 16  4  0
 15 17  4  0
 15 21  4  0
 16 24  1  0
 16 25  4  0
 20 24  1  0
 20 26  2  0
 21 23  4  0
 22 23  1  0
M  END
$$$$

 Created by Python create_sdf_string function

 26 28  0  0  0  0  0  0  0  0999 V2000
   12.4616    8.6700   19.4180 N   0  0  0  0  0  0  0  0  0  0  0  0
   11.8329   10.8148   18.6769 N   0  0  0  0  0  0  0  0  0  0  0  0
    6.1021    2.5564   21.0678 C   0  0  0  0  0  0  0  0  0  0  0  0
   10.9097   11.8051   18.4804 C   0  0  0  0  0  0  0  0  0  0  0  0
   11.2280   12.9135   17.5669 C   0  0  0  0  0  0  0  0  0  0  0  0
   12.3782    5.4231   20.7777 C   0  0  0  0  0  0  0  0  0  0  0  0
    7.7365    4.6508   21.6987 C   0  0  0  0  0  0  0  0  0  0  0  0
   13.0186   11.0102   18.0020 C   0  0  0  0  0  0  0  0  0  0  0  0
    8.6628    5.7088   21.8871 N   0  0  0  0  0  0  0  0  0  0  0  0
    5.6516    3.5258   21.9140 C   0  0  0  0  0  0  0  0  0  0  0  0
   11.5863    9.6815   19.4539 C   0  0  0  0  0  0  0  0  0  0  0  0
   12.9648    4.1543   20.9205 C   0  0  0  0  0  0  0  0  0  0  0  0
    8.2089    3.6265   20.8929 C   0  0  0  0  0  0  0  0  0  0  0  0
    7.3827    2.5724   20.5432 C   0  0  0  0  0  0  0  0  0  0  0  0
   11.1529    7.2750   20.8025 C   0  0  0  0  0  0  0  0  0  0  0  0
   10.2573    8.3215   20.9827 C   0  0  0  0  0  0  0  0  0  0  0  0
   11.1606    5.9378   21.2366 N   0  0  0  0  0  0  0  0  0  0  0  0
    9.8932   11.6736   19.0677 O   0  0  0  0  0  0  0  0  0  0  0  0
    6.4470    4.5850   22.2321 C   0  0  0  0  0  0  0  0  0  0  0  0
    8.4619    6.9895   22.2968 C   0  0  0  0  0  0  0  0  0  0  0  0
   12.2747    7.5102   20.0420 C   0  0  0  0  0  0  0  0  0  0  0  0
   14.2544    6.2142   19.4191 C   0  0  0  0  0  0  0  0  0  0  0  0
   13.0695    6.3705   20.0375 N   0  0  0  0  0  0  0  0  0  0  0  0
    9.1913    8.0876   21.8361 N   0  0  0  0  0  0  0  0  0  0  0  0
   10.4739    9.4813   20.2889 C   0  0  0  0  0  0  0  0  0  0  0  0
    7.5551    7.1270   23.1200 O   0  0  0  0  0  0  0  0  0  0  0  0
  1 11  4  0
  1 21  4  0
  2  4  1  0
  2  8  1  0
  2 11  1  0
  3 10  4  0
  3 14  4  0
  4  5  1  0
  4 18  2  0
  6 12  1  0
  6 17  4  0
  6 23  4  0
  7  9  1  0
  7 13  4  0
  7 19  4  0
  9 20  1  0
 10 19  4  0
 11 25  4  0
 13 14  4  0
 15 16  4  0
 15 17  4  0
 15 21  4  0
 16 24  1  0
 16 25  4  0
 20 24  1  0
 20 26  2  0
 21 23  4  0
 22 23  1  0
M  END
$$$$

 Created by Python create_sdf_string function

 26 28  0  0  0  0  0  0  0  0999 V2000
   12.4616    8.6700   19.4180 N   0  0  0  0  0  0  0  0  0  0  0  0
   11.8329   10.8148   18.6769 N   0  0  0  0  0  0  0  0  0  0  0  0
    6.1021    2.5564   21.0678 C   0  0  0  0  0  0  0  0  0  0  0  0
   10.9097   11.8051   18.4804 C   0  0  0  0  0  0  0  0  0  0  0  0
   11.2280   12.9135   17.5669 C   0  0  0  0  0  0  0  0  0  0  0  0
   12.3782    5.4231   20.7777 C   0  0  0  0  0  0  0  0  0  0  0  0
    7.7365    4.6508   21.6987 C   0  0  0  0  0  0  0  0  0  0  0  0
   13.0186   11.0102   18.0020 C   0  0  0  0  0  0  0  0  0  0  0  0
    8.6628    5.7088   21.8871 N   0  0  0  0  0  0  0  0  0  0  0  0
    5.6516    3.5258   21.9140 C   0  0  0  0  0  0  0  0  0  0  0  0
   11.5863    9.6815   19.4539 C   0  0  0  0  0  0  0  0  0  0  0  0
   12.9648    4.1543   20.9205 C   0  0  0  0  0  0  0  0  0  0  0  0
    8.2089    3.6265   20.8929 C   0  0  0  0  0  0  0  0  0  0  0  0
    7.3827    2.5724   20.5432 C   0  0  0  0  0  0  0  0  0  0  0  0
   11.1529    7.2750   20.8025 C   0  0  0  0  0  0  0  0  0  0  0  0
   10.2573    8.3215   20.9827 C   0  0  0  0  0  0  0  0  0  0  0  0
   11.1606    5.9378   21.2366 N   0  0  0  0  0  0  0  0  0  0  0  0
    9.8932   11.6736   19.0677 O   0  0  0  0  0  0  0  0  0  0  0  0
    6.4470    4.5850   22.2321 C   0  0  0  0  0  0  0  0  0  0  0  0
    8.4619    6.9895   22.2968 C   0  0  0  0  0  0  0  0  0  0  0  0
   12.2747    7.5102   20.0420 C   0  0  0  0  0  0  0  0  0  0  0  0
   14.2544    6.2142   19.4191 C   0  0  0  0  0  0  0  0  0  0  0  0
   13.0695    6.3705   20.0375 N   0  0  0  0  0  0  0  0  0  0  0  0
    9.1913    8.0876   21.8361 N   0  0  0  0  0  0  0  0  0  0  0  0
   10.4739    9.4813   20.2889 C   0  0  0  0  0  0  0  0  0  0  0  0
    7.5551    7.1270   23.1200 O   0  0  0  0  0  0  0  0  0  0  0  0
  1 11  4  0
  1 21  4  0
  2  4  1  0
  2  8  1  0
  2 11  1  0
  3 10  4  0
  3 14  4  0
  4  5  1  0
  4 18  2  0
  6 12  1  0
  6 17  4  0
  6 23  4  0
  7  9  1  0
  7 13  4  0
  7 19  4  0
  9 20  1  0
 10 19  4  0
 11 25  4  0
 13 14  4  0
 15 16  4  0
 15 17  4  0
 15 21  4  0
 16 24  1  0
 16 25  4  0
 20 24  1  0
 20 26  2  0
 21 23  4  0
 22 23  1  0
M  END
$$$$

 Created by Python create_sdf_string function

 26 28  0  0  0  0  0  0  0  0999 V2000
   12.4616    8.6700   19.4180 N   0  0  0  0  0  0  0  0  0  0  0  0
   11.8329   10.8148   18.6769 N   0  0  0  0  0  0  0  0  0  0  0  0
    6.1021    2.5564   21.0678 C   0  0  0  0  0  0  0  0  0  0  0  0
   10.9097   11.8051   18.4804 C   0  0  0  0  0  0  0  0  0  0  0  0
   11.2280   12.9135   17.5669 C   0  0  0  0  0  0  0  0  0  0  0  0
   12.3782    5.4231   20.7777 C   0  0  0  0  0  0  0  0  0  0  0  0
    7.7365    4.6508   21.6987 C   0  0  0  0  0  0  0  0  0  0  0  0
   13.0186   11.0102   18.0020 C   0  0  0  0  0  0  0  0  0  0  0  0
    8.6628    5.7088   21.8871 N   0  0  0  0  0  0  0  0  0  0  0  0
    5.6516    3.5258   21.9140 C   0  0  0  0  0  0  0  0  0  0  0  0
   11.5863    9.6815   19.4539 C   0  0  0  0  0  0  0  0  0  0  0  0
   12.9648    4.1543   20.9205 C   0  0  0  0  0  0  0  0  0  0  0  0
    8.2089    3.6265   20.8929 C   0  0  0  0  0  0  0  0  0  0  0  0
    7.3827    2.5724   20.5432 C   0  0  0  0  0  0  0  0  0  0  0  0
   11.1529    7.2750   20.8025 C   0  0  0  0  0  0  0  0  0  0  0  0
   10.2573    8.3215   20.9827 C   0  0  0  0  0  0  0  0  0  0  0  0
   11.1606    5.9378   21.2366 N   0  0  0  0  0  0  0  0  0  0  0  0
    9.8932   11.6736   19.0677 O   0  0  0  0  0  0  0  0  0  0  0  0
    6.4470    4.5850   22.2321 C   0  0  0  0  0  0  0  0  0  0  0  0
    8.4619    6.9895   22.2968 C   0  0  0  0  0  0  0  0  0  0  0  0
   12.2747    7.5102   20.0420 C   0  0  0  0  0  0  0  0  0  0  0  0
   14.2544    6.2142   19.4191 C   0  0  0  0  0  0  0  0  0  0  0  0
   13.0695    6.3705   20.0375 N   0  0  0  0  0  0  0  0  0  0  0  0
    9.1913    8.0876   21.8361 N   0  0  0  0  0  0  0  0  0  0  0  0
   10.4739    9.4813   20.2889 C   0  0  0  0  0  0  0  0  0  0  0  0
    7.5551    7.1270   23.1200 O   0  0  0  0  0  0  0  0  0  0  0  0
  1 11  4  0
  1 21  4  0
  2  4  1  0
  2  8  1  0
  2 11  1  0
  3 10  4  0
  3 14  4  0
  4  5  1  0
  4 18  2  0
  6 12  1  0
  6 17  4  0
  6 23  4  0
  7  9  1  0
  7 13  4  0
  7 19  4  0
  9 20  1  0
 10 19  4  0
 11 25  4  0
 13 14  4  0
 15 16  4  0
 15 17  4  0
 15 21  4  0
 16 24  1  0
 16 25  4  0
 20 24  1  0
 20 26  2  0
 21 23  4  0
 22 23  1  0
M  END
$$$$

 Created by Python create_sdf_string function

 26 28  0  0  0  0  0  0  0  0999 V2000
   12.4616    8.6700   19.4180 N   0  0  0  0  0  0  0  0  0  0  0  0
   11.8329   10.8148   18.6769 N   0  0  0  0  0  0  0  0  0  0  0  0
    6.1021    2.5564   21.0678 C   0  0  0  0  0  0  0  0  0  0  0  0
   10.9097   11.8051   18.4804 C   0  0  0  0  0  0  0  0  0  0  0  0
   11.2280   12.9135   17.5669 C   0  0  0  0  0  0  0  0  0  0  0  0
   12.3782    5.4231   20.7777 C   0  0  0  0  0  0  0  0  0  0  0  0
    7.7365    4.6508   21.6987 C   0  0  0  0  0  0  0  0  0  0  0  0
   13.0186   11.0102   18.0020 C   0  0  0  0  0  0  0  0  0  0  0  0
    8.6628    5.7088   21.8871 N   0  0  0  0  0  0  0  0  0  0  0  0
    5.6516    3.5258   21.9140 C   0  0  0  0  0  0  0  0  0  0  0  0
   11.5863    9.6815   19.4539 C   0  0  0  0  0  0  0  0  0  0  0  0
   12.9648    4.1543   20.9205 C   0  0  0  0  0  0  0  0  0  0  0  0
    8.2089    3.6265   20.8929 C   0  0  0  0  0  0  0  0  0  0  0  0
    7.3827    2.5724   20.5432 C   0  0  0  0  0  0  0  0  0  0  0  0
   11.1529    7.2750   20.8025 C   0  0  0  0  0  0  0  0  0  0  0  0
   10.2573    8.3215   20.9827 C   0  0  0  0  0  0  0  0  0  0  0  0
   11.1606    5.9378   21.2366 N   0  0  0  0  0  0  0  0  0  0  0  0
    9.8932   11.6736   19.0677 O   0  0  0  0  0  0  0  0  0  0  0  0
    6.4470    4.5850   22.2321 C   0  0  0  0  0  0  0  0  0  0  0  0
    8.4619    6.9895   22.2968 C   0  0  0  0  0  0  0  0  0  0  0  0
   12.2747    7.5102   20.0420 C   0  0  0  0  0  0  0  0  0  0  0  0
   14.2544    6.2142   19.4191 C   0  0  0  0  0  0  0  0  0  0  0  0
   13.0695    6.3705   20.0375 N   0  0  0  0  0  0  0  0  0  0  0  0
    9.1913    8.0876   21.8361 N   0  0  0  0  0  0  0  0  0  0  0  0
   10.4739    9.4813   20.2889 C   0  0  0  0  0  0  0  0  0  0  0  0
    7.5551    7.1270   23.1200 O   0  0  0  0  0  0  0  0  0  0  0  0
  1 11  4  0
  1 21  4  0
  2  4  1  0
  2  8  1  0
  2 11  1  0
  3 10  4  0
  3 14  4  0
  4  5  1  0
  4 18  2  0
  6 12  1  0
  6 17  4  0
  6 23  4  0
  7  9  1  0
  7 13  4  0
  7 19  4  0
  9 20  1  0
 10 19  4  0
 11 25  4  0
 13 14  4  0
 15 16  4  0
 15 17  4  0
 15 21  4  0
 16 24  1  0
 16 25  4  0
 20 24  1  0
 20 26  2  0
 21 23  4  0
 22 23  1  0
M  END
$$$$

 Created by Python create_sdf_string function

 26 28  0  0  0  0  0  0  0  0999 V2000
   12.4616    8.6700   19.4180 N   0  0  0  0  0  0  0  0  0  0  0  0
   11.8329   10.8148   18.6769 N   0  0  0  0  0  0  0  0  0  0  0  0
    6.1021    2.5564   21.0678 C   0  0  0  0  0  0  0  0  0  0  0  0
   10.9097   11.8051   18.4804 C   0  0  0  0  0  0  0  0  0  0  0  0
   11.2280   12.9135   17.5669 C   0  0  0  0  0  0  0  0  0  0  0  0
   12.3782    5.4231   20.7777 C   0  0  0  0  0  0  0  0  0  0  0  0
    7.7365    4.6508   21.6987 C   0  0  0  0  0  0  0  0  0  0  0  0
   13.0186   11.0102   18.0020 C   0  0  0  0  0  0  0  0  0  0  0  0
    8.6628    5.7088   21.8871 N   0  0  0  0  0  0  0  0  0  0  0  0
    5.6516    3.5258   21.9140 C   0  0  0  0  0  0  0  0  0  0  0  0
   11.5863    9.6815   19.4539 C   0  0  0  0  0  0  0  0  0  0  0  0
   12.9648    4.1543   20.9205 C   0  0  0  0  0  0  0  0  0  0  0  0
    8.2089    3.6265   20.8929 C   0  0  0  0  0  0  0  0  0  0  0  0
    7.3827    2.5724   20.5432 C   0  0  0  0  0  0  0  0  0  0  0  0
   11.1529    7.2750   20.8025 C   0  0  0  0  0  0  0  0  0  0  0  0
   10.2573    8.3215   20.9827 C   0  0  0  0  0  0  0  0  0  0  0  0
   11.1606    5.9378   21.2366 N   0  0  0  0  0  0  0  0  0  0  0  0
    9.8932   11.6736   19.0677 O   0  0  0  0  0  0  0  0  0  0  0  0
    6.4470    4.5850   22.2321 C   0  0  0  0  0  0  0  0  0  0  0  0
    8.4619    6.9895   22.2968 C   0  0  0  0  0  0  0  0  0  0  0  0
   12.2747    7.5102   20.0420 C   0  0  0  0  0  0  0  0  0  0  0  0
   14.2544    6.2142   19.4191 C   0  0  0  0  0  0  0  0  0  0  0  0
   13.0695    6.3705   20.0375 N   0  0  0  0  0  0  0  0  0  0  0  0
    9.1913    8.0876   21.8361 N   0  0  0  0  0  0  0  0  0  0  0  0
   10.4739    9.4813   20.2889 C   0  0  0  0  0  0  0  0  0  0  0  0
    7.5551    7.1270   23.1200 O   0  0  0  0  0  0  0  0  0  0  0  0
  1 11  4  0
  1 21  4  0
  2  4  1  0
  2  8  1  0
  2 11  1  0
  3 10  4  0
  3 14  4  0
  4  5  1  0
  4 18  2  0
  6 12  1  0
  6 17  4  0
  6 23  4  0
  7  9  1  0
  7 13  4  0
  7 19  4  0
  9 20  1  0
 10 19  4  0
 11 25  4  0
 13 14  4  0
 15 16  4  0
 15 17  4  0
 15 21  4  0
 16 24  1  0
 16 25  4  0
 20 24  1  0
 20 26  2  0
 21 23  4  0
 22 23  1  0
M  END
$$$$

 Created by Python create_sdf_string function

 26 28  0  0  0  0  0  0  0  0999 V2000
   12.4616    8.6700   19.4180 N   0  0  0  0  0  0  0  0  0  0  0  0
   11.8329   10.8148   18.6769 N   0  0  0  0  0  0  0  0  0  0  0  0
    6.1021    2.5564   21.0678 C   0  0  0  0  0  0  0  0  0  0  0  0
   10.9097   11.8051   18.4804 C   0  0  0  0  0  0  0  0  0  0  0  0
   11.2280   12.9135   17.5669 C   0  0  0  0  0  0  0  0  0  0  0  0
   12.3782    5.4231   20.7777 C   0  0  0  0  0  0  0  0  0  0  0  0
    7.7365    4.6508   21.6987 C   0  0  0  0  0  0  0  0  0  0  0  0
   13.0186   11.0102   18.0020 C   0  0  0  0  0  0  0  0  0  0  0  0
    8.6628    5.7088   21.8871 N   0  0  0  0  0  0  0  0  0  0  0  0
    5.6516    3.5258   21.9140 C   0  0  0  0  0  0  0  0  0  0  0  0
   11.5863    9.6815   19.4539 C   0  0  0  0  0  0  0  0  0  0  0  0
   12.9648    4.1543   20.9205 C   0  0  0  0  0  0  0  0  0  0  0  0
    8.2089    3.6265   20.8929 C   0  0  0  0  0  0  0  0  0  0  0  0
    7.3827    2.5724   20.5432 C   0  0  0  0  0  0  0  0  0  0  0  0
   11.1529    7.2750   20.8025 C   0  0  0  0  0  0  0  0  0  0  0  0
   10.2573    8.3215   20.9827 C   0  0  0  0  0  0  0  0  0  0  0  0
   11.1606    5.9378   21.2366 N   0  0  0  0  0  0  0  0  0  0  0  0
    9.8932   11.6736   19.0677 O   0  0  0  0  0  0  0  0  0  0  0  0
    6.4470    4.5850   22.2321 C   0  0  0  0  0  0  0  0  0  0  0  0
    8.4619    6.9895   22.2968 C   0  0  0  0  0  0  0  0  0  0  0  0
   12.2747    7.5102   20.0420 C   0  0  0  0  0  0  0  0  0  0  0  0
   14.2544    6.2142   19.4191 C   0  0  0  0  0  0  0  0  0  0  0  0
   13.0695    6.3705   20.0375 N   0  0  0  0  0  0  0  0  0  0  0  0
    9.1913    8.0876   21.8361 N   0  0  0  0  0  0  0  0  0  0  0  0
   10.4739    9.4813   20.2889 C   0  0  0  0  0  0  0  0  0  0  0  0
    7.5551    7.1270   23.1200 O   0  0  0  0  0  0  0  0  0  0  0  0
  1 11  4  0
  1 21  4  0
  2  4  1  0
  2  8  1  0
  2 11  1  0
  3 10  4  0
  3 14  4  0
  4  5  1  0
  4 18  2  0
  6 12  1  0
  6 17  4  0
  6 23  4  0
  7  9  1  0
  7 13  4  0
  7 19  4  0
  9 20  1  0
 10 19  4  0
 11 25  4  0
 13 14  4  0
 15 16  4  0
 15 17  4  0
 15 21  4  0
 16 24  1  0
 16 25  4  0
 20 24  1  0
 20 26  2  0
 21 23  4  0
 22 23  1  0
M  END
$$$$

 Created by Python create_sdf_string function

 26 28  0  0  0  0  0  0  0  0999 V2000
   12.4616    8.6700   19.4180 N   0  0  0  0  0  0  0  0  0  0  0  0
   11.8329   10.8148   18.6769 N   0  0  0  0  0  0  0  0  0  0  0  0
    6.1021    2.5564   21.0678 C   0  0  0  0  0  0  0  0  0  0  0  0
   10.9097   11.8051   18.4804 C   0  0  0  0  0  0  0  0  0  0  0  0
   11.2280   12.9135   17.5669 C   0  0  0  0  0  0  0  0  0  0  0  0
   12.3782    5.4231   20.7777 C   0  0  0  0  0  0  0  0  0  0  0  0
    7.7365    4.6508   21.6987 C   0  0  0  0  0  0  0  0  0  0  0  0
   13.0186   11.0102   18.0020 C   0  0  0  0  0  0  0  0  0  0  0  0
    8.6628    5.7088   21.8871 N   0  0  0  0  0  0  0  0  0  0  0  0
    5.6516    3.5258   21.9140 C   0  0  0  0  0  0  0  0  0  0  0  0
   11.5863    9.6815   19.4539 C   0  0  0  0  0  0  0  0  0  0  0  0
   12.9648    4.1543   20.9205 C   0  0  0  0  0  0  0  0  0  0  0  0
    8.2089    3.6265   20.8929 C   0  0  0  0  0  0  0  0  0  0  0  0
    7.3827    2.5724   20.5432 C   0  0  0  0  0  0  0  0  0  0  0  0
   11.1529    7.2750   20.8025 C   0  0  0  0  0  0  0  0  0  0  0  0
   10.2573    8.3215   20.9827 C   0  0  0  0  0  0  0  0  0  0  0  0
   11.1606    5.9378   21.2366 N   0  0  0  0  0  0  0  0  0  0  0  0
    9.8932   11.6736   19.0677 O   0  0  0  0  0  0  0  0  0  0  0  0
    6.4470    4.5850   22.2321 C   0  0  0  0  0  0  0  0  0  0  0  0
    8.4619    6.9895   22.2968 C   0  0  0  0  0  0  0  0  0  0  0  0
   12.2747    7.5102   20.0420 C   0  0  0  0  0  0  0  0  0  0  0  0
   14.2544    6.2142   19.4191 C   0  0  0  0  0  0  0  0  0  0  0  0
   13.0695    6.3705   20.0375 N   0  0  0  0  0  0  0  0  0  0  0  0
    9.1913    8.0876   21.8361 N   0  0  0  0  0  0  0  0  0  0  0  0
   10.4739    9.4813   20.2889 C   0  0  0  0  0  0  0  0  0  0  0  0
    7.5551    7.1270   23.1200 O   0  0  0  0  0  0  0  0  0  0  0  0
  1 11  4  0
  1 21  4  0
  2  4  1  0
  2  8  1  0
  2 11  1  0
  3 10  4  0
  3 14  4  0
  4  5  1  0
  4 18  2  0
  6 12  1  0
  6 17  4  0
  6 23  4  0
  7  9  1  0
  7 13  4  0
  7 19  4  0
  9 20  1  0
 10 19  4  0
 11 25  4  0
 13 14  4  0
 15 16  4  0
 15 17  4  0
 15 21  4  0
 16 24  1  0
 16 25  4  0
 20 24  1  0
 20 26  2  0
 21 23  4  0
 22 23  1  0
M  END
$$$$

 Created by Python create_sdf_string function

 26 28  0  0  0  0  0  0  0  0999 V2000
   12.4616    8.6700   19.4180 N   0  0  0  0  0  0  0  0  0  0  0  0
   11.8329   10.8148   18.6769 N   0  0  0  0  0  0  0  0  0  0  0  0
    6.1021    2.5564   21.0678 C   0  0  0  0  0  0  0  0  0  0  0  0
   10.9097   11.8051   18.4804 C   0  0  0  0  0  0  0  0  0  0  0  0
   11.2280   12.9135   17.5669 C   0  0  0  0  0  0  0  0  0  0  0  0
   12.3782    5.4231   20.7777 C   0  0  0  0  0  0  0  0  0  0  0  0
    7.7365    4.6508   21.6987 C   0  0  0  0  0  0  0  0  0  0  0  0
   13.0186   11.0102   18.0020 C   0  0  0  0  0  0  0  0  0  0  0  0
    8.6628    5.7088   21.8871 N   0  0  0  0  0  0  0  0  0  0  0  0
    5.6516    3.5258   21.9140 C   0  0  0  0  0  0  0  0  0  0  0  0
   11.5863    9.6815   19.4539 C   0  0  0  0  0  0  0  0  0  0  0  0
   12.9648    4.1543   20.9205 C   0  0  0  0  0  0  0  0  0  0  0  0
    8.2089    3.6265   20.8929 C   0  0  0  0  0  0  0  0  0  0  0  0
    7.3827    2.5724   20.5432 C   0  0  0  0  0  0  0  0  0  0  0  0
   11.1529    7.2750   20.8025 C   0  0  0  0  0  0  0  0  0  0  0  0
   10.2573    8.3215   20.9827 C   0  0  0  0  0  0  0  0  0  0  0  0
   11.1606    5.9378   21.2366 N   0  0  0  0  0  0  0  0  0  0  0  0
    9.8932   11.6736   19.0677 O   0  0  0  0  0  0  0  0  0  0  0  0
    6.4470    4.5850   22.2321 C   0  0  0  0  0  0  0  0  0  0  0  0
    8.4619    6.9895   22.2968 C   0  0  0  0  0  0  0  0  0  0  0  0
   12.2747    7.5102   20.0420 C   0  0  0  0  0  0  0  0  0  0  0  0
   14.2544    6.2142   19.4191 C   0  0  0  0  0  0  0  0  0  0  0  0
   13.0695    6.3705   20.0375 N   0  0  0  0  0  0  0  0  0  0  0  0
    9.1913    8.0876   21.8361 N   0  0  0  0  0  0  0  0  0  0  0  0
   10.4739    9.4813   20.2889 C   0  0  0  0  0  0  0  0  0  0  0  0
    7.5551    7.1270   23.1200 O   0  0  0  0  0  0  0  0  0  0  0  0
  1 11  4  0
  1 21  4  0
  2  4  1  0
  2  8  1  0
  2 11  1  0
  3 10  4  0
  3 14  4  0
  4  5  1  0
  4 18  2  0
  6 12  1  0
  6 17  4  0
  6 23  4  0
  7  9  1  0
  7 13  4  0
  7 19  4  0
  9 20  1  0
 10 19  4  0
 11 25  4  0
 13 14  4  0
 15 16  4  0
 15 17  4  0
 15 21  4  0
 16 24  1  0
 16 25  4  0
 20 24  1  0
 20 26  2  0
 21 23  4  0
 22 23  1  0
M  END
$$$$

 Created by Python create_sdf_string function

 26 28  0  0  0  0  0  0  0  0999 V2000
   12.4616    8.6700   19.4180 N   0  0  0  0  0  0  0  0  0  0  0  0
   11.8329   10.8148   18.6769 N   0  0  0  0  0  0  0  0  0  0  0  0
    6.1021    2.5564   21.0678 C   0  0  0  0  0  0  0  0  0  0  0  0
   10.9097   11.8051   18.4804 C   0  0  0  0  0  0  0  0  0  0  0  0
   11.2280   12.9135   17.5669 C   0  0  0  0  0  0  0  0  0  0  0  0
   12.3782    5.4231   20.7777 C   0  0  0  0  0  0  0  0  0  0  0  0
    7.7365    4.6508   21.6987 C   0  0  0  0  0  0  0  0  0  0  0  0
   13.0186   11.0102   18.0020 C   0  0  0  0  0  0  0  0  0  0  0  0
    8.6628    5.7088   21.8871 N   0  0  0  0  0  0  0  0  0  0  0  0
    5.6516    3.5258   21.9140 C   0  0  0  0  0  0  0  0  0  0  0  0
   11.5863    9.6815   19.4539 C   0  0  0  0  0  0  0  0  0  0  0  0
   12.9648    4.1543   20.9205 C   0  0  0  0  0  0  0  0  0  0  0  0
    8.2089    3.6265   20.8929 C   0  0  0  0  0  0  0  0  0  0  0  0
    7.3827    2.5724   20.5432 C   0  0  0  0  0  0  0  0  0  0  0  0
   11.1529    7.2750   20.8025 C   0  0  0  0  0  0  0  0  0  0  0  0
   10.2573    8.3215   20.9827 C   0  0  0  0  0  0  0  0  0  0  0  0
   11.1606    5.9378   21.2366 N   0  0  0  0  0  0  0  0  0  0  0  0
    9.8932   11.6736   19.0677 O   0  0  0  0  0  0  0  0  0  0  0  0
    6.4470    4.5850   22.2321 C   0  0  0  0  0  0  0  0  0  0  0  0
    8.4619    6.9895   22.2968 C   0  0  0  0  0  0  0  0  0  0  0  0
   12.2747    7.5102   20.0420 C   0  0  0  0  0  0  0  0  0  0  0  0
   14.2544    6.2142   19.4191 C   0  0  0  0  0  0  0  0  0  0  0  0
   13.0695    6.3705   20.0375 N   0  0  0  0  0  0  0  0  0  0  0  0
    9.1913    8.0876   21.8361 N   0  0  0  0  0  0  0  0  0  0  0  0
   10.4739    9.4813   20.2889 C   0  0  0  0  0  0  0  0  0  0  0  0
    7.5551    7.1270   23.1200 O   0  0  0  0  0  0  0  0  0  0  0  0
  1 11  4  0
  1 21  4  0
  2  4  1  0
  2  8  1  0
  2 11  1  0
  3 10  4  0
  3 14  4  0
  4  5  1  0
  4 18  2  0
  6 12  1  0
  6 17  4  0
  6 23  4  0
  7  9  1  0
  7 13  4  0
  7 19  4  0
  9 20  1  0
 10 19  4  0
 11 25  4  0
 13 14  4  0
 15 16  4  0
 15 17  4  0
 15 21  4  0
 16 24  1  0
 16 25  4  0
 20 24  1  0
 20 26  2  0
 21 23  4  0
 22 23  1  0
M  END
$$$$

 Created by Python create_sdf_string function

 26 28  0  0  0  0  0  0  0  0999 V2000
   12.4616    8.6700   19.4180 N   0  0  0  0  0  0  0  0  0  0  0  0
   11.8329   10.8148   18.6769 N   0  0  0  0  0  0  0  0  0  0  0  0
    6.1021    2.5564   21.0678 C   0  0  0  0  0  0  0  0  0  0  0  0
   10.9097   11.8051   18.4804 C   0  0  0  0  0  0  0  0  0  0  0  0
   11.2280   12.9135   17.5669 C   0  0  0  0  0  0  0  0  0  0  0  0
   12.3782    5.4231   20.7777 C   0  0  0  0  0  0  0  0  0  0  0  0
    7.7365    4.6508   21.6987 C   0  0  0  0  0  0  0  0  0  0  0  0
   13.0186   11.0102   18.0020 C   0  0  0  0  0  0  0  0  0  0  0  0
    8.6628    5.7088   21.8871 N   0  0  0  0  0  0  0  0  0  0  0  0
    5.6516    3.5258   21.9140 C   0  0  0  0  0  0  0  0  0  0  0  0
   11.5863    9.6815   19.4539 C   0  0  0  0  0  0  0  0  0  0  0  0
   12.9648    4.1543   20.9205 C   0  0  0  0  0  0  0  0  0  0  0  0
    8.2089    3.6265   20.8929 C   0  0  0  0  0  0  0  0  0  0  0  0
    7.3827    2.5724   20.5432 C   0  0  0  0  0  0  0  0  0  0  0  0
   11.1529    7.2750   20.8025 C   0  0  0  0  0  0  0  0  0  0  0  0
   10.2573    8.3215   20.9827 C   0  0  0  0  0  0  0  0  0  0  0  0
   11.1606    5.9378   21.2366 N   0  0  0  0  0  0  0  0  0  0  0  0
    9.8932   11.6736   19.0677 O   0  0  0  0  0  0  0  0  0  0  0  0
    6.4470    4.5850   22.2321 C   0  0  0  0  0  0  0  0  0  0  0  0
    8.4619    6.9895   22.2968 C   0  0  0  0  0  0  0  0  0  0  0  0
   12.2747    7.5102   20.0420 C   0  0  0  0  0  0  0  0  0  0  0  0
   14.2544    6.2142   19.4191 C   0  0  0  0  0  0  0  0  0  0  0  0
   13.0695    6.3705   20.0375 N   0  0  0  0  0  0  0  0  0  0  0  0
    9.1913    8.0876   21.8361 N   0  0  0  0  0  0  0  0  0  0  0  0
   10.4739    9.4813   20.2889 C   0  0  0  0  0  0  0  0  0  0  0  0
    7.5551    7.1270   23.1200 O   0  0  0  0  0  0  0  0  0  0  0  0
  1 11  4  0
  1 21  4  0
  2  4  1  0
  2  8  1  0
  2 11  1  0
  3 10  4  0
  3 14  4  0
  4  5  1  0
  4 18  2  0
  6 12  1  0
  6 17  4  0
  6 23  4  0
  7  9  1  0
  7 13  4  0
  7 19  4  0
  9 20  1  0
 10 19  4  0
 11 25  4  0
 13 14  4  0
 15 16  4  0
 15 17  4  0
 15 21  4  0
 16 24  1  0
 16 25  4  0
 20 24  1  0
 20 26  2  0
 21 23  4  0
 22 23  1  0
M  END
$$$$

 Created by Python create_sdf_string function

 26 28  0  0  0  0  0  0  0  0999 V2000
   12.4616    8.6700   19.4180 N   0  0  0  0  0  0  0  0  0  0  0  0
   11.8329   10.8148   18.6769 N   0  0  0  0  0  0  0  0  0  0  0  0
    6.1021    2.5564   21.0678 C   0  0  0  0  0  0  0  0  0  0  0  0
   10.9097   11.8051   18.4804 C   0  0  0  0  0  0  0  0  0  0  0  0
   11.2280   12.9135   17.5669 C   0  0  0  0  0  0  0  0  0  0  0  0
   12.3782    5.4231   20.7777 C   0  0  0  0  0  0  0  0  0  0  0  0
    7.7365    4.6508   21.6987 C   0  0  0  0  0  0  0  0  0  0  0  0
   13.0186   11.0102   18.0020 C   0  0  0  0  0  0  0  0  0  0  0  0
    8.6628    5.7088   21.8871 N   0  0  0  0  0  0  0  0  0  0  0  0
    5.6516    3.5258   21.9140 C   0  0  0  0  0  0  0  0  0  0  0  0
   11.5863    9.6815   19.4539 C   0  0  0  0  0  0  0  0  0  0  0  0
   12.9648    4.1543   20.9205 C   0  0  0  0  0  0  0  0  0  0  0  0
    8.2089    3.6265   20.8929 C   0  0  0  0  0  0  0  0  0  0  0  0
    7.3827    2.5724   20.5432 C   0  0  0  0  0  0  0  0  0  0  0  0
   11.1529    7.2750   20.8025 C   0  0  0  0  0  0  0  0  0  0  0  0
   10.2573    8.3215   20.9827 C   0  0  0  0  0  0  0  0  0  0  0  0
   11.1606    5.9378   21.2366 N   0  0  0  0  0  0  0  0  0  0  0  0
    9.8932   11.6736   19.0677 O   0  0  0  0  0  0  0  0  0  0  0  0
    6.4470    4.5850   22.2321 C   0  0  0  0  0  0  0  0  0  0  0  0
    8.4619    6.9895   22.2968 C   0  0  0  0  0  0  0  0  0  0  0  0
   12.2747    7.5102   20.0420 C   0  0  0  0  0  0  0  0  0  0  0  0
   14.2544    6.2142   19.4191 C   0  0  0  0  0  0  0  0  0  0  0  0
   13.0695    6.3705   20.0375 N   0  0  0  0  0  0  0  0  0  0  0  0
    9.1913    8.0876   21.8361 N   0  0  0  0  0  0  0  0  0  0  0  0
   10.4739    9.4813   20.2889 C   0  0  0  0  0  0  0  0  0  0  0  0
    7.5551    7.1270   23.1200 O   0  0  0  0  0  0  0  0  0  0  0  0
  1 11  4  0
  1 21  4  0
  2  4  1  0
  2  8  1  0
  2 11  1  0
  3 10  4  0
  3 14  4  0
  4  5  1  0
  4 18  2  0
  6 12  1  0
  6 17  4  0
  6 23  4  0
  7  9  1  0
  7 13  4  0
  7 19  4  0
  9 20  1  0
 10 19  4  0
 11 25  4  0
 13 14  4  0
 15 16  4  0
 15 17  4  0
 15 21  4  0
 16 24  1  0
 16 25  4  0
 20 24  1  0
 20 26  2  0
 21 23  4  0
 22 23  1  0
M  END
$$$$

 Created by Python create_sdf_string function

 26 28  0  0  0  0  0  0  0  0999 V2000
   12.4616    8.6700   19.4180 N   0  0  0  0  0  0  0  0  0  0  0  0
   11.8329   10.8148   18.6769 N   0  0  0  0  0  0  0  0  0  0  0  0
    6.1021    2.5564   21.0678 C   0  0  0  0  0  0  0  0  0  0  0  0
   10.9097   11.8051   18.4804 C   0  0  0  0  0  0  0  0  0  0  0  0
   11.2280   12.9135   17.5669 C   0  0  0  0  0  0  0  0  0  0  0  0
   12.3782    5.4231   20.7777 C   0  0  0  0  0  0  0  0  0  0  0  0
    7.7365    4.6508   21.6987 C   0  0  0  0  0  0  0  0  0  0  0  0
   13.0186   11.0102   18.0020 C   0  0  0  0  0  0  0  0  0  0  0  0
    8.6628    5.7088   21.8871 N   0  0  0  0  0  0  0  0  0  0  0  0
    5.6516    3.5258   21.9140 C   0  0  0  0  0  0  0  0  0  0  0  0
   11.5863    9.6815   19.4539 C   0  0  0  0  0  0  0  0  0  0  0  0
   12.9648    4.1543   20.9205 C   0  0  0  0  0  0  0  0  0  0  0  0
    8.2089    3.6265   20.8929 C   0  0  0  0  0  0  0  0  0  0  0  0
    7.3827    2.5724   20.5432 C   0  0  0  0  0  0  0  0  0  0  0  0
   11.1529    7.2750   20.8025 C   0  0  0  0  0  0  0  0  0  0  0  0
   10.2573    8.3215   20.9827 C   0  0  0  0  0  0  0  0  0  0  0  0
   11.1606    5.9378   21.2366 N   0  0  0  0  0  0  0  0  0  0  0  0
    9.8932   11.6736   19.0677 O   0  0  0  0  0  0  0  0  0  0  0  0
    6.4470    4.5850   22.2321 C   0  0  0  0  0  0  0  0  0  0  0  0
    8.4619    6.9895   22.2968 C   0  0  0  0  0  0  0  0  0  0  0  0
   12.2747    7.5102   20.0420 C   0  0  0  0  0  0  0  0  0  0  0  0
   14.2544    6.2142   19.4191 C   0  0  0  0  0  0  0  0  0  0  0  0
   13.0695    6.3705   20.0375 N   0  0  0  0  0  0  0  0  0  0  0  0
    9.1913    8.0876   21.8361 N   0  0  0  0  0  0  0  0  0  0  0  0
   10.4739    9.4813   20.2889 C   0  0  0  0  0  0  0  0  0  0  0  0
    7.5551    7.1270   23.1200 O   0  0  0  0  0  0  0  0  0  0  0  0
  1 11  4  0
  1 21  4  0
  2  4  1  0
  2  8  1  0
  2 11  1  0
  3 10  4  0
  3 14  4  0
  4  5  1  0
  4 18  2  0
  6 12  1  0
  6 17  4  0
  6 23  4  0
  7  9  1  0
  7 13  4  0
  7 19  4  0
  9 20  1  0
 10 19  4  0
 11 25  4  0
 13 14  4  0
 15 16  4  0
 15 17  4  0
 15 21  4  0
 16 24  1  0
 16 25  4  0
 20 24  1  0
 20 26  2  0
 21 23  4  0
 22 23  1  0
M  END
$$$$

 Created by Python create_sdf_string function

 26 28  0  0  0  0  0  0  0  0999 V2000
   12.4616    8.6700   19.4180 N   0  0  0  0  0  0  0  0  0  0  0  0
   11.8329   10.8148   18.6769 N   0  0  0  0  0  0  0  0  0  0  0  0
    6.1021    2.5564   21.0678 C   0  0  0  0  0  0  0  0  0  0  0  0
   10.9097   11.8051   18.4804 C   0  0  0  0  0  0  0  0  0  0  0  0
   11.2280   12.9135   17.5669 C   0  0  0  0  0  0  0  0  0  0  0  0
   12.3782    5.4231   20.7777 C   0  0  0  0  0  0  0  0  0  0  0  0
    7.7365    4.6508   21.6987 C   0  0  0  0  0  0  0  0  0  0  0  0
   13.0186   11.0102   18.0020 C   0  0  0  0  0  0  0  0  0  0  0  0
    8.6628    5.7088   21.8871 N   0  0  0  0  0  0  0  0  0  0  0  0
    5.6516    3.5258   21.9140 C   0  0  0  0  0  0  0  0  0  0  0  0
   11.5863    9.6815   19.4539 C   0  0  0  0  0  0  0  0  0  0  0  0
   12.9648    4.1543   20.9205 C   0  0  0  0  0  0  0  0  0  0  0  0
    8.2089    3.6265   20.8929 C   0  0  0  0  0  0  0  0  0  0  0  0
    7.3827    2.5724   20.5432 C   0  0  0  0  0  0  0  0  0  0  0  0
   11.1529    7.2750   20.8025 C   0  0  0  0  0  0  0  0  0  0  0  0
   10.2573    8.3215   20.9827 C   0  0  0  0  0  0  0  0  0  0  0  0
   11.1606    5.9378   21.2366 N   0  0  0  0  0  0  0  0  0  0  0  0
    9.8932   11.6736   19.0677 O   0  0  0  0  0  0  0  0  0  0  0  0
    6.4470    4.5850   22.2321 C   0  0  0  0  0  0  0  0  0  0  0  0
    8.4619    6.9895   22.2968 C   0  0  0  0  0  0  0  0  0  0  0  0
   12.2747    7.5102   20.0420 C   0  0  0  0  0  0  0  0  0  0  0  0
   14.2544    6.2142   19.4191 C   0  0  0  0  0  0  0  0  0  0  0  0
   13.0695    6.3705   20.0375 N   0  0  0  0  0  0  0  0  0  0  0  0
    9.1913    8.0876   21.8361 N   0  0  0  0  0  0  0  0  0  0  0  0
   10.4739    9.4813   20.2889 C   0  0  0  0  0  0  0  0  0  0  0  0
    7.5551    7.1270   23.1200 O   0  0  0  0  0  0  0  0  0  0  0  0
  1 11  4  0
  1 21  4  0
  2  4  1  0
  2  8  1  0
  2 11  1  0
  3 10  4  0
  3 14  4  0
  4  5  1  0
  4 18  2  0
  6 12  1  0
  6 17  4  0
  6 23  4  0
  7  9  1  0
  7 13  4  0
  7 19  4  0
  9 20  1  0
 10 19  4  0
 11 25  4  0
 13 14  4  0
 15 16  4  0
 15 17  4  0
 15 21  4  0
 16 24  1  0
 16 25  4  0
 20 24  1  0
 20 26  2  0
 21 23  4  0
 22 23  1  0
M  END
$$$$

 Created by Python create_sdf_string function

 26 28  0  0  0  0  0  0  0  0999 V2000
   12.4616    8.6700   19.4180 N   0  0  0  0  0  0  0  0  0  0  0  0
   11.8329   10.8148   18.6769 N   0  0  0  0  0  0  0  0  0  0  0  0
    6.1021    2.5564   21.0678 C   0  0  0  0  0  0  0  0  0  0  0  0
   10.9097   11.8051   18.4804 C   0  0  0  0  0  0  0  0  0  0  0  0
   11.2280   12.9135   17.5669 C   0  0  0  0  0  0  0  0  0  0  0  0
   12.3782    5.4231   20.7777 C   0  0  0  0  0  0  0  0  0  0  0  0
    7.7365    4.6508   21.6987 C   0  0  0  0  0  0  0  0  0  0  0  0
   13.0186   11.0102   18.0020 C   0  0  0  0  0  0  0  0  0  0  0  0
    8.6628    5.7088   21.8871 N   0  0  0  0  0  0  0  0  0  0  0  0
    5.6516    3.5258   21.9140 C   0  0  0  0  0  0  0  0  0  0  0  0
   11.5863    9.6815   19.4539 C   0  0  0  0  0  0  0  0  0  0  0  0
   12.9648    4.1543   20.9205 C   0  0  0  0  0  0  0  0  0  0  0  0
    8.2089    3.6265   20.8929 C   0  0  0  0  0  0  0  0  0  0  0  0
    7.3827    2.5724   20.5432 C   0  0  0  0  0  0  0  0  0  0  0  0
   11.1529    7.2750   20.8025 C   0  0  0  0  0  0  0  0  0  0  0  0
   10.2573    8.3215   20.9827 C   0  0  0  0  0  0  0  0  0  0  0  0
   11.1606    5.9378   21.2366 N   0  0  0  0  0  0  0  0  0  0  0  0
    9.8932   11.6736   19.0677 O   0  0  0  0  0  0  0  0  0  0  0  0
    6.4470    4.5850   22.2321 C   0  0  0  0  0  0  0  0  0  0  0  0
    8.4619    6.9895   22.2968 C   0  0  0  0  0  0  0  0  0  0  0  0
   12.2747    7.5102   20.0420 C   0  0  0  0  0  0  0  0  0  0  0  0
   14.2544    6.2142   19.4191 C   0  0  0  0  0  0  0  0  0  0  0  0
   13.0695    6.3705   20.0375 N   0  0  0  0  0  0  0  0  0  0  0  0
    9.1913    8.0876   21.8361 N   0  0  0  0  0  0  0  0  0  0  0  0
   10.4739    9.4813   20.2889 C   0  0  0  0  0  0  0  0  0  0  0  0
    7.5551    7.1270   23.1200 O   0  0  0  0  0  0  0  0  0  0  0  0
  1 11  4  0
  1 21  4  0
  2  4  1  0
  2  8  1  0
  2 11  1  0
  3 10  4  0
  3 14  4  0
  4  5  1  0
  4 18  2  0
  6 12  1  0
  6 17  4  0
  6 23  4  0
  7  9  1  0
  7 13  4  0
  7 19  4  0
  9 20  1  0
 10 19  4  0
 11 25  4  0
 13 14  4  0
 15 16  4  0
 15 17  4  0
 15 21  4  0
 16 24  1  0
 16 25  4  0
 20 24  1  0
 20 26  2  0
 21 23  4  0
 22 23  1  0
M  END
$$$$

 Created by Python create_sdf_string function

 26 28  0  0  0  0  0  0  0  0999 V2000
   12.4616    8.6700   19.4180 N   0  0  0  0  0  0  0  0  0  0  0  0
   11.8329   10.8148   18.6769 N   0  0  0  0  0  0  0  0  0  0  0  0
    6.1021    2.5564   21.0678 C   0  0  0  0  0  0  0  0  0  0  0  0
   10.9097   11.8051   18.4804 C   0  0  0  0  0  0  0  0  0  0  0  0
   11.2280   12.9135   17.5669 C   0  0  0  0  0  0  0  0  0  0  0  0
   12.3782    5.4231   20.7777 C   0  0  0  0  0  0  0  0  0  0  0  0
    7.7365    4.6508   21.6987 C   0  0  0  0  0  0  0  0  0  0  0  0
   13.0186   11.0102   18.0020 C   0  0  0  0  0  0  0  0  0  0  0  0
    8.6628    5.7088   21.8871 N   0  0  0  0  0  0  0  0  0  0  0  0
    5.6516    3.5258   21.9140 C   0  0  0  0  0  0  0  0  0  0  0  0
   11.5863    9.6815   19.4539 C   0  0  0  0  0  0  0  0  0  0  0  0
   12.9648    4.1543   20.9205 C   0  0  0  0  0  0  0  0  0  0  0  0
    8.2089    3.6265   20.8929 C   0  0  0  0  0  0  0  0  0  0  0  0
    7.3827    2.5724   20.5432 C   0  0  0  0  0  0  0  0  0  0  0  0
   11.1529    7.2750   20.8025 C   0  0  0  0  0  0  0  0  0  0  0  0
   10.2573    8.3215   20.9827 C   0  0  0  0  0  0  0  0  0  0  0  0
   11.1606    5.9378   21.2366 N   0  0  0  0  0  0  0  0  0  0  0  0
    9.8932   11.6736   19.0677 O   0  0  0  0  0  0  0  0  0  0  0  0
    6.4470    4.5850   22.2321 C   0  0  0  0  0  0  0  0  0  0  0  0
    8.4619    6.9895   22.2968 C   0  0  0  0  0  0  0  0  0  0  0  0
   12.2747    7.5102   20.0420 C   0  0  0  0  0  0  0  0  0  0  0  0
   14.2544    6.2142   19.4191 C   0  0  0  0  0  0  0  0  0  0  0  0
   13.0695    6.3705   20.0375 N   0  0  0  0  0  0  0  0  0  0  0  0
    9.1913    8.0876   21.8361 N   0  0  0  0  0  0  0  0  0  0  0  0
   10.4739    9.4813   20.2889 C   0  0  0  0  0  0  0  0  0  0  0  0
    7.5551    7.1270   23.1200 O   0  0  0  0  0  0  0  0  0  0  0  0
  1 11  4  0
  1 21  4  0
  2  4  1  0
  2  8  1  0
  2 11  1  0
  3 10  4  0
  3 14  4  0
  4  5  1  0
  4 18  2  0
  6 12  1  0
  6 17  4  0
  6 23  4  0
  7  9  1  0
  7 13  4  0
  7 19  4  0
  9 20  1  0
 10 19  4  0
 11 25  4  0
 13 14  4  0
 15 16  4  0
 15 17  4  0
 15 21  4  0
 16 24  1  0
 16 25  4  0
 20 24  1  0
 20 26  2  0
 21 23  4  0
 22 23  1  0
M  END
$$$$

 Created by Python create_sdf_string function

 26 28  0  0  0  0  0  0  0  0999 V2000
   12.4616    8.6700   19.4180 N   0  0  0  0  0  0  0  0  0  0  0  0
   11.8329   10.8148   18.6769 N   0  0  0  0  0  0  0  0  0  0  0  0
    6.1021    2.5564   21.0678 C   0  0  0  0  0  0  0  0  0  0  0  0
   10.9097   11.8051   18.4804 C   0  0  0  0  0  0  0  0  0  0  0  0
   11.2280   12.9135   17.5669 C   0  0  0  0  0  0  0  0  0  0  0  0
   12.3782    5.4231   20.7777 C   0  0  0  0  0  0  0  0  0  0  0  0
    7.7365    4.6508   21.6987 C   0  0  0  0  0  0  0  0  0  0  0  0
   13.0186   11.0102   18.0020 C   0  0  0  0  0  0  0  0  0  0  0  0
    8.6628    5.7088   21.8871 N   0  0  0  0  0  0  0  0  0  0  0  0
    5.6516    3.5258   21.9140 C   0  0  0  0  0  0  0  0  0  0  0  0
   11.5863    9.6815   19.4539 C   0  0  0  0  0  0  0  0  0  0  0  0
   12.9648    4.1543   20.9205 C   0  0  0  0  0  0  0  0  0  0  0  0
    8.2089    3.6265   20.8929 C   0  0  0  0  0  0  0  0  0  0  0  0
    7.3827    2.5724   20.5432 C   0  0  0  0  0  0  0  0  0  0  0  0
   11.1529    7.2750   20.8025 C   0  0  0  0  0  0  0  0  0  0  0  0
   10.2573    8.3215   20.9827 C   0  0  0  0  0  0  0  0  0  0  0  0
   11.1606    5.9378   21.2366 N   0  0  0  0  0  0  0  0  0  0  0  0
    9.8932   11.6736   19.0677 O   0  0  0  0  0  0  0  0  0  0  0  0
    6.4470    4.5850   22.2321 C   0  0  0  0  0  0  0  0  0  0  0  0
    8.4619    6.9895   22.2968 C   0  0  0  0  0  0  0  0  0  0  0  0
   12.2747    7.5102   20.0420 C   0  0  0  0  0  0  0  0  0  0  0  0
   14.2544    6.2142   19.4191 C   0  0  0  0  0  0  0  0  0  0  0  0
   13.0695    6.3705   20.0375 N   0  0  0  0  0  0  0  0  0  0  0  0
    9.1913    8.0876   21.8361 N   0  0  0  0  0  0  0  0  0  0  0  0
   10.4739    9.4813   20.2889 C   0  0  0  0  0  0  0  0  0  0  0  0
    7.5551    7.1270   23.1200 O   0  0  0  0  0  0  0  0  0  0  0  0
  1 11  4  0
  1 21  4  0
  2  4  1  0
  2  8  1  0
  2 11  1  0
  3 10  4  0
  3 14  4  0
  4  5  1  0
  4 18  2  0
  6 12  1  0
  6 17  4  0
  6 23  4  0
  7  9  1  0
  7 13  4  0
  7 19  4  0
  9 20  1  0
 10 19  4  0
 11 25  4  0
 13 14  4  0
 15 16  4  0
 15 17  4  0
 15 21  4  0
 16 24  1  0
 16 25  4  0
 20 24  1  0
 20 26  2  0
 21 23  4  0
 22 23  1  0
M  END
$$$$

 Created by Python create_sdf_string function

 26 28  0  0  0  0  0  0  0  0999 V2000
   12.4616    8.6700   19.4180 N   0  0  0  0  0  0  0  0  0  0  0  0
   11.8329   10.8148   18.6769 N   0  0  0  0  0  0  0  0  0  0  0  0
    6.1021    2.5564   21.0678 C   0  0  0  0  0  0  0  0  0  0  0  0
   10.9097   11.8051   18.4804 C   0  0  0  0  0  0  0  0  0  0  0  0
   11.2280   12.9135   17.5669 C   0  0  0  0  0  0  0  0  0  0  0  0
   12.3782    5.4231   20.7777 C   0  0  0  0  0  0  0  0  0  0  0  0
    7.7365    4.6508   21.6987 C   0  0  0  0  0  0  0  0  0  0  0  0
   13.0186   11.0102   18.0020 C   0  0  0  0  0  0  0  0  0  0  0  0
    8.6628    5.7088   21.8871 N   0  0  0  0  0  0  0  0  0  0  0  0
    5.6516    3.5258   21.9140 C   0  0  0  0  0  0  0  0  0  0  0  0
   11.5863    9.6815   19.4539 C   0  0  0  0  0  0  0  0  0  0  0  0
   12.9648    4.1543   20.9205 C   0  0  0  0  0  0  0  0  0  0  0  0
    8.2089    3.6265   20.8929 C   0  0  0  0  0  0  0  0  0  0  0  0
    7.3827    2.5724   20.5432 C   0  0  0  0  0  0  0  0  0  0  0  0
   11.1529    7.2750   20.8025 C   0  0  0  0  0  0  0  0  0  0  0  0
   10.2573    8.3215   20.9827 C   0  0  0  0  0  0  0  0  0  0  0  0
   11.1606    5.9378   21.2366 N   0  0  0  0  0  0  0  0  0  0  0  0
    9.8932   11.6736   19.0677 O   0  0  0  0  0  0  0  0  0  0  0  0
    6.4470    4.5850   22.2321 C   0  0  0  0  0  0  0  0  0  0  0  0
    8.4619    6.9895   22.2968 C   0  0  0  0  0  0  0  0  0  0  0  0
   12.2747    7.5102   20.0420 C   0  0  0  0  0  0  0  0  0  0  0  0
   14.2544    6.2142   19.4191 C   0  0  0  0  0  0  0  0  0  0  0  0
   13.0695    6.3705   20.0375 N   0  0  0  0  0  0  0  0  0  0  0  0
    9.1913    8.0876   21.8361 N   0  0  0  0  0  0  0  0  0  0  0  0
   10.4739    9.4813   20.2889 C   0  0  0  0  0  0  0  0  0  0  0  0
    7.5551    7.1270   23.1200 O   0  0  0  0  0  0  0  0  0  0  0  0
  1 11  4  0
  1 21  4  0
  2  4  1  0
  2  8  1  0
  2 11  1  0
  3 10  4  0
  3 14  4  0
  4  5  1  0
  4 18  2  0
  6 12  1  0
  6 17  4  0
  6 23  4  0
  7  9  1  0
  7 13  4  0
  7 19  4  0
  9 20  1  0
 10 19  4  0
 11 25  4  0
 13 14  4  0
 15 16  4  0
 15 17  4  0
 15 21  4  0
 16 24  1  0
 16 25  4  0
 20 24  1  0
 20 26  2  0
 21 23  4  0
 22 23  1  0
M  END
$$$$

 Created by Python create_sdf_string function

 26 28  0  0  0  0  0  0  0  0999 V2000
   12.4616    8.6700   19.4180 N   0  0  0  0  0  0  0  0  0  0  0  0
   11.8329   10.8148   18.6769 N   0  0  0  0  0  0  0  0  0  0  0  0
    6.1021    2.5564   21.0678 C   0  0  0  0  0  0  0  0  0  0  0  0
   10.9097   11.8051   18.4804 C   0  0  0  0  0  0  0  0  0  0  0  0
   11.2280   12.9135   17.5669 C   0  0  0  0  0  0  0  0  0  0  0  0
   12.3782    5.4231   20.7777 C   0  0  0  0  0  0  0  0  0  0  0  0
    7.7365    4.6508   21.6987 C   0  0  0  0  0  0  0  0  0  0  0  0
   13.0186   11.0102   18.0020 C   0  0  0  0  0  0  0  0  0  0  0  0
    8.6628    5.7088   21.8871 N   0  0  0  0  0  0  0  0  0  0  0  0
    5.6516    3.5258   21.9140 C   0  0  0  0  0  0  0  0  0  0  0  0
   11.5863    9.6815   19.4539 C   0  0  0  0  0  0  0  0  0  0  0  0
   12.9648    4.1543   20.9205 C   0  0  0  0  0  0  0  0  0  0  0  0
    8.2089    3.6265   20.8929 C   0  0  0  0  0  0  0  0  0  0  0  0
    7.3827    2.5724   20.5432 C   0  0  0  0  0  0  0  0  0  0  0  0
   11.1529    7.2750   20.8025 C   0  0  0  0  0  0  0  0  0  0  0  0
   10.2573    8.3215   20.9827 C   0  0  0  0  0  0  0  0  0  0  0  0
   11.1606    5.9378   21.2366 N   0  0  0  0  0  0  0  0  0  0  0  0
    9.8932   11.6736   19.0677 O   0  0  0  0  0  0  0  0  0  0  0  0
    6.4470    4.5850   22.2321 C   0  0  0  0  0  0  0  0  0  0  0  0
    8.4619    6.9895   22.2968 C   0  0  0  0  0  0  0  0  0  0  0  0
   12.2747    7.5102   20.0420 C   0  0  0  0  0  0  0  0  0  0  0  0
   14.2544    6.2142   19.4191 C   0  0  0  0  0  0  0  0  0  0  0  0
   13.0695    6.3705   20.0375 N   0  0  0  0  0  0  0  0  0  0  0  0
    9.1913    8.0876   21.8361 N   0  0  0  0  0  0  0  0  0  0  0  0
   10.4739    9.4813   20.2889 C   0  0  0  0  0  0  0  0  0  0  0  0
    7.5551    7.1270   23.1200 O   0  0  0  0  0  0  0  0  0  0  0  0
  1 11  4  0
  1 21  4  0
  2  4  1  0
  2  8  1  0
  2 11  1  0
  3 10  4  0
  3 14  4  0
  4  5  1  0
  4 18  2  0
  6 12  1  0
  6 17  4  0
  6 23  4  0
  7  9  1  0
  7 13  4  0
  7 19  4  0
  9 20  1  0
 10 19  4  0
 11 25  4  0
 13 14  4  0
 15 16  4  0
 15 17  4  0
 15 21  4  0
 16 24  1  0
 16 25  4  0
 20 24  1  0
 20 26  2  0
 21 23  4  0
 22 23  1  0
M  END
$$$$

 Created by Python create_sdf_string function

 26 28  0  0  0  0  0  0  0  0999 V2000
   12.4616    8.6700   19.4180 N   0  0  0  0  0  0  0  0  0  0  0  0
   11.8329   10.8148   18.6769 N   0  0  0  0  0  0  0  0  0  0  0  0
    6.1021    2.5564   21.0678 C   0  0  0  0  0  0  0  0  0  0  0  0
   10.9097   11.8051   18.4804 C   0  0  0  0  0  0  0  0  0  0  0  0
   11.2280   12.9135   17.5669 C   0  0  0  0  0  0  0  0  0  0  0  0
   12.3782    5.4231   20.7777 C   0  0  0  0  0  0  0  0  0  0  0  0
    7.7365    4.6508   21.6987 C   0  0  0  0  0  0  0  0  0  0  0  0
   13.0186   11.0102   18.0020 C   0  0  0  0  0  0  0  0  0  0  0  0
    8.6628    5.7088   21.8871 N   0  0  0  0  0  0  0  0  0  0  0  0
    5.6516    3.5258   21.9140 C   0  0  0  0  0  0  0  0  0  0  0  0
   11.5863    9.6815   19.4539 C   0  0  0  0  0  0  0  0  0  0  0  0
   12.9648    4.1543   20.9205 C   0  0  0  0  0  0  0  0  0  0  0  0
    8.2089    3.6265   20.8929 C   0  0  0  0  0  0  0  0  0  0  0  0
    7.3827    2.5724   20.5432 C   0  0  0  0  0  0  0  0  0  0  0  0
   11.1529    7.2750   20.8025 C   0  0  0  0  0  0  0  0  0  0  0  0
   10.2573    8.3215   20.9827 C   0  0  0  0  0  0  0  0  0  0  0  0
   11.1606    5.9378   21.2366 N   0  0  0  0  0  0  0  0  0  0  0  0
    9.8932   11.6736   19.0677 O   0  0  0  0  0  0  0  0  0  0  0  0
    6.4470    4.5850   22.2321 C   0  0  0  0  0  0  0  0  0  0  0  0
    8.4619    6.9895   22.2968 C   0  0  0  0  0  0  0  0  0  0  0  0
   12.2747    7.5102   20.0420 C   0  0  0  0  0  0  0  0  0  0  0  0
   14.2544    6.2142   19.4191 C   0  0  0  0  0  0  0  0  0  0  0  0
   13.0695    6.3705   20.0375 N   0  0  0  0  0  0  0  0  0  0  0  0
    9.1913    8.0876   21.8361 N   0  0  0  0  0  0  0  0  0  0  0  0
   10.4739    9.4813   20.2889 C   0  0  0  0  0  0  0  0  0  0  0  0
    7.5551    7.1270   23.1200 O   0  0  0  0  0  0  0  0  0  0  0  0
  1 11  4  0
  1 21  4  0
  2  4  1  0
  2  8  1  0
  2 11  1  0
  3 10  4  0
  3 14  4  0
  4  5  1  0
  4 18  2  0
  6 12  1  0
  6 17  4  0
  6 23  4  0
  7  9  1  0
  7 13  4  0
  7 19  4  0
  9 20  1  0
 10 19  4  0
 11 25  4  0
 13 14  4  0
 15 16  4  0
 15 17  4  0
 15 21  4  0
 16 24  1  0
 16 25  4  0
 20 24  1  0
 20 26  2  0
 21 23  4  0
 22 23  1  0
M  END
$$$$

 Created by Python create_sdf_string function

 26 28  0  0  0  0  0  0  0  0999 V2000
   12.4616    8.6700   19.4180 N   0  0  0  0  0  0  0  0  0  0  0  0
   11.8329   10.8148   18.6769 N   0  0  0  0  0  0  0  0  0  0  0  0
    6.1021    2.5564   21.0678 C   0  0  0  0  0  0  0  0  0  0  0  0
   10.9097   11.8051   18.4804 C   0  0  0  0  0  0  0  0  0  0  0  0
   11.2280   12.9135   17.5669 C   0  0  0  0  0  0  0  0  0  0  0  0
   12.3782    5.4231   20.7777 C   0  0  0  0  0  0  0  0  0  0  0  0
    7.7365    4.6508   21.6987 C   0  0  0  0  0  0  0  0  0  0  0  0
   13.0186   11.0102   18.0020 C   0  0  0  0  0  0  0  0  0  0  0  0
    8.6628    5.7088   21.8871 N   0  0  0  0  0  0  0  0  0  0  0  0
    5.6516    3.5258   21.9140 C   0  0  0  0  0  0  0  0  0  0  0  0
   11.5863    9.6815   19.4539 C   0  0  0  0  0  0  0  0  0  0  0  0
   12.9648    4.1543   20.9205 C   0  0  0  0  0  0  0  0  0  0  0  0
    8.2089    3.6265   20.8929 C   0  0  0  0  0  0  0  0  0  0  0  0
    7.3827    2.5724   20.5432 C   0  0  0  0  0  0  0  0  0  0  0  0
   11.1529    7.2750   20.8025 C   0  0  0  0  0  0  0  0  0  0  0  0
   10.2573    8.3215   20.9827 C   0  0  0  0  0  0  0  0  0  0  0  0
   11.1606    5.9378   21.2366 N   0  0  0  0  0  0  0  0  0  0  0  0
    9.8932   11.6736   19.0677 O   0  0  0  0  0  0  0  0  0  0  0  0
    6.4470    4.5850   22.2321 C   0  0  0  0  0  0  0  0  0  0  0  0
    8.4619    6.9895   22.2968 C   0  0  0  0  0  0  0  0  0  0  0  0
   12.2747    7.5102   20.0420 C   0  0  0  0  0  0  0  0  0  0  0  0
   14.2544    6.2142   19.4191 C   0  0  0  0  0  0  0  0  0  0  0  0
   13.0695    6.3705   20.0375 N   0  0  0  0  0  0  0  0  0  0  0  0
    9.1913    8.0876   21.8361 N   0  0  0  0  0  0  0  0  0  0  0  0
   10.4739    9.4813   20.2889 C   0  0  0  0  0  0  0  0  0  0  0  0
    7.5551    7.1270   23.1200 O   0  0  0  0  0  0  0  0  0  0  0  0
  1 11  4  0
  1 21  4  0
  2  4  1  0
  2  8  1  0
  2 11  1  0
  3 10  4  0
  3 14  4  0
  4  5  1  0
  4 18  2  0
  6 12  1  0
  6 17  4  0
  6 23  4  0
  7  9  1  0
  7 13  4  0
  7 19  4  0
  9 20  1  0
 10 19  4  0
 11 25  4  0
 13 14  4  0
 15 16  4  0
 15 17  4  0
 15 21  4  0
 16 24  1  0
 16 25  4  0
 20 24  1  0
 20 26  2  0
 21 23  4  0
 22 23  1  0
M  END
$$$$

 Created by Python create_sdf_string function

 26 28  0  0  0  0  0  0  0  0999 V2000
   12.4616    8.6700   19.4180 N   0  0  0  0  0  0  0  0  0  0  0  0
   11.8329   10.8148   18.6769 N   0  0  0  0  0  0  0  0  0  0  0  0
    6.1021    2.5564   21.0678 C   0  0  0  0  0  0  0  0  0  0  0  0
   10.9097   11.8051   18.4804 C   0  0  0  0  0  0  0  0  0  0  0  0
   11.2280   12.9135   17.5669 C   0  0  0  0  0  0  0  0  0  0  0  0
   12.3782    5.4231   20.7777 C   0  0  0  0  0  0  0  0  0  0  0  0
    7.7365    4.6508   21.6987 C   0  0  0  0  0  0  0  0  0  0  0  0
   13.0186   11.0102   18.0020 C   0  0  0  0  0  0  0  0  0  0  0  0
    8.6628    5.7088   21.8871 N   0  0  0  0  0  0  0  0  0  0  0  0
    5.6516    3.5258   21.9140 C   0  0  0  0  0  0  0  0  0  0  0  0
   11.5863    9.6815   19.4539 C   0  0  0  0  0  0  0  0  0  0  0  0
   12.9648    4.1543   20.9205 C   0  0  0  0  0  0  0  0  0  0  0  0
    8.2089    3.6265   20.8929 C   0  0  0  0  0  0  0  0  0  0  0  0
    7.3827    2.5724   20.5432 C   0  0  0  0  0  0  0  0  0  0  0  0
   11.1529    7.2750   20.8025 C   0  0  0  0  0  0  0  0  0  0  0  0
   10.2573    8.3215   20.9827 C   0  0  0  0  0  0  0  0  0  0  0  0
   11.1606    5.9378   21.2366 N   0  0  0  0  0  0  0  0  0  0  0  0
    9.8932   11.6736   19.0677 O   0  0  0  0  0  0  0  0  0  0  0  0
    6.4470    4.5850   22.2321 C   0  0  0  0  0  0  0  0  0  0  0  0
    8.4619    6.9895   22.2968 C   0  0  0  0  0  0  0  0  0  0  0  0
   12.2747    7.5102   20.0420 C   0  0  0  0  0  0  0  0  0  0  0  0
   14.2544    6.2142   19.4191 C   0  0  0  0  0  0  0  0  0  0  0  0
   13.0695    6.3705   20.0375 N   0  0  0  0  0  0  0  0  0  0  0  0
    9.1913    8.0876   21.8361 N   0  0  0  0  0  0  0  0  0  0  0  0
   10.4739    9.4813   20.2889 C   0  0  0  0  0  0  0  0  0  0  0  0
    7.5551    7.1270   23.1200 O   0  0  0  0  0  0  0  0  0  0  0  0
  1 11  4  0
  1 21  4  0
  2  4  1  0
  2  8  1  0
  2 11  1  0
  3 10  4  0
  3 14  4  0
  4  5  1  0
  4 18  2  0
  6 12  1  0
  6 17  4  0
  6 23  4  0
  7  9  1  0
  7 13  4  0
  7 19  4  0
  9 20  1  0
 10 19  4  0
 11 25  4  0
 13 14  4  0
 15 16  4  0
 15 17  4  0
 15 21  4  0
 16 24  1  0
 16 25  4  0
 20 24  1  0
 20 26  2  0
 21 23  4  0
 22 23  1  0
M  END
$$$$

 Created by Python create_sdf_string function

 26 28  0  0  0  0  0  0  0  0999 V2000
   12.4616    8.6700   19.4180 N   0  0  0  0  0  0  0  0  0  0  0  0
   11.8329   10.8148   18.6769 N   0  0  0  0  0  0  0  0  0  0  0  0
    6.1021    2.5564   21.0678 C   0  0  0  0  0  0  0  0  0  0  0  0
   10.9097   11.8051   18.4804 C   0  0  0  0  0  0  0  0  0  0  0  0
   11.2280   12.9135   17.5669 C   0  0  0  0  0  0  0  0  0  0  0  0
   12.3782    5.4231   20.7777 C   0  0  0  0  0  0  0  0  0  0  0  0
    7.7365    4.6508   21.6987 C   0  0  0  0  0  0  0  0  0  0  0  0
   13.0186   11.0102   18.0020 C   0  0  0  0  0  0  0  0  0  0  0  0
    8.6628    5.7088   21.8871 N   0  0  0  0  0  0  0  0  0  0  0  0
    5.6516    3.5258   21.9140 C   0  0  0  0  0  0  0  0  0  0  0  0
   11.5863    9.6815   19.4539 C   0  0  0  0  0  0  0  0  0  0  0  0
   12.9648    4.1543   20.9205 C   0  0  0  0  0  0  0  0  0  0  0  0
    8.2089    3.6265   20.8929 C   0  0  0  0  0  0  0  0  0  0  0  0
    7.3827    2.5724   20.5432 C   0  0  0  0  0  0  0  0  0  0  0  0
   11.1529    7.2750   20.8025 C   0  0  0  0  0  0  0  0  0  0  0  0
   10.2573    8.3215   20.9827 C   0  0  0  0  0  0  0  0  0  0  0  0
   11.1606    5.9378   21.2366 N   0  0  0  0  0  0  0  0  0  0  0  0
    9.8932   11.6736   19.0677 O   0  0  0  0  0  0  0  0  0  0  0  0
    6.4470    4.5850   22.2321 C   0  0  0  0  0  0  0  0  0  0  0  0
    8.4619    6.9895   22.2968 C   0  0  0  0  0  0  0  0  0  0  0  0
   12.2747    7.5102   20.0420 C   0  0  0  0  0  0  0  0  0  0  0  0
   14.2544    6.2142   19.4191 C   0  0  0  0  0  0  0  0  0  0  0  0
   13.0695    6.3705   20.0375 N   0  0  0  0  0  0  0  0  0  0  0  0
    9.1913    8.0876   21.8361 N   0  0  0  0  0  0  0  0  0  0  0  0
   10.4739    9.4813   20.2889 C   0  0  0  0  0  0  0  0  0  0  0  0
    7.5551    7.1270   23.1200 O   0  0  0  0  0  0  0  0  0  0  0  0
  1 11  4  0
  1 21  4  0
  2  4  1  0
  2  8  1  0
  2 11  1  0
  3 10  4  0
  3 14  4  0
  4  5  1  0
  4 18  2  0
  6 12  1  0
  6 17  4  0
  6 23  4  0
  7  9  1  0
  7 13  4  0
  7 19  4  0
  9 20  1  0
 10 19  4  0
 11 25  4  0
 13 14  4  0
 15 16  4  0
 15 17  4  0
 15 21  4  0
 16 24  1  0
 16 25  4  0
 20 24  1  0
 20 26  2  0
 21 23  4  0
 22 23  1  0
M  END
$$$$

 Created by Python create_sdf_string function

 26 28  0  0  0  0  0  0  0  0999 V2000
   12.4616    8.6700   19.4180 N   0  0  0  0  0  0  0  0  0  0  0  0
   11.8329   10.8148   18.6769 N   0  0  0  0  0  0  0  0  0  0  0  0
    6.1021    2.5564   21.0678 C   0  0  0  0  0  0  0  0  0  0  0  0
   10.9097   11.8051   18.4804 C   0  0  0  0  0  0  0  0  0  0  0  0
   11.2280   12.9135   17.5669 C   0  0  0  0  0  0  0  0  0  0  0  0
   12.3782    5.4231   20.7777 C   0  0  0  0  0  0  0  0  0  0  0  0
    7.7365    4.6508   21.6987 C   0  0  0  0  0  0  0  0  0  0  0  0
   13.0186   11.0102   18.0020 C   0  0  0  0  0  0  0  0  0  0  0  0
    8.6628    5.7088   21.8871 N   0  0  0  0  0  0  0  0  0  0  0  0
    5.6516    3.5258   21.9140 C   0  0  0  0  0  0  0  0  0  0  0  0
   11.5863    9.6815   19.4539 C   0  0  0  0  0  0  0  0  0  0  0  0
   12.9648    4.1543   20.9205 C   0  0  0  0  0  0  0  0  0  0  0  0
    8.2089    3.6265   20.8929 C   0  0  0  0  0  0  0  0  0  0  0  0
    7.3827    2.5724   20.5432 C   0  0  0  0  0  0  0  0  0  0  0  0
   11.1529    7.2750   20.8025 C   0  0  0  0  0  0  0  0  0  0  0  0
   10.2573    8.3215   20.9827 C   0  0  0  0  0  0  0  0  0  0  0  0
   11.1606    5.9378   21.2366 N   0  0  0  0  0  0  0  0  0  0  0  0
    9.8932   11.6736   19.0677 O   0  0  0  0  0  0  0  0  0  0  0  0
    6.4470    4.5850   22.2321 C   0  0  0  0  0  0  0  0  0  0  0  0
    8.4619    6.9895   22.2968 C   0  0  0  0  0  0  0  0  0  0  0  0
   12.2747    7.5102   20.0420 C   0  0  0  0  0  0  0  0  0  0  0  0
   14.2544    6.2142   19.4191 C   0  0  0  0  0  0  0  0  0  0  0  0
   13.0695    6.3705   20.0375 N   0  0  0  0  0  0  0  0  0  0  0  0
    9.1913    8.0876   21.8361 N   0  0  0  0  0  0  0  0  0  0  0  0
   10.4739    9.4813   20.2889 C   0  0  0  0  0  0  0  0  0  0  0  0
    7.5551    7.1270   23.1200 O   0  0  0  0  0  0  0  0  0  0  0  0
  1 11  4  0
  1 21  4  0
  2  4  1  0
  2  8  1  0
  2 11  1  0
  3 10  4  0
  3 14  4  0
  4  5  1  0
  4 18  2  0
  6 12  1  0
  6 17  4  0
  6 23  4  0
  7  9  1  0
  7 13  4  0
  7 19  4  0
  9 20  1  0
 10 19  4  0
 11 25  4  0
 13 14  4  0
 15 16  4  0
 15 17  4  0
 15 21  4  0
 16 24  1  0
 16 25  4  0
 20 24  1  0
 20 26  2  0
 21 23  4  0
 22 23  1  0
M  END
$$$$

 Created by Python create_sdf_string function

 26 28  0  0  0  0  0  0  0  0999 V2000
   12.4616    8.6700   19.4180 N   0  0  0  0  0  0  0  0  0  0  0  0
   11.8329   10.8148   18.6769 N   0  0  0  0  0  0  0  0  0  0  0  0
    6.1021    2.5564   21.0678 C   0  0  0  0  0  0  0  0  0  0  0  0
   10.9097   11.8051   18.4804 C   0  0  0  0  0  0  0  0  0  0  0  0
   11.2280   12.9135   17.5669 C   0  0  0  0  0  0  0  0  0  0  0  0
   12.3782    5.4231   20.7777 C   0  0  0  0  0  0  0  0  0  0  0  0
    7.7365    4.6508   21.6987 C   0  0  0  0  0  0  0  0  0  0  0  0
   13.0186   11.0102   18.0020 C   0  0  0  0  0  0  0  0  0  0  0  0
    8.6628    5.7088   21.8871 N   0  0  0  0  0  0  0  0  0  0  0  0
    5.6516    3.5258   21.9140 C   0  0  0  0  0  0  0  0  0  0  0  0
   11.5863    9.6815   19.4539 C   0  0  0  0  0  0  0  0  0  0  0  0
   12.9648    4.1543   20.9205 C   0  0  0  0  0  0  0  0  0  0  0  0
    8.2089    3.6265   20.8929 C   0  0  0  0  0  0  0  0  0  0  0  0
    7.3827    2.5724   20.5432 C   0  0  0  0  0  0  0  0  0  0  0  0
   11.1529    7.2750   20.8025 C   0  0  0  0  0  0  0  0  0  0  0  0
   10.2573    8.3215   20.9827 C   0  0  0  0  0  0  0  0  0  0  0  0
   11.1606    5.9378   21.2366 N   0  0  0  0  0  0  0  0  0  0  0  0
    9.8932   11.6736   19.0677 O   0  0  0  0  0  0  0  0  0  0  0  0
    6.4470    4.5850   22.2321 C   0  0  0  0  0  0  0  0  0  0  0  0
    8.4619    6.9895   22.2968 C   0  0  0  0  0  0  0  0  0  0  0  0
   12.2747    7.5102   20.0420 C   0  0  0  0  0  0  0  0  0  0  0  0
   14.2544    6.2142   19.4191 C   0  0  0  0  0  0  0  0  0  0  0  0
   13.0695    6.3705   20.0375 N   0  0  0  0  0  0  0  0  0  0  0  0
    9.1913    8.0876   21.8361 N   0  0  0  0  0  0  0  0  0  0  0  0
   10.4739    9.4813   20.2889 C   0  0  0  0  0  0  0  0  0  0  0  0
    7.5551    7.1270   23.1200 O   0  0  0  0  0  0  0  0  0  0  0  0
  1 11  4  0
  1 21  4  0
  2  4  1  0
  2  8  1  0
  2 11  1  0
  3 10  4  0
  3 14  4  0
  4  5  1  0
  4 18  2  0
  6 12  1  0
  6 17  4  0
  6 23  4  0
  7  9  1  0
  7 13  4  0
  7 19  4  0
  9 20  1  0
 10 19  4  0
 11 25  4  0
 13 14  4  0
 15 16  4  0
 15 17  4  0
 15 21  4  0
 16 24  1  0
 16 25  4  0
 20 24  1  0
 20 26  2  0
 21 23  4  0
 22 23  1  0
M  END
$$$$

 Created by Python create_sdf_string function

 26 28  0  0  0  0  0  0  0  0999 V2000
   12.4616    8.6700   19.4180 N   0  0  0  0  0  0  0  0  0  0  0  0
   11.8329   10.8148   18.6769 N   0  0  0  0  0  0  0  0  0  0  0  0
    6.1021    2.5564   21.0678 C   0  0  0  0  0  0  0  0  0  0  0  0
   10.9097   11.8051   18.4804 C   0  0  0  0  0  0  0  0  0  0  0  0
   11.2280   12.9135   17.5669 C   0  0  0  0  0  0  0  0  0  0  0  0
   12.3782    5.4231   20.7777 C   0  0  0  0  0  0  0  0  0  0  0  0
    7.7365    4.6508   21.6987 C   0  0  0  0  0  0  0  0  0  0  0  0
   13.0186   11.0102   18.0020 C   0  0  0  0  0  0  0  0  0  0  0  0
    8.6628    5.7088   21.8871 N   0  0  0  0  0  0  0  0  0  0  0  0
    5.6516    3.5258   21.9140 C   0  0  0  0  0  0  0  0  0  0  0  0
   11.5863    9.6815   19.4539 C   0  0  0  0  0  0  0  0  0  0  0  0
   12.9648    4.1543   20.9205 C   0  0  0  0  0  0  0  0  0  0  0  0
    8.2089    3.6265   20.8929 C   0  0  0  0  0  0  0  0  0  0  0  0
    7.3827    2.5724   20.5432 C   0  0  0  0  0  0  0  0  0  0  0  0
   11.1529    7.2750   20.8025 C   0  0  0  0  0  0  0  0  0  0  0  0
   10.2573    8.3215   20.9827 C   0  0  0  0  0  0  0  0  0  0  0  0
   11.1606    5.9378   21.2366 N   0  0  0  0  0  0  0  0  0  0  0  0
    9.8932   11.6736   19.0677 O   0  0  0  0  0  0  0  0  0  0  0  0
    6.4470    4.5850   22.2321 C   0  0  0  0  0  0  0  0  0  0  0  0
    8.4619    6.9895   22.2968 C   0  0  0  0  0  0  0  0  0  0  0  0
   12.2747    7.5102   20.0420 C   0  0  0  0  0  0  0  0  0  0  0  0
   14.2544    6.2142   19.4191 C   0  0  0  0  0  0  0  0  0  0  0  0
   13.0695    6.3705   20.0375 N   0  0  0  0  0  0  0  0  0  0  0  0
    9.1913    8.0876   21.8361 N   0  0  0  0  0  0  0  0  0  0  0  0
   10.4739    9.4813   20.2889 C   0  0  0  0  0  0  0  0  0  0  0  0
    7.5551    7.1270   23.1200 O   0  0  0  0  0  0  0  0  0  0  0  0
  1 11  4  0
  1 21  4  0
  2  4  1  0
  2  8  1  0
  2 11  1  0
  3 10  4  0
  3 14  4  0
  4  5  1  0
  4 18  2  0
  6 12  1  0
  6 17  4  0
  6 23  4  0
  7  9  1  0
  7 13  4  0
  7 19  4  0
  9 20  1  0
 10 19  4  0
 11 25  4  0
 13 14  4  0
 15 16  4  0
 15 17  4  0
 15 21  4  0
 16 24  1  0
 16 25  4  0
 20 24  1  0
 20 26  2  0
 21 23  4  0
 22 23  1  0
M  END
$$$$

 Created by Python create_sdf_string function

 26 28  0  0  0  0  0  0  0  0999 V2000
   12.4616    8.6700   19.4180 N   0  0  0  0  0  0  0  0  0  0  0  0
   11.8329   10.8148   18.6769 N   0  0  0  0  0  0  0  0  0  0  0  0
    6.1021    2.5564   21.0678 C   0  0  0  0  0  0  0  0  0  0  0  0
   10.9097   11.8051   18.4804 C   0  0  0  0  0  0  0  0  0  0  0  0
   11.2280   12.9135   17.5669 C   0  0  0  0  0  0  0  0  0  0  0  0
   12.3782    5.4231   20.7777 C   0  0  0  0  0  0  0  0  0  0  0  0
    7.7365    4.6508   21.6987 C   0  0  0  0  0  0  0  0  0  0  0  0
   13.0186   11.0102   18.0020 C   0  0  0  0  0  0  0  0  0  0  0  0
    8.6628    5.7088   21.8871 N   0  0  0  0  0  0  0  0  0  0  0  0
    5.6516    3.5258   21.9140 C   0  0  0  0  0  0  0  0  0  0  0  0
   11.5863    9.6815   19.4539 C   0  0  0  0  0  0  0  0  0  0  0  0
   12.9648    4.1543   20.9205 C   0  0  0  0  0  0  0  0  0  0  0  0
    8.2089    3.6265   20.8929 C   0  0  0  0  0  0  0  0  0  0  0  0
    7.3827    2.5724   20.5432 C   0  0  0  0  0  0  0  0  0  0  0  0
   11.1529    7.2750   20.8025 C   0  0  0  0  0  0  0  0  0  0  0  0
   10.2573    8.3215   20.9827 C   0  0  0  0  0  0  0  0  0  0  0  0
   11.1606    5.9378   21.2366 N   0  0  0  0  0  0  0  0  0  0  0  0
    9.8932   11.6736   19.0677 O   0  0  0  0  0  0  0  0  0  0  0  0
    6.4470    4.5850   22.2321 C   0  0  0  0  0  0  0  0  0  0  0  0
    8.4619    6.9895   22.2968 C   0  0  0  0  0  0  0  0  0  0  0  0
   12.2747    7.5102   20.0420 C   0  0  0  0  0  0  0  0  0  0  0  0
   14.2544    6.2142   19.4191 C   0  0  0  0  0  0  0  0  0  0  0  0
   13.0695    6.3705   20.0375 N   0  0  0  0  0  0  0  0  0  0  0  0
    9.1913    8.0876   21.8361 N   0  0  0  0  0  0  0  0  0  0  0  0
   10.4739    9.4813   20.2889 C   0  0  0  0  0  0  0  0  0  0  0  0
    7.5551    7.1270   23.1200 O   0  0  0  0  0  0  0  0  0  0  0  0
  1 11  4  0
  1 21  4  0
  2  4  1  0
  2  8  1  0
  2 11  1  0
  3 10  4  0
  3 14  4  0
  4  5  1  0
  4 18  2  0
  6 12  1  0
  6 17  4  0
  6 23  4  0
  7  9  1  0
  7 13  4  0
  7 19  4  0
  9 20  1  0
 10 19  4  0
 11 25  4  0
 13 14  4  0
 15 16  4  0
 15 17  4  0
 15 21  4  0
 16 24  1  0
 16 25  4  0
 20 24  1  0
 20 26  2  0
 21 23  4  0
 22 23  1  0
M  END
$$$$

 Created by Python create_sdf_string function

 26 28  0  0  0  0  0  0  0  0999 V2000
   12.4616    8.6700   19.4180 N   0  0  0  0  0  0  0  0  0  0  0  0
   11.8329   10.8148   18.6769 N   0  0  0  0  0  0  0  0  0  0  0  0
    6.1021    2.5564   21.0678 C   0  0  0  0  0  0  0  0  0  0  0  0
   10.9097   11.8051   18.4804 C   0  0  0  0  0  0  0  0  0  0  0  0
   11.2280   12.9135   17.5669 C   0  0  0  0  0  0  0  0  0  0  0  0
   12.3782    5.4231   20.7777 C   0  0  0  0  0  0  0  0  0  0  0  0
    7.7365    4.6508   21.6987 C   0  0  0  0  0  0  0  0  0  0  0  0
   13.0186   11.0102   18.0020 C   0  0  0  0  0  0  0  0  0  0  0  0
    8.6628    5.7088   21.8871 N   0  0  0  0  0  0  0  0  0  0  0  0
    5.6516    3.5258   21.9140 C   0  0  0  0  0  0  0  0  0  0  0  0
   11.5863    9.6815   19.4539 C   0  0  0  0  0  0  0  0  0  0  0  0
   12.9648    4.1543   20.9205 C   0  0  0  0  0  0  0  0  0  0  0  0
    8.2089    3.6265   20.8929 C   0  0  0  0  0  0  0  0  0  0  0  0
    7.3827    2.5724   20.5432 C   0  0  0  0  0  0  0  0  0  0  0  0
   11.1529    7.2750   20.8025 C   0  0  0  0  0  0  0  0  0  0  0  0
   10.2573    8.3215   20.9827 C   0  0  0  0  0  0  0  0  0  0  0  0
   11.1606    5.9378   21.2366 N   0  0  0  0  0  0  0  0  0  0  0  0
    9.8932   11.6736   19.0677 O   0  0  0  0  0  0  0  0  0  0  0  0
    6.4470    4.5850   22.2321 C   0  0  0  0  0  0  0  0  0  0  0  0
    8.4619    6.9895   22.2968 C   0  0  0  0  0  0  0  0  0  0  0  0
   12.2747    7.5102   20.0420 C   0  0  0  0  0  0  0  0  0  0  0  0
   14.2544    6.2142   19.4191 C   0  0  0  0  0  0  0  0  0  0  0  0
   13.0695    6.3705   20.0375 N   0  0  0  0  0  0  0  0  0  0  0  0
    9.1913    8.0876   21.8361 N   0  0  0  0  0  0  0  0  0  0  0  0
   10.4739    9.4813   20.2889 C   0  0  0  0  0  0  0  0  0  0  0  0
    7.5551    7.1270   23.1200 O   0  0  0  0  0  0  0  0  0  0  0  0
  1 11  4  0
  1 21  4  0
  2  4  1  0
  2  8  1  0
  2 11  1  0
  3 10  4  0
  3 14  4  0
  4  5  1  0
  4 18  2  0
  6 12  1  0
  6 17  4  0
  6 23  4  0
  7  9  1  0
  7 13  4  0
  7 19  4  0
  9 20  1  0
 10 19  4  0
 11 25  4  0
 13 14  4  0
 15 16  4  0
 15 17  4  0
 15 21  4  0
 16 24  1  0
 16 25  4  0
 20 24  1  0
 20 26  2  0
 21 23  4  0
 22 23  1  0
M  END
$$$$

 Created by Python create_sdf_string function

 26 28  0  0  0  0  0  0  0  0999 V2000
   12.4616    8.6700   19.4180 N   0  0  0  0  0  0  0  0  0  0  0  0
   11.8329   10.8148   18.6769 N   0  0  0  0  0  0  0  0  0  0  0  0
    6.1021    2.5564   21.0678 C   0  0  0  0  0  0  0  0  0  0  0  0
   10.9097   11.8051   18.4804 C   0  0  0  0  0  0  0  0  0  0  0  0
   11.2280   12.9135   17.5669 C   0  0  0  0  0  0  0  0  0  0  0  0
   12.3782    5.4231   20.7777 C   0  0  0  0  0  0  0  0  0  0  0  0
    7.7365    4.6508   21.6987 C   0  0  0  0  0  0  0  0  0  0  0  0
   13.0186   11.0102   18.0020 C   0  0  0  0  0  0  0  0  0  0  0  0
    8.6628    5.7088   21.8871 N   0  0  0  0  0  0  0  0  0  0  0  0
    5.6516    3.5258   21.9140 C   0  0  0  0  0  0  0  0  0  0  0  0
   11.5863    9.6815   19.4539 C   0  0  0  0  0  0  0  0  0  0  0  0
   12.9648    4.1543   20.9205 C   0  0  0  0  0  0  0  0  0  0  0  0
    8.2089    3.6265   20.8929 C   0  0  0  0  0  0  0  0  0  0  0  0
    7.3827    2.5724   20.5432 C   0  0  0  0  0  0  0  0  0  0  0  0
   11.1529    7.2750   20.8025 C   0  0  0  0  0  0  0  0  0  0  0  0
   10.2573    8.3215   20.9827 C   0  0  0  0  0  0  0  0  0  0  0  0
   11.1606    5.9378   21.2366 N   0  0  0  0  0  0  0  0  0  0  0  0
    9.8932   11.6736   19.0677 O   0  0  0  0  0  0  0  0  0  0  0  0
    6.4470    4.5850   22.2321 C   0  0  0  0  0  0  0  0  0  0  0  0
    8.4619    6.9895   22.2968 C   0  0  0  0  0  0  0  0  0  0  0  0
   12.2747    7.5102   20.0420 C   0  0  0  0  0  0  0  0  0  0  0  0
   14.2544    6.2142   19.4191 C   0  0  0  0  0  0  0  0  0  0  0  0
   13.0695    6.3705   20.0375 N   0  0  0  0  0  0  0  0  0  0  0  0
    9.1913    8.0876   21.8361 N   0  0  0  0  0  0  0  0  0  0  0  0
   10.4739    9.4813   20.2889 C   0  0  0  0  0  0  0  0  0  0  0  0
    7.5551    7.1270   23.1200 O   0  0  0  0  0  0  0  0  0  0  0  0
  1 11  4  0
  1 21  4  0
  2  4  1  0
  2  8  1  0
  2 11  1  0
  3 10  4  0
  3 14  4  0
  4  5  1  0
  4 18  2  0
  6 12  1  0
  6 17  4  0
  6 23  4  0
  7  9  1  0
  7 13  4  0
  7 19  4  0
  9 20  1  0
 10 19  4  0
 11 25  4  0
 13 14  4  0
 15 16  4  0
 15 17  4  0
 15 21  4  0
 16 24  1  0
 16 25  4  0
 20 24  1  0
 20 26  2  0
 21 23  4  0
 22 23  1  0
M  END
$$$$

 Created by Python create_sdf_string function

 26 28  0  0  0  0  0  0  0  0999 V2000
   12.4616    8.6700   19.4180 N   0  0  0  0  0  0  0  0  0  0  0  0
   11.8329   10.8148   18.6769 N   0  0  0  0  0  0  0  0  0  0  0  0
    6.1021    2.5564   21.0678 C   0  0  0  0  0  0  0  0  0  0  0  0
   10.9097   11.8051   18.4804 C   0  0  0  0  0  0  0  0  0  0  0  0
   11.2280   12.9135   17.5669 C   0  0  0  0  0  0  0  0  0  0  0  0
   12.3782    5.4231   20.7777 C   0  0  0  0  0  0  0  0  0  0  0  0
    7.7365    4.6508   21.6987 C   0  0  0  0  0  0  0  0  0  0  0  0
   13.0186   11.0102   18.0020 C   0  0  0  0  0  0  0  0  0  0  0  0
    8.6628    5.7088   21.8871 N   0  0  0  0  0  0  0  0  0  0  0  0
    5.6516    3.5258   21.9140 C   0  0  0  0  0  0  0  0  0  0  0  0
   11.5863    9.6815   19.4539 C   0  0  0  0  0  0  0  0  0  0  0  0
   12.9648    4.1543   20.9205 C   0  0  0  0  0  0  0  0  0  0  0  0
    8.2089    3.6265   20.8929 C   0  0  0  0  0  0  0  0  0  0  0  0
    7.3827    2.5724   20.5432 C   0  0  0  0  0  0  0  0  0  0  0  0
   11.1529    7.2750   20.8025 C   0  0  0  0  0  0  0  0  0  0  0  0
   10.2573    8.3215   20.9827 C   0  0  0  0  0  0  0  0  0  0  0  0
   11.1606    5.9378   21.2366 N   0  0  0  0  0  0  0  0  0  0  0  0
    9.8932   11.6736   19.0677 O   0  0  0  0  0  0  0  0  0  0  0  0
    6.4470    4.5850   22.2321 C   0  0  0  0  0  0  0  0  0  0  0  0
    8.4619    6.9895   22.2968 C   0  0  0  0  0  0  0  0  0  0  0  0
   12.2747    7.5102   20.0420 C   0  0  0  0  0  0  0  0  0  0  0  0
   14.2544    6.2142   19.4191 C   0  0  0  0  0  0  0  0  0  0  0  0
   13.0695    6.3705   20.0375 N   0  0  0  0  0  0  0  0  0  0  0  0
    9.1913    8.0876   21.8361 N   0  0  0  0  0  0  0  0  0  0  0  0
   10.4739    9.4813   20.2889 C   0  0  0  0  0  0  0  0  0  0  0  0
    7.5551    7.1270   23.1200 O   0  0  0  0  0  0  0  0  0  0  0  0
  1 11  4  0
  1 21  4  0
  2  4  1  0
  2  8  1  0
  2 11  1  0
  3 10  4  0
  3 14  4  0
  4  5  1  0
  4 18  2  0
  6 12  1  0
  6 17  4  0
  6 23  4  0
  7  9  1  0
  7 13  4  0
  7 19  4  0
  9 20  1  0
 10 19  4  0
 11 25  4  0
 13 14  4  0
 15 16  4  0
 15 17  4  0
 15 21  4  0
 16 24  1  0
 16 25  4  0
 20 24  1  0
 20 26  2  0
 21 23  4  0
 22 23  1  0
M  END
$$$$

 Created by Python create_sdf_string function

 26 28  0  0  0  0  0  0  0  0999 V2000
   12.4616    8.6700   19.4180 N   0  0  0  0  0  0  0  0  0  0  0  0
   11.8329   10.8148   18.6769 N   0  0  0  0  0  0  0  0  0  0  0  0
    6.1021    2.5564   21.0678 C   0  0  0  0  0  0  0  0  0  0  0  0
   10.9097   11.8051   18.4804 C   0  0  0  0  0  0  0  0  0  0  0  0
   11.2280   12.9135   17.5669 C   0  0  0  0  0  0  0  0  0  0  0  0
   12.3782    5.4231   20.7777 C   0  0  0  0  0  0  0  0  0  0  0  0
    7.7365    4.6508   21.6987 C   0  0  0  0  0  0  0  0  0  0  0  0
   13.0186   11.0102   18.0020 C   0  0  0  0  0  0  0  0  0  0  0  0
    8.6628    5.7088   21.8871 N   0  0  0  0  0  0  0  0  0  0  0  0
    5.6516    3.5258   21.9140 C   0  0  0  0  0  0  0  0  0  0  0  0
   11.5863    9.6815   19.4539 C   0  0  0  0  0  0  0  0  0  0  0  0
   12.9648    4.1543   20.9205 C   0  0  0  0  0  0  0  0  0  0  0  0
    8.2089    3.6265   20.8929 C   0  0  0  0  0  0  0  0  0  0  0  0
    7.3827    2.5724   20.5432 C   0  0  0  0  0  0  0  0  0  0  0  0
   11.1529    7.2750   20.8025 C   0  0  0  0  0  0  0  0  0  0  0  0
   10.2573    8.3215   20.9827 C   0  0  0  0  0  0  0  0  0  0  0  0
   11.1606    5.9378   21.2366 N   0  0  0  0  0  0  0  0  0  0  0  0
    9.8932   11.6736   19.0677 O   0  0  0  0  0  0  0  0  0  0  0  0
    6.4470    4.5850   22.2321 C   0  0  0  0  0  0  0  0  0  0  0  0
    8.4619    6.9895   22.2968 C   0  0  0  0  0  0  0  0  0  0  0  0
   12.2747    7.5102   20.0420 C   0  0  0  0  0  0  0  0  0  0  0  0
   14.2544    6.2142   19.4191 C   0  0  0  0  0  0  0  0  0  0  0  0
   13.0695    6.3705   20.0375 N   0  0  0  0  0  0  0  0  0  0  0  0
    9.1913    8.0876   21.8361 N   0  0  0  0  0  0  0  0  0  0  0  0
   10.4739    9.4813   20.2889 C   0  0  0  0  0  0  0  0  0  0  0  0
    7.5551    7.1270   23.1200 O   0  0  0  0  0  0  0  0  0  0  0  0
  1 11  4  0
  1 21  4  0
  2  4  1  0
  2  8  1  0
  2 11  1  0
  3 10  4  0
  3 14  4  0
  4  5  1  0
  4 18  2  0
  6 12  1  0
  6 17  4  0
  6 23  4  0
  7  9  1  0
  7 13  4  0
  7 19  4  0
  9 20  1  0
 10 19  4  0
 11 25  4  0
 13 14  4  0
 15 16  4  0
 15 17  4  0
 15 21  4  0
 16 24  1  0
 16 25  4  0
 20 24  1  0
 20 26  2  0
 21 23  4  0
 22 23  1  0
M  END
$$$$

 Created by Python create_sdf_string function

 26 28  0  0  0  0  0  0  0  0999 V2000
   12.4616    8.6700   19.4180 N   0  0  0  0  0  0  0  0  0  0  0  0
   11.8329   10.8148   18.6769 N   0  0  0  0  0  0  0  0  0  0  0  0
    6.1021    2.5564   21.0678 C   0  0  0  0  0  0  0  0  0  0  0  0
   10.9097   11.8051   18.4804 C   0  0  0  0  0  0  0  0  0  0  0  0
   11.2280   12.9135   17.5669 C   0  0  0  0  0  0  0  0  0  0  0  0
   12.3782    5.4231   20.7777 C   0  0  0  0  0  0  0  0  0  0  0  0
    7.7365    4.6508   21.6987 C   0  0  0  0  0  0  0  0  0  0  0  0
   13.0186   11.0102   18.0020 C   0  0  0  0  0  0  0  0  0  0  0  0
    8.6628    5.7088   21.8871 N   0  0  0  0  0  0  0  0  0  0  0  0
    5.6516    3.5258   21.9140 C   0  0  0  0  0  0  0  0  0  0  0  0
   11.5863    9.6815   19.4539 C   0  0  0  0  0  0  0  0  0  0  0  0
   12.9648    4.1543   20.9205 C   0  0  0  0  0  0  0  0  0  0  0  0
    8.2089    3.6265   20.8929 C   0  0  0  0  0  0  0  0  0  0  0  0
    7.3827    2.5724   20.5432 C   0  0  0  0  0  0  0  0  0  0  0  0
   11.1529    7.2750   20.8025 C   0  0  0  0  0  0  0  0  0  0  0  0
   10.2573    8.3215   20.9827 C   0  0  0  0  0  0  0  0  0  0  0  0
   11.1606    5.9378   21.2366 N   0  0  0  0  0  0  0  0  0  0  0  0
    9.8932   11.6736   19.0677 O   0  0  0  0  0  0  0  0  0  0  0  0
    6.4470    4.5850   22.2321 C   0  0  0  0  0  0  0  0  0  0  0  0
    8.4619    6.9895   22.2968 C   0  0  0  0  0  0  0  0  0  0  0  0
   12.2747    7.5102   20.0420 C   0  0  0  0  0  0  0  0  0  0  0  0
   14.2544    6.2142   19.4191 C   0  0  0  0  0  0  0  0  0  0  0  0
   13.0695    6.3705   20.0375 N   0  0  0  0  0  0  0  0  0  0  0  0
    9.1913    8.0876   21.8361 N   0  0  0  0  0  0  0  0  0  0  0  0
   10.4739    9.4813   20.2889 C   0  0  0  0  0  0  0  0  0  0  0  0
    7.5551    7.1270   23.1200 O   0  0  0  0  0  0  0  0  0  0  0  0
  1 11  4  0
  1 21  4  0
  2  4  1  0
  2  8  1  0
  2 11  1  0
  3 10  4  0
  3 14  4  0
  4  5  1  0
  4 18  2  0
  6 12  1  0
  6 17  4  0
  6 23  4  0
  7  9  1  0
  7 13  4  0
  7 19  4  0
  9 20  1  0
 10 19  4  0
 11 25  4  0
 13 14  4  0
 15 16  4  0
 15 17  4  0
 15 21  4  0
 16 24  1  0
 16 25  4  0
 20 24  1  0
 20 26  2  0
 21 23  4  0
 22 23  1  0
M  END
$$$$

 Created by Python create_sdf_string function

 26 28  0  0  0  0  0  0  0  0999 V2000
   12.4616    8.6700   19.4180 N   0  0  0  0  0  0  0  0  0  0  0  0
   11.8329   10.8148   18.6769 N   0  0  0  0  0  0  0  0  0  0  0  0
    6.1021    2.5564   21.0678 C   0  0  0  0  0  0  0  0  0  0  0  0
   10.9097   11.8051   18.4804 C   0  0  0  0  0  0  0  0  0  0  0  0
   11.2280   12.9135   17.5669 C   0  0  0  0  0  0  0  0  0  0  0  0
   12.3782    5.4231   20.7777 C   0  0  0  0  0  0  0  0  0  0  0  0
    7.7365    4.6508   21.6987 C   0  0  0  0  0  0  0  0  0  0  0  0
   13.0186   11.0102   18.0020 C   0  0  0  0  0  0  0  0  0  0  0  0
    8.6628    5.7088   21.8871 N   0  0  0  0  0  0  0  0  0  0  0  0
    5.6516    3.5258   21.9140 C   0  0  0  0  0  0  0  0  0  0  0  0
   11.5863    9.6815   19.4539 C   0  0  0  0  0  0  0  0  0  0  0  0
   12.9648    4.1543   20.9205 C   0  0  0  0  0  0  0  0  0  0  0  0
    8.2089    3.6265   20.8929 C   0  0  0  0  0  0  0  0  0  0  0  0
    7.3827    2.5724   20.5432 C   0  0  0  0  0  0  0  0  0  0  0  0
   11.1529    7.2750   20.8025 C   0  0  0  0  0  0  0  0  0  0  0  0
   10.2573    8.3215   20.9827 C   0  0  0  0  0  0  0  0  0  0  0  0
   11.1606    5.9378   21.2366 N   0  0  0  0  0  0  0  0  0  0  0  0
    9.8932   11.6736   19.0677 O   0  0  0  0  0  0  0  0  0  0  0  0
    6.4470    4.5850   22.2321 C   0  0  0  0  0  0  0  0  0  0  0  0
    8.4619    6.9895   22.2968 C   0  0  0  0  0  0  0  0  0  0  0  0
   12.2747    7.5102   20.0420 C   0  0  0  0  0  0  0  0  0  0  0  0
   14.2544    6.2142   19.4191 C   0  0  0  0  0  0  0  0  0  0  0  0
   13.0695    6.3705   20.0375 N   0  0  0  0  0  0  0  0  0  0  0  0
    9.1913    8.0876   21.8361 N   0  0  0  0  0  0  0  0  0  0  0  0
   10.4739    9.4813   20.2889 C   0  0  0  0  0  0  0  0  0  0  0  0
    7.5551    7.1270   23.1200 O   0  0  0  0  0  0  0  0  0  0  0  0
  1 11  4  0
  1 21  4  0
  2  4  1  0
  2  8  1  0
  2 11  1  0
  3 10  4  0
  3 14  4  0
  4  5  1  0
  4 18  2  0
  6 12  1  0
  6 17  4  0
  6 23  4  0
  7  9  1  0
  7 13  4  0
  7 19  4  0
  9 20  1  0
 10 19  4  0
 11 25  4  0
 13 14  4  0
 15 16  4  0
 15 17  4  0
 15 21  4  0
 16 24  1  0
 16 25  4  0
 20 24  1  0
 20 26  2  0
 21 23  4  0
 22 23  1  0
M  END
$$$$

 Created by Python create_sdf_string function

 26 28  0  0  0  0  0  0  0  0999 V2000
   12.4616    8.6700   19.4180 N   0  0  0  0  0  0  0  0  0  0  0  0
   11.8329   10.8148   18.6769 N   0  0  0  0  0  0  0  0  0  0  0  0
    6.1021    2.5564   21.0678 C   0  0  0  0  0  0  0  0  0  0  0  0
   10.9097   11.8051   18.4804 C   0  0  0  0  0  0  0  0  0  0  0  0
   11.2280   12.9135   17.5669 C   0  0  0  0  0  0  0  0  0  0  0  0
   12.3782    5.4231   20.7777 C   0  0  0  0  0  0  0  0  0  0  0  0
    7.7365    4.6508   21.6987 C   0  0  0  0  0  0  0  0  0  0  0  0
   13.0186   11.0102   18.0020 C   0  0  0  0  0  0  0  0  0  0  0  0
    8.6628    5.7088   21.8871 N   0  0  0  0  0  0  0  0  0  0  0  0
    5.6516    3.5258   21.9140 C   0  0  0  0  0  0  0  0  0  0  0  0
   11.5863    9.6815   19.4539 C   0  0  0  0  0  0  0  0  0  0  0  0
   12.9648    4.1543   20.9205 C   0  0  0  0  0  0  0  0  0  0  0  0
    8.2089    3.6265   20.8929 C   0  0  0  0  0  0  0  0  0  0  0  0
    7.3827    2.5724   20.5432 C   0  0  0  0  0  0  0  0  0  0  0  0
   11.1529    7.2750   20.8025 C   0  0  0  0  0  0  0  0  0  0  0  0
   10.2573    8.3215   20.9827 C   0  0  0  0  0  0  0  0  0  0  0  0
   11.1606    5.9378   21.2366 N   0  0  0  0  0  0  0  0  0  0  0  0
    9.8932   11.6736   19.0677 O   0  0  0  0  0  0  0  0  0  0  0  0
    6.4470    4.5850   22.2321 C   0  0  0  0  0  0  0  0  0  0  0  0
    8.4619    6.9895   22.2968 C   0  0  0  0  0  0  0  0  0  0  0  0
   12.2747    7.5102   20.0420 C   0  0  0  0  0  0  0  0  0  0  0  0
   14.2544    6.2142   19.4191 C   0  0  0  0  0  0  0  0  0  0  0  0
   13.0695    6.3705   20.0375 N   0  0  0  0  0  0  0  0  0  0  0  0
    9.1913    8.0876   21.8361 N   0  0  0  0  0  0  0  0  0  0  0  0
   10.4739    9.4813   20.2889 C   0  0  0  0  0  0  0  0  0  0  0  0
    7.5551    7.1270   23.1200 O   0  0  0  0  0  0  0  0  0  0  0  0
  1 11  4  0
  1 21  4  0
  2  4  1  0
  2  8  1  0
  2 11  1  0
  3 10  4  0
  3 14  4  0
  4  5  1  0
  4 18  2  0
  6 12  1  0
  6 17  4  0
  6 23  4  0
  7  9  1  0
  7 13  4  0
  7 19  4  0
  9 20  1  0
 10 19  4  0
 11 25  4  0
 13 14  4  0
 15 16  4  0
 15 17  4  0
 15 21  4  0
 16 24  1  0
 16 25  4  0
 20 24  1  0
 20 26  2  0
 21 23  4  0
 22 23  1  0
M  END
$$$$

 Created by Python create_sdf_string function

 26 28  0  0  0  0  0  0  0  0999 V2000
   12.4616    8.6700   19.4180 N   0  0  0  0  0  0  0  0  0  0  0  0
   11.8329   10.8148   18.6769 N   0  0  0  0  0  0  0  0  0  0  0  0
    6.1021    2.5564   21.0678 C   0  0  0  0  0  0  0  0  0  0  0  0
   10.9097   11.8051   18.4804 C   0  0  0  0  0  0  0  0  0  0  0  0
   11.2280   12.9135   17.5669 C   0  0  0  0  0  0  0  0  0  0  0  0
   12.3782    5.4231   20.7777 C   0  0  0  0  0  0  0  0  0  0  0  0
    7.7365    4.6508   21.6987 C   0  0  0  0  0  0  0  0  0  0  0  0
   13.0186   11.0102   18.0020 C   0  0  0  0  0  0  0  0  0  0  0  0
    8.6628    5.7088   21.8871 N   0  0  0  0  0  0  0  0  0  0  0  0
    5.6516    3.5258   21.9140 C   0  0  0  0  0  0  0  0  0  0  0  0
   11.5863    9.6815   19.4539 C   0  0  0  0  0  0  0  0  0  0  0  0
   12.9648    4.1543   20.9205 C   0  0  0  0  0  0  0  0  0  0  0  0
    8.2089    3.6265   20.8929 C   0  0  0  0  0  0  0  0  0  0  0  0
    7.3827    2.5724   20.5432 C   0  0  0  0  0  0  0  0  0  0  0  0
   11.1529    7.2750   20.8025 C   0  0  0  0  0  0  0  0  0  0  0  0
   10.2573    8.3215   20.9827 C   0  0  0  0  0  0  0  0  0  0  0  0
   11.1606    5.9378   21.2366 N   0  0  0  0  0  0  0  0  0  0  0  0
    9.8932   11.6736   19.0677 O   0  0  0  0  0  0  0  0  0  0  0  0
    6.4470    4.5850   22.2321 C   0  0  0  0  0  0  0  0  0  0  0  0
    8.4619    6.9895   22.2968 C   0  0  0  0  0  0  0  0  0  0  0  0
   12.2747    7.5102   20.0420 C   0  0  0  0  0  0  0  0  0  0  0  0
   14.2544    6.2142   19.4191 C   0  0  0  0  0  0  0  0  0  0  0  0
   13.0695    6.3705   20.0375 N   0  0  0  0  0  0  0  0  0  0  0  0
    9.1913    8.0876   21.8361 N   0  0  0  0  0  0  0  0  0  0  0  0
   10.4739    9.4813   20.2889 C   0  0  0  0  0  0  0  0  0  0  0  0
    7.5551    7.1270   23.1200 O   0  0  0  0  0  0  0  0  0  0  0  0
  1 11  4  0
  1 21  4  0
  2  4  1  0
  2  8  1  0
  2 11  1  0
  3 10  4  0
  3 14  4  0
  4  5  1  0
  4 18  2  0
  6 12  1  0
  6 17  4  0
  6 23  4  0
  7  9  1  0
  7 13  4  0
  7 19  4  0
  9 20  1  0
 10 19  4  0
 11 25  4  0
 13 14  4  0
 15 16  4  0
 15 17  4  0
 15 21  4  0
 16 24  1  0
 16 25  4  0
 20 24  1  0
 20 26  2  0
 21 23  4  0
 22 23  1  0
M  END
$$$$

 Created by Python create_sdf_string function

 26 28  0  0  0  0  0  0  0  0999 V2000
   12.4616    8.6700   19.4180 N   0  0  0  0  0  0  0  0  0  0  0  0
   11.8329   10.8148   18.6769 N   0  0  0  0  0  0  0  0  0  0  0  0
    6.1021    2.5564   21.0678 C   0  0  0  0  0  0  0  0  0  0  0  0
   10.9097   11.8051   18.4804 C   0  0  0  0  0  0  0  0  0  0  0  0
   11.2280   12.9135   17.5669 C   0  0  0  0  0  0  0  0  0  0  0  0
   12.3782    5.4231   20.7777 C   0  0  0  0  0  0  0  0  0  0  0  0
    7.7365    4.6508   21.6987 C   0  0  0  0  0  0  0  0  0  0  0  0
   13.0186   11.0102   18.0020 C   0  0  0  0  0  0  0  0  0  0  0  0
    8.6628    5.7088   21.8871 N   0  0  0  0  0  0  0  0  0  0  0  0
    5.6516    3.5258   21.9140 C   0  0  0  0  0  0  0  0  0  0  0  0
   11.5863    9.6815   19.4539 C   0  0  0  0  0  0  0  0  0  0  0  0
   12.9648    4.1543   20.9205 C   0  0  0  0  0  0  0  0  0  0  0  0
    8.2089    3.6265   20.8929 C   0  0  0  0  0  0  0  0  0  0  0  0
    7.3827    2.5724   20.5432 C   0  0  0  0  0  0  0  0  0  0  0  0
   11.1529    7.2750   20.8025 C   0  0  0  0  0  0  0  0  0  0  0  0
   10.2573    8.3215   20.9827 C   0  0  0  0  0  0  0  0  0  0  0  0
   11.1606    5.9378   21.2366 N   0  0  0  0  0  0  0  0  0  0  0  0
    9.8932   11.6736   19.0677 O   0  0  0  0  0  0  0  0  0  0  0  0
    6.4470    4.5850   22.2321 C   0  0  0  0  0  0  0  0  0  0  0  0
    8.4619    6.9895   22.2968 C   0  0  0  0  0  0  0  0  0  0  0  0
   12.2747    7.5102   20.0420 C   0  0  0  0  0  0  0  0  0  0  0  0
   14.2544    6.2142   19.4191 C   0  0  0  0  0  0  0  0  0  0  0  0
   13.0695    6.3705   20.0375 N   0  0  0  0  0  0  0  0  0  0  0  0
    9.1913    8.0876   21.8361 N   0  0  0  0  0  0  0  0  0  0  0  0
   10.4739    9.4813   20.2889 C   0  0  0  0  0  0  0  0  0  0  0  0
    7.5551    7.1270   23.1200 O   0  0  0  0  0  0  0  0  0  0  0  0
  1 11  4  0
  1 21  4  0
  2  4  1  0
  2  8  1  0
  2 11  1  0
  3 10  4  0
  3 14  4  0
  4  5  1  0
  4 18  2  0
  6 12  1  0
  6 17  4  0
  6 23  4  0
  7  9  1  0
  7 13  4  0
  7 19  4  0
  9 20  1  0
 10 19  4  0
 11 25  4  0
 13 14  4  0
 15 16  4  0
 15 17  4  0
 15 21  4  0
 16 24  1  0
 16 25  4  0
 20 24  1  0
 20 26  2  0
 21 23  4  0
 22 23  1  0
M  END
$$$$

 Created by Python create_sdf_string function

 26 28  0  0  0  0  0  0  0  0999 V2000
   12.4616    8.6700   19.4180 N   0  0  0  0  0  0  0  0  0  0  0  0
   11.8329   10.8148   18.6769 N   0  0  0  0  0  0  0  0  0  0  0  0
    6.1021    2.5564   21.0678 C   0  0  0  0  0  0  0  0  0  0  0  0
   10.9097   11.8051   18.4804 C   0  0  0  0  0  0  0  0  0  0  0  0
   11.2280   12.9135   17.5669 C   0  0  0  0  0  0  0  0  0  0  0  0
   12.3782    5.4231   20.7777 C   0  0  0  0  0  0  0  0  0  0  0  0
    7.7365    4.6508   21.6987 C   0  0  0  0  0  0  0  0  0  0  0  0
   13.0186   11.0102   18.0020 C   0  0  0  0  0  0  0  0  0  0  0  0
    8.6628    5.7088   21.8871 N   0  0  0  0  0  0  0  0  0  0  0  0
    5.6516    3.5258   21.9140 C   0  0  0  0  0  0  0  0  0  0  0  0
   11.5863    9.6815   19.4539 C   0  0  0  0  0  0  0  0  0  0  0  0
   12.9648    4.1543   20.9205 C   0  0  0  0  0  0  0  0  0  0  0  0
    8.2089    3.6265   20.8929 C   0  0  0  0  0  0  0  0  0  0  0  0
    7.3827    2.5724   20.5432 C   0  0  0  0  0  0  0  0  0  0  0  0
   11.1529    7.2750   20.8025 C   0  0  0  0  0  0  0  0  0  0  0  0
   10.2573    8.3215   20.9827 C   0  0  0  0  0  0  0  0  0  0  0  0
   11.1606    5.9378   21.2366 N   0  0  0  0  0  0  0  0  0  0  0  0
    9.8932   11.6736   19.0677 O   0  0  0  0  0  0  0  0  0  0  0  0
    6.4470    4.5850   22.2321 C   0  0  0  0  0  0  0  0  0  0  0  0
    8.4619    6.9895   22.2968 C   0  0  0  0  0  0  0  0  0  0  0  0
   12.2747    7.5102   20.0420 C   0  0  0  0  0  0  0  0  0  0  0  0
   14.2544    6.2142   19.4191 C   0  0  0  0  0  0  0  0  0  0  0  0
   13.0695    6.3705   20.0375 N   0  0  0  0  0  0  0  0  0  0  0  0
    9.1913    8.0876   21.8361 N   0  0  0  0  0  0  0  0  0  0  0  0
   10.4739    9.4813   20.2889 C   0  0  0  0  0  0  0  0  0  0  0  0
    7.5551    7.1270   23.1200 O   0  0  0  0  0  0  0  0  0  0  0  0
  1 11  4  0
  1 21  4  0
  2  4  1  0
  2  8  1  0
  2 11  1  0
  3 10  4  0
  3 14  4  0
  4  5  1  0
  4 18  2  0
  6 12  1  0
  6 17  4  0
  6 23  4  0
  7  9  1  0
  7 13  4  0
  7 19  4  0
  9 20  1  0
 10 19  4  0
 11 25  4  0
 13 14  4  0
 15 16  4  0
 15 17  4  0
 15 21  4  0
 16 24  1  0
 16 25  4  0
 20 24  1  0
 20 26  2  0
 21 23  4  0
 22 23  1  0
M  END
$$$$

 Created by Python create_sdf_string function

 26 28  0  0  0  0  0  0  0  0999 V2000
   12.4616    8.6700   19.4180 N   0  0  0  0  0  0  0  0  0  0  0  0
   11.8329   10.8148   18.6769 N   0  0  0  0  0  0  0  0  0  0  0  0
    6.1021    2.5564   21.0678 C   0  0  0  0  0  0  0  0  0  0  0  0
   10.9097   11.8051   18.4804 C   0  0  0  0  0  0  0  0  0  0  0  0
   11.2280   12.9135   17.5669 C   0  0  0  0  0  0  0  0  0  0  0  0
   12.3782    5.4231   20.7777 C   0  0  0  0  0  0  0  0  0  0  0  0
    7.7365    4.6508   21.6987 C   0  0  0  0  0  0  0  0  0  0  0  0
   13.0186   11.0102   18.0020 C   0  0  0  0  0  0  0  0  0  0  0  0
    8.6628    5.7088   21.8871 N   0  0  0  0  0  0  0  0  0  0  0  0
    5.6516    3.5258   21.9140 C   0  0  0  0  0  0  0  0  0  0  0  0
   11.5863    9.6815   19.4539 C   0  0  0  0  0  0  0  0  0  0  0  0
   12.9648    4.1543   20.9205 C   0  0  0  0  0  0  0  0  0  0  0  0
    8.2089    3.6265   20.8929 C   0  0  0  0  0  0  0  0  0  0  0  0
    7.3827    2.5724   20.5432 C   0  0  0  0  0  0  0  0  0  0  0  0
   11.1529    7.2750   20.8025 C   0  0  0  0  0  0  0  0  0  0  0  0
   10.2573    8.3215   20.9827 C   0  0  0  0  0  0  0  0  0  0  0  0
   11.1606    5.9378   21.2366 N   0  0  0  0  0  0  0  0  0  0  0  0
    9.8932   11.6736   19.0677 O   0  0  0  0  0  0  0  0  0  0  0  0
    6.4470    4.5850   22.2321 C   0  0  0  0  0  0  0  0  0  0  0  0
    8.4619    6.9895   22.2968 C   0  0  0  0  0  0  0  0  0  0  0  0
   12.2747    7.5102   20.0420 C   0  0  0  0  0  0  0  0  0  0  0  0
   14.2544    6.2142   19.4191 C   0  0  0  0  0  0  0  0  0  0  0  0
   13.0695    6.3705   20.0375 N   0  0  0  0  0  0  0  0  0  0  0  0
    9.1913    8.0876   21.8361 N   0  0  0  0  0  0  0  0  0  0  0  0
   10.4739    9.4813   20.2889 C   0  0  0  0  0  0  0  0  0  0  0  0
    7.5551    7.1270   23.1200 O   0  0  0  0  0  0  0  0  0  0  0  0
  1 11  4  0
  1 21  4  0
  2  4  1  0
  2  8  1  0
  2 11  1  0
  3 10  4  0
  3 14  4  0
  4  5  1  0
  4 18  2  0
  6 12  1  0
  6 17  4  0
  6 23  4  0
  7  9  1  0
  7 13  4  0
  7 19  4  0
  9 20  1  0
 10 19  4  0
 11 25  4  0
 13 14  4  0
 15 16  4  0
 15 17  4  0
 15 21  4  0
 16 24  1  0
 16 25  4  0
 20 24  1  0
 20 26  2  0
 21 23  4  0
 22 23  1  0
M  END
$$$$

 Created by Python create_sdf_string function

 26 28  0  0  0  0  0  0  0  0999 V2000
   12.4616    8.6700   19.4180 N   0  0  0  0  0  0  0  0  0  0  0  0
   11.8329   10.8148   18.6769 N   0  0  0  0  0  0  0  0  0  0  0  0
    6.1021    2.5564   21.0678 C   0  0  0  0  0  0  0  0  0  0  0  0
   10.9097   11.8051   18.4804 C   0  0  0  0  0  0  0  0  0  0  0  0
   11.2280   12.9135   17.5669 C   0  0  0  0  0  0  0  0  0  0  0  0
   12.3782    5.4231   20.7777 C   0  0  0  0  0  0  0  0  0  0  0  0
    7.7365    4.6508   21.6987 C   0  0  0  0  0  0  0  0  0  0  0  0
   13.0186   11.0102   18.0020 C   0  0  0  0  0  0  0  0  0  0  0  0
    8.6628    5.7088   21.8871 N   0  0  0  0  0  0  0  0  0  0  0  0
    5.6516    3.5258   21.9140 C   0  0  0  0  0  0  0  0  0  0  0  0
   11.5863    9.6815   19.4539 C   0  0  0  0  0  0  0  0  0  0  0  0
   12.9648    4.1543   20.9205 C   0  0  0  0  0  0  0  0  0  0  0  0
    8.2089    3.6265   20.8929 C   0  0  0  0  0  0  0  0  0  0  0  0
    7.3827    2.5724   20.5432 C   0  0  0  0  0  0  0  0  0  0  0  0
   11.1529    7.2750   20.8025 C   0  0  0  0  0  0  0  0  0  0  0  0
   10.2573    8.3215   20.9827 C   0  0  0  0  0  0  0  0  0  0  0  0
   11.1606    5.9378   21.2366 N   0  0  0  0  0  0  0  0  0  0  0  0
    9.8932   11.6736   19.0677 O   0  0  0  0  0  0  0  0  0  0  0  0
    6.4470    4.5850   22.2321 C   0  0  0  0  0  0  0  0  0  0  0  0
    8.4619    6.9895   22.2968 C   0  0  0  0  0  0  0  0  0  0  0  0
   12.2747    7.5102   20.0420 C   0  0  0  0  0  0  0  0  0  0  0  0
   14.2544    6.2142   19.4191 C   0  0  0  0  0  0  0  0  0  0  0  0
   13.0695    6.3705   20.0375 N   0  0  0  0  0  0  0  0  0  0  0  0
    9.1913    8.0876   21.8361 N   0  0  0  0  0  0  0  0  0  0  0  0
   10.4739    9.4813   20.2889 C   0  0  0  0  0  0  0  0  0  0  0  0
    7.5551    7.1270   23.1200 O   0  0  0  0  0  0  0  0  0  0  0  0
  1 11  4  0
  1 21  4  0
  2  4  1  0
  2  8  1  0
  2 11  1  0
  3 10  4  0
  3 14  4  0
  4  5  1  0
  4 18  2  0
  6 12  1  0
  6 17  4  0
  6 23  4  0
  7  9  1  0
  7 13  4  0
  7 19  4  0
  9 20  1  0
 10 19  4  0
 11 25  4  0
 13 14  4  0
 15 16  4  0
 15 17  4  0
 15 21  4  0
 16 24  1  0
 16 25  4  0
 20 24  1  0
 20 26  2  0
 21 23  4  0
 22 23  1  0
M  END
$$$$

 Created by Python create_sdf_string function

 26 28  0  0  0  0  0  0  0  0999 V2000
   12.4616    8.6700   19.4180 N   0  0  0  0  0  0  0  0  0  0  0  0
   11.8329   10.8148   18.6769 N   0  0  0  0  0  0  0  0  0  0  0  0
    6.1021    2.5564   21.0678 C   0  0  0  0  0  0  0  0  0  0  0  0
   10.9097   11.8051   18.4804 C   0  0  0  0  0  0  0  0  0  0  0  0
   11.2280   12.9135   17.5669 C   0  0  0  0  0  0  0  0  0  0  0  0
   12.3782    5.4231   20.7777 C   0  0  0  0  0  0  0  0  0  0  0  0
    7.7365    4.6508   21.6987 C   0  0  0  0  0  0  0  0  0  0  0  0
   13.0186   11.0102   18.0020 C   0  0  0  0  0  0  0  0  0  0  0  0
    8.6628    5.7088   21.8871 N   0  0  0  0  0  0  0  0  0  0  0  0
    5.6516    3.5258   21.9140 C   0  0  0  0  0  0  0  0  0  0  0  0
   11.5863    9.6815   19.4539 C   0  0  0  0  0  0  0  0  0  0  0  0
   12.9648    4.1543   20.9205 C   0  0  0  0  0  0  0  0  0  0  0  0
    8.2089    3.6265   20.8929 C   0  0  0  0  0  0  0  0  0  0  0  0
    7.3827    2.5724   20.5432 C   0  0  0  0  0  0  0  0  0  0  0  0
   11.1529    7.2750   20.8025 C   0  0  0  0  0  0  0  0  0  0  0  0
   10.2573    8.3215   20.9827 C   0  0  0  0  0  0  0  0  0  0  0  0
   11.1606    5.9378   21.2366 N   0  0  0  0  0  0  0  0  0  0  0  0
    9.8932   11.6736   19.0677 O   0  0  0  0  0  0  0  0  0  0  0  0
    6.4470    4.5850   22.2321 C   0  0  0  0  0  0  0  0  0  0  0  0
    8.4619    6.9895   22.2968 C   0  0  0  0  0  0  0  0  0  0  0  0
   12.2747    7.5102   20.0420 C   0  0  0  0  0  0  0  0  0  0  0  0
   14.2544    6.2142   19.4191 C   0  0  0  0  0  0  0  0  0  0  0  0
   13.0695    6.3705   20.0375 N   0  0  0  0  0  0  0  0  0  0  0  0
    9.1913    8.0876   21.8361 N   0  0  0  0  0  0  0  0  0  0  0  0
   10.4739    9.4813   20.2889 C   0  0  0  0  0  0  0  0  0  0  0  0
    7.5551    7.1270   23.1200 O   0  0  0  0  0  0  0  0  0  0  0  0
  1 11  4  0
  1 21  4  0
  2  4  1  0
  2  8  1  0
  2 11  1  0
  3 10  4  0
  3 14  4  0
  4  5  1  0
  4 18  2  0
  6 12  1  0
  6 17  4  0
  6 23  4  0
  7  9  1  0
  7 13  4  0
  7 19  4  0
  9 20  1  0
 10 19  4  0
 11 25  4  0
 13 14  4  0
 15 16  4  0
 15 17  4  0
 15 21  4  0
 16 24  1  0
 16 25  4  0
 20 24  1  0
 20 26  2  0
 21 23  4  0
 22 23  1  0
M  END
$$$$

 Created by Python create_sdf_string function

 26 28  0  0  0  0  0  0  0  0999 V2000
   12.4616    8.6700   19.4180 N   0  0  0  0  0  0  0  0  0  0  0  0
   11.8329   10.8148   18.6769 N   0  0  0  0  0  0  0  0  0  0  0  0
    6.1021    2.5564   21.0678 C   0  0  0  0  0  0  0  0  0  0  0  0
   10.9097   11.8051   18.4804 C   0  0  0  0  0  0  0  0  0  0  0  0
   11.2280   12.9135   17.5669 C   0  0  0  0  0  0  0  0  0  0  0  0
   12.3782    5.4231   20.7777 C   0  0  0  0  0  0  0  0  0  0  0  0
    7.7365    4.6508   21.6987 C   0  0  0  0  0  0  0  0  0  0  0  0
   13.0186   11.0102   18.0020 C   0  0  0  0  0  0  0  0  0  0  0  0
    8.6628    5.7088   21.8871 N   0  0  0  0  0  0  0  0  0  0  0  0
    5.6516    3.5258   21.9140 C   0  0  0  0  0  0  0  0  0  0  0  0
   11.5863    9.6815   19.4539 C   0  0  0  0  0  0  0  0  0  0  0  0
   12.9648    4.1543   20.9205 C   0  0  0  0  0  0  0  0  0  0  0  0
    8.2089    3.6265   20.8929 C   0  0  0  0  0  0  0  0  0  0  0  0
    7.3827    2.5724   20.5432 C   0  0  0  0  0  0  0  0  0  0  0  0
   11.1529    7.2750   20.8025 C   0  0  0  0  0  0  0  0  0  0  0  0
   10.2573    8.3215   20.9827 C   0  0  0  0  0  0  0  0  0  0  0  0
   11.1606    5.9378   21.2366 N   0  0  0  0  0  0  0  0  0  0  0  0
    9.8932   11.6736   19.0677 O   0  0  0  0  0  0  0  0  0  0  0  0
    6.4470    4.5850   22.2321 C   0  0  0  0  0  0  0  0  0  0  0  0
    8.4619    6.9895   22.2968 C   0  0  0  0  0  0  0  0  0  0  0  0
   12.2747    7.5102   20.0420 C   0  0  0  0  0  0  0  0  0  0  0  0
   14.2544    6.2142   19.4191 C   0  0  0  0  0  0  0  0  0  0  0  0
   13.0695    6.3705   20.0375 N   0  0  0  0  0  0  0  0  0  0  0  0
    9.1913    8.0876   21.8361 N   0  0  0  0  0  0  0  0  0  0  0  0
   10.4739    9.4813   20.2889 C   0  0  0  0  0  0  0  0  0  0  0  0
    7.5551    7.1270   23.1200 O   0  0  0  0  0  0  0  0  0  0  0  0
  1 11  4  0
  1 21  4  0
  2  4  1  0
  2  8  1  0
  2 11  1  0
  3 10  4  0
  3 14  4  0
  4  5  1  0
  4 18  2  0
  6 12  1  0
  6 17  4  0
  6 23  4  0
  7  9  1  0
  7 13  4  0
  7 19  4  0
  9 20  1  0
 10 19  4  0
 11 25  4  0
 13 14  4  0
 15 16  4  0
 15 17  4  0
 15 21  4  0
 16 24  1  0
 16 25  4  0
 20 24  1  0
 20 26  2  0
 21 23  4  0
 22 23  1  0
M  END
$$$$

 Created by Python create_sdf_string function

 26 28  0  0  0  0  0  0  0  0999 V2000
   12.4616    8.6700   19.4180 N   0  0  0  0  0  0  0  0  0  0  0  0
   11.8329   10.8148   18.6769 N   0  0  0  0  0  0  0  0  0  0  0  0
    6.1021    2.5564   21.0678 C   0  0  0  0  0  0  0  0  0  0  0  0
   10.9097   11.8051   18.4804 C   0  0  0  0  0  0  0  0  0  0  0  0
   11.2280   12.9135   17.5669 C   0  0  0  0  0  0  0  0  0  0  0  0
   12.3782    5.4231   20.7777 C   0  0  0  0  0  0  0  0  0  0  0  0
    7.7365    4.6508   21.6987 C   0  0  0  0  0  0  0  0  0  0  0  0
   13.0186   11.0102   18.0020 C   0  0  0  0  0  0  0  0  0  0  0  0
    8.6628    5.7088   21.8871 N   0  0  0  0  0  0  0  0  0  0  0  0
    5.6516    3.5258   21.9140 C   0  0  0  0  0  0  0  0  0  0  0  0
   11.5863    9.6815   19.4539 C   0  0  0  0  0  0  0  0  0  0  0  0
   12.9648    4.1543   20.9205 C   0  0  0  0  0  0  0  0  0  0  0  0
    8.2089    3.6265   20.8929 C   0  0  0  0  0  0  0  0  0  0  0  0
    7.3827    2.5724   20.5432 C   0  0  0  0  0  0  0  0  0  0  0  0
   11.1529    7.2750   20.8025 C   0  0  0  0  0  0  0  0  0  0  0  0
   10.2573    8.3215   20.9827 C   0  0  0  0  0  0  0  0  0  0  0  0
   11.1606    5.9378   21.2366 N   0  0  0  0  0  0  0  0  0  0  0  0
    9.8932   11.6736   19.0677 O   0  0  0  0  0  0  0  0  0  0  0  0
    6.4470    4.5850   22.2321 C   0  0  0  0  0  0  0  0  0  0  0  0
    8.4619    6.9895   22.2968 C   0  0  0  0  0  0  0  0  0  0  0  0
   12.2747    7.5102   20.0420 C   0  0  0  0  0  0  0  0  0  0  0  0
   14.2544    6.2142   19.4191 C   0  0  0  0  0  0  0  0  0  0  0  0
   13.0695    6.3705   20.0375 N   0  0  0  0  0  0  0  0  0  0  0  0
    9.1913    8.0876   21.8361 N   0  0  0  0  0  0  0  0  0  0  0  0
   10.4739    9.4813   20.2889 C   0  0  0  0  0  0  0  0  0  0  0  0
    7.5551    7.1270   23.1200 O   0  0  0  0  0  0  0  0  0  0  0  0
  1 11  4  0
  1 21  4  0
  2  4  1  0
  2  8  1  0
  2 11  1  0
  3 10  4  0
  3 14  4  0
  4  5  1  0
  4 18  2  0
  6 12  1  0
  6 17  4  0
  6 23  4  0
  7  9  1  0
  7 13  4  0
  7 19  4  0
  9 20  1  0
 10 19  4  0
 11 25  4  0
 13 14  4  0
 15 16  4  0
 15 17  4  0
 15 21  4  0
 16 24  1  0
 16 25  4  0
 20 24  1  0
 20 26  2  0
 21 23  4  0
 22 23  1  0
M  END
$$$$

 Created by Python create_sdf_string function

 26 28  0  0  0  0  0  0  0  0999 V2000
   12.4616    8.6700   19.4180 N   0  0  0  0  0  0  0  0  0  0  0  0
   11.8329   10.8148   18.6769 N   0  0  0  0  0  0  0  0  0  0  0  0
    6.1021    2.5564   21.0678 C   0  0  0  0  0  0  0  0  0  0  0  0
   10.9097   11.8051   18.4804 C   0  0  0  0  0  0  0  0  0  0  0  0
   11.2280   12.9135   17.5669 C   0  0  0  0  0  0  0  0  0  0  0  0
   12.3782    5.4231   20.7777 C   0  0  0  0  0  0  0  0  0  0  0  0
    7.7365    4.6508   21.6987 C   0  0  0  0  0  0  0  0  0  0  0  0
   13.0186   11.0102   18.0020 C   0  0  0  0  0  0  0  0  0  0  0  0
    8.6628    5.7088   21.8871 N   0  0  0  0  0  0  0  0  0  0  0  0
    5.6516    3.5258   21.9140 C   0  0  0  0  0  0  0  0  0  0  0  0
   11.5863    9.6815   19.4539 C   0  0  0  0  0  0  0  0  0  0  0  0
   12.9648    4.1543   20.9205 C   0  0  0  0  0  0  0  0  0  0  0  0
    8.2089    3.6265   20.8929 C   0  0  0  0  0  0  0  0  0  0  0  0
    7.3827    2.5724   20.5432 C   0  0  0  0  0  0  0  0  0  0  0  0
   11.1529    7.2750   20.8025 C   0  0  0  0  0  0  0  0  0  0  0  0
   10.2573    8.3215   20.9827 C   0  0  0  0  0  0  0  0  0  0  0  0
   11.1606    5.9378   21.2366 N   0  0  0  0  0  0  0  0  0  0  0  0
    9.8932   11.6736   19.0677 O   0  0  0  0  0  0  0  0  0  0  0  0
    6.4470    4.5850   22.2321 C   0  0  0  0  0  0  0  0  0  0  0  0
    8.4619    6.9895   22.2968 C   0  0  0  0  0  0  0  0  0  0  0  0
   12.2747    7.5102   20.0420 C   0  0  0  0  0  0  0  0  0  0  0  0
   14.2544    6.2142   19.4191 C   0  0  0  0  0  0  0  0  0  0  0  0
   13.0695    6.3705   20.0375 N   0  0  0  0  0  0  0  0  0  0  0  0
    9.1913    8.0876   21.8361 N   0  0  0  0  0  0  0  0  0  0  0  0
   10.4739    9.4813   20.2889 C   0  0  0  0  0  0  0  0  0  0  0  0
    7.5551    7.1270   23.1200 O   0  0  0  0  0  0  0  0  0  0  0  0
  1 11  4  0
  1 21  4  0
  2  4  1  0
  2  8  1  0
  2 11  1  0
  3 10  4  0
  3 14  4  0
  4  5  1  0
  4 18  2  0
  6 12  1  0
  6 17  4  0
  6 23  4  0
  7  9  1  0
  7 13  4  0
  7 19  4  0
  9 20  1  0
 10 19  4  0
 11 25  4  0
 13 14  4  0
 15 16  4  0
 15 17  4  0
 15 21  4  0
 16 24  1  0
 16 25  4  0
 20 24  1  0
 20 26  2  0
 21 23  4  0
 22 23  1  0
M  END
$$$$

 Created by Python create_sdf_string function

 26 28  0  0  0  0  0  0  0  0999 V2000
   12.4616    8.6700   19.4180 N   0  0  0  0  0  0  0  0  0  0  0  0
   11.8329   10.8148   18.6769 N   0  0  0  0  0  0  0  0  0  0  0  0
    6.1021    2.5564   21.0678 C   0  0  0  0  0  0  0  0  0  0  0  0
   10.9097   11.8051   18.4804 C   0  0  0  0  0  0  0  0  0  0  0  0
   11.2280   12.9135   17.5669 C   0  0  0  0  0  0  0  0  0  0  0  0
   12.3782    5.4231   20.7777 C   0  0  0  0  0  0  0  0  0  0  0  0
    7.7365    4.6508   21.6987 C   0  0  0  0  0  0  0  0  0  0  0  0
   13.0186   11.0102   18.0020 C   0  0  0  0  0  0  0  0  0  0  0  0
    8.6628    5.7088   21.8871 N   0  0  0  0  0  0  0  0  0  0  0  0
    5.6516    3.5258   21.9140 C   0  0  0  0  0  0  0  0  0  0  0  0
   11.5863    9.6815   19.4539 C   0  0  0  0  0  0  0  0  0  0  0  0
   12.9648    4.1543   20.9205 C   0  0  0  0  0  0  0  0  0  0  0  0
    8.2089    3.6265   20.8929 C   0  0  0  0  0  0  0  0  0  0  0  0
    7.3827    2.5724   20.5432 C   0  0  0  0  0  0  0  0  0  0  0  0
   11.1529    7.2750   20.8025 C   0  0  0  0  0  0  0  0  0  0  0  0
   10.2573    8.3215   20.9827 C   0  0  0  0  0  0  0  0  0  0  0  0
   11.1606    5.9378   21.2366 N   0  0  0  0  0  0  0  0  0  0  0  0
    9.8932   11.6736   19.0677 O   0  0  0  0  0  0  0  0  0  0  0  0
    6.4470    4.5850   22.2321 C   0  0  0  0  0  0  0  0  0  0  0  0
    8.4619    6.9895   22.2968 C   0  0  0  0  0  0  0  0  0  0  0  0
   12.2747    7.5102   20.0420 C   0  0  0  0  0  0  0  0  0  0  0  0
   14.2544    6.2142   19.4191 C   0  0  0  0  0  0  0  0  0  0  0  0
   13.0695    6.3705   20.0375 N   0  0  0  0  0  0  0  0  0  0  0  0
    9.1913    8.0876   21.8361 N   0  0  0  0  0  0  0  0  0  0  0  0
   10.4739    9.4813   20.2889 C   0  0  0  0  0  0  0  0  0  0  0  0
    7.5551    7.1270   23.1200 O   0  0  0  0  0  0  0  0  0  0  0  0
  1 11  4  0
  1 21  4  0
  2  4  1  0
  2  8  1  0
  2 11  1  0
  3 10  4  0
  3 14  4  0
  4  5  1  0
  4 18  2  0
  6 12  1  0
  6 17  4  0
  6 23  4  0
  7  9  1  0
  7 13  4  0
  7 19  4  0
  9 20  1  0
 10 19  4  0
 11 25  4  0
 13 14  4  0
 15 16  4  0
 15 17  4  0
 15 21  4  0
 16 24  1  0
 16 25  4  0
 20 24  1  0
 20 26  2  0
 21 23  4  0
 22 23  1  0
M  END
$$$$

 Created by Python create_sdf_string function

 26 28  0  0  0  0  0  0  0  0999 V2000
   12.4616    8.6700   19.4180 N   0  0  0  0  0  0  0  0  0  0  0  0
   11.8329   10.8148   18.6769 N   0  0  0  0  0  0  0  0  0  0  0  0
    6.1021    2.5564   21.0678 C   0  0  0  0  0  0  0  0  0  0  0  0
   10.9097   11.8051   18.4804 C   0  0  0  0  0  0  0  0  0  0  0  0
   11.2280   12.9135   17.5669 C   0  0  0  0  0  0  0  0  0  0  0  0
   12.3782    5.4231   20.7777 C   0  0  0  0  0  0  0  0  0  0  0  0
    7.7365    4.6508   21.6987 C   0  0  0  0  0  0  0  0  0  0  0  0
   13.0186   11.0102   18.0020 C   0  0  0  0  0  0  0  0  0  0  0  0
    8.6628    5.7088   21.8871 N   0  0  0  0  0  0  0  0  0  0  0  0
    5.6516    3.5258   21.9140 C   0  0  0  0  0  0  0  0  0  0  0  0
   11.5863    9.6815   19.4539 C   0  0  0  0  0  0  0  0  0  0  0  0
   12.9648    4.1543   20.9205 C   0  0  0  0  0  0  0  0  0  0  0  0
    8.2089    3.6265   20.8929 C   0  0  0  0  0  0  0  0  0  0  0  0
    7.3827    2.5724   20.5432 C   0  0  0  0  0  0  0  0  0  0  0  0
   11.1529    7.2750   20.8025 C   0  0  0  0  0  0  0  0  0  0  0  0
   10.2573    8.3215   20.9827 C   0  0  0  0  0  0  0  0  0  0  0  0
   11.1606    5.9378   21.2366 N   0  0  0  0  0  0  0  0  0  0  0  0
    9.8932   11.6736   19.0677 O   0  0  0  0  0  0  0  0  0  0  0  0
    6.4470    4.5850   22.2321 C   0  0  0  0  0  0  0  0  0  0  0  0
    8.4619    6.9895   22.2968 C   0  0  0  0  0  0  0  0  0  0  0  0
   12.2747    7.5102   20.0420 C   0  0  0  0  0  0  0  0  0  0  0  0
   14.2544    6.2142   19.4191 C   0  0  0  0  0  0  0  0  0  0  0  0
   13.0695    6.3705   20.0375 N   0  0  0  0  0  0  0  0  0  0  0  0
    9.1913    8.0876   21.8361 N   0  0  0  0  0  0  0  0  0  0  0  0
   10.4739    9.4813   20.2889 C   0  0  0  0  0  0  0  0  0  0  0  0
    7.5551    7.1270   23.1200 O   0  0  0  0  0  0  0  0  0  0  0  0
  1 11  4  0
  1 21  4  0
  2  4  1  0
  2  8  1  0
  2 11  1  0
  3 10  4  0
  3 14  4  0
  4  5  1  0
  4 18  2  0
  6 12  1  0
  6 17  4  0
  6 23  4  0
  7  9  1  0
  7 13  4  0
  7 19  4  0
  9 20  1  0
 10 19  4  0
 11 25  4  0
 13 14  4  0
 15 16  4  0
 15 17  4  0
 15 21  4  0
 16 24  1  0
 16 25  4  0
 20 24  1  0
 20 26  2  0
 21 23  4  0
 22 23  1  0
M  END
$$$$

 Created by Python create_sdf_string function

 26 28  0  0  0  0  0  0  0  0999 V2000
   12.4616    8.6700   19.4180 N   0  0  0  0  0  0  0  0  0  0  0  0
   11.8329   10.8148   18.6769 N   0  0  0  0  0  0  0  0  0  0  0  0
    6.1021    2.5564   21.0678 C   0  0  0  0  0  0  0  0  0  0  0  0
   10.9097   11.8051   18.4804 C   0  0  0  0  0  0  0  0  0  0  0  0
   11.2280   12.9135   17.5669 C   0  0  0  0  0  0  0  0  0  0  0  0
   12.3782    5.4231   20.7777 C   0  0  0  0  0  0  0  0  0  0  0  0
    7.7365    4.6508   21.6987 C   0  0  0  0  0  0  0  0  0  0  0  0
   13.0186   11.0102   18.0020 C   0  0  0  0  0  0  0  0  0  0  0  0
    8.6628    5.7088   21.8871 N   0  0  0  0  0  0  0  0  0  0  0  0
    5.6516    3.5258   21.9140 C   0  0  0  0  0  0  0  0  0  0  0  0
   11.5863    9.6815   19.4539 C   0  0  0  0  0  0  0  0  0  0  0  0
   12.9648    4.1543   20.9205 C   0  0  0  0  0  0  0  0  0  0  0  0
    8.2089    3.6265   20.8929 C   0  0  0  0  0  0  0  0  0  0  0  0
    7.3827    2.5724   20.5432 C   0  0  0  0  0  0  0  0  0  0  0  0
   11.1529    7.2750   20.8025 C   0  0  0  0  0  0  0  0  0  0  0  0
   10.2573    8.3215   20.9827 C   0  0  0  0  0  0  0  0  0  0  0  0
   11.1606    5.9378   21.2366 N   0  0  0  0  0  0  0  0  0  0  0  0
    9.8932   11.6736   19.0677 O   0  0  0  0  0  0  0  0  0  0  0  0
    6.4470    4.5850   22.2321 C   0  0  0  0  0  0  0  0  0  0  0  0
    8.4619    6.9895   22.2968 C   0  0  0  0  0  0  0  0  0  0  0  0
   12.2747    7.5102   20.0420 C   0  0  0  0  0  0  0  0  0  0  0  0
   14.2544    6.2142   19.4191 C   0  0  0  0  0  0  0  0  0  0  0  0
   13.0695    6.3705   20.0375 N   0  0  0  0  0  0  0  0  0  0  0  0
    9.1913    8.0876   21.8361 N   0  0  0  0  0  0  0  0  0  0  0  0
   10.4739    9.4813   20.2889 C   0  0  0  0  0  0  0  0  0  0  0  0
    7.5551    7.1270   23.1200 O   0  0  0  0  0  0  0  0  0  0  0  0
  1 11  4  0
  1 21  4  0
  2  4  1  0
  2  8  1  0
  2 11  1  0
  3 10  4  0
  3 14  4  0
  4  5  1  0
  4 18  2  0
  6 12  1  0
  6 17  4  0
  6 23  4  0
  7  9  1  0
  7 13  4  0
  7 19  4  0
  9 20  1  0
 10 19  4  0
 11 25  4  0
 13 14  4  0
 15 16  4  0
 15 17  4  0
 15 21  4  0
 16 24  1  0
 16 25  4  0
 20 24  1  0
 20 26  2  0
 21 23  4  0
 22 23  1  0
M  END
$$$$

 Created by Python create_sdf_string function

 26 28  0  0  0  0  0  0  0  0999 V2000
   12.4616    8.6700   19.4180 N   0  0  0  0  0  0  0  0  0  0  0  0
   11.8329   10.8148   18.6769 N   0  0  0  0  0  0  0  0  0  0  0  0
    6.1021    2.5564   21.0678 C   0  0  0  0  0  0  0  0  0  0  0  0
   10.9097   11.8051   18.4804 C   0  0  0  0  0  0  0  0  0  0  0  0
   11.2280   12.9135   17.5669 C   0  0  0  0  0  0  0  0  0  0  0  0
   12.3782    5.4231   20.7777 C   0  0  0  0  0  0  0  0  0  0  0  0
    7.7365    4.6508   21.6987 C   0  0  0  0  0  0  0  0  0  0  0  0
   13.0186   11.0102   18.0020 C   0  0  0  0  0  0  0  0  0  0  0  0
    8.6628    5.7088   21.8871 N   0  0  0  0  0  0  0  0  0  0  0  0
    5.6516    3.5258   21.9140 C   0  0  0  0  0  0  0  0  0  0  0  0
   11.5863    9.6815   19.4539 C   0  0  0  0  0  0  0  0  0  0  0  0
   12.9648    4.1543   20.9205 C   0  0  0  0  0  0  0  0  0  0  0  0
    8.2089    3.6265   20.8929 C   0  0  0  0  0  0  0  0  0  0  0  0
    7.3827    2.5724   20.5432 C   0  0  0  0  0  0  0  0  0  0  0  0
   11.1529    7.2750   20.8025 C   0  0  0  0  0  0  0  0  0  0  0  0
   10.2573    8.3215   20.9827 C   0  0  0  0  0  0  0  0  0  0  0  0
   11.1606    5.9378   21.2366 N   0  0  0  0  0  0  0  0  0  0  0  0
    9.8932   11.6736   19.0677 O   0  0  0  0  0  0  0  0  0  0  0  0
    6.4470    4.5850   22.2321 C   0  0  0  0  0  0  0  0  0  0  0  0
    8.4619    6.9895   22.2968 C   0  0  0  0  0  0  0  0  0  0  0  0
   12.2747    7.5102   20.0420 C   0  0  0  0  0  0  0  0  0  0  0  0
   14.2544    6.2142   19.4191 C   0  0  0  0  0  0  0  0  0  0  0  0
   13.0695    6.3705   20.0375 N   0  0  0  0  0  0  0  0  0  0  0  0
    9.1913    8.0876   21.8361 N   0  0  0  0  0  0  0  0  0  0  0  0
   10.4739    9.4813   20.2889 C   0  0  0  0  0  0  0  0  0  0  0  0
    7.5551    7.1270   23.1200 O   0  0  0  0  0  0  0  0  0  0  0  0
  1 11  4  0
  1 21  4  0
  2  4  1  0
  2  8  1  0
  2 11  1  0
  3 10  4  0
  3 14  4  0
  4  5  1  0
  4 18  2  0
  6 12  1  0
  6 17  4  0
  6 23  4  0
  7  9  1  0
  7 13  4  0
  7 19  4  0
  9 20  1  0
 10 19  4  0
 11 25  4  0
 13 14  4  0
 15 16  4  0
 15 17  4  0
 15 21  4  0
 16 24  1  0
 16 25  4  0
 20 24  1  0
 20 26  2  0
 21 23  4  0
 22 23  1  0
M  END
$$$$

 Created by Python create_sdf_string function

 26 28  0  0  0  0  0  0  0  0999 V2000
   12.4616    8.6700   19.4180 N   0  0  0  0  0  0  0  0  0  0  0  0
   11.8329   10.8148   18.6769 N   0  0  0  0  0  0  0  0  0  0  0  0
    6.1021    2.5564   21.0678 C   0  0  0  0  0  0  0  0  0  0  0  0
   10.9097   11.8051   18.4804 C   0  0  0  0  0  0  0  0  0  0  0  0
   11.2280   12.9135   17.5669 C   0  0  0  0  0  0  0  0  0  0  0  0
   12.3782    5.4231   20.7777 C   0  0  0  0  0  0  0  0  0  0  0  0
    7.7365    4.6508   21.6987 C   0  0  0  0  0  0  0  0  0  0  0  0
   13.0186   11.0102   18.0020 C   0  0  0  0  0  0  0  0  0  0  0  0
    8.6628    5.7088   21.8871 N   0  0  0  0  0  0  0  0  0  0  0  0
    5.6516    3.5258   21.9140 C   0  0  0  0  0  0  0  0  0  0  0  0
   11.5863    9.6815   19.4539 C   0  0  0  0  0  0  0  0  0  0  0  0
   12.9648    4.1543   20.9205 C   0  0  0  0  0  0  0  0  0  0  0  0
    8.2089    3.6265   20.8929 C   0  0  0  0  0  0  0  0  0  0  0  0
    7.3827    2.5724   20.5432 C   0  0  0  0  0  0  0  0  0  0  0  0
   11.1529    7.2750   20.8025 C   0  0  0  0  0  0  0  0  0  0  0  0
   10.2573    8.3215   20.9827 C   0  0  0  0  0  0  0  0  0  0  0  0
   11.1606    5.9378   21.2366 N   0  0  0  0  0  0  0  0  0  0  0  0
    9.8932   11.6736   19.0677 O   0  0  0  0  0  0  0  0  0  0  0  0
    6.4470    4.5850   22.2321 C   0  0  0  0  0  0  0  0  0  0  0  0
    8.4619    6.9895   22.2968 C   0  0  0  0  0  0  0  0  0  0  0  0
   12.2747    7.5102   20.0420 C   0  0  0  0  0  0  0  0  0  0  0  0
   14.2544    6.2142   19.4191 C   0  0  0  0  0  0  0  0  0  0  0  0
   13.0695    6.3705   20.0375 N   0  0  0  0  0  0  0  0  0  0  0  0
    9.1913    8.0876   21.8361 N   0  0  0  0  0  0  0  0  0  0  0  0
   10.4739    9.4813   20.2889 C   0  0  0  0  0  0  0  0  0  0  0  0
    7.5551    7.1270   23.1200 O   0  0  0  0  0  0  0  0  0  0  0  0
  1 11  4  0
  1 21  4  0
  2  4  1  0
  2  8  1  0
  2 11  1  0
  3 10  4  0
  3 14  4  0
  4  5  1  0
  4 18  2  0
  6 12  1  0
  6 17  4  0
  6 23  4  0
  7  9  1  0
  7 13  4  0
  7 19  4  0
  9 20  1  0
 10 19  4  0
 11 25  4  0
 13 14  4  0
 15 16  4  0
 15 17  4  0
 15 21  4  0
 16 24  1  0
 16 25  4  0
 20 24  1  0
 20 26  2  0
 21 23  4  0
 22 23  1  0
M  END
$$$$

 Created by Python create_sdf_string function

 26 28  0  0  0  0  0  0  0  0999 V2000
   12.4616    8.6700   19.4180 N   0  0  0  0  0  0  0  0  0  0  0  0
   11.8329   10.8148   18.6769 N   0  0  0  0  0  0  0  0  0  0  0  0
    6.1021    2.5564   21.0678 C   0  0  0  0  0  0  0  0  0  0  0  0
   10.9097   11.8051   18.4804 C   0  0  0  0  0  0  0  0  0  0  0  0
   11.2280   12.9135   17.5669 C   0  0  0  0  0  0  0  0  0  0  0  0
   12.3782    5.4231   20.7777 C   0  0  0  0  0  0  0  0  0  0  0  0
    7.7365    4.6508   21.6987 C   0  0  0  0  0  0  0  0  0  0  0  0
   13.0186   11.0102   18.0020 C   0  0  0  0  0  0  0  0  0  0  0  0
    8.6628    5.7088   21.8871 N   0  0  0  0  0  0  0  0  0  0  0  0
    5.6516    3.5258   21.9140 C   0  0  0  0  0  0  0  0  0  0  0  0
   11.5863    9.6815   19.4539 C   0  0  0  0  0  0  0  0  0  0  0  0
   12.9648    4.1543   20.9205 C   0  0  0  0  0  0  0  0  0  0  0  0
    8.2089    3.6265   20.8929 C   0  0  0  0  0  0  0  0  0  0  0  0
    7.3827    2.5724   20.5432 C   0  0  0  0  0  0  0  0  0  0  0  0
   11.1529    7.2750   20.8025 C   0  0  0  0  0  0  0  0  0  0  0  0
   10.2573    8.3215   20.9827 C   0  0  0  0  0  0  0  0  0  0  0  0
   11.1606    5.9378   21.2366 N   0  0  0  0  0  0  0  0  0  0  0  0
    9.8932   11.6736   19.0677 O   0  0  0  0  0  0  0  0  0  0  0  0
    6.4470    4.5850   22.2321 C   0  0  0  0  0  0  0  0  0  0  0  0
    8.4619    6.9895   22.2968 C   0  0  0  0  0  0  0  0  0  0  0  0
   12.2747    7.5102   20.0420 C   0  0  0  0  0  0  0  0  0  0  0  0
   14.2544    6.2142   19.4191 C   0  0  0  0  0  0  0  0  0  0  0  0
   13.0695    6.3705   20.0375 N   0  0  0  0  0  0  0  0  0  0  0  0
    9.1913    8.0876   21.8361 N   0  0  0  0  0  0  0  0  0  0  0  0
   10.4739    9.4813   20.2889 C   0  0  0  0  0  0  0  0  0  0  0  0
    7.5551    7.1270   23.1200 O   0  0  0  0  0  0  0  0  0  0  0  0
  1 11  4  0
  1 21  4  0
  2  4  1  0
  2  8  1  0
  2 11  1  0
  3 10  4  0
  3 14  4  0
  4  5  1  0
  4 18  2  0
  6 12  1  0
  6 17  4  0
  6 23  4  0
  7  9  1  0
  7 13  4  0
  7 19  4  0
  9 20  1  0
 10 19  4  0
 11 25  4  0
 13 14  4  0
 15 16  4  0
 15 17  4  0
 15 21  4  0
 16 24  1  0
 16 25  4  0
 20 24  1  0
 20 26  2  0
 21 23  4  0
 22 23  1  0
M  END
$$$$

 Created by Python create_sdf_string function

 26 28  0  0  0  0  0  0  0  0999 V2000
   12.4616    8.6700   19.4180 N   0  0  0  0  0  0  0  0  0  0  0  0
   11.8329   10.8148   18.6769 N   0  0  0  0  0  0  0  0  0  0  0  0
    6.1021    2.5564   21.0678 C   0  0  0  0  0  0  0  0  0  0  0  0
   10.9097   11.8051   18.4804 C   0  0  0  0  0  0  0  0  0  0  0  0
   11.2280   12.9135   17.5669 C   0  0  0  0  0  0  0  0  0  0  0  0
   12.3782    5.4231   20.7777 C   0  0  0  0  0  0  0  0  0  0  0  0
    7.7365    4.6508   21.6987 C   0  0  0  0  0  0  0  0  0  0  0  0
   13.0186   11.0102   18.0020 C   0  0  0  0  0  0  0  0  0  0  0  0
    8.6628    5.7088   21.8871 N   0  0  0  0  0  0  0  0  0  0  0  0
    5.6516    3.5258   21.9140 C   0  0  0  0  0  0  0  0  0  0  0  0
   11.5863    9.6815   19.4539 C   0  0  0  0  0  0  0  0  0  0  0  0
   12.9648    4.1543   20.9205 C   0  0  0  0  0  0  0  0  0  0  0  0
    8.2089    3.6265   20.8929 C   0  0  0  0  0  0  0  0  0  0  0  0
    7.3827    2.5724   20.5432 C   0  0  0  0  0  0  0  0  0  0  0  0
   11.1529    7.2750   20.8025 C   0  0  0  0  0  0  0  0  0  0  0  0
   10.2573    8.3215   20.9827 C   0  0  0  0  0  0  0  0  0  0  0  0
   11.1606    5.9378   21.2366 N   0  0  0  0  0  0  0  0  0  0  0  0
    9.8932   11.6736   19.0677 O   0  0  0  0  0  0  0  0  0  0  0  0
    6.4470    4.5850   22.2321 C   0  0  0  0  0  0  0  0  0  0  0  0
    8.4619    6.9895   22.2968 C   0  0  0  0  0  0  0  0  0  0  0  0
   12.2747    7.5102   20.0420 C   0  0  0  0  0  0  0  0  0  0  0  0
   14.2544    6.2142   19.4191 C   0  0  0  0  0  0  0  0  0  0  0  0
   13.0695    6.3705   20.0375 N   0  0  0  0  0  0  0  0  0  0  0  0
    9.1913    8.0876   21.8361 N   0  0  0  0  0  0  0  0  0  0  0  0
   10.4739    9.4813   20.2889 C   0  0  0  0  0  0  0  0  0  0  0  0
    7.5551    7.1270   23.1200 O   0  0  0  0  0  0  0  0  0  0  0  0
  1 11  4  0
  1 21  4  0
  2  4  1  0
  2  8  1  0
  2 11  1  0
  3 10  4  0
  3 14  4  0
  4  5  1  0
  4 18  2  0
  6 12  1  0
  6 17  4  0
  6 23  4  0
  7  9  1  0
  7 13  4  0
  7 19  4  0
  9 20  1  0
 10 19  4  0
 11 25  4  0
 13 14  4  0
 15 16  4  0
 15 17  4  0
 15 21  4  0
 16 24  1  0
 16 25  4  0
 20 24  1  0
 20 26  2  0
 21 23  4  0
 22 23  1  0
M  END
$$$$

 Created by Python create_sdf_string function

 26 28  0  0  0  0  0  0  0  0999 V2000
   12.4616    8.6700   19.4180 N   0  0  0  0  0  0  0  0  0  0  0  0
   11.8329   10.8148   18.6769 N   0  0  0  0  0  0  0  0  0  0  0  0
    6.1021    2.5564   21.0678 C   0  0  0  0  0  0  0  0  0  0  0  0
   10.9097   11.8051   18.4804 C   0  0  0  0  0  0  0  0  0  0  0  0
   11.2280   12.9135   17.5669 C   0  0  0  0  0  0  0  0  0  0  0  0
   12.3782    5.4231   20.7777 C   0  0  0  0  0  0  0  0  0  0  0  0
    7.7365    4.6508   21.6987 C   0  0  0  0  0  0  0  0  0  0  0  0
   13.0186   11.0102   18.0020 C   0  0  0  0  0  0  0  0  0  0  0  0
    8.6628    5.7088   21.8871 N   0  0  0  0  0  0  0  0  0  0  0  0
    5.6516    3.5258   21.9140 C   0  0  0  0  0  0  0  0  0  0  0  0
   11.5863    9.6815   19.4539 C   0  0  0  0  0  0  0  0  0  0  0  0
   12.9648    4.1543   20.9205 C   0  0  0  0  0  0  0  0  0  0  0  0
    8.2089    3.6265   20.8929 C   0  0  0  0  0  0  0  0  0  0  0  0
    7.3827    2.5724   20.5432 C   0  0  0  0  0  0  0  0  0  0  0  0
   11.1529    7.2750   20.8025 C   0  0  0  0  0  0  0  0  0  0  0  0
   10.2573    8.3215   20.9827 C   0  0  0  0  0  0  0  0  0  0  0  0
   11.1606    5.9378   21.2366 N   0  0  0  0  0  0  0  0  0  0  0  0
    9.8932   11.6736   19.0677 O   0  0  0  0  0  0  0  0  0  0  0  0
    6.4470    4.5850   22.2321 C   0  0  0  0  0  0  0  0  0  0  0  0
    8.4619    6.9895   22.2968 C   0  0  0  0  0  0  0  0  0  0  0  0
   12.2747    7.5102   20.0420 C   0  0  0  0  0  0  0  0  0  0  0  0
   14.2544    6.2142   19.4191 C   0  0  0  0  0  0  0  0  0  0  0  0
   13.0695    6.3705   20.0375 N   0  0  0  0  0  0  0  0  0  0  0  0
    9.1913    8.0876   21.8361 N   0  0  0  0  0  0  0  0  0  0  0  0
   10.4739    9.4813   20.2889 C   0  0  0  0  0  0  0  0  0  0  0  0
    7.5551    7.1270   23.1200 O   0  0  0  0  0  0  0  0  0  0  0  0
  1 11  4  0
  1 21  4  0
  2  4  1  0
  2  8  1  0
  2 11  1  0
  3 10  4  0
  3 14  4  0
  4  5  1  0
  4 18  2  0
  6 12  1  0
  6 17  4  0
  6 23  4  0
  7  9  1  0
  7 13  4  0
  7 19  4  0
  9 20  1  0
 10 19  4  0
 11 25  4  0
 13 14  4  0
 15 16  4  0
 15 17  4  0
 15 21  4  0
 16 24  1  0
 16 25  4  0
 20 24  1  0
 20 26  2  0
 21 23  4  0
 22 23  1  0
M  END
$$$$

 Created by Python create_sdf_string function

 26 28  0  0  0  0  0  0  0  0999 V2000
   12.4616    8.6700   19.4180 N   0  0  0  0  0  0  0  0  0  0  0  0
   11.8329   10.8148   18.6769 N   0  0  0  0  0  0  0  0  0  0  0  0
    6.1021    2.5564   21.0678 C   0  0  0  0  0  0  0  0  0  0  0  0
   10.9097   11.8051   18.4804 C   0  0  0  0  0  0  0  0  0  0  0  0
   11.2280   12.9135   17.5669 C   0  0  0  0  0  0  0  0  0  0  0  0
   12.3782    5.4231   20.7777 C   0  0  0  0  0  0  0  0  0  0  0  0
    7.7365    4.6508   21.6987 C   0  0  0  0  0  0  0  0  0  0  0  0
   13.0186   11.0102   18.0020 C   0  0  0  0  0  0  0  0  0  0  0  0
    8.6628    5.7088   21.8871 N   0  0  0  0  0  0  0  0  0  0  0  0
    5.6516    3.5258   21.9140 C   0  0  0  0  0  0  0  0  0  0  0  0
   11.5863    9.6815   19.4539 C   0  0  0  0  0  0  0  0  0  0  0  0
   12.9648    4.1543   20.9205 C   0  0  0  0  0  0  0  0  0  0  0  0
    8.2089    3.6265   20.8929 C   0  0  0  0  0  0  0  0  0  0  0  0
    7.3827    2.5724   20.5432 C   0  0  0  0  0  0  0  0  0  0  0  0
   11.1529    7.2750   20.8025 C   0  0  0  0  0  0  0  0  0  0  0  0
   10.2573    8.3215   20.9827 C   0  0  0  0  0  0  0  0  0  0  0  0
   11.1606    5.9378   21.2366 N   0  0  0  0  0  0  0  0  0  0  0  0
    9.8932   11.6736   19.0677 O   0  0  0  0  0  0  0  0  0  0  0  0
    6.4470    4.5850   22.2321 C   0  0  0  0  0  0  0  0  0  0  0  0
    8.4619    6.9895   22.2968 C   0  0  0  0  0  0  0  0  0  0  0  0
   12.2747    7.5102   20.0420 C   0  0  0  0  0  0  0  0  0  0  0  0
   14.2544    6.2142   19.4191 C   0  0  0  0  0  0  0  0  0  0  0  0
   13.0695    6.3705   20.0375 N   0  0  0  0  0  0  0  0  0  0  0  0
    9.1913    8.0876   21.8361 N   0  0  0  0  0  0  0  0  0  0  0  0
   10.4739    9.4813   20.2889 C   0  0  0  0  0  0  0  0  0  0  0  0
    7.5551    7.1270   23.1200 O   0  0  0  0  0  0  0  0  0  0  0  0
  1 11  4  0
  1 21  4  0
  2  4  1  0
  2  8  1  0
  2 11  1  0
  3 10  4  0
  3 14  4  0
  4  5  1  0
  4 18  2  0
  6 12  1  0
  6 17  4  0
  6 23  4  0
  7  9  1  0
  7 13  4  0
  7 19  4  0
  9 20  1  0
 10 19  4  0
 11 25  4  0
 13 14  4  0
 15 16  4  0
 15 17  4  0
 15 21  4  0
 16 24  1  0
 16 25  4  0
 20 24  1  0
 20 26  2  0
 21 23  4  0
 22 23  1  0
M  END
$$$$

 Created by Python create_sdf_string function

 26 28  0  0  0  0  0  0  0  0999 V2000
   12.4616    8.6700   19.4180 N   0  0  0  0  0  0  0  0  0  0  0  0
   11.8329   10.8148   18.6769 N   0  0  0  0  0  0  0  0  0  0  0  0
    6.1021    2.5564   21.0678 C   0  0  0  0  0  0  0  0  0  0  0  0
   10.9097   11.8051   18.4804 C   0  0  0  0  0  0  0  0  0  0  0  0
   11.2280   12.9135   17.5669 C   0  0  0  0  0  0  0  0  0  0  0  0
   12.3782    5.4231   20.7777 C   0  0  0  0  0  0  0  0  0  0  0  0
    7.7365    4.6508   21.6987 C   0  0  0  0  0  0  0  0  0  0  0  0
   13.0186   11.0102   18.0020 C   0  0  0  0  0  0  0  0  0  0  0  0
    8.6628    5.7088   21.8871 N   0  0  0  0  0  0  0  0  0  0  0  0
    5.6516    3.5258   21.9140 C   0  0  0  0  0  0  0  0  0  0  0  0
   11.5863    9.6815   19.4539 C   0  0  0  0  0  0  0  0  0  0  0  0
   12.9648    4.1543   20.9205 C   0  0  0  0  0  0  0  0  0  0  0  0
    8.2089    3.6265   20.8929 C   0  0  0  0  0  0  0  0  0  0  0  0
    7.3827    2.5724   20.5432 C   0  0  0  0  0  0  0  0  0  0  0  0
   11.1529    7.2750   20.8025 C   0  0  0  0  0  0  0  0  0  0  0  0
   10.2573    8.3215   20.9827 C   0  0  0  0  0  0  0  0  0  0  0  0
   11.1606    5.9378   21.2366 N   0  0  0  0  0  0  0  0  0  0  0  0
    9.8932   11.6736   19.0677 O   0  0  0  0  0  0  0  0  0  0  0  0
    6.4470    4.5850   22.2321 C   0  0  0  0  0  0  0  0  0  0  0  0
    8.4619    6.9895   22.2968 C   0  0  0  0  0  0  0  0  0  0  0  0
   12.2747    7.5102   20.0420 C   0  0  0  0  0  0  0  0  0  0  0  0
   14.2544    6.2142   19.4191 C   0  0  0  0  0  0  0  0  0  0  0  0
   13.0695    6.3705   20.0375 N   0  0  0  0  0  0  0  0  0  0  0  0
    9.1913    8.0876   21.8361 N   0  0  0  0  0  0  0  0  0  0  0  0
   10.4739    9.4813   20.2889 C   0  0  0  0  0  0  0  0  0  0  0  0
    7.5551    7.1270   23.1200 O   0  0  0  0  0  0  0  0  0  0  0  0
  1 11  4  0
  1 21  4  0
  2  4  1  0
  2  8  1  0
  2 11  1  0
  3 10  4  0
  3 14  4  0
  4  5  1  0
  4 18  2  0
  6 12  1  0
  6 17  4  0
  6 23  4  0
  7  9  1  0
  7 13  4  0
  7 19  4  0
  9 20  1  0
 10 19  4  0
 11 25  4  0
 13 14  4  0
 15 16  4  0
 15 17  4  0
 15 21  4  0
 16 24  1  0
 16 25  4  0
 20 24  1  0
 20 26  2  0
 21 23  4  0
 22 23  1  0
M  END
$$$$

 Created by Python create_sdf_string function

 26 28  0  0  0  0  0  0  0  0999 V2000
   12.4616    8.6700   19.4180 N   0  0  0  0  0  0  0  0  0  0  0  0
   11.8329   10.8148   18.6769 N   0  0  0  0  0  0  0  0  0  0  0  0
    6.1021    2.5564   21.0678 C   0  0  0  0  0  0  0  0  0  0  0  0
   10.9097   11.8051   18.4804 C   0  0  0  0  0  0  0  0  0  0  0  0
   11.2280   12.9135   17.5669 C   0  0  0  0  0  0  0  0  0  0  0  0
   12.3782    5.4231   20.7777 C   0  0  0  0  0  0  0  0  0  0  0  0
    7.7365    4.6508   21.6987 C   0  0  0  0  0  0  0  0  0  0  0  0
   13.0186   11.0102   18.0020 C   0  0  0  0  0  0  0  0  0  0  0  0
    8.6628    5.7088   21.8871 N   0  0  0  0  0  0  0  0  0  0  0  0
    5.6516    3.5258   21.9140 C   0  0  0  0  0  0  0  0  0  0  0  0
   11.5863    9.6815   19.4539 C   0  0  0  0  0  0  0  0  0  0  0  0
   12.9648    4.1543   20.9205 C   0  0  0  0  0  0  0  0  0  0  0  0
    8.2089    3.6265   20.8929 C   0  0  0  0  0  0  0  0  0  0  0  0
    7.3827    2.5724   20.5432 C   0  0  0  0  0  0  0  0  0  0  0  0
   11.1529    7.2750   20.8025 C   0  0  0  0  0  0  0  0  0  0  0  0
   10.2573    8.3215   20.9827 C   0  0  0  0  0  0  0  0  0  0  0  0
   11.1606    5.9378   21.2366 N   0  0  0  0  0  0  0  0  0  0  0  0
    9.8932   11.6736   19.0677 O   0  0  0  0  0  0  0  0  0  0  0  0
    6.4470    4.5850   22.2321 C   0  0  0  0  0  0  0  0  0  0  0  0
    8.4619    6.9895   22.2968 C   0  0  0  0  0  0  0  0  0  0  0  0
   12.2747    7.5102   20.0420 C   0  0  0  0  0  0  0  0  0  0  0  0
   14.2544    6.2142   19.4191 C   0  0  0  0  0  0  0  0  0  0  0  0
   13.0695    6.3705   20.0375 N   0  0  0  0  0  0  0  0  0  0  0  0
    9.1913    8.0876   21.8361 N   0  0  0  0  0  0  0  0  0  0  0  0
   10.4739    9.4813   20.2889 C   0  0  0  0  0  0  0  0  0  0  0  0
    7.5551    7.1270   23.1200 O   0  0  0  0  0  0  0  0  0  0  0  0
  1 11  4  0
  1 21  4  0
  2  4  1  0
  2  8  1  0
  2 11  1  0
  3 10  4  0
  3 14  4  0
  4  5  1  0
  4 18  2  0
  6 12  1  0
  6 17  4  0
  6 23  4  0
  7  9  1  0
  7 13  4  0
  7 19  4  0
  9 20  1  0
 10 19  4  0
 11 25  4  0
 13 14  4  0
 15 16  4  0
 15 17  4  0
 15 21  4  0
 16 24  1  0
 16 25  4  0
 20 24  1  0
 20 26  2  0
 21 23  4  0
 22 23  1  0
M  END
$$$$

 Created by Python create_sdf_string function

 26 28  0  0  0  0  0  0  0  0999 V2000
   12.4616    8.6700   19.4180 N   0  0  0  0  0  0  0  0  0  0  0  0
   11.8329   10.8148   18.6769 N   0  0  0  0  0  0  0  0  0  0  0  0
    6.1021    2.5564   21.0678 C   0  0  0  0  0  0  0  0  0  0  0  0
   10.9097   11.8051   18.4804 C   0  0  0  0  0  0  0  0  0  0  0  0
   11.2280   12.9135   17.5669 C   0  0  0  0  0  0  0  0  0  0  0  0
   12.3782    5.4231   20.7777 C   0  0  0  0  0  0  0  0  0  0  0  0
    7.7365    4.6508   21.6987 C   0  0  0  0  0  0  0  0  0  0  0  0
   13.0186   11.0102   18.0020 C   0  0  0  0  0  0  0  0  0  0  0  0
    8.6628    5.7088   21.8871 N   0  0  0  0  0  0  0  0  0  0  0  0
    5.6516    3.5258   21.9140 C   0  0  0  0  0  0  0  0  0  0  0  0
   11.5863    9.6815   19.4539 C   0  0  0  0  0  0  0  0  0  0  0  0
   12.9648    4.1543   20.9205 C   0  0  0  0  0  0  0  0  0  0  0  0
    8.2089    3.6265   20.8929 C   0  0  0  0  0  0  0  0  0  0  0  0
    7.3827    2.5724   20.5432 C   0  0  0  0  0  0  0  0  0  0  0  0
   11.1529    7.2750   20.8025 C   0  0  0  0  0  0  0  0  0  0  0  0
   10.2573    8.3215   20.9827 C   0  0  0  0  0  0  0  0  0  0  0  0
   11.1606    5.9378   21.2366 N   0  0  0  0  0  0  0  0  0  0  0  0
    9.8932   11.6736   19.0677 O   0  0  0  0  0  0  0  0  0  0  0  0
    6.4470    4.5850   22.2321 C   0  0  0  0  0  0  0  0  0  0  0  0
    8.4619    6.9895   22.2968 C   0  0  0  0  0  0  0  0  0  0  0  0
   12.2747    7.5102   20.0420 C   0  0  0  0  0  0  0  0  0  0  0  0
   14.2544    6.2142   19.4191 C   0  0  0  0  0  0  0  0  0  0  0  0
   13.0695    6.3705   20.0375 N   0  0  0  0  0  0  0  0  0  0  0  0
    9.1913    8.0876   21.8361 N   0  0  0  0  0  0  0  0  0  0  0  0
   10.4739    9.4813   20.2889 C   0  0  0  0  0  0  0  0  0  0  0  0
    7.5551    7.1270   23.1200 O   0  0  0  0  0  0  0  0  0  0  0  0
  1 11  4  0
  1 21  4  0
  2  4  1  0
  2  8  1  0
  2 11  1  0
  3 10  4  0
  3 14  4  0
  4  5  1  0
  4 18  2  0
  6 12  1  0
  6 17  4  0
  6 23  4  0
  7  9  1  0
  7 13  4  0
  7 19  4  0
  9 20  1  0
 10 19  4  0
 11 25  4  0
 13 14  4  0
 15 16  4  0
 15 17  4  0
 15 21  4  0
 16 24  1  0
 16 25  4  0
 20 24  1  0
 20 26  2  0
 21 23  4  0
 22 23  1  0
M  END
$$$$

 Created by Python create_sdf_string function

 26 28  0  0  0  0  0  0  0  0999 V2000
   12.4616    8.6700   19.4180 N   0  0  0  0  0  0  0  0  0  0  0  0
   11.8329   10.8148   18.6769 N   0  0  0  0  0  0  0  0  0  0  0  0
    6.1021    2.5564   21.0678 C   0  0  0  0  0  0  0  0  0  0  0  0
   10.9097   11.8051   18.4804 C   0  0  0  0  0  0  0  0  0  0  0  0
   11.2280   12.9135   17.5669 C   0  0  0  0  0  0  0  0  0  0  0  0
   12.3782    5.4231   20.7777 C   0  0  0  0  0  0  0  0  0  0  0  0
    7.7365    4.6508   21.6987 C   0  0  0  0  0  0  0  0  0  0  0  0
   13.0186   11.0102   18.0020 C   0  0  0  0  0  0  0  0  0  0  0  0
    8.6628    5.7088   21.8871 N   0  0  0  0  0  0  0  0  0  0  0  0
    5.6516    3.5258   21.9140 C   0  0  0  0  0  0  0  0  0  0  0  0
   11.5863    9.6815   19.4539 C   0  0  0  0  0  0  0  0  0  0  0  0
   12.9648    4.1543   20.9205 C   0  0  0  0  0  0  0  0  0  0  0  0
    8.2089    3.6265   20.8929 C   0  0  0  0  0  0  0  0  0  0  0  0
    7.3827    2.5724   20.5432 C   0  0  0  0  0  0  0  0  0  0  0  0
   11.1529    7.2750   20.8025 C   0  0  0  0  0  0  0  0  0  0  0  0
   10.2573    8.3215   20.9827 C   0  0  0  0  0  0  0  0  0  0  0  0
   11.1606    5.9378   21.2366 N   0  0  0  0  0  0  0  0  0  0  0  0
    9.8932   11.6736   19.0677 O   0  0  0  0  0  0  0  0  0  0  0  0
    6.4470    4.5850   22.2321 C   0  0  0  0  0  0  0  0  0  0  0  0
    8.4619    6.9895   22.2968 C   0  0  0  0  0  0  0  0  0  0  0  0
   12.2747    7.5102   20.0420 C   0  0  0  0  0  0  0  0  0  0  0  0
   14.2544    6.2142   19.4191 C   0  0  0  0  0  0  0  0  0  0  0  0
   13.0695    6.3705   20.0375 N   0  0  0  0  0  0  0  0  0  0  0  0
    9.1913    8.0876   21.8361 N   0  0  0  0  0  0  0  0  0  0  0  0
   10.4739    9.4813   20.2889 C   0  0  0  0  0  0  0  0  0  0  0  0
    7.5551    7.1270   23.1200 O   0  0  0  0  0  0  0  0  0  0  0  0
  1 11  4  0
  1 21  4  0
  2  4  1  0
  2  8  1  0
  2 11  1  0
  3 10  4  0
  3 14  4  0
  4  5  1  0
  4 18  2  0
  6 12  1  0
  6 17  4  0
  6 23  4  0
  7  9  1  0
  7 13  4  0
  7 19  4  0
  9 20  1  0
 10 19  4  0
 11 25  4  0
 13 14  4  0
 15 16  4  0
 15 17  4  0
 15 21  4  0
 16 24  1  0
 16 25  4  0
 20 24  1  0
 20 26  2  0
 21 23  4  0
 22 23  1  0
M  END
$$$$

 Created by Python create_sdf_string function

 26 28  0  0  0  0  0  0  0  0999 V2000
   12.4616    8.6700   19.4180 N   0  0  0  0  0  0  0  0  0  0  0  0
   11.8329   10.8148   18.6769 N   0  0  0  0  0  0  0  0  0  0  0  0
    6.1021    2.5564   21.0678 C   0  0  0  0  0  0  0  0  0  0  0  0
   10.9097   11.8051   18.4804 C   0  0  0  0  0  0  0  0  0  0  0  0
   11.2280   12.9135   17.5669 C   0  0  0  0  0  0  0  0  0  0  0  0
   12.3782    5.4231   20.7777 C   0  0  0  0  0  0  0  0  0  0  0  0
    7.7365    4.6508   21.6987 C   0  0  0  0  0  0  0  0  0  0  0  0
   13.0186   11.0102   18.0020 C   0  0  0  0  0  0  0  0  0  0  0  0
    8.6628    5.7088   21.8871 N   0  0  0  0  0  0  0  0  0  0  0  0
    5.6516    3.5258   21.9140 C   0  0  0  0  0  0  0  0  0  0  0  0
   11.5863    9.6815   19.4539 C   0  0  0  0  0  0  0  0  0  0  0  0
   12.9648    4.1543   20.9205 C   0  0  0  0  0  0  0  0  0  0  0  0
    8.2089    3.6265   20.8929 C   0  0  0  0  0  0  0  0  0  0  0  0
    7.3827    2.5724   20.5432 C   0  0  0  0  0  0  0  0  0  0  0  0
   11.1529    7.2750   20.8025 C   0  0  0  0  0  0  0  0  0  0  0  0
   10.2573    8.3215   20.9827 C   0  0  0  0  0  0  0  0  0  0  0  0
   11.1606    5.9378   21.2366 N   0  0  0  0  0  0  0  0  0  0  0  0
    9.8932   11.6736   19.0677 O   0  0  0  0  0  0  0  0  0  0  0  0
    6.4470    4.5850   22.2321 C   0  0  0  0  0  0  0  0  0  0  0  0
    8.4619    6.9895   22.2968 C   0  0  0  0  0  0  0  0  0  0  0  0
   12.2747    7.5102   20.0420 C   0  0  0  0  0  0  0  0  0  0  0  0
   14.2544    6.2142   19.4191 C   0  0  0  0  0  0  0  0  0  0  0  0
   13.0695    6.3705   20.0375 N   0  0  0  0  0  0  0  0  0  0  0  0
    9.1913    8.0876   21.8361 N   0  0  0  0  0  0  0  0  0  0  0  0
   10.4739    9.4813   20.2889 C   0  0  0  0  0  0  0  0  0  0  0  0
    7.5551    7.1270   23.1200 O   0  0  0  0  0  0  0  0  0  0  0  0
  1 11  4  0
  1 21  4  0
  2  4  1  0
  2  8  1  0
  2 11  1  0
  3 10  4  0
  3 14  4  0
  4  5  1  0
  4 18  2  0
  6 12  1  0
  6 17  4  0
  6 23  4  0
  7  9  1  0
  7 13  4  0
  7 19  4  0
  9 20  1  0
 10 19  4  0
 11 25  4  0
 13 14  4  0
 15 16  4  0
 15 17  4  0
 15 21  4  0
 16 24  1  0
 16 25  4  0
 20 24  1  0
 20 26  2  0
 21 23  4  0
 22 23  1  0
M  END
$$$$

 Created by Python create_sdf_string function

 26 28  0  0  0  0  0  0  0  0999 V2000
   12.4616    8.6700   19.4180 N   0  0  0  0  0  0  0  0  0  0  0  0
   11.8329   10.8148   18.6769 N   0  0  0  0  0  0  0  0  0  0  0  0
    6.1021    2.5564   21.0678 C   0  0  0  0  0  0  0  0  0  0  0  0
   10.9097   11.8051   18.4804 C   0  0  0  0  0  0  0  0  0  0  0  0
   11.2280   12.9135   17.5669 C   0  0  0  0  0  0  0  0  0  0  0  0
   12.3782    5.4231   20.7777 C   0  0  0  0  0  0  0  0  0  0  0  0
    7.7365    4.6508   21.6987 C   0  0  0  0  0  0  0  0  0  0  0  0
   13.0186   11.0102   18.0020 C   0  0  0  0  0  0  0  0  0  0  0  0
    8.6628    5.7088   21.8871 N   0  0  0  0  0  0  0  0  0  0  0  0
    5.6516    3.5258   21.9140 C   0  0  0  0  0  0  0  0  0  0  0  0
   11.5863    9.6815   19.4539 C   0  0  0  0  0  0  0  0  0  0  0  0
   12.9648    4.1543   20.9205 C   0  0  0  0  0  0  0  0  0  0  0  0
    8.2089    3.6265   20.8929 C   0  0  0  0  0  0  0  0  0  0  0  0
    7.3827    2.5724   20.5432 C   0  0  0  0  0  0  0  0  0  0  0  0
   11.1529    7.2750   20.8025 C   0  0  0  0  0  0  0  0  0  0  0  0
   10.2573    8.3215   20.9827 C   0  0  0  0  0  0  0  0  0  0  0  0
   11.1606    5.9378   21.2366 N   0  0  0  0  0  0  0  0  0  0  0  0
    9.8932   11.6736   19.0677 O   0  0  0  0  0  0  0  0  0  0  0  0
    6.4470    4.5850   22.2321 C   0  0  0  0  0  0  0  0  0  0  0  0
    8.4619    6.9895   22.2968 C   0  0  0  0  0  0  0  0  0  0  0  0
   12.2747    7.5102   20.0420 C   0  0  0  0  0  0  0  0  0  0  0  0
   14.2544    6.2142   19.4191 C   0  0  0  0  0  0  0  0  0  0  0  0
   13.0695    6.3705   20.0375 N   0  0  0  0  0  0  0  0  0  0  0  0
    9.1913    8.0876   21.8361 N   0  0  0  0  0  0  0  0  0  0  0  0
   10.4739    9.4813   20.2889 C   0  0  0  0  0  0  0  0  0  0  0  0
    7.5551    7.1270   23.1200 O   0  0  0  0  0  0  0  0  0  0  0  0
  1 11  4  0
  1 21  4  0
  2  4  1  0
  2  8  1  0
  2 11  1  0
  3 10  4  0
  3 14  4  0
  4  5  1  0
  4 18  2  0
  6 12  1  0
  6 17  4  0
  6 23  4  0
  7  9  1  0
  7 13  4  0
  7 19  4  0
  9 20  1  0
 10 19  4  0
 11 25  4  0
 13 14  4  0
 15 16  4  0
 15 17  4  0
 15 21  4  0
 16 24  1  0
 16 25  4  0
 20 24  1  0
 20 26  2  0
 21 23  4  0
 22 23  1  0
M  END
$$$$

 Created by Python create_sdf_string function

 26 28  0  0  0  0  0  0  0  0999 V2000
   12.4616    8.6700   19.4180 N   0  0  0  0  0  0  0  0  0  0  0  0
   11.8329   10.8148   18.6769 N   0  0  0  0  0  0  0  0  0  0  0  0
    6.1021    2.5564   21.0678 C   0  0  0  0  0  0  0  0  0  0  0  0
   10.9097   11.8051   18.4804 C   0  0  0  0  0  0  0  0  0  0  0  0
   11.2280   12.9135   17.5669 C   0  0  0  0  0  0  0  0  0  0  0  0
   12.3782    5.4231   20.7777 C   0  0  0  0  0  0  0  0  0  0  0  0
    7.7365    4.6508   21.6987 C   0  0  0  0  0  0  0  0  0  0  0  0
   13.0186   11.0102   18.0020 C   0  0  0  0  0  0  0  0  0  0  0  0
    8.6628    5.7088   21.8871 N   0  0  0  0  0  0  0  0  0  0  0  0
    5.6516    3.5258   21.9140 C   0  0  0  0  0  0  0  0  0  0  0  0
   11.5863    9.6815   19.4539 C   0  0  0  0  0  0  0  0  0  0  0  0
   12.9648    4.1543   20.9205 C   0  0  0  0  0  0  0  0  0  0  0  0
    8.2089    3.6265   20.8929 C   0  0  0  0  0  0  0  0  0  0  0  0
    7.3827    2.5724   20.5432 C   0  0  0  0  0  0  0  0  0  0  0  0
   11.1529    7.2750   20.8025 C   0  0  0  0  0  0  0  0  0  0  0  0
   10.2573    8.3215   20.9827 C   0  0  0  0  0  0  0  0  0  0  0  0
   11.1606    5.9378   21.2366 N   0  0  0  0  0  0  0  0  0  0  0  0
    9.8932   11.6736   19.0677 O   0  0  0  0  0  0  0  0  0  0  0  0
    6.4470    4.5850   22.2321 C   0  0  0  0  0  0  0  0  0  0  0  0
    8.4619    6.9895   22.2968 C   0  0  0  0  0  0  0  0  0  0  0  0
   12.2747    7.5102   20.0420 C   0  0  0  0  0  0  0  0  0  0  0  0
   14.2544    6.2142   19.4191 C   0  0  0  0  0  0  0  0  0  0  0  0
   13.0695    6.3705   20.0375 N   0  0  0  0  0  0  0  0  0  0  0  0
    9.1913    8.0876   21.8361 N   0  0  0  0  0  0  0  0  0  0  0  0
   10.4739    9.4813   20.2889 C   0  0  0  0  0  0  0  0  0  0  0  0
    7.5551    7.1270   23.1200 O   0  0  0  0  0  0  0  0  0  0  0  0
  1 11  4  0
  1 21  4  0
  2  4  1  0
  2  8  1  0
  2 11  1  0
  3 10  4  0
  3 14  4  0
  4  5  1  0
  4 18  2  0
  6 12  1  0
  6 17  4  0
  6 23  4  0
  7  9  1  0
  7 13  4  0
  7 19  4  0
  9 20  1  0
 10 19  4  0
 11 25  4  0
 13 14  4  0
 15 16  4  0
 15 17  4  0
 15 21  4  0
 16 24  1  0
 16 25  4  0
 20 24  1  0
 20 26  2  0
 21 23  4  0
 22 23  1  0
M  END
$$$$

 Created by Python create_sdf_string function

 26 28  0  0  0  0  0  0  0  0999 V2000
   12.4616    8.6700   19.4180 N   0  0  0  0  0  0  0  0  0  0  0  0
   11.8329   10.8148   18.6769 N   0  0  0  0  0  0  0  0  0  0  0  0
    6.1021    2.5564   21.0678 C   0  0  0  0  0  0  0  0  0  0  0  0
   10.9097   11.8051   18.4804 C   0  0  0  0  0  0  0  0  0  0  0  0
   11.2280   12.9135   17.5669 C   0  0  0  0  0  0  0  0  0  0  0  0
   12.3782    5.4231   20.7777 C   0  0  0  0  0  0  0  0  0  0  0  0
    7.7365    4.6508   21.6987 C   0  0  0  0  0  0  0  0  0  0  0  0
   13.0186   11.0102   18.0020 C   0  0  0  0  0  0  0  0  0  0  0  0
    8.6628    5.7088   21.8871 N   0  0  0  0  0  0  0  0  0  0  0  0
    5.6516    3.5258   21.9140 C   0  0  0  0  0  0  0  0  0  0  0  0
   11.5863    9.6815   19.4539 C   0  0  0  0  0  0  0  0  0  0  0  0
   12.9648    4.1543   20.9205 C   0  0  0  0  0  0  0  0  0  0  0  0
    8.2089    3.6265   20.8929 C   0  0  0  0  0  0  0  0  0  0  0  0
    7.3827    2.5724   20.5432 C   0  0  0  0  0  0  0  0  0  0  0  0
   11.1529    7.2750   20.8025 C   0  0  0  0  0  0  0  0  0  0  0  0
   10.2573    8.3215   20.9827 C   0  0  0  0  0  0  0  0  0  0  0  0
   11.1606    5.9378   21.2366 N   0  0  0  0  0  0  0  0  0  0  0  0
    9.8932   11.6736   19.0677 O   0  0  0  0  0  0  0  0  0  0  0  0
    6.4470    4.5850   22.2321 C   0  0  0  0  0  0  0  0  0  0  0  0
    8.4619    6.9895   22.2968 C   0  0  0  0  0  0  0  0  0  0  0  0
   12.2747    7.5102   20.0420 C   0  0  0  0  0  0  0  0  0  0  0  0
   14.2544    6.2142   19.4191 C   0  0  0  0  0  0  0  0  0  0  0  0
   13.0695    6.3705   20.0375 N   0  0  0  0  0  0  0  0  0  0  0  0
    9.1913    8.0876   21.8361 N   0  0  0  0  0  0  0  0  0  0  0  0
   10.4739    9.4813   20.2889 C   0  0  0  0  0  0  0  0  0  0  0  0
    7.5551    7.1270   23.1200 O   0  0  0  0  0  0  0  0  0  0  0  0
  1 11  4  0
  1 21  4  0
  2  4  1  0
  2  8  1  0
  2 11  1  0
  3 10  4  0
  3 14  4  0
  4  5  1  0
  4 18  2  0
  6 12  1  0
  6 17  4  0
  6 23  4  0
  7  9  1  0
  7 13  4  0
  7 19  4  0
  9 20  1  0
 10 19  4  0
 11 25  4  0
 13 14  4  0
 15 16  4  0
 15 17  4  0
 15 21  4  0
 16 24  1  0
 16 25  4  0
 20 24  1  0
 20 26  2  0
 21 23  4  0
 22 23  1  0
M  END
$$$$

 Created by Python create_sdf_string function

 26 28  0  0  0  0  0  0  0  0999 V2000
   12.4616    8.6700   19.4180 N   0  0  0  0  0  0  0  0  0  0  0  0
   11.8329   10.8148   18.6769 N   0  0  0  0  0  0  0  0  0  0  0  0
    6.1021    2.5564   21.0678 C   0  0  0  0  0  0  0  0  0  0  0  0
   10.9097   11.8051   18.4804 C   0  0  0  0  0  0  0  0  0  0  0  0
   11.2280   12.9135   17.5669 C   0  0  0  0  0  0  0  0  0  0  0  0
   12.3782    5.4231   20.7777 C   0  0  0  0  0  0  0  0  0  0  0  0
    7.7365    4.6508   21.6987 C   0  0  0  0  0  0  0  0  0  0  0  0
   13.0186   11.0102   18.0020 C   0  0  0  0  0  0  0  0  0  0  0  0
    8.6628    5.7088   21.8871 N   0  0  0  0  0  0  0  0  0  0  0  0
    5.6516    3.5258   21.9140 C   0  0  0  0  0  0  0  0  0  0  0  0
   11.5863    9.6815   19.4539 C   0  0  0  0  0  0  0  0  0  0  0  0
   12.9648    4.1543   20.9205 C   0  0  0  0  0  0  0  0  0  0  0  0
    8.2089    3.6265   20.8929 C   0  0  0  0  0  0  0  0  0  0  0  0
    7.3827    2.5724   20.5432 C   0  0  0  0  0  0  0  0  0  0  0  0
   11.1529    7.2750   20.8025 C   0  0  0  0  0  0  0  0  0  0  0  0
   10.2573    8.3215   20.9827 C   0  0  0  0  0  0  0  0  0  0  0  0
   11.1606    5.9378   21.2366 N   0  0  0  0  0  0  0  0  0  0  0  0
    9.8932   11.6736   19.0677 O   0  0  0  0  0  0  0  0  0  0  0  0
    6.4470    4.5850   22.2321 C   0  0  0  0  0  0  0  0  0  0  0  0
    8.4619    6.9895   22.2968 C   0  0  0  0  0  0  0  0  0  0  0  0
   12.2747    7.5102   20.0420 C   0  0  0  0  0  0  0  0  0  0  0  0
   14.2544    6.2142   19.4191 C   0  0  0  0  0  0  0  0  0  0  0  0
   13.0695    6.3705   20.0375 N   0  0  0  0  0  0  0  0  0  0  0  0
    9.1913    8.0876   21.8361 N   0  0  0  0  0  0  0  0  0  0  0  0
   10.4739    9.4813   20.2889 C   0  0  0  0  0  0  0  0  0  0  0  0
    7.5551    7.1270   23.1200 O   0  0  0  0  0  0  0  0  0  0  0  0
  1 11  4  0
  1 21  4  0
  2  4  1  0
  2  8  1  0
  2 11  1  0
  3 10  4  0
  3 14  4  0
  4  5  1  0
  4 18  2  0
  6 12  1  0
  6 17  4  0
  6 23  4  0
  7  9  1  0
  7 13  4  0
  7 19  4  0
  9 20  1  0
 10 19  4  0
 11 25  4  0
 13 14  4  0
 15 16  4  0
 15 17  4  0
 15 21  4  0
 16 24  1  0
 16 25  4  0
 20 24  1  0
 20 26  2  0
 21 23  4  0
 22 23  1  0
M  END
$$$$

 Created by Python create_sdf_string function

 26 28  0  0  0  0  0  0  0  0999 V2000
   12.4616    8.6700   19.4180 N   0  0  0  0  0  0  0  0  0  0  0  0
   11.8329   10.8148   18.6769 N   0  0  0  0  0  0  0  0  0  0  0  0
    6.1021    2.5564   21.0678 C   0  0  0  0  0  0  0  0  0  0  0  0
   10.9097   11.8051   18.4804 C   0  0  0  0  0  0  0  0  0  0  0  0
   11.2280   12.9135   17.5669 C   0  0  0  0  0  0  0  0  0  0  0  0
   12.3782    5.4231   20.7777 C   0  0  0  0  0  0  0  0  0  0  0  0
    7.7365    4.6508   21.6987 C   0  0  0  0  0  0  0  0  0  0  0  0
   13.0186   11.0102   18.0020 C   0  0  0  0  0  0  0  0  0  0  0  0
    8.6628    5.7088   21.8871 N   0  0  0  0  0  0  0  0  0  0  0  0
    5.6516    3.5258   21.9140 C   0  0  0  0  0  0  0  0  0  0  0  0
   11.5863    9.6815   19.4539 C   0  0  0  0  0  0  0  0  0  0  0  0
   12.9648    4.1543   20.9205 C   0  0  0  0  0  0  0  0  0  0  0  0
    8.2089    3.6265   20.8929 C   0  0  0  0  0  0  0  0  0  0  0  0
    7.3827    2.5724   20.5432 C   0  0  0  0  0  0  0  0  0  0  0  0
   11.1529    7.2750   20.8025 C   0  0  0  0  0  0  0  0  0  0  0  0
   10.2573    8.3215   20.9827 C   0  0  0  0  0  0  0  0  0  0  0  0
   11.1606    5.9378   21.2366 N   0  0  0  0  0  0  0  0  0  0  0  0
    9.8932   11.6736   19.0677 O   0  0  0  0  0  0  0  0  0  0  0  0
    6.4470    4.5850   22.2321 C   0  0  0  0  0  0  0  0  0  0  0  0
    8.4619    6.9895   22.2968 C   0  0  0  0  0  0  0  0  0  0  0  0
   12.2747    7.5102   20.0420 C   0  0  0  0  0  0  0  0  0  0  0  0
   14.2544    6.2142   19.4191 C   0  0  0  0  0  0  0  0  0  0  0  0
   13.0695    6.3705   20.0375 N   0  0  0  0  0  0  0  0  0  0  0  0
    9.1913    8.0876   21.8361 N   0  0  0  0  0  0  0  0  0  0  0  0
   10.4739    9.4813   20.2889 C   0  0  0  0  0  0  0  0  0  0  0  0
    7.5551    7.1270   23.1200 O   0  0  0  0  0  0  0  0  0  0  0  0
  1 11  4  0
  1 21  4  0
  2  4  1  0
  2  8  1  0
  2 11  1  0
  3 10  4  0
  3 14  4  0
  4  5  1  0
  4 18  2  0
  6 12  1  0
  6 17  4  0
  6 23  4  0
  7  9  1  0
  7 13  4  0
  7 19  4  0
  9 20  1  0
 10 19  4  0
 11 25  4  0
 13 14  4  0
 15 16  4  0
 15 17  4  0
 15 21  4  0
 16 24  1  0
 16 25  4  0
 20 24  1  0
 20 26  2  0
 21 23  4  0
 22 23  1  0
M  END
$$$$

 Created by Python create_sdf_string function

 26 28  0  0  0  0  0  0  0  0999 V2000
   12.4616    8.6700   19.4180 N   0  0  0  0  0  0  0  0  0  0  0  0
   11.8329   10.8148   18.6769 N   0  0  0  0  0  0  0  0  0  0  0  0
    6.1021    2.5564   21.0678 C   0  0  0  0  0  0  0  0  0  0  0  0
   10.9097   11.8051   18.4804 C   0  0  0  0  0  0  0  0  0  0  0  0
   11.2280   12.9135   17.5669 C   0  0  0  0  0  0  0  0  0  0  0  0
   12.3782    5.4231   20.7777 C   0  0  0  0  0  0  0  0  0  0  0  0
    7.7365    4.6508   21.6987 C   0  0  0  0  0  0  0  0  0  0  0  0
   13.0186   11.0102   18.0020 C   0  0  0  0  0  0  0  0  0  0  0  0
    8.6628    5.7088   21.8871 N   0  0  0  0  0  0  0  0  0  0  0  0
    5.6516    3.5258   21.9140 C   0  0  0  0  0  0  0  0  0  0  0  0
   11.5863    9.6815   19.4539 C   0  0  0  0  0  0  0  0  0  0  0  0
   12.9648    4.1543   20.9205 C   0  0  0  0  0  0  0  0  0  0  0  0
    8.2089    3.6265   20.8929 C   0  0  0  0  0  0  0  0  0  0  0  0
    7.3827    2.5724   20.5432 C   0  0  0  0  0  0  0  0  0  0  0  0
   11.1529    7.2750   20.8025 C   0  0  0  0  0  0  0  0  0  0  0  0
   10.2573    8.3215   20.9827 C   0  0  0  0  0  0  0  0  0  0  0  0
   11.1606    5.9378   21.2366 N   0  0  0  0  0  0  0  0  0  0  0  0
    9.8932   11.6736   19.0677 O   0  0  0  0  0  0  0  0  0  0  0  0
    6.4470    4.5850   22.2321 C   0  0  0  0  0  0  0  0  0  0  0  0
    8.4619    6.9895   22.2968 C   0  0  0  0  0  0  0  0  0  0  0  0
   12.2747    7.5102   20.0420 C   0  0  0  0  0  0  0  0  0  0  0  0
   14.2544    6.2142   19.4191 C   0  0  0  0  0  0  0  0  0  0  0  0
   13.0695    6.3705   20.0375 N   0  0  0  0  0  0  0  0  0  0  0  0
    9.1913    8.0876   21.8361 N   0  0  0  0  0  0  0  0  0  0  0  0
   10.4739    9.4813   20.2889 C   0  0  0  0  0  0  0  0  0  0  0  0
    7.5551    7.1270   23.1200 O   0  0  0  0  0  0  0  0  0  0  0  0
  1 11  4  0
  1 21  4  0
  2  4  1  0
  2  8  1  0
  2 11  1  0
  3 10  4  0
  3 14  4  0
  4  5  1  0
  4 18  2  0
  6 12  1  0
  6 17  4  0
  6 23  4  0
  7  9  1  0
  7 13  4  0
  7 19  4  0
  9 20  1  0
 10 19  4  0
 11 25  4  0
 13 14  4  0
 15 16  4  0
 15 17  4  0
 15 21  4  0
 16 24  1  0
 16 25  4  0
 20 24  1  0
 20 26  2  0
 21 23  4  0
 22 23  1  0
M  END
$$$$

 Created by Python create_sdf_string function

 26 28  0  0  0  0  0  0  0  0999 V2000
   12.4616    8.6700   19.4180 N   0  0  0  0  0  0  0  0  0  0  0  0
   11.8329   10.8148   18.6769 N   0  0  0  0  0  0  0  0  0  0  0  0
    6.1021    2.5564   21.0678 C   0  0  0  0  0  0  0  0  0  0  0  0
   10.9097   11.8051   18.4804 C   0  0  0  0  0  0  0  0  0  0  0  0
   11.2280   12.9135   17.5669 C   0  0  0  0  0  0  0  0  0  0  0  0
   12.3782    5.4231   20.7777 C   0  0  0  0  0  0  0  0  0  0  0  0
    7.7365    4.6508   21.6987 C   0  0  0  0  0  0  0  0  0  0  0  0
   13.0186   11.0102   18.0020 C   0  0  0  0  0  0  0  0  0  0  0  0
    8.6628    5.7088   21.8871 N   0  0  0  0  0  0  0  0  0  0  0  0
    5.6516    3.5258   21.9140 C   0  0  0  0  0  0  0  0  0  0  0  0
   11.5863    9.6815   19.4539 C   0  0  0  0  0  0  0  0  0  0  0  0
   12.9648    4.1543   20.9205 C   0  0  0  0  0  0  0  0  0  0  0  0
    8.2089    3.6265   20.8929 C   0  0  0  0  0  0  0  0  0  0  0  0
    7.3827    2.5724   20.5432 C   0  0  0  0  0  0  0  0  0  0  0  0
   11.1529    7.2750   20.8025 C   0  0  0  0  0  0  0  0  0  0  0  0
   10.2573    8.3215   20.9827 C   0  0  0  0  0  0  0  0  0  0  0  0
   11.1606    5.9378   21.2366 N   0  0  0  0  0  0  0  0  0  0  0  0
    9.8932   11.6736   19.0677 O   0  0  0  0  0  0  0  0  0  0  0  0
    6.4470    4.5850   22.2321 C   0  0  0  0  0  0  0  0  0  0  0  0
    8.4619    6.9895   22.2968 C   0  0  0  0  0  0  0  0  0  0  0  0
   12.2747    7.5102   20.0420 C   0  0  0  0  0  0  0  0  0  0  0  0
   14.2544    6.2142   19.4191 C   0  0  0  0  0  0  0  0  0  0  0  0
   13.0695    6.3705   20.0375 N   0  0  0  0  0  0  0  0  0  0  0  0
    9.1913    8.0876   21.8361 N   0  0  0  0  0  0  0  0  0  0  0  0
   10.4739    9.4813   20.2889 C   0  0  0  0  0  0  0  0  0  0  0  0
    7.5551    7.1270   23.1200 O   0  0  0  0  0  0  0  0  0  0  0  0
  1 11  4  0
  1 21  4  0
  2  4  1  0
  2  8  1  0
  2 11  1  0
  3 10  4  0
  3 14  4  0
  4  5  1  0
  4 18  2  0
  6 12  1  0
  6 17  4  0
  6 23  4  0
  7  9  1  0
  7 13  4  0
  7 19  4  0
  9 20  1  0
 10 19  4  0
 11 25  4  0
 13 14  4  0
 15 16  4  0
 15 17  4  0
 15 21  4  0
 16 24  1  0
 16 25  4  0
 20 24  1  0
 20 26  2  0
 21 23  4  0
 22 23  1  0
M  END
$$$$

 Created by Python create_sdf_string function

 26 28  0  0  0  0  0  0  0  0999 V2000
   12.4616    8.6700   19.4180 N   0  0  0  0  0  0  0  0  0  0  0  0
   11.8329   10.8148   18.6769 N   0  0  0  0  0  0  0  0  0  0  0  0
    6.1021    2.5564   21.0678 C   0  0  0  0  0  0  0  0  0  0  0  0
   10.9097   11.8051   18.4804 C   0  0  0  0  0  0  0  0  0  0  0  0
   11.2280   12.9135   17.5669 C   0  0  0  0  0  0  0  0  0  0  0  0
   12.3782    5.4231   20.7777 C   0  0  0  0  0  0  0  0  0  0  0  0
    7.7365    4.6508   21.6987 C   0  0  0  0  0  0  0  0  0  0  0  0
   13.0186   11.0102   18.0020 C   0  0  0  0  0  0  0  0  0  0  0  0
    8.6628    5.7088   21.8871 N   0  0  0  0  0  0  0  0  0  0  0  0
    5.6516    3.5258   21.9140 C   0  0  0  0  0  0  0  0  0  0  0  0
   11.5863    9.6815   19.4539 C   0  0  0  0  0  0  0  0  0  0  0  0
   12.9648    4.1543   20.9205 C   0  0  0  0  0  0  0  0  0  0  0  0
    8.2089    3.6265   20.8929 C   0  0  0  0  0  0  0  0  0  0  0  0
    7.3827    2.5724   20.5432 C   0  0  0  0  0  0  0  0  0  0  0  0
   11.1529    7.2750   20.8025 C   0  0  0  0  0  0  0  0  0  0  0  0
   10.2573    8.3215   20.9827 C   0  0  0  0  0  0  0  0  0  0  0  0
   11.1606    5.9378   21.2366 N   0  0  0  0  0  0  0  0  0  0  0  0
    9.8932   11.6736   19.0677 O   0  0  0  0  0  0  0  0  0  0  0  0
    6.4470    4.5850   22.2321 C   0  0  0  0  0  0  0  0  0  0  0  0
    8.4619    6.9895   22.2968 C   0  0  0  0  0  0  0  0  0  0  0  0
   12.2747    7.5102   20.0420 C   0  0  0  0  0  0  0  0  0  0  0  0
   14.2544    6.2142   19.4191 C   0  0  0  0  0  0  0  0  0  0  0  0
   13.0695    6.3705   20.0375 N   0  0  0  0  0  0  0  0  0  0  0  0
    9.1913    8.0876   21.8361 N   0  0  0  0  0  0  0  0  0  0  0  0
   10.4739    9.4813   20.2889 C   0  0  0  0  0  0  0  0  0  0  0  0
    7.5551    7.1270   23.1200 O   0  0  0  0  0  0  0  0  0  0  0  0
  1 11  4  0
  1 21  4  0
  2  4  1  0
  2  8  1  0
  2 11  1  0
  3 10  4  0
  3 14  4  0
  4  5  1  0
  4 18  2  0
  6 12  1  0
  6 17  4  0
  6 23  4  0
  7  9  1  0
  7 13  4  0
  7 19  4  0
  9 20  1  0
 10 19  4  0
 11 25  4  0
 13 14  4  0
 15 16  4  0
 15 17  4  0
 15 21  4  0
 16 24  1  0
 16 25  4  0
 20 24  1  0
 20 26  2  0
 21 23  4  0
 22 23  1  0
M  END
$$$$

 Created by Python create_sdf_string function

 26 28  0  0  0  0  0  0  0  0999 V2000
   12.4616    8.6700   19.4180 N   0  0  0  0  0  0  0  0  0  0  0  0
   11.8329   10.8148   18.6769 N   0  0  0  0  0  0  0  0  0  0  0  0
    6.1021    2.5564   21.0678 C   0  0  0  0  0  0  0  0  0  0  0  0
   10.9097   11.8051   18.4804 C   0  0  0  0  0  0  0  0  0  0  0  0
   11.2280   12.9135   17.5669 C   0  0  0  0  0  0  0  0  0  0  0  0
   12.3782    5.4231   20.7777 C   0  0  0  0  0  0  0  0  0  0  0  0
    7.7365    4.6508   21.6987 C   0  0  0  0  0  0  0  0  0  0  0  0
   13.0186   11.0102   18.0020 C   0  0  0  0  0  0  0  0  0  0  0  0
    8.6628    5.7088   21.8871 N   0  0  0  0  0  0  0  0  0  0  0  0
    5.6516    3.5258   21.9140 C   0  0  0  0  0  0  0  0  0  0  0  0
   11.5863    9.6815   19.4539 C   0  0  0  0  0  0  0  0  0  0  0  0
   12.9648    4.1543   20.9205 C   0  0  0  0  0  0  0  0  0  0  0  0
    8.2089    3.6265   20.8929 C   0  0  0  0  0  0  0  0  0  0  0  0
    7.3827    2.5724   20.5432 C   0  0  0  0  0  0  0  0  0  0  0  0
   11.1529    7.2750   20.8025 C   0  0  0  0  0  0  0  0  0  0  0  0
   10.2573    8.3215   20.9827 C   0  0  0  0  0  0  0  0  0  0  0  0
   11.1606    5.9378   21.2366 N   0  0  0  0  0  0  0  0  0  0  0  0
    9.8932   11.6736   19.0677 O   0  0  0  0  0  0  0  0  0  0  0  0
    6.4470    4.5850   22.2321 C   0  0  0  0  0  0  0  0  0  0  0  0
    8.4619    6.9895   22.2968 C   0  0  0  0  0  0  0  0  0  0  0  0
   12.2747    7.5102   20.0420 C   0  0  0  0  0  0  0  0  0  0  0  0
   14.2544    6.2142   19.4191 C   0  0  0  0  0  0  0  0  0  0  0  0
   13.0695    6.3705   20.0375 N   0  0  0  0  0  0  0  0  0  0  0  0
    9.1913    8.0876   21.8361 N   0  0  0  0  0  0  0  0  0  0  0  0
   10.4739    9.4813   20.2889 C   0  0  0  0  0  0  0  0  0  0  0  0
    7.5551    7.1270   23.1200 O   0  0  0  0  0  0  0  0  0  0  0  0
  1 11  4  0
  1 21  4  0
  2  4  1  0
  2  8  1  0
  2 11  1  0
  3 10  4  0
  3 14  4  0
  4  5  1  0
  4 18  2  0
  6 12  1  0
  6 17  4  0
  6 23  4  0
  7  9  1  0
  7 13  4  0
  7 19  4  0
  9 20  1  0
 10 19  4  0
 11 25  4  0
 13 14  4  0
 15 16  4  0
 15 17  4  0
 15 21  4  0
 16 24  1  0
 16 25  4  0
 20 24  1  0
 20 26  2  0
 21 23  4  0
 22 23  1  0
M  END
$$$$

 Created by Python create_sdf_string function

 26 28  0  0  0  0  0  0  0  0999 V2000
   12.4616    8.6700   19.4180 N   0  0  0  0  0  0  0  0  0  0  0  0
   11.8329   10.8148   18.6769 N   0  0  0  0  0  0  0  0  0  0  0  0
    6.1021    2.5564   21.0678 C   0  0  0  0  0  0  0  0  0  0  0  0
   10.9097   11.8051   18.4804 C   0  0  0  0  0  0  0  0  0  0  0  0
   11.2280   12.9135   17.5669 C   0  0  0  0  0  0  0  0  0  0  0  0
   12.3782    5.4231   20.7777 C   0  0  0  0  0  0  0  0  0  0  0  0
    7.7365    4.6508   21.6987 C   0  0  0  0  0  0  0  0  0  0  0  0
   13.0186   11.0102   18.0020 C   0  0  0  0  0  0  0  0  0  0  0  0
    8.6628    5.7088   21.8871 N   0  0  0  0  0  0  0  0  0  0  0  0
    5.6516    3.5258   21.9140 C   0  0  0  0  0  0  0  0  0  0  0  0
   11.5863    9.6815   19.4539 C   0  0  0  0  0  0  0  0  0  0  0  0
   12.9648    4.1543   20.9205 C   0  0  0  0  0  0  0  0  0  0  0  0
    8.2089    3.6265   20.8929 C   0  0  0  0  0  0  0  0  0  0  0  0
    7.3827    2.5724   20.5432 C   0  0  0  0  0  0  0  0  0  0  0  0
   11.1529    7.2750   20.8025 C   0  0  0  0  0  0  0  0  0  0  0  0
   10.2573    8.3215   20.9827 C   0  0  0  0  0  0  0  0  0  0  0  0
   11.1606    5.9378   21.2366 N   0  0  0  0  0  0  0  0  0  0  0  0
    9.8932   11.6736   19.0677 O   0  0  0  0  0  0  0  0  0  0  0  0
    6.4470    4.5850   22.2321 C   0  0  0  0  0  0  0  0  0  0  0  0
    8.4619    6.9895   22.2968 C   0  0  0  0  0  0  0  0  0  0  0  0
   12.2747    7.5102   20.0420 C   0  0  0  0  0  0  0  0  0  0  0  0
   14.2544    6.2142   19.4191 C   0  0  0  0  0  0  0  0  0  0  0  0
   13.0695    6.3705   20.0375 N   0  0  0  0  0  0  0  0  0  0  0  0
    9.1913    8.0876   21.8361 N   0  0  0  0  0  0  0  0  0  0  0  0
   10.4739    9.4813   20.2889 C   0  0  0  0  0  0  0  0  0  0  0  0
    7.5551    7.1270   23.1200 O   0  0  0  0  0  0  0  0  0  0  0  0
  1 11  4  0
  1 21  4  0
  2  4  1  0
  2  8  1  0
  2 11  1  0
  3 10  4  0
  3 14  4  0
  4  5  1  0
  4 18  2  0
  6 12  1  0
  6 17  4  0
  6 23  4  0
  7  9  1  0
  7 13  4  0
  7 19  4  0
  9 20  1  0
 10 19  4  0
 11 25  4  0
 13 14  4  0
 15 16  4  0
 15 17  4  0
 15 21  4  0
 16 24  1  0
 16 25  4  0
 20 24  1  0
 20 26  2  0
 21 23  4  0
 22 23  1  0
M  END
$$$$

 Created by Python create_sdf_string function

 26 28  0  0  0  0  0  0  0  0999 V2000
   12.4616    8.6700   19.4180 N   0  0  0  0  0  0  0  0  0  0  0  0
   11.8329   10.8148   18.6769 N   0  0  0  0  0  0  0  0  0  0  0  0
    6.1021    2.5564   21.0678 C   0  0  0  0  0  0  0  0  0  0  0  0
   10.9097   11.8051   18.4804 C   0  0  0  0  0  0  0  0  0  0  0  0
   11.2280   12.9135   17.5669 C   0  0  0  0  0  0  0  0  0  0  0  0
   12.3782    5.4231   20.7777 C   0  0  0  0  0  0  0  0  0  0  0  0
    7.7365    4.6508   21.6987 C   0  0  0  0  0  0  0  0  0  0  0  0
   13.0186   11.0102   18.0020 C   0  0  0  0  0  0  0  0  0  0  0  0
    8.6628    5.7088   21.8871 N   0  0  0  0  0  0  0  0  0  0  0  0
    5.6516    3.5258   21.9140 C   0  0  0  0  0  0  0  0  0  0  0  0
   11.5863    9.6815   19.4539 C   0  0  0  0  0  0  0  0  0  0  0  0
   12.9648    4.1543   20.9205 C   0  0  0  0  0  0  0  0  0  0  0  0
    8.2089    3.6265   20.8929 C   0  0  0  0  0  0  0  0  0  0  0  0
    7.3827    2.5724   20.5432 C   0  0  0  0  0  0  0  0  0  0  0  0
   11.1529    7.2750   20.8025 C   0  0  0  0  0  0  0  0  0  0  0  0
   10.2573    8.3215   20.9827 C   0  0  0  0  0  0  0  0  0  0  0  0
   11.1606    5.9378   21.2366 N   0  0  0  0  0  0  0  0  0  0  0  0
    9.8932   11.6736   19.0677 O   0  0  0  0  0  0  0  0  0  0  0  0
    6.4470    4.5850   22.2321 C   0  0  0  0  0  0  0  0  0  0  0  0
    8.4619    6.9895   22.2968 C   0  0  0  0  0  0  0  0  0  0  0  0
   12.2747    7.5102   20.0420 C   0  0  0  0  0  0  0  0  0  0  0  0
   14.2544    6.2142   19.4191 C   0  0  0  0  0  0  0  0  0  0  0  0
   13.0695    6.3705   20.0375 N   0  0  0  0  0  0  0  0  0  0  0  0
    9.1913    8.0876   21.8361 N   0  0  0  0  0  0  0  0  0  0  0  0
   10.4739    9.4813   20.2889 C   0  0  0  0  0  0  0  0  0  0  0  0
    7.5551    7.1270   23.1200 O   0  0  0  0  0  0  0  0  0  0  0  0
  1 11  4  0
  1 21  4  0
  2  4  1  0
  2  8  1  0
  2 11  1  0
  3 10  4  0
  3 14  4  0
  4  5  1  0
  4 18  2  0
  6 12  1  0
  6 17  4  0
  6 23  4  0
  7  9  1  0
  7 13  4  0
  7 19  4  0
  9 20  1  0
 10 19  4  0
 11 25  4  0
 13 14  4  0
 15 16  4  0
 15 17  4  0
 15 21  4  0
 16 24  1  0
 16 25  4  0
 20 24  1  0
 20 26  2  0
 21 23  4  0
 22 23  1  0
M  END
$$$$

 Created by Python create_sdf_string function

 26 28  0  0  0  0  0  0  0  0999 V2000
   12.4616    8.6700   19.4180 N   0  0  0  0  0  0  0  0  0  0  0  0
   11.8329   10.8148   18.6769 N   0  0  0  0  0  0  0  0  0  0  0  0
    6.1021    2.5564   21.0678 C   0  0  0  0  0  0  0  0  0  0  0  0
   10.9097   11.8051   18.4804 C   0  0  0  0  0  0  0  0  0  0  0  0
   11.2280   12.9135   17.5669 C   0  0  0  0  0  0  0  0  0  0  0  0
   12.3782    5.4231   20.7777 C   0  0  0  0  0  0  0  0  0  0  0  0
    7.7365    4.6508   21.6987 C   0  0  0  0  0  0  0  0  0  0  0  0
   13.0186   11.0102   18.0020 C   0  0  0  0  0  0  0  0  0  0  0  0
    8.6628    5.7088   21.8871 N   0  0  0  0  0  0  0  0  0  0  0  0
    5.6516    3.5258   21.9140 C   0  0  0  0  0  0  0  0  0  0  0  0
   11.5863    9.6815   19.4539 C   0  0  0  0  0  0  0  0  0  0  0  0
   12.9648    4.1543   20.9205 C   0  0  0  0  0  0  0  0  0  0  0  0
    8.2089    3.6265   20.8929 C   0  0  0  0  0  0  0  0  0  0  0  0
    7.3827    2.5724   20.5432 C   0  0  0  0  0  0  0  0  0  0  0  0
   11.1529    7.2750   20.8025 C   0  0  0  0  0  0  0  0  0  0  0  0
   10.2573    8.3215   20.9827 C   0  0  0  0  0  0  0  0  0  0  0  0
   11.1606    5.9378   21.2366 N   0  0  0  0  0  0  0  0  0  0  0  0
    9.8932   11.6736   19.0677 O   0  0  0  0  0  0  0  0  0  0  0  0
    6.4470    4.5850   22.2321 C   0  0  0  0  0  0  0  0  0  0  0  0
    8.4619    6.9895   22.2968 C   0  0  0  0  0  0  0  0  0  0  0  0
   12.2747    7.5102   20.0420 C   0  0  0  0  0  0  0  0  0  0  0  0
   14.2544    6.2142   19.4191 C   0  0  0  0  0  0  0  0  0  0  0  0
   13.0695    6.3705   20.0375 N   0  0  0  0  0  0  0  0  0  0  0  0
    9.1913    8.0876   21.8361 N   0  0  0  0  0  0  0  0  0  0  0  0
   10.4739    9.4813   20.2889 C   0  0  0  0  0  0  0  0  0  0  0  0
    7.5551    7.1270   23.1200 O   0  0  0  0  0  0  0  0  0  0  0  0
  1 11  4  0
  1 21  4  0
  2  4  1  0
  2  8  1  0
  2 11  1  0
  3 10  4  0
  3 14  4  0
  4  5  1  0
  4 18  2  0
  6 12  1  0
  6 17  4  0
  6 23  4  0
  7  9  1  0
  7 13  4  0
  7 19  4  0
  9 20  1  0
 10 19  4  0
 11 25  4  0
 13 14  4  0
 15 16  4  0
 15 17  4  0
 15 21  4  0
 16 24  1  0
 16 25  4  0
 20 24  1  0
 20 26  2  0
 21 23  4  0
 22 23  1  0
M  END
$$$$

 Created by Python create_sdf_string function

 26 28  0  0  0  0  0  0  0  0999 V2000
   12.4616    8.6700   19.4180 N   0  0  0  0  0  0  0  0  0  0  0  0
   11.8329   10.8148   18.6769 N   0  0  0  0  0  0  0  0  0  0  0  0
    6.1021    2.5564   21.0678 C   0  0  0  0  0  0  0  0  0  0  0  0
   10.9097   11.8051   18.4804 C   0  0  0  0  0  0  0  0  0  0  0  0
   11.2280   12.9135   17.5669 C   0  0  0  0  0  0  0  0  0  0  0  0
   12.3782    5.4231   20.7777 C   0  0  0  0  0  0  0  0  0  0  0  0
    7.7365    4.6508   21.6987 C   0  0  0  0  0  0  0  0  0  0  0  0
   13.0186   11.0102   18.0020 C   0  0  0  0  0  0  0  0  0  0  0  0
    8.6628    5.7088   21.8871 N   0  0  0  0  0  0  0  0  0  0  0  0
    5.6516    3.5258   21.9140 C   0  0  0  0  0  0  0  0  0  0  0  0
   11.5863    9.6815   19.4539 C   0  0  0  0  0  0  0  0  0  0  0  0
   12.9648    4.1543   20.9205 C   0  0  0  0  0  0  0  0  0  0  0  0
    8.2089    3.6265   20.8929 C   0  0  0  0  0  0  0  0  0  0  0  0
    7.3827    2.5724   20.5432 C   0  0  0  0  0  0  0  0  0  0  0  0
   11.1529    7.2750   20.8025 C   0  0  0  0  0  0  0  0  0  0  0  0
   10.2573    8.3215   20.9827 C   0  0  0  0  0  0  0  0  0  0  0  0
   11.1606    5.9378   21.2366 N   0  0  0  0  0  0  0  0  0  0  0  0
    9.8932   11.6736   19.0677 O   0  0  0  0  0  0  0  0  0  0  0  0
    6.4470    4.5850   22.2321 C   0  0  0  0  0  0  0  0  0  0  0  0
    8.4619    6.9895   22.2968 C   0  0  0  0  0  0  0  0  0  0  0  0
   12.2747    7.5102   20.0420 C   0  0  0  0  0  0  0  0  0  0  0  0
   14.2544    6.2142   19.4191 C   0  0  0  0  0  0  0  0  0  0  0  0
   13.0695    6.3705   20.0375 N   0  0  0  0  0  0  0  0  0  0  0  0
    9.1913    8.0876   21.8361 N   0  0  0  0  0  0  0  0  0  0  0  0
   10.4739    9.4813   20.2889 C   0  0  0  0  0  0  0  0  0  0  0  0
    7.5551    7.1270   23.1200 O   0  0  0  0  0  0  0  0  0  0  0  0
  1 11  4  0
  1 21  4  0
  2  4  1  0
  2  8  1  0
  2 11  1  0
  3 10  4  0
  3 14  4  0
  4  5  1  0
  4 18  2  0
  6 12  1  0
  6 17  4  0
  6 23  4  0
  7  9  1  0
  7 13  4  0
  7 19  4  0
  9 20  1  0
 10 19  4  0
 11 25  4  0
 13 14  4  0
 15 16  4  0
 15 17  4  0
 15 21  4  0
 16 24  1  0
 16 25  4  0
 20 24  1  0
 20 26  2  0
 21 23  4  0
 22 23  1  0
M  END
$$$$

 Created by Python create_sdf_string function

 26 28  0  0  0  0  0  0  0  0999 V2000
   12.4616    8.6700   19.4180 N   0  0  0  0  0  0  0  0  0  0  0  0
   11.8329   10.8148   18.6769 N   0  0  0  0  0  0  0  0  0  0  0  0
    6.1021    2.5564   21.0678 C   0  0  0  0  0  0  0  0  0  0  0  0
   10.9097   11.8051   18.4804 C   0  0  0  0  0  0  0  0  0  0  0  0
   11.2280   12.9135   17.5669 C   0  0  0  0  0  0  0  0  0  0  0  0
   12.3782    5.4231   20.7777 C   0  0  0  0  0  0  0  0  0  0  0  0
    7.7365    4.6508   21.6987 C   0  0  0  0  0  0  0  0  0  0  0  0
   13.0186   11.0102   18.0020 C   0  0  0  0  0  0  0  0  0  0  0  0
    8.6628    5.7088   21.8871 N   0  0  0  0  0  0  0  0  0  0  0  0
    5.6516    3.5258   21.9140 C   0  0  0  0  0  0  0  0  0  0  0  0
   11.5863    9.6815   19.4539 C   0  0  0  0  0  0  0  0  0  0  0  0
   12.9648    4.1543   20.9205 C   0  0  0  0  0  0  0  0  0  0  0  0
    8.2089    3.6265   20.8929 C   0  0  0  0  0  0  0  0  0  0  0  0
    7.3827    2.5724   20.5432 C   0  0  0  0  0  0  0  0  0  0  0  0
   11.1529    7.2750   20.8025 C   0  0  0  0  0  0  0  0  0  0  0  0
   10.2573    8.3215   20.9827 C   0  0  0  0  0  0  0  0  0  0  0  0
   11.1606    5.9378   21.2366 N   0  0  0  0  0  0  0  0  0  0  0  0
    9.8932   11.6736   19.0677 O   0  0  0  0  0  0  0  0  0  0  0  0
    6.4470    4.5850   22.2321 C   0  0  0  0  0  0  0  0  0  0  0  0
    8.4619    6.9895   22.2968 C   0  0  0  0  0  0  0  0  0  0  0  0
   12.2747    7.5102   20.0420 C   0  0  0  0  0  0  0  0  0  0  0  0
   14.2544    6.2142   19.4191 C   0  0  0  0  0  0  0  0  0  0  0  0
   13.0695    6.3705   20.0375 N   0  0  0  0  0  0  0  0  0  0  0  0
    9.1913    8.0876   21.8361 N   0  0  0  0  0  0  0  0  0  0  0  0
   10.4739    9.4813   20.2889 C   0  0  0  0  0  0  0  0  0  0  0  0
    7.5551    7.1270   23.1200 O   0  0  0  0  0  0  0  0  0  0  0  0
  1 11  4  0
  1 21  4  0
  2  4  1  0
  2  8  1  0
  2 11  1  0
  3 10  4  0
  3 14  4  0
  4  5  1  0
  4 18  2  0
  6 12  1  0
  6 17  4  0
  6 23  4  0
  7  9  1  0
  7 13  4  0
  7 19  4  0
  9 20  1  0
 10 19  4  0
 11 25  4  0
 13 14  4  0
 15 16  4  0
 15 17  4  0
 15 21  4  0
 16 24  1  0
 16 25  4  0
 20 24  1  0
 20 26  2  0
 21 23  4  0
 22 23  1  0
M  END
$$$$

 Created by Python create_sdf_string function

 26 28  0  0  0  0  0  0  0  0999 V2000
   12.4616    8.6700   19.4180 N   0  0  0  0  0  0  0  0  0  0  0  0
   11.8329   10.8148   18.6769 N   0  0  0  0  0  0  0  0  0  0  0  0
    6.1021    2.5564   21.0678 C   0  0  0  0  0  0  0  0  0  0  0  0
   10.9097   11.8051   18.4804 C   0  0  0  0  0  0  0  0  0  0  0  0
   11.2280   12.9135   17.5669 C   0  0  0  0  0  0  0  0  0  0  0  0
   12.3782    5.4231   20.7777 C   0  0  0  0  0  0  0  0  0  0  0  0
    7.7365    4.6508   21.6987 C   0  0  0  0  0  0  0  0  0  0  0  0
   13.0186   11.0102   18.0020 C   0  0  0  0  0  0  0  0  0  0  0  0
    8.6628    5.7088   21.8871 N   0  0  0  0  0  0  0  0  0  0  0  0
    5.6516    3.5258   21.9140 C   0  0  0  0  0  0  0  0  0  0  0  0
   11.5863    9.6815   19.4539 C   0  0  0  0  0  0  0  0  0  0  0  0
   12.9648    4.1543   20.9205 C   0  0  0  0  0  0  0  0  0  0  0  0
    8.2089    3.6265   20.8929 C   0  0  0  0  0  0  0  0  0  0  0  0
    7.3827    2.5724   20.5432 C   0  0  0  0  0  0  0  0  0  0  0  0
   11.1529    7.2750   20.8025 C   0  0  0  0  0  0  0  0  0  0  0  0
   10.2573    8.3215   20.9827 C   0  0  0  0  0  0  0  0  0  0  0  0
   11.1606    5.9378   21.2366 N   0  0  0  0  0  0  0  0  0  0  0  0
    9.8932   11.6736   19.0677 O   0  0  0  0  0  0  0  0  0  0  0  0
    6.4470    4.5850   22.2321 C   0  0  0  0  0  0  0  0  0  0  0  0
    8.4619    6.9895   22.2968 C   0  0  0  0  0  0  0  0  0  0  0  0
   12.2747    7.5102   20.0420 C   0  0  0  0  0  0  0  0  0  0  0  0
   14.2544    6.2142   19.4191 C   0  0  0  0  0  0  0  0  0  0  0  0
   13.0695    6.3705   20.0375 N   0  0  0  0  0  0  0  0  0  0  0  0
    9.1913    8.0876   21.8361 N   0  0  0  0  0  0  0  0  0  0  0  0
   10.4739    9.4813   20.2889 C   0  0  0  0  0  0  0  0  0  0  0  0
    7.5551    7.1270   23.1200 O   0  0  0  0  0  0  0  0  0  0  0  0
  1 11  4  0
  1 21  4  0
  2  4  1  0
  2  8  1  0
  2 11  1  0
  3 10  4  0
  3 14  4  0
  4  5  1  0
  4 18  2  0
  6 12  1  0
  6 17  4  0
  6 23  4  0
  7  9  1  0
  7 13  4  0
  7 19  4  0
  9 20  1  0
 10 19  4  0
 11 25  4  0
 13 14  4  0
 15 16  4  0
 15 17  4  0
 15 21  4  0
 16 24  1  0
 16 25  4  0
 20 24  1  0
 20 26  2  0
 21 23  4  0
 22 23  1  0
M  END
$$$$

 Created by Python create_sdf_string function

 26 28  0  0  0  0  0  0  0  0999 V2000
   12.4616    8.6700   19.4180 N   0  0  0  0  0  0  0  0  0  0  0  0
   11.8329   10.8148   18.6769 N   0  0  0  0  0  0  0  0  0  0  0  0
    6.1021    2.5564   21.0678 C   0  0  0  0  0  0  0  0  0  0  0  0
   10.9097   11.8051   18.4804 C   0  0  0  0  0  0  0  0  0  0  0  0
   11.2280   12.9135   17.5669 C   0  0  0  0  0  0  0  0  0  0  0  0
   12.3782    5.4231   20.7777 C   0  0  0  0  0  0  0  0  0  0  0  0
    7.7365    4.6508   21.6987 C   0  0  0  0  0  0  0  0  0  0  0  0
   13.0186   11.0102   18.0020 C   0  0  0  0  0  0  0  0  0  0  0  0
    8.6628    5.7088   21.8871 N   0  0  0  0  0  0  0  0  0  0  0  0
    5.6516    3.5258   21.9140 C   0  0  0  0  0  0  0  0  0  0  0  0
   11.5863    9.6815   19.4539 C   0  0  0  0  0  0  0  0  0  0  0  0
   12.9648    4.1543   20.9205 C   0  0  0  0  0  0  0  0  0  0  0  0
    8.2089    3.6265   20.8929 C   0  0  0  0  0  0  0  0  0  0  0  0
    7.3827    2.5724   20.5432 C   0  0  0  0  0  0  0  0  0  0  0  0
   11.1529    7.2750   20.8025 C   0  0  0  0  0  0  0  0  0  0  0  0
   10.2573    8.3215   20.9827 C   0  0  0  0  0  0  0  0  0  0  0  0
   11.1606    5.9378   21.2366 N   0  0  0  0  0  0  0  0  0  0  0  0
    9.8932   11.6736   19.0677 O   0  0  0  0  0  0  0  0  0  0  0  0
    6.4470    4.5850   22.2321 C   0  0  0  0  0  0  0  0  0  0  0  0
    8.4619    6.9895   22.2968 C   0  0  0  0  0  0  0  0  0  0  0  0
   12.2747    7.5102   20.0420 C   0  0  0  0  0  0  0  0  0  0  0  0
   14.2544    6.2142   19.4191 C   0  0  0  0  0  0  0  0  0  0  0  0
   13.0695    6.3705   20.0375 N   0  0  0  0  0  0  0  0  0  0  0  0
    9.1913    8.0876   21.8361 N   0  0  0  0  0  0  0  0  0  0  0  0
   10.4739    9.4813   20.2889 C   0  0  0  0  0  0  0  0  0  0  0  0
    7.5551    7.1270   23.1200 O   0  0  0  0  0  0  0  0  0  0  0  0
  1 11  4  0
  1 21  4  0
  2  4  1  0
  2  8  1  0
  2 11  1  0
  3 10  4  0
  3 14  4  0
  4  5  1  0
  4 18  2  0
  6 12  1  0
  6 17  4  0
  6 23  4  0
  7  9  1  0
  7 13  4  0
  7 19  4  0
  9 20  1  0
 10 19  4  0
 11 25  4  0
 13 14  4  0
 15 16  4  0
 15 17  4  0
 15 21  4  0
 16 24  1  0
 16 25  4  0
 20 24  1  0
 20 26  2  0
 21 23  4  0
 22 23  1  0
M  END
$$$$

 Created by Python create_sdf_string function

 26 28  0  0  0  0  0  0  0  0999 V2000
   12.4616    8.6700   19.4180 N   0  0  0  0  0  0  0  0  0  0  0  0
   11.8329   10.8148   18.6769 N   0  0  0  0  0  0  0  0  0  0  0  0
    6.1021    2.5564   21.0678 C   0  0  0  0  0  0  0  0  0  0  0  0
   10.9097   11.8051   18.4804 C   0  0  0  0  0  0  0  0  0  0  0  0
   11.2280   12.9135   17.5669 C   0  0  0  0  0  0  0  0  0  0  0  0
   12.3782    5.4231   20.7777 C   0  0  0  0  0  0  0  0  0  0  0  0
    7.7365    4.6508   21.6987 C   0  0  0  0  0  0  0  0  0  0  0  0
   13.0186   11.0102   18.0020 C   0  0  0  0  0  0  0  0  0  0  0  0
    8.6628    5.7088   21.8871 N   0  0  0  0  0  0  0  0  0  0  0  0
    5.6516    3.5258   21.9140 C   0  0  0  0  0  0  0  0  0  0  0  0
   11.5863    9.6815   19.4539 C   0  0  0  0  0  0  0  0  0  0  0  0
   12.9648    4.1543   20.9205 C   0  0  0  0  0  0  0  0  0  0  0  0
    8.2089    3.6265   20.8929 C   0  0  0  0  0  0  0  0  0  0  0  0
    7.3827    2.5724   20.5432 C   0  0  0  0  0  0  0  0  0  0  0  0
   11.1529    7.2750   20.8025 C   0  0  0  0  0  0  0  0  0  0  0  0
   10.2573    8.3215   20.9827 C   0  0  0  0  0  0  0  0  0  0  0  0
   11.1606    5.9378   21.2366 N   0  0  0  0  0  0  0  0  0  0  0  0
    9.8932   11.6736   19.0677 O   0  0  0  0  0  0  0  0  0  0  0  0
    6.4470    4.5850   22.2321 C   0  0  0  0  0  0  0  0  0  0  0  0
    8.4619    6.9895   22.2968 C   0  0  0  0  0  0  0  0  0  0  0  0
   12.2747    7.5102   20.0420 C   0  0  0  0  0  0  0  0  0  0  0  0
   14.2544    6.2142   19.4191 C   0  0  0  0  0  0  0  0  0  0  0  0
   13.0695    6.3705   20.0375 N   0  0  0  0  0  0  0  0  0  0  0  0
    9.1913    8.0876   21.8361 N   0  0  0  0  0  0  0  0  0  0  0  0
   10.4739    9.4813   20.2889 C   0  0  0  0  0  0  0  0  0  0  0  0
    7.5551    7.1270   23.1200 O   0  0  0  0  0  0  0  0  0  0  0  0
  1 11  4  0
  1 21  4  0
  2  4  1  0
  2  8  1  0
  2 11  1  0
  3 10  4  0
  3 14  4  0
  4  5  1  0
  4 18  2  0
  6 12  1  0
  6 17  4  0
  6 23  4  0
  7  9  1  0
  7 13  4  0
  7 19  4  0
  9 20  1  0
 10 19  4  0
 11 25  4  0
 13 14  4  0
 15 16  4  0
 15 17  4  0
 15 21  4  0
 16 24  1  0
 16 25  4  0
 20 24  1  0
 20 26  2  0
 21 23  4  0
 22 23  1  0
M  END
$$$$

 Created by Python create_sdf_string function

 26 28  0  0  0  0  0  0  0  0999 V2000
   12.4616    8.6700   19.4180 N   0  0  0  0  0  0  0  0  0  0  0  0
   11.8329   10.8148   18.6769 N   0  0  0  0  0  0  0  0  0  0  0  0
    6.1021    2.5564   21.0678 C   0  0  0  0  0  0  0  0  0  0  0  0
   10.9097   11.8051   18.4804 C   0  0  0  0  0  0  0  0  0  0  0  0
   11.2280   12.9135   17.5669 C   0  0  0  0  0  0  0  0  0  0  0  0
   12.3782    5.4231   20.7777 C   0  0  0  0  0  0  0  0  0  0  0  0
    7.7365    4.6508   21.6987 C   0  0  0  0  0  0  0  0  0  0  0  0
   13.0186   11.0102   18.0020 C   0  0  0  0  0  0  0  0  0  0  0  0
    8.6628    5.7088   21.8871 N   0  0  0  0  0  0  0  0  0  0  0  0
    5.6516    3.5258   21.9140 C   0  0  0  0  0  0  0  0  0  0  0  0
   11.5863    9.6815   19.4539 C   0  0  0  0  0  0  0  0  0  0  0  0
   12.9648    4.1543   20.9205 C   0  0  0  0  0  0  0  0  0  0  0  0
    8.2089    3.6265   20.8929 C   0  0  0  0  0  0  0  0  0  0  0  0
    7.3827    2.5724   20.5432 C   0  0  0  0  0  0  0  0  0  0  0  0
   11.1529    7.2750   20.8025 C   0  0  0  0  0  0  0  0  0  0  0  0
   10.2573    8.3215   20.9827 C   0  0  0  0  0  0  0  0  0  0  0  0
   11.1606    5.9378   21.2366 N   0  0  0  0  0  0  0  0  0  0  0  0
    9.8932   11.6736   19.0677 O   0  0  0  0  0  0  0  0  0  0  0  0
    6.4470    4.5850   22.2321 C   0  0  0  0  0  0  0  0  0  0  0  0
    8.4619    6.9895   22.2968 C   0  0  0  0  0  0  0  0  0  0  0  0
   12.2747    7.5102   20.0420 C   0  0  0  0  0  0  0  0  0  0  0  0
   14.2544    6.2142   19.4191 C   0  0  0  0  0  0  0  0  0  0  0  0
   13.0695    6.3705   20.0375 N   0  0  0  0  0  0  0  0  0  0  0  0
    9.1913    8.0876   21.8361 N   0  0  0  0  0  0  0  0  0  0  0  0
   10.4739    9.4813   20.2889 C   0  0  0  0  0  0  0  0  0  0  0  0
    7.5551    7.1270   23.1200 O   0  0  0  0  0  0  0  0  0  0  0  0
  1 11  4  0
  1 21  4  0
  2  4  1  0
  2  8  1  0
  2 11  1  0
  3 10  4  0
  3 14  4  0
  4  5  1  0
  4 18  2  0
  6 12  1  0
  6 17  4  0
  6 23  4  0
  7  9  1  0
  7 13  4  0
  7 19  4  0
  9 20  1  0
 10 19  4  0
 11 25  4  0
 13 14  4  0
 15 16  4  0
 15 17  4  0
 15 21  4  0
 16 24  1  0
 16 25  4  0
 20 24  1  0
 20 26  2  0
 21 23  4  0
 22 23  1  0
M  END
$$$$

 Created by Python create_sdf_string function

 26 28  0  0  0  0  0  0  0  0999 V2000
   12.4616    8.6700   19.4180 N   0  0  0  0  0  0  0  0  0  0  0  0
   11.8329   10.8148   18.6769 N   0  0  0  0  0  0  0  0  0  0  0  0
    6.1021    2.5564   21.0678 C   0  0  0  0  0  0  0  0  0  0  0  0
   10.9097   11.8051   18.4804 C   0  0  0  0  0  0  0  0  0  0  0  0
   11.2280   12.9135   17.5669 C   0  0  0  0  0  0  0  0  0  0  0  0
   12.3782    5.4231   20.7777 C   0  0  0  0  0  0  0  0  0  0  0  0
    7.7365    4.6508   21.6987 C   0  0  0  0  0  0  0  0  0  0  0  0
   13.0186   11.0102   18.0020 C   0  0  0  0  0  0  0  0  0  0  0  0
    8.6628    5.7088   21.8871 N   0  0  0  0  0  0  0  0  0  0  0  0
    5.6516    3.5258   21.9140 C   0  0  0  0  0  0  0  0  0  0  0  0
   11.5863    9.6815   19.4539 C   0  0  0  0  0  0  0  0  0  0  0  0
   12.9648    4.1543   20.9205 C   0  0  0  0  0  0  0  0  0  0  0  0
    8.2089    3.6265   20.8929 C   0  0  0  0  0  0  0  0  0  0  0  0
    7.3827    2.5724   20.5432 C   0  0  0  0  0  0  0  0  0  0  0  0
   11.1529    7.2750   20.8025 C   0  0  0  0  0  0  0  0  0  0  0  0
   10.2573    8.3215   20.9827 C   0  0  0  0  0  0  0  0  0  0  0  0
   11.1606    5.9378   21.2366 N   0  0  0  0  0  0  0  0  0  0  0  0
    9.8932   11.6736   19.0677 O   0  0  0  0  0  0  0  0  0  0  0  0
    6.4470    4.5850   22.2321 C   0  0  0  0  0  0  0  0  0  0  0  0
    8.4619    6.9895   22.2968 C   0  0  0  0  0  0  0  0  0  0  0  0
   12.2747    7.5102   20.0420 C   0  0  0  0  0  0  0  0  0  0  0  0
   14.2544    6.2142   19.4191 C   0  0  0  0  0  0  0  0  0  0  0  0
   13.0695    6.3705   20.0375 N   0  0  0  0  0  0  0  0  0  0  0  0
    9.1913    8.0876   21.8361 N   0  0  0  0  0  0  0  0  0  0  0  0
   10.4739    9.4813   20.2889 C   0  0  0  0  0  0  0  0  0  0  0  0
    7.5551    7.1270   23.1200 O   0  0  0  0  0  0  0  0  0  0  0  0
  1 11  4  0
  1 21  4  0
  2  4  1  0
  2  8  1  0
  2 11  1  0
  3 10  4  0
  3 14  4  0
  4  5  1  0
  4 18  2  0
  6 12  1  0
  6 17  4  0
  6 23  4  0
  7  9  1  0
  7 13  4  0
  7 19  4  0
  9 20  1  0
 10 19  4  0
 11 25  4  0
 13 14  4  0
 15 16  4  0
 15 17  4  0
 15 21  4  0
 16 24  1  0
 16 25  4  0
 20 24  1  0
 20 26  2  0
 21 23  4  0
 22 23  1  0
M  END
$$$$

 Created by Python create_sdf_string function

 26 28  0  0  0  0  0  0  0  0999 V2000
   12.4616    8.6700   19.4180 N   0  0  0  0  0  0  0  0  0  0  0  0
   11.8329   10.8148   18.6769 N   0  0  0  0  0  0  0  0  0  0  0  0
    6.1021    2.5564   21.0678 C   0  0  0  0  0  0  0  0  0  0  0  0
   10.9097   11.8051   18.4804 C   0  0  0  0  0  0  0  0  0  0  0  0
   11.2280   12.9135   17.5669 C   0  0  0  0  0  0  0  0  0  0  0  0
   12.3782    5.4231   20.7777 C   0  0  0  0  0  0  0  0  0  0  0  0
    7.7365    4.6508   21.6987 C   0  0  0  0  0  0  0  0  0  0  0  0
   13.0186   11.0102   18.0020 C   0  0  0  0  0  0  0  0  0  0  0  0
    8.6628    5.7088   21.8871 N   0  0  0  0  0  0  0  0  0  0  0  0
    5.6516    3.5258   21.9140 C   0  0  0  0  0  0  0  0  0  0  0  0
   11.5863    9.6815   19.4539 C   0  0  0  0  0  0  0  0  0  0  0  0
   12.9648    4.1543   20.9205 C   0  0  0  0  0  0  0  0  0  0  0  0
    8.2089    3.6265   20.8929 C   0  0  0  0  0  0  0  0  0  0  0  0
    7.3827    2.5724   20.5432 C   0  0  0  0  0  0  0  0  0  0  0  0
   11.1529    7.2750   20.8025 C   0  0  0  0  0  0  0  0  0  0  0  0
   10.2573    8.3215   20.9827 C   0  0  0  0  0  0  0  0  0  0  0  0
   11.1606    5.9378   21.2366 N   0  0  0  0  0  0  0  0  0  0  0  0
    9.8932   11.6736   19.0677 O   0  0  0  0  0  0  0  0  0  0  0  0
    6.4470    4.5850   22.2321 C   0  0  0  0  0  0  0  0  0  0  0  0
    8.4619    6.9895   22.2968 C   0  0  0  0  0  0  0  0  0  0  0  0
   12.2747    7.5102   20.0420 C   0  0  0  0  0  0  0  0  0  0  0  0
   14.2544    6.2142   19.4191 C   0  0  0  0  0  0  0  0  0  0  0  0
   13.0695    6.3705   20.0375 N   0  0  0  0  0  0  0  0  0  0  0  0
    9.1913    8.0876   21.8361 N   0  0  0  0  0  0  0  0  0  0  0  0
   10.4739    9.4813   20.2889 C   0  0  0  0  0  0  0  0  0  0  0  0
    7.5551    7.1270   23.1200 O   0  0  0  0  0  0  0  0  0  0  0  0
  1 11  4  0
  1 21  4  0
  2  4  1  0
  2  8  1  0
  2 11  1  0
  3 10  4  0
  3 14  4  0
  4  5  1  0
  4 18  2  0
  6 12  1  0
  6 17  4  0
  6 23  4  0
  7  9  1  0
  7 13  4  0
  7 19  4  0
  9 20  1  0
 10 19  4  0
 11 25  4  0
 13 14  4  0
 15 16  4  0
 15 17  4  0
 15 21  4  0
 16 24  1  0
 16 25  4  0
 20 24  1  0
 20 26  2  0
 21 23  4  0
 22 23  1  0
M  END
$$$$

 Created by Python create_sdf_string function

 26 28  0  0  0  0  0  0  0  0999 V2000
   12.4616    8.6700   19.4180 N   0  0  0  0  0  0  0  0  0  0  0  0
   11.8329   10.8148   18.6769 N   0  0  0  0  0  0  0  0  0  0  0  0
    6.1021    2.5564   21.0678 C   0  0  0  0  0  0  0  0  0  0  0  0
   10.9097   11.8051   18.4804 C   0  0  0  0  0  0  0  0  0  0  0  0
   11.2280   12.9135   17.5669 C   0  0  0  0  0  0  0  0  0  0  0  0
   12.3782    5.4231   20.7777 C   0  0  0  0  0  0  0  0  0  0  0  0
    7.7365    4.6508   21.6987 C   0  0  0  0  0  0  0  0  0  0  0  0
   13.0186   11.0102   18.0020 C   0  0  0  0  0  0  0  0  0  0  0  0
    8.6628    5.7088   21.8871 N   0  0  0  0  0  0  0  0  0  0  0  0
    5.6516    3.5258   21.9140 C   0  0  0  0  0  0  0  0  0  0  0  0
   11.5863    9.6815   19.4539 C   0  0  0  0  0  0  0  0  0  0  0  0
   12.9648    4.1543   20.9205 C   0  0  0  0  0  0  0  0  0  0  0  0
    8.2089    3.6265   20.8929 C   0  0  0  0  0  0  0  0  0  0  0  0
    7.3827    2.5724   20.5432 C   0  0  0  0  0  0  0  0  0  0  0  0
   11.1529    7.2750   20.8025 C   0  0  0  0  0  0  0  0  0  0  0  0
   10.2573    8.3215   20.9827 C   0  0  0  0  0  0  0  0  0  0  0  0
   11.1606    5.9378   21.2366 N   0  0  0  0  0  0  0  0  0  0  0  0
    9.8932   11.6736   19.0677 O   0  0  0  0  0  0  0  0  0  0  0  0
    6.4470    4.5850   22.2321 C   0  0  0  0  0  0  0  0  0  0  0  0
    8.4619    6.9895   22.2968 C   0  0  0  0  0  0  0  0  0  0  0  0
   12.2747    7.5102   20.0420 C   0  0  0  0  0  0  0  0  0  0  0  0
   14.2544    6.2142   19.4191 C   0  0  0  0  0  0  0  0  0  0  0  0
   13.0695    6.3705   20.0375 N   0  0  0  0  0  0  0  0  0  0  0  0
    9.1913    8.0876   21.8361 N   0  0  0  0  0  0  0  0  0  0  0  0
   10.4739    9.4813   20.2889 C   0  0  0  0  0  0  0  0  0  0  0  0
    7.5551    7.1270   23.1200 O   0  0  0  0  0  0  0  0  0  0  0  0
  1 11  4  0
  1 21  4  0
  2  4  1  0
  2  8  1  0
  2 11  1  0
  3 10  4  0
  3 14  4  0
  4  5  1  0
  4 18  2  0
  6 12  1  0
  6 17  4  0
  6 23  4  0
  7  9  1  0
  7 13  4  0
  7 19  4  0
  9 20  1  0
 10 19  4  0
 11 25  4  0
 13 14  4  0
 15 16  4  0
 15 17  4  0
 15 21  4  0
 16 24  1  0
 16 25  4  0
 20 24  1  0
 20 26  2  0
 21 23  4  0
 22 23  1  0
M  END
$$$$

 Created by Python create_sdf_string function

 26 28  0  0  0  0  0  0  0  0999 V2000
   12.4616    8.6700   19.4180 N   0  0  0  0  0  0  0  0  0  0  0  0
   11.8329   10.8148   18.6769 N   0  0  0  0  0  0  0  0  0  0  0  0
    6.1021    2.5564   21.0678 C   0  0  0  0  0  0  0  0  0  0  0  0
   10.9097   11.8051   18.4804 C   0  0  0  0  0  0  0  0  0  0  0  0
   11.2280   12.9135   17.5669 C   0  0  0  0  0  0  0  0  0  0  0  0
   12.3782    5.4231   20.7777 C   0  0  0  0  0  0  0  0  0  0  0  0
    7.7365    4.6508   21.6987 C   0  0  0  0  0  0  0  0  0  0  0  0
   13.0186   11.0102   18.0020 C   0  0  0  0  0  0  0  0  0  0  0  0
    8.6628    5.7088   21.8871 N   0  0  0  0  0  0  0  0  0  0  0  0
    5.6516    3.5258   21.9140 C   0  0  0  0  0  0  0  0  0  0  0  0
   11.5863    9.6815   19.4539 C   0  0  0  0  0  0  0  0  0  0  0  0
   12.9648    4.1543   20.9205 C   0  0  0  0  0  0  0  0  0  0  0  0
    8.2089    3.6265   20.8929 C   0  0  0  0  0  0  0  0  0  0  0  0
    7.3827    2.5724   20.5432 C   0  0  0  0  0  0  0  0  0  0  0  0
   11.1529    7.2750   20.8025 C   0  0  0  0  0  0  0  0  0  0  0  0
   10.2573    8.3215   20.9827 C   0  0  0  0  0  0  0  0  0  0  0  0
   11.1606    5.9378   21.2366 N   0  0  0  0  0  0  0  0  0  0  0  0
    9.8932   11.6736   19.0677 O   0  0  0  0  0  0  0  0  0  0  0  0
    6.4470    4.5850   22.2321 C   0  0  0  0  0  0  0  0  0  0  0  0
    8.4619    6.9895   22.2968 C   0  0  0  0  0  0  0  0  0  0  0  0
   12.2747    7.5102   20.0420 C   0  0  0  0  0  0  0  0  0  0  0  0
   14.2544    6.2142   19.4191 C   0  0  0  0  0  0  0  0  0  0  0  0
   13.0695    6.3705   20.0375 N   0  0  0  0  0  0  0  0  0  0  0  0
    9.1913    8.0876   21.8361 N   0  0  0  0  0  0  0  0  0  0  0  0
   10.4739    9.4813   20.2889 C   0  0  0  0  0  0  0  0  0  0  0  0
    7.5551    7.1270   23.1200 O   0  0  0  0  0  0  0  0  0  0  0  0
  1 11  4  0
  1 21  4  0
  2  4  1  0
  2  8  1  0
  2 11  1  0
  3 10  4  0
  3 14  4  0
  4  5  1  0
  4 18  2  0
  6 12  1  0
  6 17  4  0
  6 23  4  0
  7  9  1  0
  7 13  4  0
  7 19  4  0
  9 20  1  0
 10 19  4  0
 11 25  4  0
 13 14  4  0
 15 16  4  0
 15 17  4  0
 15 21  4  0
 16 24  1  0
 16 25  4  0
 20 24  1  0
 20 26  2  0
 21 23  4  0
 22 23  1  0
M  END
$$$$

 Created by Python create_sdf_string function

 26 28  0  0  0  0  0  0  0  0999 V2000
   12.4616    8.6700   19.4180 N   0  0  0  0  0  0  0  0  0  0  0  0
   11.8329   10.8148   18.6769 N   0  0  0  0  0  0  0  0  0  0  0  0
    6.1021    2.5564   21.0678 C   0  0  0  0  0  0  0  0  0  0  0  0
   10.9097   11.8051   18.4804 C   0  0  0  0  0  0  0  0  0  0  0  0
   11.2280   12.9135   17.5669 C   0  0  0  0  0  0  0  0  0  0  0  0
   12.3782    5.4231   20.7777 C   0  0  0  0  0  0  0  0  0  0  0  0
    7.7365    4.6508   21.6987 C   0  0  0  0  0  0  0  0  0  0  0  0
   13.0186   11.0102   18.0020 C   0  0  0  0  0  0  0  0  0  0  0  0
    8.6628    5.7088   21.8871 N   0  0  0  0  0  0  0  0  0  0  0  0
    5.6516    3.5258   21.9140 C   0  0  0  0  0  0  0  0  0  0  0  0
   11.5863    9.6815   19.4539 C   0  0  0  0  0  0  0  0  0  0  0  0
   12.9648    4.1543   20.9205 C   0  0  0  0  0  0  0  0  0  0  0  0
    8.2089    3.6265   20.8929 C   0  0  0  0  0  0  0  0  0  0  0  0
    7.3827    2.5724   20.5432 C   0  0  0  0  0  0  0  0  0  0  0  0
   11.1529    7.2750   20.8025 C   0  0  0  0  0  0  0  0  0  0  0  0
   10.2573    8.3215   20.9827 C   0  0  0  0  0  0  0  0  0  0  0  0
   11.1606    5.9378   21.2366 N   0  0  0  0  0  0  0  0  0  0  0  0
    9.8932   11.6736   19.0677 O   0  0  0  0  0  0  0  0  0  0  0  0
    6.4470    4.5850   22.2321 C   0  0  0  0  0  0  0  0  0  0  0  0
    8.4619    6.9895   22.2968 C   0  0  0  0  0  0  0  0  0  0  0  0
   12.2747    7.5102   20.0420 C   0  0  0  0  0  0  0  0  0  0  0  0
   14.2544    6.2142   19.4191 C   0  0  0  0  0  0  0  0  0  0  0  0
   13.0695    6.3705   20.0375 N   0  0  0  0  0  0  0  0  0  0  0  0
    9.1913    8.0876   21.8361 N   0  0  0  0  0  0  0  0  0  0  0  0
   10.4739    9.4813   20.2889 C   0  0  0  0  0  0  0  0  0  0  0  0
    7.5551    7.1270   23.1200 O   0  0  0  0  0  0  0  0  0  0  0  0
  1 11  4  0
  1 21  4  0
  2  4  1  0
  2  8  1  0
  2 11  1  0
  3 10  4  0
  3 14  4  0
  4  5  1  0
  4 18  2  0
  6 12  1  0
  6 17  4  0
  6 23  4  0
  7  9  1  0
  7 13  4  0
  7 19  4  0
  9 20  1  0
 10 19  4  0
 11 25  4  0
 13 14  4  0
 15 16  4  0
 15 17  4  0
 15 21  4  0
 16 24  1  0
 16 25  4  0
 20 24  1  0
 20 26  2  0
 21 23  4  0
 22 23  1  0
M  END
$$$$

 Created by Python create_sdf_string function

 26 28  0  0  0  0  0  0  0  0999 V2000
   12.4616    8.6700   19.4180 N   0  0  0  0  0  0  0  0  0  0  0  0
   11.8329   10.8148   18.6769 N   0  0  0  0  0  0  0  0  0  0  0  0
    6.1021    2.5564   21.0678 C   0  0  0  0  0  0  0  0  0  0  0  0
   10.9097   11.8051   18.4804 C   0  0  0  0  0  0  0  0  0  0  0  0
   11.2280   12.9135   17.5669 C   0  0  0  0  0  0  0  0  0  0  0  0
   12.3782    5.4231   20.7777 C   0  0  0  0  0  0  0  0  0  0  0  0
    7.7365    4.6508   21.6987 C   0  0  0  0  0  0  0  0  0  0  0  0
   13.0186   11.0102   18.0020 C   0  0  0  0  0  0  0  0  0  0  0  0
    8.6628    5.7088   21.8871 N   0  0  0  0  0  0  0  0  0  0  0  0
    5.6516    3.5258   21.9140 C   0  0  0  0  0  0  0  0  0  0  0  0
   11.5863    9.6815   19.4539 C   0  0  0  0  0  0  0  0  0  0  0  0
   12.9648    4.1543   20.9205 C   0  0  0  0  0  0  0  0  0  0  0  0
    8.2089    3.6265   20.8929 C   0  0  0  0  0  0  0  0  0  0  0  0
    7.3827    2.5724   20.5432 C   0  0  0  0  0  0  0  0  0  0  0  0
   11.1529    7.2750   20.8025 C   0  0  0  0  0  0  0  0  0  0  0  0
   10.2573    8.3215   20.9827 C   0  0  0  0  0  0  0  0  0  0  0  0
   11.1606    5.9378   21.2366 N   0  0  0  0  0  0  0  0  0  0  0  0
    9.8932   11.6736   19.0677 O   0  0  0  0  0  0  0  0  0  0  0  0
    6.4470    4.5850   22.2321 C   0  0  0  0  0  0  0  0  0  0  0  0
    8.4619    6.9895   22.2968 C   0  0  0  0  0  0  0  0  0  0  0  0
   12.2747    7.5102   20.0420 C   0  0  0  0  0  0  0  0  0  0  0  0
   14.2544    6.2142   19.4191 C   0  0  0  0  0  0  0  0  0  0  0  0
   13.0695    6.3705   20.0375 N   0  0  0  0  0  0  0  0  0  0  0  0
    9.1913    8.0876   21.8361 N   0  0  0  0  0  0  0  0  0  0  0  0
   10.4739    9.4813   20.2889 C   0  0  0  0  0  0  0  0  0  0  0  0
    7.5551    7.1270   23.1200 O   0  0  0  0  0  0  0  0  0  0  0  0
  1 11  4  0
  1 21  4  0
  2  4  1  0
  2  8  1  0
  2 11  1  0
  3 10  4  0
  3 14  4  0
  4  5  1  0
  4 18  2  0
  6 12  1  0
  6 17  4  0
  6 23  4  0
  7  9  1  0
  7 13  4  0
  7 19  4  0
  9 20  1  0
 10 19  4  0
 11 25  4  0
 13 14  4  0
 15 16  4  0
 15 17  4  0
 15 21  4  0
 16 24  1  0
 16 25  4  0
 20 24  1  0
 20 26  2  0
 21 23  4  0
 22 23  1  0
M  END
$$$$

 Created by Python create_sdf_string function

 26 28  0  0  0  0  0  0  0  0999 V2000
   12.4616    8.6700   19.4180 N   0  0  0  0  0  0  0  0  0  0  0  0
   11.8329   10.8148   18.6769 N   0  0  0  0  0  0  0  0  0  0  0  0
    6.1021    2.5564   21.0678 C   0  0  0  0  0  0  0  0  0  0  0  0
   10.9097   11.8051   18.4804 C   0  0  0  0  0  0  0  0  0  0  0  0
   11.2280   12.9135   17.5669 C   0  0  0  0  0  0  0  0  0  0  0  0
   12.3782    5.4231   20.7777 C   0  0  0  0  0  0  0  0  0  0  0  0
    7.7365    4.6508   21.6987 C   0  0  0  0  0  0  0  0  0  0  0  0
   13.0186   11.0102   18.0020 C   0  0  0  0  0  0  0  0  0  0  0  0
    8.6628    5.7088   21.8871 N   0  0  0  0  0  0  0  0  0  0  0  0
    5.6516    3.5258   21.9140 C   0  0  0  0  0  0  0  0  0  0  0  0
   11.5863    9.6815   19.4539 C   0  0  0  0  0  0  0  0  0  0  0  0
   12.9648    4.1543   20.9205 C   0  0  0  0  0  0  0  0  0  0  0  0
    8.2089    3.6265   20.8929 C   0  0  0  0  0  0  0  0  0  0  0  0
    7.3827    2.5724   20.5432 C   0  0  0  0  0  0  0  0  0  0  0  0
   11.1529    7.2750   20.8025 C   0  0  0  0  0  0  0  0  0  0  0  0
   10.2573    8.3215   20.9827 C   0  0  0  0  0  0  0  0  0  0  0  0
   11.1606    5.9378   21.2366 N   0  0  0  0  0  0  0  0  0  0  0  0
    9.8932   11.6736   19.0677 O   0  0  0  0  0  0  0  0  0  0  0  0
    6.4470    4.5850   22.2321 C   0  0  0  0  0  0  0  0  0  0  0  0
    8.4619    6.9895   22.2968 C   0  0  0  0  0  0  0  0  0  0  0  0
   12.2747    7.5102   20.0420 C   0  0  0  0  0  0  0  0  0  0  0  0
   14.2544    6.2142   19.4191 C   0  0  0  0  0  0  0  0  0  0  0  0
   13.0695    6.3705   20.0375 N   0  0  0  0  0  0  0  0  0  0  0  0
    9.1913    8.0876   21.8361 N   0  0  0  0  0  0  0  0  0  0  0  0
   10.4739    9.4813   20.2889 C   0  0  0  0  0  0  0  0  0  0  0  0
    7.5551    7.1270   23.1200 O   0  0  0  0  0  0  0  0  0  0  0  0
  1 11  4  0
  1 21  4  0
  2  4  1  0
  2  8  1  0
  2 11  1  0
  3 10  4  0
  3 14  4  0
  4  5  1  0
  4 18  2  0
  6 12  1  0
  6 17  4  0
  6 23  4  0
  7  9  1  0
  7 13  4  0
  7 19  4  0
  9 20  1  0
 10 19  4  0
 11 25  4  0
 13 14  4  0
 15 16  4  0
 15 17  4  0
 15 21  4  0
 16 24  1  0
 16 25  4  0
 20 24  1  0
 20 26  2  0
 21 23  4  0
 22 23  1  0
M  END
$$$$

 Created by Python create_sdf_string function

 26 28  0  0  0  0  0  0  0  0999 V2000
   12.4616    8.6700   19.4180 N   0  0  0  0  0  0  0  0  0  0  0  0
   11.8329   10.8148   18.6769 N   0  0  0  0  0  0  0  0  0  0  0  0
    6.1021    2.5564   21.0678 C   0  0  0  0  0  0  0  0  0  0  0  0
   10.9097   11.8051   18.4804 C   0  0  0  0  0  0  0  0  0  0  0  0
   11.2280   12.9135   17.5669 C   0  0  0  0  0  0  0  0  0  0  0  0
   12.3782    5.4231   20.7777 C   0  0  0  0  0  0  0  0  0  0  0  0
    7.7365    4.6508   21.6987 C   0  0  0  0  0  0  0  0  0  0  0  0
   13.0186   11.0102   18.0020 C   0  0  0  0  0  0  0  0  0  0  0  0
    8.6628    5.7088   21.8871 N   0  0  0  0  0  0  0  0  0  0  0  0
    5.6516    3.5258   21.9140 C   0  0  0  0  0  0  0  0  0  0  0  0
   11.5863    9.6815   19.4539 C   0  0  0  0  0  0  0  0  0  0  0  0
   12.9648    4.1543   20.9205 C   0  0  0  0  0  0  0  0  0  0  0  0
    8.2089    3.6265   20.8929 C   0  0  0  0  0  0  0  0  0  0  0  0
    7.3827    2.5724   20.5432 C   0  0  0  0  0  0  0  0  0  0  0  0
   11.1529    7.2750   20.8025 C   0  0  0  0  0  0  0  0  0  0  0  0
   10.2573    8.3215   20.9827 C   0  0  0  0  0  0  0  0  0  0  0  0
   11.1606    5.9378   21.2366 N   0  0  0  0  0  0  0  0  0  0  0  0
    9.8932   11.6736   19.0677 O   0  0  0  0  0  0  0  0  0  0  0  0
    6.4470    4.5850   22.2321 C   0  0  0  0  0  0  0  0  0  0  0  0
    8.4619    6.9895   22.2968 C   0  0  0  0  0  0  0  0  0  0  0  0
   12.2747    7.5102   20.0420 C   0  0  0  0  0  0  0  0  0  0  0  0
   14.2544    6.2142   19.4191 C   0  0  0  0  0  0  0  0  0  0  0  0
   13.0695    6.3705   20.0375 N   0  0  0  0  0  0  0  0  0  0  0  0
    9.1913    8.0876   21.8361 N   0  0  0  0  0  0  0  0  0  0  0  0
   10.4739    9.4813   20.2889 C   0  0  0  0  0  0  0  0  0  0  0  0
    7.5551    7.1270   23.1200 O   0  0  0  0  0  0  0  0  0  0  0  0
  1 11  4  0
  1 21  4  0
  2  4  1  0
  2  8  1  0
  2 11  1  0
  3 10  4  0
  3 14  4  0
  4  5  1  0
  4 18  2  0
  6 12  1  0
  6 17  4  0
  6 23  4  0
  7  9  1  0
  7 13  4  0
  7 19  4  0
  9 20  1  0
 10 19  4  0
 11 25  4  0
 13 14  4  0
 15 16  4  0
 15 17  4  0
 15 21  4  0
 16 24  1  0
 16 25  4  0
 20 24  1  0
 20 26  2  0
 21 23  4  0
 22 23  1  0
M  END
$$$$

 Created by Python create_sdf_string function

 26 28  0  0  0  0  0  0  0  0999 V2000
   12.4616    8.6700   19.4180 N   0  0  0  0  0  0  0  0  0  0  0  0
   11.8329   10.8148   18.6769 N   0  0  0  0  0  0  0  0  0  0  0  0
    6.1021    2.5564   21.0678 C   0  0  0  0  0  0  0  0  0  0  0  0
   10.9097   11.8051   18.4804 C   0  0  0  0  0  0  0  0  0  0  0  0
   11.2280   12.9135   17.5669 C   0  0  0  0  0  0  0  0  0  0  0  0
   12.3782    5.4231   20.7777 C   0  0  0  0  0  0  0  0  0  0  0  0
    7.7365    4.6508   21.6987 C   0  0  0  0  0  0  0  0  0  0  0  0
   13.0186   11.0102   18.0020 C   0  0  0  0  0  0  0  0  0  0  0  0
    8.6628    5.7088   21.8871 N   0  0  0  0  0  0  0  0  0  0  0  0
    5.6516    3.5258   21.9140 C   0  0  0  0  0  0  0  0  0  0  0  0
   11.5863    9.6815   19.4539 C   0  0  0  0  0  0  0  0  0  0  0  0
   12.9648    4.1543   20.9205 C   0  0  0  0  0  0  0  0  0  0  0  0
    8.2089    3.6265   20.8929 C   0  0  0  0  0  0  0  0  0  0  0  0
    7.3827    2.5724   20.5432 C   0  0  0  0  0  0  0  0  0  0  0  0
   11.1529    7.2750   20.8025 C   0  0  0  0  0  0  0  0  0  0  0  0
   10.2573    8.3215   20.9827 C   0  0  0  0  0  0  0  0  0  0  0  0
   11.1606    5.9378   21.2366 N   0  0  0  0  0  0  0  0  0  0  0  0
    9.8932   11.6736   19.0677 O   0  0  0  0  0  0  0  0  0  0  0  0
    6.4470    4.5850   22.2321 C   0  0  0  0  0  0  0  0  0  0  0  0
    8.4619    6.9895   22.2968 C   0  0  0  0  0  0  0  0  0  0  0  0
   12.2747    7.5102   20.0420 C   0  0  0  0  0  0  0  0  0  0  0  0
   14.2544    6.2142   19.4191 C   0  0  0  0  0  0  0  0  0  0  0  0
   13.0695    6.3705   20.0375 N   0  0  0  0  0  0  0  0  0  0  0  0
    9.1913    8.0876   21.8361 N   0  0  0  0  0  0  0  0  0  0  0  0
   10.4739    9.4813   20.2889 C   0  0  0  0  0  0  0  0  0  0  0  0
    7.5551    7.1270   23.1200 O   0  0  0  0  0  0  0  0  0  0  0  0
  1 11  4  0
  1 21  4  0
  2  4  1  0
  2  8  1  0
  2 11  1  0
  3 10  4  0
  3 14  4  0
  4  5  1  0
  4 18  2  0
  6 12  1  0
  6 17  4  0
  6 23  4  0
  7  9  1  0
  7 13  4  0
  7 19  4  0
  9 20  1  0
 10 19  4  0
 11 25  4  0
 13 14  4  0
 15 16  4  0
 15 17  4  0
 15 21  4  0
 16 24  1  0
 16 25  4  0
 20 24  1  0
 20 26  2  0
 21 23  4  0
 22 23  1  0
M  END
$$$$

 Created by Python create_sdf_string function

 26 28  0  0  0  0  0  0  0  0999 V2000
   12.4616    8.6700   19.4180 N   0  0  0  0  0  0  0  0  0  0  0  0
   11.8329   10.8148   18.6769 N   0  0  0  0  0  0  0  0  0  0  0  0
    6.1021    2.5564   21.0678 C   0  0  0  0  0  0  0  0  0  0  0  0
   10.9097   11.8051   18.4804 C   0  0  0  0  0  0  0  0  0  0  0  0
   11.2280   12.9135   17.5669 C   0  0  0  0  0  0  0  0  0  0  0  0
   12.3782    5.4231   20.7777 C   0  0  0  0  0  0  0  0  0  0  0  0
    7.7365    4.6508   21.6987 C   0  0  0  0  0  0  0  0  0  0  0  0
   13.0186   11.0102   18.0020 C   0  0  0  0  0  0  0  0  0  0  0  0
    8.6628    5.7088   21.8871 N   0  0  0  0  0  0  0  0  0  0  0  0
    5.6516    3.5258   21.9140 C   0  0  0  0  0  0  0  0  0  0  0  0
   11.5863    9.6815   19.4539 C   0  0  0  0  0  0  0  0  0  0  0  0
   12.9648    4.1543   20.9205 C   0  0  0  0  0  0  0  0  0  0  0  0
    8.2089    3.6265   20.8929 C   0  0  0  0  0  0  0  0  0  0  0  0
    7.3827    2.5724   20.5432 C   0  0  0  0  0  0  0  0  0  0  0  0
   11.1529    7.2750   20.8025 C   0  0  0  0  0  0  0  0  0  0  0  0
   10.2573    8.3215   20.9827 C   0  0  0  0  0  0  0  0  0  0  0  0
   11.1606    5.9378   21.2366 N   0  0  0  0  0  0  0  0  0  0  0  0
    9.8932   11.6736   19.0677 O   0  0  0  0  0  0  0  0  0  0  0  0
    6.4470    4.5850   22.2321 C   0  0  0  0  0  0  0  0  0  0  0  0
    8.4619    6.9895   22.2968 C   0  0  0  0  0  0  0  0  0  0  0  0
   12.2747    7.5102   20.0420 C   0  0  0  0  0  0  0  0  0  0  0  0
   14.2544    6.2142   19.4191 C   0  0  0  0  0  0  0  0  0  0  0  0
   13.0695    6.3705   20.0375 N   0  0  0  0  0  0  0  0  0  0  0  0
    9.1913    8.0876   21.8361 N   0  0  0  0  0  0  0  0  0  0  0  0
   10.4739    9.4813   20.2889 C   0  0  0  0  0  0  0  0  0  0  0  0
    7.5551    7.1270   23.1200 O   0  0  0  0  0  0  0  0  0  0  0  0
  1 11  4  0
  1 21  4  0
  2  4  1  0
  2  8  1  0
  2 11  1  0
  3 10  4  0
  3 14  4  0
  4  5  1  0
  4 18  2  0
  6 12  1  0
  6 17  4  0
  6 23  4  0
  7  9  1  0
  7 13  4  0
  7 19  4  0
  9 20  1  0
 10 19  4  0
 11 25  4  0
 13 14  4  0
 15 16  4  0
 15 17  4  0
 15 21  4  0
 16 24  1  0
 16 25  4  0
 20 24  1  0
 20 26  2  0
 21 23  4  0
 22 23  1  0
M  END
$$$$

 Created by Python create_sdf_string function

 26 28  0  0  0  0  0  0  0  0999 V2000
   12.4616    8.6700   19.4180 N   0  0  0  0  0  0  0  0  0  0  0  0
   11.8329   10.8148   18.6769 N   0  0  0  0  0  0  0  0  0  0  0  0
    6.1021    2.5564   21.0678 C   0  0  0  0  0  0  0  0  0  0  0  0
   10.9097   11.8051   18.4804 C   0  0  0  0  0  0  0  0  0  0  0  0
   11.2280   12.9135   17.5669 C   0  0  0  0  0  0  0  0  0  0  0  0
   12.3782    5.4231   20.7777 C   0  0  0  0  0  0  0  0  0  0  0  0
    7.7365    4.6508   21.6987 C   0  0  0  0  0  0  0  0  0  0  0  0
   13.0186   11.0102   18.0020 C   0  0  0  0  0  0  0  0  0  0  0  0
    8.6628    5.7088   21.8871 N   0  0  0  0  0  0  0  0  0  0  0  0
    5.6516    3.5258   21.9140 C   0  0  0  0  0  0  0  0  0  0  0  0
   11.5863    9.6815   19.4539 C   0  0  0  0  0  0  0  0  0  0  0  0
   12.9648    4.1543   20.9205 C   0  0  0  0  0  0  0  0  0  0  0  0
    8.2089    3.6265   20.8929 C   0  0  0  0  0  0  0  0  0  0  0  0
    7.3827    2.5724   20.5432 C   0  0  0  0  0  0  0  0  0  0  0  0
   11.1529    7.2750   20.8025 C   0  0  0  0  0  0  0  0  0  0  0  0
   10.2573    8.3215   20.9827 C   0  0  0  0  0  0  0  0  0  0  0  0
   11.1606    5.9378   21.2366 N   0  0  0  0  0  0  0  0  0  0  0  0
    9.8932   11.6736   19.0677 O   0  0  0  0  0  0  0  0  0  0  0  0
    6.4470    4.5850   22.2321 C   0  0  0  0  0  0  0  0  0  0  0  0
    8.4619    6.9895   22.2968 C   0  0  0  0  0  0  0  0  0  0  0  0
   12.2747    7.5102   20.0420 C   0  0  0  0  0  0  0  0  0  0  0  0
   14.2544    6.2142   19.4191 C   0  0  0  0  0  0  0  0  0  0  0  0
   13.0695    6.3705   20.0375 N   0  0  0  0  0  0  0  0  0  0  0  0
    9.1913    8.0876   21.8361 N   0  0  0  0  0  0  0  0  0  0  0  0
   10.4739    9.4813   20.2889 C   0  0  0  0  0  0  0  0  0  0  0  0
    7.5551    7.1270   23.1200 O   0  0  0  0  0  0  0  0  0  0  0  0
  1 11  4  0
  1 21  4  0
  2  4  1  0
  2  8  1  0
  2 11  1  0
  3 10  4  0
  3 14  4  0
  4  5  1  0
  4 18  2  0
  6 12  1  0
  6 17  4  0
  6 23  4  0
  7  9  1  0
  7 13  4  0
  7 19  4  0
  9 20  1  0
 10 19  4  0
 11 25  4  0
 13 14  4  0
 15 16  4  0
 15 17  4  0
 15 21  4  0
 16 24  1  0
 16 25  4  0
 20 24  1  0
 20 26  2  0
 21 23  4  0
 22 23  1  0
M  END
$$$$

 Created by Python create_sdf_string function

 26 28  0  0  0  0  0  0  0  0999 V2000
   12.4616    8.6700   19.4180 N   0  0  0  0  0  0  0  0  0  0  0  0
   11.8329   10.8148   18.6769 N   0  0  0  0  0  0  0  0  0  0  0  0
    6.1021    2.5564   21.0678 C   0  0  0  0  0  0  0  0  0  0  0  0
   10.9097   11.8051   18.4804 C   0  0  0  0  0  0  0  0  0  0  0  0
   11.2280   12.9135   17.5669 C   0  0  0  0  0  0  0  0  0  0  0  0
   12.3782    5.4231   20.7777 C   0  0  0  0  0  0  0  0  0  0  0  0
    7.7365    4.6508   21.6987 C   0  0  0  0  0  0  0  0  0  0  0  0
   13.0186   11.0102   18.0020 C   0  0  0  0  0  0  0  0  0  0  0  0
    8.6628    5.7088   21.8871 N   0  0  0  0  0  0  0  0  0  0  0  0
    5.6516    3.5258   21.9140 C   0  0  0  0  0  0  0  0  0  0  0  0
   11.5863    9.6815   19.4539 C   0  0  0  0  0  0  0  0  0  0  0  0
   12.9648    4.1543   20.9205 C   0  0  0  0  0  0  0  0  0  0  0  0
    8.2089    3.6265   20.8929 C   0  0  0  0  0  0  0  0  0  0  0  0
    7.3827    2.5724   20.5432 C   0  0  0  0  0  0  0  0  0  0  0  0
   11.1529    7.2750   20.8025 C   0  0  0  0  0  0  0  0  0  0  0  0
   10.2573    8.3215   20.9827 C   0  0  0  0  0  0  0  0  0  0  0  0
   11.1606    5.9378   21.2366 N   0  0  0  0  0  0  0  0  0  0  0  0
    9.8932   11.6736   19.0677 O   0  0  0  0  0  0  0  0  0  0  0  0
    6.4470    4.5850   22.2321 C   0  0  0  0  0  0  0  0  0  0  0  0
    8.4619    6.9895   22.2968 C   0  0  0  0  0  0  0  0  0  0  0  0
   12.2747    7.5102   20.0420 C   0  0  0  0  0  0  0  0  0  0  0  0
   14.2544    6.2142   19.4191 C   0  0  0  0  0  0  0  0  0  0  0  0
   13.0695    6.3705   20.0375 N   0  0  0  0  0  0  0  0  0  0  0  0
    9.1913    8.0876   21.8361 N   0  0  0  0  0  0  0  0  0  0  0  0
   10.4739    9.4813   20.2889 C   0  0  0  0  0  0  0  0  0  0  0  0
    7.5551    7.1270   23.1200 O   0  0  0  0  0  0  0  0  0  0  0  0
  1 11  4  0
  1 21  4  0
  2  4  1  0
  2  8  1  0
  2 11  1  0
  3 10  4  0
  3 14  4  0
  4  5  1  0
  4 18  2  0
  6 12  1  0
  6 17  4  0
  6 23  4  0
  7  9  1  0
  7 13  4  0
  7 19  4  0
  9 20  1  0
 10 19  4  0
 11 25  4  0
 13 14  4  0
 15 16  4  0
 15 17  4  0
 15 21  4  0
 16 24  1  0
 16 25  4  0
 20 24  1  0
 20 26  2  0
 21 23  4  0
 22 23  1  0
M  END
$$$$

 Created by Python create_sdf_string function

 26 28  0  0  0  0  0  0  0  0999 V2000
   12.4616    8.6700   19.4180 N   0  0  0  0  0  0  0  0  0  0  0  0
   11.8329   10.8148   18.6769 N   0  0  0  0  0  0  0  0  0  0  0  0
    6.1021    2.5564   21.0678 C   0  0  0  0  0  0  0  0  0  0  0  0
   10.9097   11.8051   18.4804 C   0  0  0  0  0  0  0  0  0  0  0  0
   11.2280   12.9135   17.5669 C   0  0  0  0  0  0  0  0  0  0  0  0
   12.3782    5.4231   20.7777 C   0  0  0  0  0  0  0  0  0  0  0  0
    7.7365    4.6508   21.6987 C   0  0  0  0  0  0  0  0  0  0  0  0
   13.0186   11.0102   18.0020 C   0  0  0  0  0  0  0  0  0  0  0  0
    8.6628    5.7088   21.8871 N   0  0  0  0  0  0  0  0  0  0  0  0
    5.6516    3.5258   21.9140 C   0  0  0  0  0  0  0  0  0  0  0  0
   11.5863    9.6815   19.4539 C   0  0  0  0  0  0  0  0  0  0  0  0
   12.9648    4.1543   20.9205 C   0  0  0  0  0  0  0  0  0  0  0  0
    8.2089    3.6265   20.8929 C   0  0  0  0  0  0  0  0  0  0  0  0
    7.3827    2.5724   20.5432 C   0  0  0  0  0  0  0  0  0  0  0  0
   11.1529    7.2750   20.8025 C   0  0  0  0  0  0  0  0  0  0  0  0
   10.2573    8.3215   20.9827 C   0  0  0  0  0  0  0  0  0  0  0  0
   11.1606    5.9378   21.2366 N   0  0  0  0  0  0  0  0  0  0  0  0
    9.8932   11.6736   19.0677 O   0  0  0  0  0  0  0  0  0  0  0  0
    6.4470    4.5850   22.2321 C   0  0  0  0  0  0  0  0  0  0  0  0
    8.4619    6.9895   22.2968 C   0  0  0  0  0  0  0  0  0  0  0  0
   12.2747    7.5102   20.0420 C   0  0  0  0  0  0  0  0  0  0  0  0
   14.2544    6.2142   19.4191 C   0  0  0  0  0  0  0  0  0  0  0  0
   13.0695    6.3705   20.0375 N   0  0  0  0  0  0  0  0  0  0  0  0
    9.1913    8.0876   21.8361 N   0  0  0  0  0  0  0  0  0  0  0  0
   10.4739    9.4813   20.2889 C   0  0  0  0  0  0  0  0  0  0  0  0
    7.5551    7.1270   23.1200 O   0  0  0  0  0  0  0  0  0  0  0  0
  1 11  4  0
  1 21  4  0
  2  4  1  0
  2  8  1  0
  2 11  1  0
  3 10  4  0
  3 14  4  0
  4  5  1  0
  4 18  2  0
  6 12  1  0
  6 17  4  0
  6 23  4  0
  7  9  1  0
  7 13  4  0
  7 19  4  0
  9 20  1  0
 10 19  4  0
 11 25  4  0
 13 14  4  0
 15 16  4  0
 15 17  4  0
 15 21  4  0
 16 24  1  0
 16 25  4  0
 20 24  1  0
 20 26  2  0
 21 23  4  0
 22 23  1  0
M  END
$$$$

 Created by Python create_sdf_string function

 26 28  0  0  0  0  0  0  0  0999 V2000
   12.4616    8.6700   19.4180 N   0  0  0  0  0  0  0  0  0  0  0  0
   11.8329   10.8148   18.6769 N   0  0  0  0  0  0  0  0  0  0  0  0
    6.1021    2.5564   21.0678 C   0  0  0  0  0  0  0  0  0  0  0  0
   10.9097   11.8051   18.4804 C   0  0  0  0  0  0  0  0  0  0  0  0
   11.2280   12.9135   17.5669 C   0  0  0  0  0  0  0  0  0  0  0  0
   12.3782    5.4231   20.7777 C   0  0  0  0  0  0  0  0  0  0  0  0
    7.7365    4.6508   21.6987 C   0  0  0  0  0  0  0  0  0  0  0  0
   13.0186   11.0102   18.0020 C   0  0  0  0  0  0  0  0  0  0  0  0
    8.6628    5.7088   21.8871 N   0  0  0  0  0  0  0  0  0  0  0  0
    5.6516    3.5258   21.9140 C   0  0  0  0  0  0  0  0  0  0  0  0
   11.5863    9.6815   19.4539 C   0  0  0  0  0  0  0  0  0  0  0  0
   12.9648    4.1543   20.9205 C   0  0  0  0  0  0  0  0  0  0  0  0
    8.2089    3.6265   20.8929 C   0  0  0  0  0  0  0  0  0  0  0  0
    7.3827    2.5724   20.5432 C   0  0  0  0  0  0  0  0  0  0  0  0
   11.1529    7.2750   20.8025 C   0  0  0  0  0  0  0  0  0  0  0  0
   10.2573    8.3215   20.9827 C   0  0  0  0  0  0  0  0  0  0  0  0
   11.1606    5.9378   21.2366 N   0  0  0  0  0  0  0  0  0  0  0  0
    9.8932   11.6736   19.0677 O   0  0  0  0  0  0  0  0  0  0  0  0
    6.4470    4.5850   22.2321 C   0  0  0  0  0  0  0  0  0  0  0  0
    8.4619    6.9895   22.2968 C   0  0  0  0  0  0  0  0  0  0  0  0
   12.2747    7.5102   20.0420 C   0  0  0  0  0  0  0  0  0  0  0  0
   14.2544    6.2142   19.4191 C   0  0  0  0  0  0  0  0  0  0  0  0
   13.0695    6.3705   20.0375 N   0  0  0  0  0  0  0  0  0  0  0  0
    9.1913    8.0876   21.8361 N   0  0  0  0  0  0  0  0  0  0  0  0
   10.4739    9.4813   20.2889 C   0  0  0  0  0  0  0  0  0  0  0  0
    7.5551    7.1270   23.1200 O   0  0  0  0  0  0  0  0  0  0  0  0
  1 11  4  0
  1 21  4  0
  2  4  1  0
  2  8  1  0
  2 11  1  0
  3 10  4  0
  3 14  4  0
  4  5  1  0
  4 18  2  0
  6 12  1  0
  6 17  4  0
  6 23  4  0
  7  9  1  0
  7 13  4  0
  7 19  4  0
  9 20  1  0
 10 19  4  0
 11 25  4  0
 13 14  4  0
 15 16  4  0
 15 17  4  0
 15 21  4  0
 16 24  1  0
 16 25  4  0
 20 24  1  0
 20 26  2  0
 21 23  4  0
 22 23  1  0
M  END
$$$$

 Created by Python create_sdf_string function

 26 28  0  0  0  0  0  0  0  0999 V2000
   12.4616    8.6700   19.4180 N   0  0  0  0  0  0  0  0  0  0  0  0
   11.8329   10.8148   18.6769 N   0  0  0  0  0  0  0  0  0  0  0  0
    6.1021    2.5564   21.0678 C   0  0  0  0  0  0  0  0  0  0  0  0
   10.9097   11.8051   18.4804 C   0  0  0  0  0  0  0  0  0  0  0  0
   11.2280   12.9135   17.5669 C   0  0  0  0  0  0  0  0  0  0  0  0
   12.3782    5.4231   20.7777 C   0  0  0  0  0  0  0  0  0  0  0  0
    7.7365    4.6508   21.6987 C   0  0  0  0  0  0  0  0  0  0  0  0
   13.0186   11.0102   18.0020 C   0  0  0  0  0  0  0  0  0  0  0  0
    8.6628    5.7088   21.8871 N   0  0  0  0  0  0  0  0  0  0  0  0
    5.6516    3.5258   21.9140 C   0  0  0  0  0  0  0  0  0  0  0  0
   11.5863    9.6815   19.4539 C   0  0  0  0  0  0  0  0  0  0  0  0
   12.9648    4.1543   20.9205 C   0  0  0  0  0  0  0  0  0  0  0  0
    8.2089    3.6265   20.8929 C   0  0  0  0  0  0  0  0  0  0  0  0
    7.3827    2.5724   20.5432 C   0  0  0  0  0  0  0  0  0  0  0  0
   11.1529    7.2750   20.8025 C   0  0  0  0  0  0  0  0  0  0  0  0
   10.2573    8.3215   20.9827 C   0  0  0  0  0  0  0  0  0  0  0  0
   11.1606    5.9378   21.2366 N   0  0  0  0  0  0  0  0  0  0  0  0
    9.8932   11.6736   19.0677 O   0  0  0  0  0  0  0  0  0  0  0  0
    6.4470    4.5850   22.2321 C   0  0  0  0  0  0  0  0  0  0  0  0
    8.4619    6.9895   22.2968 C   0  0  0  0  0  0  0  0  0  0  0  0
   12.2747    7.5102   20.0420 C   0  0  0  0  0  0  0  0  0  0  0  0
   14.2544    6.2142   19.4191 C   0  0  0  0  0  0  0  0  0  0  0  0
   13.0695    6.3705   20.0375 N   0  0  0  0  0  0  0  0  0  0  0  0
    9.1913    8.0876   21.8361 N   0  0  0  0  0  0  0  0  0  0  0  0
   10.4739    9.4813   20.2889 C   0  0  0  0  0  0  0  0  0  0  0  0
    7.5551    7.1270   23.1200 O   0  0  0  0  0  0  0  0  0  0  0  0
  1 11  4  0
  1 21  4  0
  2  4  1  0
  2  8  1  0
  2 11  1  0
  3 10  4  0
  3 14  4  0
  4  5  1  0
  4 18  2  0
  6 12  1  0
  6 17  4  0
  6 23  4  0
  7  9  1  0
  7 13  4  0
  7 19  4  0
  9 20  1  0
 10 19  4  0
 11 25  4  0
 13 14  4  0
 15 16  4  0
 15 17  4  0
 15 21  4  0
 16 24  1  0
 16 25  4  0
 20 24  1  0
 20 26  2  0
 21 23  4  0
 22 23  1  0
M  END
$$$$

 Created by Python create_sdf_string function

 26 28  0  0  0  0  0  0  0  0999 V2000
   12.4616    8.6700   19.4180 N   0  0  0  0  0  0  0  0  0  0  0  0
   11.8329   10.8148   18.6769 N   0  0  0  0  0  0  0  0  0  0  0  0
    6.1021    2.5564   21.0678 C   0  0  0  0  0  0  0  0  0  0  0  0
   10.9097   11.8051   18.4804 C   0  0  0  0  0  0  0  0  0  0  0  0
   11.2280   12.9135   17.5669 C   0  0  0  0  0  0  0  0  0  0  0  0
   12.3782    5.4231   20.7777 C   0  0  0  0  0  0  0  0  0  0  0  0
    7.7365    4.6508   21.6987 C   0  0  0  0  0  0  0  0  0  0  0  0
   13.0186   11.0102   18.0020 C   0  0  0  0  0  0  0  0  0  0  0  0
    8.6628    5.7088   21.8871 N   0  0  0  0  0  0  0  0  0  0  0  0
    5.6516    3.5258   21.9140 C   0  0  0  0  0  0  0  0  0  0  0  0
   11.5863    9.6815   19.4539 C   0  0  0  0  0  0  0  0  0  0  0  0
   12.9648    4.1543   20.9205 C   0  0  0  0  0  0  0  0  0  0  0  0
    8.2089    3.6265   20.8929 C   0  0  0  0  0  0  0  0  0  0  0  0
    7.3827    2.5724   20.5432 C   0  0  0  0  0  0  0  0  0  0  0  0
   11.1529    7.2750   20.8025 C   0  0  0  0  0  0  0  0  0  0  0  0
   10.2573    8.3215   20.9827 C   0  0  0  0  0  0  0  0  0  0  0  0
   11.1606    5.9378   21.2366 N   0  0  0  0  0  0  0  0  0  0  0  0
    9.8932   11.6736   19.0677 O   0  0  0  0  0  0  0  0  0  0  0  0
    6.4470    4.5850   22.2321 C   0  0  0  0  0  0  0  0  0  0  0  0
    8.4619    6.9895   22.2968 C   0  0  0  0  0  0  0  0  0  0  0  0
   12.2747    7.5102   20.0420 C   0  0  0  0  0  0  0  0  0  0  0  0
   14.2544    6.2142   19.4191 C   0  0  0  0  0  0  0  0  0  0  0  0
   13.0695    6.3705   20.0375 N   0  0  0  0  0  0  0  0  0  0  0  0
    9.1913    8.0876   21.8361 N   0  0  0  0  0  0  0  0  0  0  0  0
   10.4739    9.4813   20.2889 C   0  0  0  0  0  0  0  0  0  0  0  0
    7.5551    7.1270   23.1200 O   0  0  0  0  0  0  0  0  0  0  0  0
  1 11  4  0
  1 21  4  0
  2  4  1  0
  2  8  1  0
  2 11  1  0
  3 10  4  0
  3 14  4  0
  4  5  1  0
  4 18  2  0
  6 12  1  0
  6 17  4  0
  6 23  4  0
  7  9  1  0
  7 13  4  0
  7 19  4  0
  9 20  1  0
 10 19  4  0
 11 25  4  0
 13 14  4  0
 15 16  4  0
 15 17  4  0
 15 21  4  0
 16 24  1  0
 16 25  4  0
 20 24  1  0
 20 26  2  0
 21 23  4  0
 22 23  1  0
M  END
$$$$

 Created by Python create_sdf_string function

 26 28  0  0  0  0  0  0  0  0999 V2000
   12.4616    8.6700   19.4180 N   0  0  0  0  0  0  0  0  0  0  0  0
   11.8329   10.8148   18.6769 N   0  0  0  0  0  0  0  0  0  0  0  0
    6.1021    2.5564   21.0678 C   0  0  0  0  0  0  0  0  0  0  0  0
   10.9097   11.8051   18.4804 C   0  0  0  0  0  0  0  0  0  0  0  0
   11.2280   12.9135   17.5669 C   0  0  0  0  0  0  0  0  0  0  0  0
   12.3782    5.4231   20.7777 C   0  0  0  0  0  0  0  0  0  0  0  0
    7.7365    4.6508   21.6987 C   0  0  0  0  0  0  0  0  0  0  0  0
   13.0186   11.0102   18.0020 C   0  0  0  0  0  0  0  0  0  0  0  0
    8.6628    5.7088   21.8871 N   0  0  0  0  0  0  0  0  0  0  0  0
    5.6516    3.5258   21.9140 C   0  0  0  0  0  0  0  0  0  0  0  0
   11.5863    9.6815   19.4539 C   0  0  0  0  0  0  0  0  0  0  0  0
   12.9648    4.1543   20.9205 C   0  0  0  0  0  0  0  0  0  0  0  0
    8.2089    3.6265   20.8929 C   0  0  0  0  0  0  0  0  0  0  0  0
    7.3827    2.5724   20.5432 C   0  0  0  0  0  0  0  0  0  0  0  0
   11.1529    7.2750   20.8025 C   0  0  0  0  0  0  0  0  0  0  0  0
   10.2573    8.3215   20.9827 C   0  0  0  0  0  0  0  0  0  0  0  0
   11.1606    5.9378   21.2366 N   0  0  0  0  0  0  0  0  0  0  0  0
    9.8932   11.6736   19.0677 O   0  0  0  0  0  0  0  0  0  0  0  0
    6.4470    4.5850   22.2321 C   0  0  0  0  0  0  0  0  0  0  0  0
    8.4619    6.9895   22.2968 C   0  0  0  0  0  0  0  0  0  0  0  0
   12.2747    7.5102   20.0420 C   0  0  0  0  0  0  0  0  0  0  0  0
   14.2544    6.2142   19.4191 C   0  0  0  0  0  0  0  0  0  0  0  0
   13.0695    6.3705   20.0375 N   0  0  0  0  0  0  0  0  0  0  0  0
    9.1913    8.0876   21.8361 N   0  0  0  0  0  0  0  0  0  0  0  0
   10.4739    9.4813   20.2889 C   0  0  0  0  0  0  0  0  0  0  0  0
    7.5551    7.1270   23.1200 O   0  0  0  0  0  0  0  0  0  0  0  0
  1 11  4  0
  1 21  4  0
  2  4  1  0
  2  8  1  0
  2 11  1  0
  3 10  4  0
  3 14  4  0
  4  5  1  0
  4 18  2  0
  6 12  1  0
  6 17  4  0
  6 23  4  0
  7  9  1  0
  7 13  4  0
  7 19  4  0
  9 20  1  0
 10 19  4  0
 11 25  4  0
 13 14  4  0
 15 16  4  0
 15 17  4  0
 15 21  4  0
 16 24  1  0
 16 25  4  0
 20 24  1  0
 20 26  2  0
 21 23  4  0
 22 23  1  0
M  END
$$$$

 Created by Python create_sdf_string function

 26 28  0  0  0  0  0  0  0  0999 V2000
   12.4616    8.6700   19.4180 N   0  0  0  0  0  0  0  0  0  0  0  0
   11.8329   10.8148   18.6769 N   0  0  0  0  0  0  0  0  0  0  0  0
    6.1021    2.5564   21.0678 C   0  0  0  0  0  0  0  0  0  0  0  0
   10.9097   11.8051   18.4804 C   0  0  0  0  0  0  0  0  0  0  0  0
   11.2280   12.9135   17.5669 C   0  0  0  0  0  0  0  0  0  0  0  0
   12.3782    5.4231   20.7777 C   0  0  0  0  0  0  0  0  0  0  0  0
    7.7365    4.6508   21.6987 C   0  0  0  0  0  0  0  0  0  0  0  0
   13.0186   11.0102   18.0020 C   0  0  0  0  0  0  0  0  0  0  0  0
    8.6628    5.7088   21.8871 N   0  0  0  0  0  0  0  0  0  0  0  0
    5.6516    3.5258   21.9140 C   0  0  0  0  0  0  0  0  0  0  0  0
   11.5863    9.6815   19.4539 C   0  0  0  0  0  0  0  0  0  0  0  0
   12.9648    4.1543   20.9205 C   0  0  0  0  0  0  0  0  0  0  0  0
    8.2089    3.6265   20.8929 C   0  0  0  0  0  0  0  0  0  0  0  0
    7.3827    2.5724   20.5432 C   0  0  0  0  0  0  0  0  0  0  0  0
   11.1529    7.2750   20.8025 C   0  0  0  0  0  0  0  0  0  0  0  0
   10.2573    8.3215   20.9827 C   0  0  0  0  0  0  0  0  0  0  0  0
   11.1606    5.9378   21.2366 N   0  0  0  0  0  0  0  0  0  0  0  0
    9.8932   11.6736   19.0677 O   0  0  0  0  0  0  0  0  0  0  0  0
    6.4470    4.5850   22.2321 C   0  0  0  0  0  0  0  0  0  0  0  0
    8.4619    6.9895   22.2968 C   0  0  0  0  0  0  0  0  0  0  0  0
   12.2747    7.5102   20.0420 C   0  0  0  0  0  0  0  0  0  0  0  0
   14.2544    6.2142   19.4191 C   0  0  0  0  0  0  0  0  0  0  0  0
   13.0695    6.3705   20.0375 N   0  0  0  0  0  0  0  0  0  0  0  0
    9.1913    8.0876   21.8361 N   0  0  0  0  0  0  0  0  0  0  0  0
   10.4739    9.4813   20.2889 C   0  0  0  0  0  0  0  0  0  0  0  0
    7.5551    7.1270   23.1200 O   0  0  0  0  0  0  0  0  0  0  0  0
  1 11  4  0
  1 21  4  0
  2  4  1  0
  2  8  1  0
  2 11  1  0
  3 10  4  0
  3 14  4  0
  4  5  1  0
  4 18  2  0
  6 12  1  0
  6 17  4  0
  6 23  4  0
  7  9  1  0
  7 13  4  0
  7 19  4  0
  9 20  1  0
 10 19  4  0
 11 25  4  0
 13 14  4  0
 15 16  4  0
 15 17  4  0
 15 21  4  0
 16 24  1  0
 16 25  4  0
 20 24  1  0
 20 26  2  0
 21 23  4  0
 22 23  1  0
M  END
$$$$

 Created by Python create_sdf_string function

 26 28  0  0  0  0  0  0  0  0999 V2000
   12.4616    8.6700   19.4180 N   0  0  0  0  0  0  0  0  0  0  0  0
   11.8329   10.8148   18.6769 N   0  0  0  0  0  0  0  0  0  0  0  0
    6.1021    2.5564   21.0678 C   0  0  0  0  0  0  0  0  0  0  0  0
   10.9097   11.8051   18.4804 C   0  0  0  0  0  0  0  0  0  0  0  0
   11.2280   12.9135   17.5669 C   0  0  0  0  0  0  0  0  0  0  0  0
   12.3782    5.4231   20.7777 C   0  0  0  0  0  0  0  0  0  0  0  0
    7.7365    4.6508   21.6987 C   0  0  0  0  0  0  0  0  0  0  0  0
   13.0186   11.0102   18.0020 C   0  0  0  0  0  0  0  0  0  0  0  0
    8.6628    5.7088   21.8871 N   0  0  0  0  0  0  0  0  0  0  0  0
    5.6516    3.5258   21.9140 C   0  0  0  0  0  0  0  0  0  0  0  0
   11.5863    9.6815   19.4539 C   0  0  0  0  0  0  0  0  0  0  0  0
   12.9648    4.1543   20.9205 C   0  0  0  0  0  0  0  0  0  0  0  0
    8.2089    3.6265   20.8929 C   0  0  0  0  0  0  0  0  0  0  0  0
    7.3827    2.5724   20.5432 C   0  0  0  0  0  0  0  0  0  0  0  0
   11.1529    7.2750   20.8025 C   0  0  0  0  0  0  0  0  0  0  0  0
   10.2573    8.3215   20.9827 C   0  0  0  0  0  0  0  0  0  0  0  0
   11.1606    5.9378   21.2366 N   0  0  0  0  0  0  0  0  0  0  0  0
    9.8932   11.6736   19.0677 O   0  0  0  0  0  0  0  0  0  0  0  0
    6.4470    4.5850   22.2321 C   0  0  0  0  0  0  0  0  0  0  0  0
    8.4619    6.9895   22.2968 C   0  0  0  0  0  0  0  0  0  0  0  0
   12.2747    7.5102   20.0420 C   0  0  0  0  0  0  0  0  0  0  0  0
   14.2544    6.2142   19.4191 C   0  0  0  0  0  0  0  0  0  0  0  0
   13.0695    6.3705   20.0375 N   0  0  0  0  0  0  0  0  0  0  0  0
    9.1913    8.0876   21.8361 N   0  0  0  0  0  0  0  0  0  0  0  0
   10.4739    9.4813   20.2889 C   0  0  0  0  0  0  0  0  0  0  0  0
    7.5551    7.1270   23.1200 O   0  0  0  0  0  0  0  0  0  0  0  0
  1 11  4  0
  1 21  4  0
  2  4  1  0
  2  8  1  0
  2 11  1  0
  3 10  4  0
  3 14  4  0
  4  5  1  0
  4 18  2  0
  6 12  1  0
  6 17  4  0
  6 23  4  0
  7  9  1  0
  7 13  4  0
  7 19  4  0
  9 20  1  0
 10 19  4  0
 11 25  4  0
 13 14  4  0
 15 16  4  0
 15 17  4  0
 15 21  4  0
 16 24  1  0
 16 25  4  0
 20 24  1  0
 20 26  2  0
 21 23  4  0
 22 23  1  0
M  END
$$$$

 Created by Python create_sdf_string function

 26 28  0  0  0  0  0  0  0  0999 V2000
   12.4616    8.6700   19.4180 N   0  0  0  0  0  0  0  0  0  0  0  0
   11.8329   10.8148   18.6769 N   0  0  0  0  0  0  0  0  0  0  0  0
    6.1021    2.5564   21.0678 C   0  0  0  0  0  0  0  0  0  0  0  0
   10.9097   11.8051   18.4804 C   0  0  0  0  0  0  0  0  0  0  0  0
   11.2280   12.9135   17.5669 C   0  0  0  0  0  0  0  0  0  0  0  0
   12.3782    5.4231   20.7777 C   0  0  0  0  0  0  0  0  0  0  0  0
    7.7365    4.6508   21.6987 C   0  0  0  0  0  0  0  0  0  0  0  0
   13.0186   11.0102   18.0020 C   0  0  0  0  0  0  0  0  0  0  0  0
    8.6628    5.7088   21.8871 N   0  0  0  0  0  0  0  0  0  0  0  0
    5.6516    3.5258   21.9140 C   0  0  0  0  0  0  0  0  0  0  0  0
   11.5863    9.6815   19.4539 C   0  0  0  0  0  0  0  0  0  0  0  0
   12.9648    4.1543   20.9205 C   0  0  0  0  0  0  0  0  0  0  0  0
    8.2089    3.6265   20.8929 C   0  0  0  0  0  0  0  0  0  0  0  0
    7.3827    2.5724   20.5432 C   0  0  0  0  0  0  0  0  0  0  0  0
   11.1529    7.2750   20.8025 C   0  0  0  0  0  0  0  0  0  0  0  0
   10.2573    8.3215   20.9827 C   0  0  0  0  0  0  0  0  0  0  0  0
   11.1606    5.9378   21.2366 N   0  0  0  0  0  0  0  0  0  0  0  0
    9.8932   11.6736   19.0677 O   0  0  0  0  0  0  0  0  0  0  0  0
    6.4470    4.5850   22.2321 C   0  0  0  0  0  0  0  0  0  0  0  0
    8.4619    6.9895   22.2968 C   0  0  0  0  0  0  0  0  0  0  0  0
   12.2747    7.5102   20.0420 C   0  0  0  0  0  0  0  0  0  0  0  0
   14.2544    6.2142   19.4191 C   0  0  0  0  0  0  0  0  0  0  0  0
   13.0695    6.3705   20.0375 N   0  0  0  0  0  0  0  0  0  0  0  0
    9.1913    8.0876   21.8361 N   0  0  0  0  0  0  0  0  0  0  0  0
   10.4739    9.4813   20.2889 C   0  0  0  0  0  0  0  0  0  0  0  0
    7.5551    7.1270   23.1200 O   0  0  0  0  0  0  0  0  0  0  0  0
  1 11  4  0
  1 21  4  0
  2  4  1  0
  2  8  1  0
  2 11  1  0
  3 10  4  0
  3 14  4  0
  4  5  1  0
  4 18  2  0
  6 12  1  0
  6 17  4  0
  6 23  4  0
  7  9  1  0
  7 13  4  0
  7 19  4  0
  9 20  1  0
 10 19  4  0
 11 25  4  0
 13 14  4  0
 15 16  4  0
 15 17  4  0
 15 21  4  0
 16 24  1  0
 16 25  4  0
 20 24  1  0
 20 26  2  0
 21 23  4  0
 22 23  1  0
M  END
$$$$

 Created by Python create_sdf_string function

 26 28  0  0  0  0  0  0  0  0999 V2000
   12.4616    8.6700   19.4180 N   0  0  0  0  0  0  0  0  0  0  0  0
   11.8329   10.8148   18.6769 N   0  0  0  0  0  0  0  0  0  0  0  0
    6.1021    2.5564   21.0678 C   0  0  0  0  0  0  0  0  0  0  0  0
   10.9097   11.8051   18.4804 C   0  0  0  0  0  0  0  0  0  0  0  0
   11.2280   12.9135   17.5669 C   0  0  0  0  0  0  0  0  0  0  0  0
   12.3782    5.4231   20.7777 C   0  0  0  0  0  0  0  0  0  0  0  0
    7.7365    4.6508   21.6987 C   0  0  0  0  0  0  0  0  0  0  0  0
   13.0186   11.0102   18.0020 C   0  0  0  0  0  0  0  0  0  0  0  0
    8.6628    5.7088   21.8871 N   0  0  0  0  0  0  0  0  0  0  0  0
    5.6516    3.5258   21.9140 C   0  0  0  0  0  0  0  0  0  0  0  0
   11.5863    9.6815   19.4539 C   0  0  0  0  0  0  0  0  0  0  0  0
   12.9648    4.1543   20.9205 C   0  0  0  0  0  0  0  0  0  0  0  0
    8.2089    3.6265   20.8929 C   0  0  0  0  0  0  0  0  0  0  0  0
    7.3827    2.5724   20.5432 C   0  0  0  0  0  0  0  0  0  0  0  0
   11.1529    7.2750   20.8025 C   0  0  0  0  0  0  0  0  0  0  0  0
   10.2573    8.3215   20.9827 C   0  0  0  0  0  0  0  0  0  0  0  0
   11.1606    5.9378   21.2366 N   0  0  0  0  0  0  0  0  0  0  0  0
    9.8932   11.6736   19.0677 O   0  0  0  0  0  0  0  0  0  0  0  0
    6.4470    4.5850   22.2321 C   0  0  0  0  0  0  0  0  0  0  0  0
    8.4619    6.9895   22.2968 C   0  0  0  0  0  0  0  0  0  0  0  0
   12.2747    7.5102   20.0420 C   0  0  0  0  0  0  0  0  0  0  0  0
   14.2544    6.2142   19.4191 C   0  0  0  0  0  0  0  0  0  0  0  0
   13.0695    6.3705   20.0375 N   0  0  0  0  0  0  0  0  0  0  0  0
    9.1913    8.0876   21.8361 N   0  0  0  0  0  0  0  0  0  0  0  0
   10.4739    9.4813   20.2889 C   0  0  0  0  0  0  0  0  0  0  0  0
    7.5551    7.1270   23.1200 O   0  0  0  0  0  0  0  0  0  0  0  0
  1 11  4  0
  1 21  4  0
  2  4  1  0
  2  8  1  0
  2 11  1  0
  3 10  4  0
  3 14  4  0
  4  5  1  0
  4 18  2  0
  6 12  1  0
  6 17  4  0
  6 23  4  0
  7  9  1  0
  7 13  4  0
  7 19  4  0
  9 20  1  0
 10 19  4  0
 11 25  4  0
 13 14  4  0
 15 16  4  0
 15 17  4  0
 15 21  4  0
 16 24  1  0
 16 25  4  0
 20 24  1  0
 20 26  2  0
 21 23  4  0
 22 23  1  0
M  END
$$$$

 Created by Python create_sdf_string function

 26 28  0  0  0  0  0  0  0  0999 V2000
   12.4616    8.6700   19.4180 N   0  0  0  0  0  0  0  0  0  0  0  0
   11.8329   10.8148   18.6769 N   0  0  0  0  0  0  0  0  0  0  0  0
    6.1021    2.5564   21.0678 C   0  0  0  0  0  0  0  0  0  0  0  0
   10.9097   11.8051   18.4804 C   0  0  0  0  0  0  0  0  0  0  0  0
   11.2280   12.9135   17.5669 C   0  0  0  0  0  0  0  0  0  0  0  0
   12.3782    5.4231   20.7777 C   0  0  0  0  0  0  0  0  0  0  0  0
    7.7365    4.6508   21.6987 C   0  0  0  0  0  0  0  0  0  0  0  0
   13.0186   11.0102   18.0020 C   0  0  0  0  0  0  0  0  0  0  0  0
    8.6628    5.7088   21.8871 N   0  0  0  0  0  0  0  0  0  0  0  0
    5.6516    3.5258   21.9140 C   0  0  0  0  0  0  0  0  0  0  0  0
   11.5863    9.6815   19.4539 C   0  0  0  0  0  0  0  0  0  0  0  0
   12.9648    4.1543   20.9205 C   0  0  0  0  0  0  0  0  0  0  0  0
    8.2089    3.6265   20.8929 C   0  0  0  0  0  0  0  0  0  0  0  0
    7.3827    2.5724   20.5432 C   0  0  0  0  0  0  0  0  0  0  0  0
   11.1529    7.2750   20.8025 C   0  0  0  0  0  0  0  0  0  0  0  0
   10.2573    8.3215   20.9827 C   0  0  0  0  0  0  0  0  0  0  0  0
   11.1606    5.9378   21.2366 N   0  0  0  0  0  0  0  0  0  0  0  0
    9.8932   11.6736   19.0677 O   0  0  0  0  0  0  0  0  0  0  0  0
    6.4470    4.5850   22.2321 C   0  0  0  0  0  0  0  0  0  0  0  0
    8.4619    6.9895   22.2968 C   0  0  0  0  0  0  0  0  0  0  0  0
   12.2747    7.5102   20.0420 C   0  0  0  0  0  0  0  0  0  0  0  0
   14.2544    6.2142   19.4191 C   0  0  0  0  0  0  0  0  0  0  0  0
   13.0695    6.3705   20.0375 N   0  0  0  0  0  0  0  0  0  0  0  0
    9.1913    8.0876   21.8361 N   0  0  0  0  0  0  0  0  0  0  0  0
   10.4739    9.4813   20.2889 C   0  0  0  0  0  0  0  0  0  0  0  0
    7.5551    7.1270   23.1200 O   0  0  0  0  0  0  0  0  0  0  0  0
  1 11  4  0
  1 21  4  0
  2  4  1  0
  2  8  1  0
  2 11  1  0
  3 10  4  0
  3 14  4  0
  4  5  1  0
  4 18  2  0
  6 12  1  0
  6 17  4  0
  6 23  4  0
  7  9  1  0
  7 13  4  0
  7 19  4  0
  9 20  1  0
 10 19  4  0
 11 25  4  0
 13 14  4  0
 15 16  4  0
 15 17  4  0
 15 21  4  0
 16 24  1  0
 16 25  4  0
 20 24  1  0
 20 26  2  0
 21 23  4  0
 22 23  1  0
M  END
$$$$

 Created by Python create_sdf_string function

 26 28  0  0  0  0  0  0  0  0999 V2000
   12.4616    8.6700   19.4180 N   0  0  0  0  0  0  0  0  0  0  0  0
   11.8329   10.8148   18.6769 N   0  0  0  0  0  0  0  0  0  0  0  0
    6.1021    2.5564   21.0678 C   0  0  0  0  0  0  0  0  0  0  0  0
   10.9097   11.8051   18.4804 C   0  0  0  0  0  0  0  0  0  0  0  0
   11.2280   12.9135   17.5669 C   0  0  0  0  0  0  0  0  0  0  0  0
   12.3782    5.4231   20.7777 C   0  0  0  0  0  0  0  0  0  0  0  0
    7.7365    4.6508   21.6987 C   0  0  0  0  0  0  0  0  0  0  0  0
   13.0186   11.0102   18.0020 C   0  0  0  0  0  0  0  0  0  0  0  0
    8.6628    5.7088   21.8871 N   0  0  0  0  0  0  0  0  0  0  0  0
    5.6516    3.5258   21.9140 C   0  0  0  0  0  0  0  0  0  0  0  0
   11.5863    9.6815   19.4539 C   0  0  0  0  0  0  0  0  0  0  0  0
   12.9648    4.1543   20.9205 C   0  0  0  0  0  0  0  0  0  0  0  0
    8.2089    3.6265   20.8929 C   0  0  0  0  0  0  0  0  0  0  0  0
    7.3827    2.5724   20.5432 C   0  0  0  0  0  0  0  0  0  0  0  0
   11.1529    7.2750   20.8025 C   0  0  0  0  0  0  0  0  0  0  0  0
   10.2573    8.3215   20.9827 C   0  0  0  0  0  0  0  0  0  0  0  0
   11.1606    5.9378   21.2366 N   0  0  0  0  0  0  0  0  0  0  0  0
    9.8932   11.6736   19.0677 O   0  0  0  0  0  0  0  0  0  0  0  0
    6.4470    4.5850   22.2321 C   0  0  0  0  0  0  0  0  0  0  0  0
    8.4619    6.9895   22.2968 C   0  0  0  0  0  0  0  0  0  0  0  0
   12.2747    7.5102   20.0420 C   0  0  0  0  0  0  0  0  0  0  0  0
   14.2544    6.2142   19.4191 C   0  0  0  0  0  0  0  0  0  0  0  0
   13.0695    6.3705   20.0375 N   0  0  0  0  0  0  0  0  0  0  0  0
    9.1913    8.0876   21.8361 N   0  0  0  0  0  0  0  0  0  0  0  0
   10.4739    9.4813   20.2889 C   0  0  0  0  0  0  0  0  0  0  0  0
    7.5551    7.1270   23.1200 O   0  0  0  0  0  0  0  0  0  0  0  0
  1 11  4  0
  1 21  4  0
  2  4  1  0
  2  8  1  0
  2 11  1  0
  3 10  4  0
  3 14  4  0
  4  5  1  0
  4 18  2  0
  6 12  1  0
  6 17  4  0
  6 23  4  0
  7  9  1  0
  7 13  4  0
  7 19  4  0
  9 20  1  0
 10 19  4  0
 11 25  4  0
 13 14  4  0
 15 16  4  0
 15 17  4  0
 15 21  4  0
 16 24  1  0
 16 25  4  0
 20 24  1  0
 20 26  2  0
 21 23  4  0
 22 23  1  0
M  END
$$$$

 Created by Python create_sdf_string function

 26 28  0  0  0  0  0  0  0  0999 V2000
   12.4616    8.6700   19.4180 N   0  0  0  0  0  0  0  0  0  0  0  0
   11.8329   10.8148   18.6769 N   0  0  0  0  0  0  0  0  0  0  0  0
    6.1021    2.5564   21.0678 C   0  0  0  0  0  0  0  0  0  0  0  0
   10.9097   11.8051   18.4804 C   0  0  0  0  0  0  0  0  0  0  0  0
   11.2280   12.9135   17.5669 C   0  0  0  0  0  0  0  0  0  0  0  0
   12.3782    5.4231   20.7777 C   0  0  0  0  0  0  0  0  0  0  0  0
    7.7365    4.6508   21.6987 C   0  0  0  0  0  0  0  0  0  0  0  0
   13.0186   11.0102   18.0020 C   0  0  0  0  0  0  0  0  0  0  0  0
    8.6628    5.7088   21.8871 N   0  0  0  0  0  0  0  0  0  0  0  0
    5.6516    3.5258   21.9140 C   0  0  0  0  0  0  0  0  0  0  0  0
   11.5863    9.6815   19.4539 C   0  0  0  0  0  0  0  0  0  0  0  0
   12.9648    4.1543   20.9205 C   0  0  0  0  0  0  0  0  0  0  0  0
    8.2089    3.6265   20.8929 C   0  0  0  0  0  0  0  0  0  0  0  0
    7.3827    2.5724   20.5432 C   0  0  0  0  0  0  0  0  0  0  0  0
   11.1529    7.2750   20.8025 C   0  0  0  0  0  0  0  0  0  0  0  0
   10.2573    8.3215   20.9827 C   0  0  0  0  0  0  0  0  0  0  0  0
   11.1606    5.9378   21.2366 N   0  0  0  0  0  0  0  0  0  0  0  0
    9.8932   11.6736   19.0677 O   0  0  0  0  0  0  0  0  0  0  0  0
    6.4470    4.5850   22.2321 C   0  0  0  0  0  0  0  0  0  0  0  0
    8.4619    6.9895   22.2968 C   0  0  0  0  0  0  0  0  0  0  0  0
   12.2747    7.5102   20.0420 C   0  0  0  0  0  0  0  0  0  0  0  0
   14.2544    6.2142   19.4191 C   0  0  0  0  0  0  0  0  0  0  0  0
   13.0695    6.3705   20.0375 N   0  0  0  0  0  0  0  0  0  0  0  0
    9.1913    8.0876   21.8361 N   0  0  0  0  0  0  0  0  0  0  0  0
   10.4739    9.4813   20.2889 C   0  0  0  0  0  0  0  0  0  0  0  0
    7.5551    7.1270   23.1200 O   0  0  0  0  0  0  0  0  0  0  0  0
  1 11  4  0
  1 21  4  0
  2  4  1  0
  2  8  1  0
  2 11  1  0
  3 10  4  0
  3 14  4  0
  4  5  1  0
  4 18  2  0
  6 12  1  0
  6 17  4  0
  6 23  4  0
  7  9  1  0
  7 13  4  0
  7 19  4  0
  9 20  1  0
 10 19  4  0
 11 25  4  0
 13 14  4  0
 15 16  4  0
 15 17  4  0
 15 21  4  0
 16 24  1  0
 16 25  4  0
 20 24  1  0
 20 26  2  0
 21 23  4  0
 22 23  1  0
M  END
$$$$

 Created by Python create_sdf_string function

 26 28  0  0  0  0  0  0  0  0999 V2000
   12.4616    8.6700   19.4180 N   0  0  0  0  0  0  0  0  0  0  0  0
   11.8329   10.8148   18.6769 N   0  0  0  0  0  0  0  0  0  0  0  0
    6.1021    2.5564   21.0678 C   0  0  0  0  0  0  0  0  0  0  0  0
   10.9097   11.8051   18.4804 C   0  0  0  0  0  0  0  0  0  0  0  0
   11.2280   12.9135   17.5669 C   0  0  0  0  0  0  0  0  0  0  0  0
   12.3782    5.4231   20.7777 C   0  0  0  0  0  0  0  0  0  0  0  0
    7.7365    4.6508   21.6987 C   0  0  0  0  0  0  0  0  0  0  0  0
   13.0186   11.0102   18.0020 C   0  0  0  0  0  0  0  0  0  0  0  0
    8.6628    5.7088   21.8871 N   0  0  0  0  0  0  0  0  0  0  0  0
    5.6516    3.5258   21.9140 C   0  0  0  0  0  0  0  0  0  0  0  0
   11.5863    9.6815   19.4539 C   0  0  0  0  0  0  0  0  0  0  0  0
   12.9648    4.1543   20.9205 C   0  0  0  0  0  0  0  0  0  0  0  0
    8.2089    3.6265   20.8929 C   0  0  0  0  0  0  0  0  0  0  0  0
    7.3827    2.5724   20.5432 C   0  0  0  0  0  0  0  0  0  0  0  0
   11.1529    7.2750   20.8025 C   0  0  0  0  0  0  0  0  0  0  0  0
   10.2573    8.3215   20.9827 C   0  0  0  0  0  0  0  0  0  0  0  0
   11.1606    5.9378   21.2366 N   0  0  0  0  0  0  0  0  0  0  0  0
    9.8932   11.6736   19.0677 O   0  0  0  0  0  0  0  0  0  0  0  0
    6.4470    4.5850   22.2321 C   0  0  0  0  0  0  0  0  0  0  0  0
    8.4619    6.9895   22.2968 C   0  0  0  0  0  0  0  0  0  0  0  0
   12.2747    7.5102   20.0420 C   0  0  0  0  0  0  0  0  0  0  0  0
   14.2544    6.2142   19.4191 C   0  0  0  0  0  0  0  0  0  0  0  0
   13.0695    6.3705   20.0375 N   0  0  0  0  0  0  0  0  0  0  0  0
    9.1913    8.0876   21.8361 N   0  0  0  0  0  0  0  0  0  0  0  0
   10.4739    9.4813   20.2889 C   0  0  0  0  0  0  0  0  0  0  0  0
    7.5551    7.1270   23.1200 O   0  0  0  0  0  0  0  0  0  0  0  0
  1 11  4  0
  1 21  4  0
  2  4  1  0
  2  8  1  0
  2 11  1  0
  3 10  4  0
  3 14  4  0
  4  5  1  0
  4 18  2  0
  6 12  1  0
  6 17  4  0
  6 23  4  0
  7  9  1  0
  7 13  4  0
  7 19  4  0
  9 20  1  0
 10 19  4  0
 11 25  4  0
 13 14  4  0
 15 16  4  0
 15 17  4  0
 15 21  4  0
 16 24  1  0
 16 25  4  0
 20 24  1  0
 20 26  2  0
 21 23  4  0
 22 23  1  0
M  END
$$$$

 Created by Python create_sdf_string function

 26 28  0  0  0  0  0  0  0  0999 V2000
   12.4616    8.6700   19.4180 N   0  0  0  0  0  0  0  0  0  0  0  0
   11.8329   10.8148   18.6769 N   0  0  0  0  0  0  0  0  0  0  0  0
    6.1021    2.5564   21.0678 C   0  0  0  0  0  0  0  0  0  0  0  0
   10.9097   11.8051   18.4804 C   0  0  0  0  0  0  0  0  0  0  0  0
   11.2280   12.9135   17.5669 C   0  0  0  0  0  0  0  0  0  0  0  0
   12.3782    5.4231   20.7777 C   0  0  0  0  0  0  0  0  0  0  0  0
    7.7365    4.6508   21.6987 C   0  0  0  0  0  0  0  0  0  0  0  0
   13.0186   11.0102   18.0020 C   0  0  0  0  0  0  0  0  0  0  0  0
    8.6628    5.7088   21.8871 N   0  0  0  0  0  0  0  0  0  0  0  0
    5.6516    3.5258   21.9140 C   0  0  0  0  0  0  0  0  0  0  0  0
   11.5863    9.6815   19.4539 C   0  0  0  0  0  0  0  0  0  0  0  0
   12.9648    4.1543   20.9205 C   0  0  0  0  0  0  0  0  0  0  0  0
    8.2089    3.6265   20.8929 C   0  0  0  0  0  0  0  0  0  0  0  0
    7.3827    2.5724   20.5432 C   0  0  0  0  0  0  0  0  0  0  0  0
   11.1529    7.2750   20.8025 C   0  0  0  0  0  0  0  0  0  0  0  0
   10.2573    8.3215   20.9827 C   0  0  0  0  0  0  0  0  0  0  0  0
   11.1606    5.9378   21.2366 N   0  0  0  0  0  0  0  0  0  0  0  0
    9.8932   11.6736   19.0677 O   0  0  0  0  0  0  0  0  0  0  0  0
    6.4470    4.5850   22.2321 C   0  0  0  0  0  0  0  0  0  0  0  0
    8.4619    6.9895   22.2968 C   0  0  0  0  0  0  0  0  0  0  0  0
   12.2747    7.5102   20.0420 C   0  0  0  0  0  0  0  0  0  0  0  0
   14.2544    6.2142   19.4191 C   0  0  0  0  0  0  0  0  0  0  0  0
   13.0695    6.3705   20.0375 N   0  0  0  0  0  0  0  0  0  0  0  0
    9.1913    8.0876   21.8361 N   0  0  0  0  0  0  0  0  0  0  0  0
   10.4739    9.4813   20.2889 C   0  0  0  0  0  0  0  0  0  0  0  0
    7.5551    7.1270   23.1200 O   0  0  0  0  0  0  0  0  0  0  0  0
  1 11  4  0
  1 21  4  0
  2  4  1  0
  2  8  1  0
  2 11  1  0
  3 10  4  0
  3 14  4  0
  4  5  1  0
  4 18  2  0
  6 12  1  0
  6 17  4  0
  6 23  4  0
  7  9  1  0
  7 13  4  0
  7 19  4  0
  9 20  1  0
 10 19  4  0
 11 25  4  0
 13 14  4  0
 15 16  4  0
 15 17  4  0
 15 21  4  0
 16 24  1  0
 16 25  4  0
 20 24  1  0
 20 26  2  0
 21 23  4  0
 22 23  1  0
M  END
$$$$

 Created by Python create_sdf_string function

 26 28  0  0  0  0  0  0  0  0999 V2000
   12.4616    8.6700   19.4180 N   0  0  0  0  0  0  0  0  0  0  0  0
   11.8329   10.8148   18.6769 N   0  0  0  0  0  0  0  0  0  0  0  0
    6.1021    2.5564   21.0678 C   0  0  0  0  0  0  0  0  0  0  0  0
   10.9097   11.8051   18.4804 C   0  0  0  0  0  0  0  0  0  0  0  0
   11.2280   12.9135   17.5669 C   0  0  0  0  0  0  0  0  0  0  0  0
   12.3782    5.4231   20.7777 C   0  0  0  0  0  0  0  0  0  0  0  0
    7.7365    4.6508   21.6987 C   0  0  0  0  0  0  0  0  0  0  0  0
   13.0186   11.0102   18.0020 C   0  0  0  0  0  0  0  0  0  0  0  0
    8.6628    5.7088   21.8871 N   0  0  0  0  0  0  0  0  0  0  0  0
    5.6516    3.5258   21.9140 C   0  0  0  0  0  0  0  0  0  0  0  0
   11.5863    9.6815   19.4539 C   0  0  0  0  0  0  0  0  0  0  0  0
   12.9648    4.1543   20.9205 C   0  0  0  0  0  0  0  0  0  0  0  0
    8.2089    3.6265   20.8929 C   0  0  0  0  0  0  0  0  0  0  0  0
    7.3827    2.5724   20.5432 C   0  0  0  0  0  0  0  0  0  0  0  0
   11.1529    7.2750   20.8025 C   0  0  0  0  0  0  0  0  0  0  0  0
   10.2573    8.3215   20.9827 C   0  0  0  0  0  0  0  0  0  0  0  0
   11.1606    5.9378   21.2366 N   0  0  0  0  0  0  0  0  0  0  0  0
    9.8932   11.6736   19.0677 O   0  0  0  0  0  0  0  0  0  0  0  0
    6.4470    4.5850   22.2321 C   0  0  0  0  0  0  0  0  0  0  0  0
    8.4619    6.9895   22.2968 C   0  0  0  0  0  0  0  0  0  0  0  0
   12.2747    7.5102   20.0420 C   0  0  0  0  0  0  0  0  0  0  0  0
   14.2544    6.2142   19.4191 C   0  0  0  0  0  0  0  0  0  0  0  0
   13.0695    6.3705   20.0375 N   0  0  0  0  0  0  0  0  0  0  0  0
    9.1913    8.0876   21.8361 N   0  0  0  0  0  0  0  0  0  0  0  0
   10.4739    9.4813   20.2889 C   0  0  0  0  0  0  0  0  0  0  0  0
    7.5551    7.1270   23.1200 O   0  0  0  0  0  0  0  0  0  0  0  0
  1 11  4  0
  1 21  4  0
  2  4  1  0
  2  8  1  0
  2 11  1  0
  3 10  4  0
  3 14  4  0
  4  5  1  0
  4 18  2  0
  6 12  1  0
  6 17  4  0
  6 23  4  0
  7  9  1  0
  7 13  4  0
  7 19  4  0
  9 20  1  0
 10 19  4  0
 11 25  4  0
 13 14  4  0
 15 16  4  0
 15 17  4  0
 15 21  4  0
 16 24  1  0
 16 25  4  0
 20 24  1  0
 20 26  2  0
 21 23  4  0
 22 23  1  0
M  END
$$$$

 Created by Python create_sdf_string function

 26 28  0  0  0  0  0  0  0  0999 V2000
   12.4616    8.6700   19.4180 N   0  0  0  0  0  0  0  0  0  0  0  0
   11.8329   10.8148   18.6769 N   0  0  0  0  0  0  0  0  0  0  0  0
    6.1021    2.5564   21.0678 C   0  0  0  0  0  0  0  0  0  0  0  0
   10.9097   11.8051   18.4804 C   0  0  0  0  0  0  0  0  0  0  0  0
   11.2280   12.9135   17.5669 C   0  0  0  0  0  0  0  0  0  0  0  0
   12.3782    5.4231   20.7777 C   0  0  0  0  0  0  0  0  0  0  0  0
    7.7365    4.6508   21.6987 C   0  0  0  0  0  0  0  0  0  0  0  0
   13.0186   11.0102   18.0020 C   0  0  0  0  0  0  0  0  0  0  0  0
    8.6628    5.7088   21.8871 N   0  0  0  0  0  0  0  0  0  0  0  0
    5.6516    3.5258   21.9140 C   0  0  0  0  0  0  0  0  0  0  0  0
   11.5863    9.6815   19.4539 C   0  0  0  0  0  0  0  0  0  0  0  0
   12.9648    4.1543   20.9205 C   0  0  0  0  0  0  0  0  0  0  0  0
    8.2089    3.6265   20.8929 C   0  0  0  0  0  0  0  0  0  0  0  0
    7.3827    2.5724   20.5432 C   0  0  0  0  0  0  0  0  0  0  0  0
   11.1529    7.2750   20.8025 C   0  0  0  0  0  0  0  0  0  0  0  0
   10.2573    8.3215   20.9827 C   0  0  0  0  0  0  0  0  0  0  0  0
   11.1606    5.9378   21.2366 N   0  0  0  0  0  0  0  0  0  0  0  0
    9.8932   11.6736   19.0677 O   0  0  0  0  0  0  0  0  0  0  0  0
    6.4470    4.5850   22.2321 C   0  0  0  0  0  0  0  0  0  0  0  0
    8.4619    6.9895   22.2968 C   0  0  0  0  0  0  0  0  0  0  0  0
   12.2747    7.5102   20.0420 C   0  0  0  0  0  0  0  0  0  0  0  0
   14.2544    6.2142   19.4191 C   0  0  0  0  0  0  0  0  0  0  0  0
   13.0695    6.3705   20.0375 N   0  0  0  0  0  0  0  0  0  0  0  0
    9.1913    8.0876   21.8361 N   0  0  0  0  0  0  0  0  0  0  0  0
   10.4739    9.4813   20.2889 C   0  0  0  0  0  0  0  0  0  0  0  0
    7.5551    7.1270   23.1200 O   0  0  0  0  0  0  0  0  0  0  0  0
  1 11  4  0
  1 21  4  0
  2  4  1  0
  2  8  1  0
  2 11  1  0
  3 10  4  0
  3 14  4  0
  4  5  1  0
  4 18  2  0
  6 12  1  0
  6 17  4  0
  6 23  4  0
  7  9  1  0
  7 13  4  0
  7 19  4  0
  9 20  1  0
 10 19  4  0
 11 25  4  0
 13 14  4  0
 15 16  4  0
 15 17  4  0
 15 21  4  0
 16 24  1  0
 16 25  4  0
 20 24  1  0
 20 26  2  0
 21 23  4  0
 22 23  1  0
M  END
$$$$

 Created by Python create_sdf_string function

 26 28  0  0  0  0  0  0  0  0999 V2000
   12.4616    8.6700   19.4180 N   0  0  0  0  0  0  0  0  0  0  0  0
   11.8329   10.8148   18.6769 N   0  0  0  0  0  0  0  0  0  0  0  0
    6.1021    2.5564   21.0678 C   0  0  0  0  0  0  0  0  0  0  0  0
   10.9097   11.8051   18.4804 C   0  0  0  0  0  0  0  0  0  0  0  0
   11.2280   12.9135   17.5669 C   0  0  0  0  0  0  0  0  0  0  0  0
   12.3782    5.4231   20.7777 C   0  0  0  0  0  0  0  0  0  0  0  0
    7.7365    4.6508   21.6987 C   0  0  0  0  0  0  0  0  0  0  0  0
   13.0186   11.0102   18.0020 C   0  0  0  0  0  0  0  0  0  0  0  0
    8.6628    5.7088   21.8871 N   0  0  0  0  0  0  0  0  0  0  0  0
    5.6516    3.5258   21.9140 C   0  0  0  0  0  0  0  0  0  0  0  0
   11.5863    9.6815   19.4539 C   0  0  0  0  0  0  0  0  0  0  0  0
   12.9648    4.1543   20.9205 C   0  0  0  0  0  0  0  0  0  0  0  0
    8.2089    3.6265   20.8929 C   0  0  0  0  0  0  0  0  0  0  0  0
    7.3827    2.5724   20.5432 C   0  0  0  0  0  0  0  0  0  0  0  0
   11.1529    7.2750   20.8025 C   0  0  0  0  0  0  0  0  0  0  0  0
   10.2573    8.3215   20.9827 C   0  0  0  0  0  0  0  0  0  0  0  0
   11.1606    5.9378   21.2366 N   0  0  0  0  0  0  0  0  0  0  0  0
    9.8932   11.6736   19.0677 O   0  0  0  0  0  0  0  0  0  0  0  0
    6.4470    4.5850   22.2321 C   0  0  0  0  0  0  0  0  0  0  0  0
    8.4619    6.9895   22.2968 C   0  0  0  0  0  0  0  0  0  0  0  0
   12.2747    7.5102   20.0420 C   0  0  0  0  0  0  0  0  0  0  0  0
   14.2544    6.2142   19.4191 C   0  0  0  0  0  0  0  0  0  0  0  0
   13.0695    6.3705   20.0375 N   0  0  0  0  0  0  0  0  0  0  0  0
    9.1913    8.0876   21.8361 N   0  0  0  0  0  0  0  0  0  0  0  0
   10.4739    9.4813   20.2889 C   0  0  0  0  0  0  0  0  0  0  0  0
    7.5551    7.1270   23.1200 O   0  0  0  0  0  0  0  0  0  0  0  0
  1 11  4  0
  1 21  4  0
  2  4  1  0
  2  8  1  0
  2 11  1  0
  3 10  4  0
  3 14  4  0
  4  5  1  0
  4 18  2  0
  6 12  1  0
  6 17  4  0
  6 23  4  0
  7  9  1  0
  7 13  4  0
  7 19  4  0
  9 20  1  0
 10 19  4  0
 11 25  4  0
 13 14  4  0
 15 16  4  0
 15 17  4  0
 15 21  4  0
 16 24  1  0
 16 25  4  0
 20 24  1  0
 20 26  2  0
 21 23  4  0
 22 23  1  0
M  END
$$$$

 Created by Python create_sdf_string function

 26 28  0  0  0  0  0  0  0  0999 V2000
   12.4616    8.6700   19.4180 N   0  0  0  0  0  0  0  0  0  0  0  0
   11.8329   10.8148   18.6769 N   0  0  0  0  0  0  0  0  0  0  0  0
    6.1021    2.5564   21.0678 C   0  0  0  0  0  0  0  0  0  0  0  0
   10.9097   11.8051   18.4804 C   0  0  0  0  0  0  0  0  0  0  0  0
   11.2280   12.9135   17.5669 C   0  0  0  0  0  0  0  0  0  0  0  0
   12.3782    5.4231   20.7777 C   0  0  0  0  0  0  0  0  0  0  0  0
    7.7365    4.6508   21.6987 C   0  0  0  0  0  0  0  0  0  0  0  0
   13.0186   11.0102   18.0020 C   0  0  0  0  0  0  0  0  0  0  0  0
    8.6628    5.7088   21.8871 N   0  0  0  0  0  0  0  0  0  0  0  0
    5.6516    3.5258   21.9140 C   0  0  0  0  0  0  0  0  0  0  0  0
   11.5863    9.6815   19.4539 C   0  0  0  0  0  0  0  0  0  0  0  0
   12.9648    4.1543   20.9205 C   0  0  0  0  0  0  0  0  0  0  0  0
    8.2089    3.6265   20.8929 C   0  0  0  0  0  0  0  0  0  0  0  0
    7.3827    2.5724   20.5432 C   0  0  0  0  0  0  0  0  0  0  0  0
   11.1529    7.2750   20.8025 C   0  0  0  0  0  0  0  0  0  0  0  0
   10.2573    8.3215   20.9827 C   0  0  0  0  0  0  0  0  0  0  0  0
   11.1606    5.9378   21.2366 N   0  0  0  0  0  0  0  0  0  0  0  0
    9.8932   11.6736   19.0677 O   0  0  0  0  0  0  0  0  0  0  0  0
    6.4470    4.5850   22.2321 C   0  0  0  0  0  0  0  0  0  0  0  0
    8.4619    6.9895   22.2968 C   0  0  0  0  0  0  0  0  0  0  0  0
   12.2747    7.5102   20.0420 C   0  0  0  0  0  0  0  0  0  0  0  0
   14.2544    6.2142   19.4191 C   0  0  0  0  0  0  0  0  0  0  0  0
   13.0695    6.3705   20.0375 N   0  0  0  0  0  0  0  0  0  0  0  0
    9.1913    8.0876   21.8361 N   0  0  0  0  0  0  0  0  0  0  0  0
   10.4739    9.4813   20.2889 C   0  0  0  0  0  0  0  0  0  0  0  0
    7.5551    7.1270   23.1200 O   0  0  0  0  0  0  0  0  0  0  0  0
  1 11  4  0
  1 21  4  0
  2  4  1  0
  2  8  1  0
  2 11  1  0
  3 10  4  0
  3 14  4  0
  4  5  1  0
  4 18  2  0
  6 12  1  0
  6 17  4  0
  6 23  4  0
  7  9  1  0
  7 13  4  0
  7 19  4  0
  9 20  1  0
 10 19  4  0
 11 25  4  0
 13 14  4  0
 15 16  4  0
 15 17  4  0
 15 21  4  0
 16 24  1  0
 16 25  4  0
 20 24  1  0
 20 26  2  0
 21 23  4  0
 22 23  1  0
M  END
$$$$

 Created by Python create_sdf_string function

 26 28  0  0  0  0  0  0  0  0999 V2000
   12.4616    8.6700   19.4180 N   0  0  0  0  0  0  0  0  0  0  0  0
   11.8329   10.8148   18.6769 N   0  0  0  0  0  0  0  0  0  0  0  0
    6.1021    2.5564   21.0678 C   0  0  0  0  0  0  0  0  0  0  0  0
   10.9097   11.8051   18.4804 C   0  0  0  0  0  0  0  0  0  0  0  0
   11.2280   12.9135   17.5669 C   0  0  0  0  0  0  0  0  0  0  0  0
   12.3782    5.4231   20.7777 C   0  0  0  0  0  0  0  0  0  0  0  0
    7.7365    4.6508   21.6987 C   0  0  0  0  0  0  0  0  0  0  0  0
   13.0186   11.0102   18.0020 C   0  0  0  0  0  0  0  0  0  0  0  0
    8.6628    5.7088   21.8871 N   0  0  0  0  0  0  0  0  0  0  0  0
    5.6516    3.5258   21.9140 C   0  0  0  0  0  0  0  0  0  0  0  0
   11.5863    9.6815   19.4539 C   0  0  0  0  0  0  0  0  0  0  0  0
   12.9648    4.1543   20.9205 C   0  0  0  0  0  0  0  0  0  0  0  0
    8.2089    3.6265   20.8929 C   0  0  0  0  0  0  0  0  0  0  0  0
    7.3827    2.5724   20.5432 C   0  0  0  0  0  0  0  0  0  0  0  0
   11.1529    7.2750   20.8025 C   0  0  0  0  0  0  0  0  0  0  0  0
   10.2573    8.3215   20.9827 C   0  0  0  0  0  0  0  0  0  0  0  0
   11.1606    5.9378   21.2366 N   0  0  0  0  0  0  0  0  0  0  0  0
    9.8932   11.6736   19.0677 O   0  0  0  0  0  0  0  0  0  0  0  0
    6.4470    4.5850   22.2321 C   0  0  0  0  0  0  0  0  0  0  0  0
    8.4619    6.9895   22.2968 C   0  0  0  0  0  0  0  0  0  0  0  0
   12.2747    7.5102   20.0420 C   0  0  0  0  0  0  0  0  0  0  0  0
   14.2544    6.2142   19.4191 C   0  0  0  0  0  0  0  0  0  0  0  0
   13.0695    6.3705   20.0375 N   0  0  0  0  0  0  0  0  0  0  0  0
    9.1913    8.0876   21.8361 N   0  0  0  0  0  0  0  0  0  0  0  0
   10.4739    9.4813   20.2889 C   0  0  0  0  0  0  0  0  0  0  0  0
    7.5551    7.1270   23.1200 O   0  0  0  0  0  0  0  0  0  0  0  0
  1 11  4  0
  1 21  4  0
  2  4  1  0
  2  8  1  0
  2 11  1  0
  3 10  4  0
  3 14  4  0
  4  5  1  0
  4 18  2  0
  6 12  1  0
  6 17  4  0
  6 23  4  0
  7  9  1  0
  7 13  4  0
  7 19  4  0
  9 20  1  0
 10 19  4  0
 11 25  4  0
 13 14  4  0
 15 16  4  0
 15 17  4  0
 15 21  4  0
 16 24  1  0
 16 25  4  0
 20 24  1  0
 20 26  2  0
 21 23  4  0
 22 23  1  0
M  END
$$$$

 Created by Python create_sdf_string function

 26 28  0  0  0  0  0  0  0  0999 V2000
   12.4616    8.6700   19.4180 N   0  0  0  0  0  0  0  0  0  0  0  0
   11.8329   10.8148   18.6769 N   0  0  0  0  0  0  0  0  0  0  0  0
    6.1021    2.5564   21.0678 C   0  0  0  0  0  0  0  0  0  0  0  0
   10.9097   11.8051   18.4804 C   0  0  0  0  0  0  0  0  0  0  0  0
   11.2280   12.9135   17.5669 C   0  0  0  0  0  0  0  0  0  0  0  0
   12.3782    5.4231   20.7777 C   0  0  0  0  0  0  0  0  0  0  0  0
    7.7365    4.6508   21.6987 C   0  0  0  0  0  0  0  0  0  0  0  0
   13.0186   11.0102   18.0020 C   0  0  0  0  0  0  0  0  0  0  0  0
    8.6628    5.7088   21.8871 N   0  0  0  0  0  0  0  0  0  0  0  0
    5.6516    3.5258   21.9140 C   0  0  0  0  0  0  0  0  0  0  0  0
   11.5863    9.6815   19.4539 C   0  0  0  0  0  0  0  0  0  0  0  0
   12.9648    4.1543   20.9205 C   0  0  0  0  0  0  0  0  0  0  0  0
    8.2089    3.6265   20.8929 C   0  0  0  0  0  0  0  0  0  0  0  0
    7.3827    2.5724   20.5432 C   0  0  0  0  0  0  0  0  0  0  0  0
   11.1529    7.2750   20.8025 C   0  0  0  0  0  0  0  0  0  0  0  0
   10.2573    8.3215   20.9827 C   0  0  0  0  0  0  0  0  0  0  0  0
   11.1606    5.9378   21.2366 N   0  0  0  0  0  0  0  0  0  0  0  0
    9.8932   11.6736   19.0677 O   0  0  0  0  0  0  0  0  0  0  0  0
    6.4470    4.5850   22.2321 C   0  0  0  0  0  0  0  0  0  0  0  0
    8.4619    6.9895   22.2968 C   0  0  0  0  0  0  0  0  0  0  0  0
   12.2747    7.5102   20.0420 C   0  0  0  0  0  0  0  0  0  0  0  0
   14.2544    6.2142   19.4191 C   0  0  0  0  0  0  0  0  0  0  0  0
   13.0695    6.3705   20.0375 N   0  0  0  0  0  0  0  0  0  0  0  0
    9.1913    8.0876   21.8361 N   0  0  0  0  0  0  0  0  0  0  0  0
   10.4739    9.4813   20.2889 C   0  0  0  0  0  0  0  0  0  0  0  0
    7.5551    7.1270   23.1200 O   0  0  0  0  0  0  0  0  0  0  0  0
  1 11  4  0
  1 21  4  0
  2  4  1  0
  2  8  1  0
  2 11  1  0
  3 10  4  0
  3 14  4  0
  4  5  1  0
  4 18  2  0
  6 12  1  0
  6 17  4  0
  6 23  4  0
  7  9  1  0
  7 13  4  0
  7 19  4  0
  9 20  1  0
 10 19  4  0
 11 25  4  0
 13 14  4  0
 15 16  4  0
 15 17  4  0
 15 21  4  0
 16 24  1  0
 16 25  4  0
 20 24  1  0
 20 26  2  0
 21 23  4  0
 22 23  1  0
M  END
$$$$

 Created by Python create_sdf_string function

 26 28  0  0  0  0  0  0  0  0999 V2000
   12.4616    8.6700   19.4180 N   0  0  0  0  0  0  0  0  0  0  0  0
   11.8329   10.8148   18.6769 N   0  0  0  0  0  0  0  0  0  0  0  0
    6.1021    2.5564   21.0678 C   0  0  0  0  0  0  0  0  0  0  0  0
   10.9097   11.8051   18.4804 C   0  0  0  0  0  0  0  0  0  0  0  0
   11.2280   12.9135   17.5669 C   0  0  0  0  0  0  0  0  0  0  0  0
   12.3782    5.4231   20.7777 C   0  0  0  0  0  0  0  0  0  0  0  0
    7.7365    4.6508   21.6987 C   0  0  0  0  0  0  0  0  0  0  0  0
   13.0186   11.0102   18.0020 C   0  0  0  0  0  0  0  0  0  0  0  0
    8.6628    5.7088   21.8871 N   0  0  0  0  0  0  0  0  0  0  0  0
    5.6516    3.5258   21.9140 C   0  0  0  0  0  0  0  0  0  0  0  0
   11.5863    9.6815   19.4539 C   0  0  0  0  0  0  0  0  0  0  0  0
   12.9648    4.1543   20.9205 C   0  0  0  0  0  0  0  0  0  0  0  0
    8.2089    3.6265   20.8929 C   0  0  0  0  0  0  0  0  0  0  0  0
    7.3827    2.5724   20.5432 C   0  0  0  0  0  0  0  0  0  0  0  0
   11.1529    7.2750   20.8025 C   0  0  0  0  0  0  0  0  0  0  0  0
   10.2573    8.3215   20.9827 C   0  0  0  0  0  0  0  0  0  0  0  0
   11.1606    5.9378   21.2366 N   0  0  0  0  0  0  0  0  0  0  0  0
    9.8932   11.6736   19.0677 O   0  0  0  0  0  0  0  0  0  0  0  0
    6.4470    4.5850   22.2321 C   0  0  0  0  0  0  0  0  0  0  0  0
    8.4619    6.9895   22.2968 C   0  0  0  0  0  0  0  0  0  0  0  0
   12.2747    7.5102   20.0420 C   0  0  0  0  0  0  0  0  0  0  0  0
   14.2544    6.2142   19.4191 C   0  0  0  0  0  0  0  0  0  0  0  0
   13.0695    6.3705   20.0375 N   0  0  0  0  0  0  0  0  0  0  0  0
    9.1913    8.0876   21.8361 N   0  0  0  0  0  0  0  0  0  0  0  0
   10.4739    9.4813   20.2889 C   0  0  0  0  0  0  0  0  0  0  0  0
    7.5551    7.1270   23.1200 O   0  0  0  0  0  0  0  0  0  0  0  0
  1 11  4  0
  1 21  4  0
  2  4  1  0
  2  8  1  0
  2 11  1  0
  3 10  4  0
  3 14  4  0
  4  5  1  0
  4 18  2  0
  6 12  1  0
  6 17  4  0
  6 23  4  0
  7  9  1  0
  7 13  4  0
  7 19  4  0
  9 20  1  0
 10 19  4  0
 11 25  4  0
 13 14  4  0
 15 16  4  0
 15 17  4  0
 15 21  4  0
 16 24  1  0
 16 25  4  0
 20 24  1  0
 20 26  2  0
 21 23  4  0
 22 23  1  0
M  END
$$$$

 Created by Python create_sdf_string function

 26 28  0  0  0  0  0  0  0  0999 V2000
   12.4616    8.6700   19.4180 N   0  0  0  0  0  0  0  0  0  0  0  0
   11.8329   10.8148   18.6769 N   0  0  0  0  0  0  0  0  0  0  0  0
    6.1021    2.5564   21.0678 C   0  0  0  0  0  0  0  0  0  0  0  0
   10.9097   11.8051   18.4804 C   0  0  0  0  0  0  0  0  0  0  0  0
   11.2280   12.9135   17.5669 C   0  0  0  0  0  0  0  0  0  0  0  0
   12.3782    5.4231   20.7777 C   0  0  0  0  0  0  0  0  0  0  0  0
    7.7365    4.6508   21.6987 C   0  0  0  0  0  0  0  0  0  0  0  0
   13.0186   11.0102   18.0020 C   0  0  0  0  0  0  0  0  0  0  0  0
    8.6628    5.7088   21.8871 N   0  0  0  0  0  0  0  0  0  0  0  0
    5.6516    3.5258   21.9140 C   0  0  0  0  0  0  0  0  0  0  0  0
   11.5863    9.6815   19.4539 C   0  0  0  0  0  0  0  0  0  0  0  0
   12.9648    4.1543   20.9205 C   0  0  0  0  0  0  0  0  0  0  0  0
    8.2089    3.6265   20.8929 C   0  0  0  0  0  0  0  0  0  0  0  0
    7.3827    2.5724   20.5432 C   0  0  0  0  0  0  0  0  0  0  0  0
   11.1529    7.2750   20.8025 C   0  0  0  0  0  0  0  0  0  0  0  0
   10.2573    8.3215   20.9827 C   0  0  0  0  0  0  0  0  0  0  0  0
   11.1606    5.9378   21.2366 N   0  0  0  0  0  0  0  0  0  0  0  0
    9.8932   11.6736   19.0677 O   0  0  0  0  0  0  0  0  0  0  0  0
    6.4470    4.5850   22.2321 C   0  0  0  0  0  0  0  0  0  0  0  0
    8.4619    6.9895   22.2968 C   0  0  0  0  0  0  0  0  0  0  0  0
   12.2747    7.5102   20.0420 C   0  0  0  0  0  0  0  0  0  0  0  0
   14.2544    6.2142   19.4191 C   0  0  0  0  0  0  0  0  0  0  0  0
   13.0695    6.3705   20.0375 N   0  0  0  0  0  0  0  0  0  0  0  0
    9.1913    8.0876   21.8361 N   0  0  0  0  0  0  0  0  0  0  0  0
   10.4739    9.4813   20.2889 C   0  0  0  0  0  0  0  0  0  0  0  0
    7.5551    7.1270   23.1200 O   0  0  0  0  0  0  0  0  0  0  0  0
  1 11  4  0
  1 21  4  0
  2  4  1  0
  2  8  1  0
  2 11  1  0
  3 10  4  0
  3 14  4  0
  4  5  1  0
  4 18  2  0
  6 12  1  0
  6 17  4  0
  6 23  4  0
  7  9  1  0
  7 13  4  0
  7 19  4  0
  9 20  1  0
 10 19  4  0
 11 25  4  0
 13 14  4  0
 15 16  4  0
 15 17  4  0
 15 21  4  0
 16 24  1  0
 16 25  4  0
 20 24  1  0
 20 26  2  0
 21 23  4  0
 22 23  1  0
M  END
$$$$

 Created by Python create_sdf_string function

 26 28  0  0  0  0  0  0  0  0999 V2000
   12.4616    8.6700   19.4180 N   0  0  0  0  0  0  0  0  0  0  0  0
   11.8329   10.8148   18.6769 N   0  0  0  0  0  0  0  0  0  0  0  0
    6.1021    2.5564   21.0678 C   0  0  0  0  0  0  0  0  0  0  0  0
   10.9097   11.8051   18.4804 C   0  0  0  0  0  0  0  0  0  0  0  0
   11.2280   12.9135   17.5669 C   0  0  0  0  0  0  0  0  0  0  0  0
   12.3782    5.4231   20.7777 C   0  0  0  0  0  0  0  0  0  0  0  0
    7.7365    4.6508   21.6987 C   0  0  0  0  0  0  0  0  0  0  0  0
   13.0186   11.0102   18.0020 C   0  0  0  0  0  0  0  0  0  0  0  0
    8.6628    5.7088   21.8871 N   0  0  0  0  0  0  0  0  0  0  0  0
    5.6516    3.5258   21.9140 C   0  0  0  0  0  0  0  0  0  0  0  0
   11.5863    9.6815   19.4539 C   0  0  0  0  0  0  0  0  0  0  0  0
   12.9648    4.1543   20.9205 C   0  0  0  0  0  0  0  0  0  0  0  0
    8.2089    3.6265   20.8929 C   0  0  0  0  0  0  0  0  0  0  0  0
    7.3827    2.5724   20.5432 C   0  0  0  0  0  0  0  0  0  0  0  0
   11.1529    7.2750   20.8025 C   0  0  0  0  0  0  0  0  0  0  0  0
   10.2573    8.3215   20.9827 C   0  0  0  0  0  0  0  0  0  0  0  0
   11.1606    5.9378   21.2366 N   0  0  0  0  0  0  0  0  0  0  0  0
    9.8932   11.6736   19.0677 O   0  0  0  0  0  0  0  0  0  0  0  0
    6.4470    4.5850   22.2321 C   0  0  0  0  0  0  0  0  0  0  0  0
    8.4619    6.9895   22.2968 C   0  0  0  0  0  0  0  0  0  0  0  0
   12.2747    7.5102   20.0420 C   0  0  0  0  0  0  0  0  0  0  0  0
   14.2544    6.2142   19.4191 C   0  0  0  0  0  0  0  0  0  0  0  0
   13.0695    6.3705   20.0375 N   0  0  0  0  0  0  0  0  0  0  0  0
    9.1913    8.0876   21.8361 N   0  0  0  0  0  0  0  0  0  0  0  0
   10.4739    9.4813   20.2889 C   0  0  0  0  0  0  0  0  0  0  0  0
    7.5551    7.1270   23.1200 O   0  0  0  0  0  0  0  0  0  0  0  0
  1 11  4  0
  1 21  4  0
  2  4  1  0
  2  8  1  0
  2 11  1  0
  3 10  4  0
  3 14  4  0
  4  5  1  0
  4 18  2  0
  6 12  1  0
  6 17  4  0
  6 23  4  0
  7  9  1  0
  7 13  4  0
  7 19  4  0
  9 20  1  0
 10 19  4  0
 11 25  4  0
 13 14  4  0
 15 16  4  0
 15 17  4  0
 15 21  4  0
 16 24  1  0
 16 25  4  0
 20 24  1  0
 20 26  2  0
 21 23  4  0
 22 23  1  0
M  END
$$$$

 Created by Python create_sdf_string function

 26 28  0  0  0  0  0  0  0  0999 V2000
   12.4616    8.6700   19.4180 N   0  0  0  0  0  0  0  0  0  0  0  0
   11.8329   10.8148   18.6769 N   0  0  0  0  0  0  0  0  0  0  0  0
    6.1021    2.5564   21.0678 C   0  0  0  0  0  0  0  0  0  0  0  0
   10.9097   11.8051   18.4804 C   0  0  0  0  0  0  0  0  0  0  0  0
   11.2280   12.9135   17.5669 C   0  0  0  0  0  0  0  0  0  0  0  0
   12.3782    5.4231   20.7777 C   0  0  0  0  0  0  0  0  0  0  0  0
    7.7365    4.6508   21.6987 C   0  0  0  0  0  0  0  0  0  0  0  0
   13.0186   11.0102   18.0020 C   0  0  0  0  0  0  0  0  0  0  0  0
    8.6628    5.7088   21.8871 N   0  0  0  0  0  0  0  0  0  0  0  0
    5.6516    3.5258   21.9140 C   0  0  0  0  0  0  0  0  0  0  0  0
   11.5863    9.6815   19.4539 C   0  0  0  0  0  0  0  0  0  0  0  0
   12.9648    4.1543   20.9205 C   0  0  0  0  0  0  0  0  0  0  0  0
    8.2089    3.6265   20.8929 C   0  0  0  0  0  0  0  0  0  0  0  0
    7.3827    2.5724   20.5432 C   0  0  0  0  0  0  0  0  0  0  0  0
   11.1529    7.2750   20.8025 C   0  0  0  0  0  0  0  0  0  0  0  0
   10.2573    8.3215   20.9827 C   0  0  0  0  0  0  0  0  0  0  0  0
   11.1606    5.9378   21.2366 N   0  0  0  0  0  0  0  0  0  0  0  0
    9.8932   11.6736   19.0677 O   0  0  0  0  0  0  0  0  0  0  0  0
    6.4470    4.5850   22.2321 C   0  0  0  0  0  0  0  0  0  0  0  0
    8.4619    6.9895   22.2968 C   0  0  0  0  0  0  0  0  0  0  0  0
   12.2747    7.5102   20.0420 C   0  0  0  0  0  0  0  0  0  0  0  0
   14.2544    6.2142   19.4191 C   0  0  0  0  0  0  0  0  0  0  0  0
   13.0695    6.3705   20.0375 N   0  0  0  0  0  0  0  0  0  0  0  0
    9.1913    8.0876   21.8361 N   0  0  0  0  0  0  0  0  0  0  0  0
   10.4739    9.4813   20.2889 C   0  0  0  0  0  0  0  0  0  0  0  0
    7.5551    7.1270   23.1200 O   0  0  0  0  0  0  0  0  0  0  0  0
  1 11  4  0
  1 21  4  0
  2  4  1  0
  2  8  1  0
  2 11  1  0
  3 10  4  0
  3 14  4  0
  4  5  1  0
  4 18  2  0
  6 12  1  0
  6 17  4  0
  6 23  4  0
  7  9  1  0
  7 13  4  0
  7 19  4  0
  9 20  1  0
 10 19  4  0
 11 25  4  0
 13 14  4  0
 15 16  4  0
 15 17  4  0
 15 21  4  0
 16 24  1  0
 16 25  4  0
 20 24  1  0
 20 26  2  0
 21 23  4  0
 22 23  1  0
M  END
$$$$

 Created by Python create_sdf_string function

 26 28  0  0  0  0  0  0  0  0999 V2000
   12.4616    8.6700   19.4180 N   0  0  0  0  0  0  0  0  0  0  0  0
   11.8329   10.8148   18.6769 N   0  0  0  0  0  0  0  0  0  0  0  0
    6.1021    2.5564   21.0678 C   0  0  0  0  0  0  0  0  0  0  0  0
   10.9097   11.8051   18.4804 C   0  0  0  0  0  0  0  0  0  0  0  0
   11.2280   12.9135   17.5669 C   0  0  0  0  0  0  0  0  0  0  0  0
   12.3782    5.4231   20.7777 C   0  0  0  0  0  0  0  0  0  0  0  0
    7.7365    4.6508   21.6987 C   0  0  0  0  0  0  0  0  0  0  0  0
   13.0186   11.0102   18.0020 C   0  0  0  0  0  0  0  0  0  0  0  0
    8.6628    5.7088   21.8871 N   0  0  0  0  0  0  0  0  0  0  0  0
    5.6516    3.5258   21.9140 C   0  0  0  0  0  0  0  0  0  0  0  0
   11.5863    9.6815   19.4539 C   0  0  0  0  0  0  0  0  0  0  0  0
   12.9648    4.1543   20.9205 C   0  0  0  0  0  0  0  0  0  0  0  0
    8.2089    3.6265   20.8929 C   0  0  0  0  0  0  0  0  0  0  0  0
    7.3827    2.5724   20.5432 C   0  0  0  0  0  0  0  0  0  0  0  0
   11.1529    7.2750   20.8025 C   0  0  0  0  0  0  0  0  0  0  0  0
   10.2573    8.3215   20.9827 C   0  0  0  0  0  0  0  0  0  0  0  0
   11.1606    5.9378   21.2366 N   0  0  0  0  0  0  0  0  0  0  0  0
    9.8932   11.6736   19.0677 O   0  0  0  0  0  0  0  0  0  0  0  0
    6.4470    4.5850   22.2321 C   0  0  0  0  0  0  0  0  0  0  0  0
    8.4619    6.9895   22.2968 C   0  0  0  0  0  0  0  0  0  0  0  0
   12.2747    7.5102   20.0420 C   0  0  0  0  0  0  0  0  0  0  0  0
   14.2544    6.2142   19.4191 C   0  0  0  0  0  0  0  0  0  0  0  0
   13.0695    6.3705   20.0375 N   0  0  0  0  0  0  0  0  0  0  0  0
    9.1913    8.0876   21.8361 N   0  0  0  0  0  0  0  0  0  0  0  0
   10.4739    9.4813   20.2889 C   0  0  0  0  0  0  0  0  0  0  0  0
    7.5551    7.1270   23.1200 O   0  0  0  0  0  0  0  0  0  0  0  0
  1 11  4  0
  1 21  4  0
  2  4  1  0
  2  8  1  0
  2 11  1  0
  3 10  4  0
  3 14  4  0
  4  5  1  0
  4 18  2  0
  6 12  1  0
  6 17  4  0
  6 23  4  0
  7  9  1  0
  7 13  4  0
  7 19  4  0
  9 20  1  0
 10 19  4  0
 11 25  4  0
 13 14  4  0
 15 16  4  0
 15 17  4  0
 15 21  4  0
 16 24  1  0
 16 25  4  0
 20 24  1  0
 20 26  2  0
 21 23  4  0
 22 23  1  0
M  END
$$$$

 Created by Python create_sdf_string function

 26 28  0  0  0  0  0  0  0  0999 V2000
   12.4616    8.6700   19.4180 N   0  0  0  0  0  0  0  0  0  0  0  0
   11.8329   10.8148   18.6769 N   0  0  0  0  0  0  0  0  0  0  0  0
    6.1021    2.5564   21.0678 C   0  0  0  0  0  0  0  0  0  0  0  0
   10.9097   11.8051   18.4804 C   0  0  0  0  0  0  0  0  0  0  0  0
   11.2280   12.9135   17.5669 C   0  0  0  0  0  0  0  0  0  0  0  0
   12.3782    5.4231   20.7777 C   0  0  0  0  0  0  0  0  0  0  0  0
    7.7365    4.6508   21.6987 C   0  0  0  0  0  0  0  0  0  0  0  0
   13.0186   11.0102   18.0020 C   0  0  0  0  0  0  0  0  0  0  0  0
    8.6628    5.7088   21.8871 N   0  0  0  0  0  0  0  0  0  0  0  0
    5.6516    3.5258   21.9140 C   0  0  0  0  0  0  0  0  0  0  0  0
   11.5863    9.6815   19.4539 C   0  0  0  0  0  0  0  0  0  0  0  0
   12.9648    4.1543   20.9205 C   0  0  0  0  0  0  0  0  0  0  0  0
    8.2089    3.6265   20.8929 C   0  0  0  0  0  0  0  0  0  0  0  0
    7.3827    2.5724   20.5432 C   0  0  0  0  0  0  0  0  0  0  0  0
   11.1529    7.2750   20.8025 C   0  0  0  0  0  0  0  0  0  0  0  0
   10.2573    8.3215   20.9827 C   0  0  0  0  0  0  0  0  0  0  0  0
   11.1606    5.9378   21.2366 N   0  0  0  0  0  0  0  0  0  0  0  0
    9.8932   11.6736   19.0677 O   0  0  0  0  0  0  0  0  0  0  0  0
    6.4470    4.5850   22.2321 C   0  0  0  0  0  0  0  0  0  0  0  0
    8.4619    6.9895   22.2968 C   0  0  0  0  0  0  0  0  0  0  0  0
   12.2747    7.5102   20.0420 C   0  0  0  0  0  0  0  0  0  0  0  0
   14.2544    6.2142   19.4191 C   0  0  0  0  0  0  0  0  0  0  0  0
   13.0695    6.3705   20.0375 N   0  0  0  0  0  0  0  0  0  0  0  0
    9.1913    8.0876   21.8361 N   0  0  0  0  0  0  0  0  0  0  0  0
   10.4739    9.4813   20.2889 C   0  0  0  0  0  0  0  0  0  0  0  0
    7.5551    7.1270   23.1200 O   0  0  0  0  0  0  0  0  0  0  0  0
  1 11  4  0
  1 21  4  0
  2  4  1  0
  2  8  1  0
  2 11  1  0
  3 10  4  0
  3 14  4  0
  4  5  1  0
  4 18  2  0
  6 12  1  0
  6 17  4  0
  6 23  4  0
  7  9  1  0
  7 13  4  0
  7 19  4  0
  9 20  1  0
 10 19  4  0
 11 25  4  0
 13 14  4  0
 15 16  4  0
 15 17  4  0
 15 21  4  0
 16 24  1  0
 16 25  4  0
 20 24  1  0
 20 26  2  0
 21 23  4  0
 22 23  1  0
M  END
$$$$

 Created by Python create_sdf_string function

 26 28  0  0  0  0  0  0  0  0999 V2000
   12.4616    8.6700   19.4180 N   0  0  0  0  0  0  0  0  0  0  0  0
   11.8329   10.8148   18.6769 N   0  0  0  0  0  0  0  0  0  0  0  0
    6.1021    2.5564   21.0678 C   0  0  0  0  0  0  0  0  0  0  0  0
   10.9097   11.8051   18.4804 C   0  0  0  0  0  0  0  0  0  0  0  0
   11.2280   12.9135   17.5669 C   0  0  0  0  0  0  0  0  0  0  0  0
   12.3782    5.4231   20.7777 C   0  0  0  0  0  0  0  0  0  0  0  0
    7.7365    4.6508   21.6987 C   0  0  0  0  0  0  0  0  0  0  0  0
   13.0186   11.0102   18.0020 C   0  0  0  0  0  0  0  0  0  0  0  0
    8.6628    5.7088   21.8871 N   0  0  0  0  0  0  0  0  0  0  0  0
    5.6516    3.5258   21.9140 C   0  0  0  0  0  0  0  0  0  0  0  0
   11.5863    9.6815   19.4539 C   0  0  0  0  0  0  0  0  0  0  0  0
   12.9648    4.1543   20.9205 C   0  0  0  0  0  0  0  0  0  0  0  0
    8.2089    3.6265   20.8929 C   0  0  0  0  0  0  0  0  0  0  0  0
    7.3827    2.5724   20.5432 C   0  0  0  0  0  0  0  0  0  0  0  0
   11.1529    7.2750   20.8025 C   0  0  0  0  0  0  0  0  0  0  0  0
   10.2573    8.3215   20.9827 C   0  0  0  0  0  0  0  0  0  0  0  0
   11.1606    5.9378   21.2366 N   0  0  0  0  0  0  0  0  0  0  0  0
    9.8932   11.6736   19.0677 O   0  0  0  0  0  0  0  0  0  0  0  0
    6.4470    4.5850   22.2321 C   0  0  0  0  0  0  0  0  0  0  0  0
    8.4619    6.9895   22.2968 C   0  0  0  0  0  0  0  0  0  0  0  0
   12.2747    7.5102   20.0420 C   0  0  0  0  0  0  0  0  0  0  0  0
   14.2544    6.2142   19.4191 C   0  0  0  0  0  0  0  0  0  0  0  0
   13.0695    6.3705   20.0375 N   0  0  0  0  0  0  0  0  0  0  0  0
    9.1913    8.0876   21.8361 N   0  0  0  0  0  0  0  0  0  0  0  0
   10.4739    9.4813   20.2889 C   0  0  0  0  0  0  0  0  0  0  0  0
    7.5551    7.1270   23.1200 O   0  0  0  0  0  0  0  0  0  0  0  0
  1 11  4  0
  1 21  4  0
  2  4  1  0
  2  8  1  0
  2 11  1  0
  3 10  4  0
  3 14  4  0
  4  5  1  0
  4 18  2  0
  6 12  1  0
  6 17  4  0
  6 23  4  0
  7  9  1  0
  7 13  4  0
  7 19  4  0
  9 20  1  0
 10 19  4  0
 11 25  4  0
 13 14  4  0
 15 16  4  0
 15 17  4  0
 15 21  4  0
 16 24  1  0
 16 25  4  0
 20 24  1  0
 20 26  2  0
 21 23  4  0
 22 23  1  0
M  END
$$$$

 Created by Python create_sdf_string function

 26 28  0  0  0  0  0  0  0  0999 V2000
   12.4616    8.6700   19.4180 N   0  0  0  0  0  0  0  0  0  0  0  0
   11.8329   10.8148   18.6769 N   0  0  0  0  0  0  0  0  0  0  0  0
    6.1021    2.5564   21.0678 C   0  0  0  0  0  0  0  0  0  0  0  0
   10.9097   11.8051   18.4804 C   0  0  0  0  0  0  0  0  0  0  0  0
   11.2280   12.9135   17.5669 C   0  0  0  0  0  0  0  0  0  0  0  0
   12.3782    5.4231   20.7777 C   0  0  0  0  0  0  0  0  0  0  0  0
    7.7365    4.6508   21.6987 C   0  0  0  0  0  0  0  0  0  0  0  0
   13.0186   11.0102   18.0020 C   0  0  0  0  0  0  0  0  0  0  0  0
    8.6628    5.7088   21.8871 N   0  0  0  0  0  0  0  0  0  0  0  0
    5.6516    3.5258   21.9140 C   0  0  0  0  0  0  0  0  0  0  0  0
   11.5863    9.6815   19.4539 C   0  0  0  0  0  0  0  0  0  0  0  0
   12.9648    4.1543   20.9205 C   0  0  0  0  0  0  0  0  0  0  0  0
    8.2089    3.6265   20.8929 C   0  0  0  0  0  0  0  0  0  0  0  0
    7.3827    2.5724   20.5432 C   0  0  0  0  0  0  0  0  0  0  0  0
   11.1529    7.2750   20.8025 C   0  0  0  0  0  0  0  0  0  0  0  0
   10.2573    8.3215   20.9827 C   0  0  0  0  0  0  0  0  0  0  0  0
   11.1606    5.9378   21.2366 N   0  0  0  0  0  0  0  0  0  0  0  0
    9.8932   11.6736   19.0677 O   0  0  0  0  0  0  0  0  0  0  0  0
    6.4470    4.5850   22.2321 C   0  0  0  0  0  0  0  0  0  0  0  0
    8.4619    6.9895   22.2968 C   0  0  0  0  0  0  0  0  0  0  0  0
   12.2747    7.5102   20.0420 C   0  0  0  0  0  0  0  0  0  0  0  0
   14.2544    6.2142   19.4191 C   0  0  0  0  0  0  0  0  0  0  0  0
   13.0695    6.3705   20.0375 N   0  0  0  0  0  0  0  0  0  0  0  0
    9.1913    8.0876   21.8361 N   0  0  0  0  0  0  0  0  0  0  0  0
   10.4739    9.4813   20.2889 C   0  0  0  0  0  0  0  0  0  0  0  0
    7.5551    7.1270   23.1200 O   0  0  0  0  0  0  0  0  0  0  0  0
  1 11  4  0
  1 21  4  0
  2  4  1  0
  2  8  1  0
  2 11  1  0
  3 10  4  0
  3 14  4  0
  4  5  1  0
  4 18  2  0
  6 12  1  0
  6 17  4  0
  6 23  4  0
  7  9  1  0
  7 13  4  0
  7 19  4  0
  9 20  1  0
 10 19  4  0
 11 25  4  0
 13 14  4  0
 15 16  4  0
 15 17  4  0
 15 21  4  0
 16 24  1  0
 16 25  4  0
 20 24  1  0
 20 26  2  0
 21 23  4  0
 22 23  1  0
M  END
$$$$

 Created by Python create_sdf_string function

 26 28  0  0  0  0  0  0  0  0999 V2000
   12.4616    8.6700   19.4180 N   0  0  0  0  0  0  0  0  0  0  0  0
   11.8329   10.8148   18.6769 N   0  0  0  0  0  0  0  0  0  0  0  0
    6.1021    2.5564   21.0678 C   0  0  0  0  0  0  0  0  0  0  0  0
   10.9097   11.8051   18.4804 C   0  0  0  0  0  0  0  0  0  0  0  0
   11.2280   12.9135   17.5669 C   0  0  0  0  0  0  0  0  0  0  0  0
   12.3782    5.4231   20.7777 C   0  0  0  0  0  0  0  0  0  0  0  0
    7.7365    4.6508   21.6987 C   0  0  0  0  0  0  0  0  0  0  0  0
   13.0186   11.0102   18.0020 C   0  0  0  0  0  0  0  0  0  0  0  0
    8.6628    5.7088   21.8871 N   0  0  0  0  0  0  0  0  0  0  0  0
    5.6516    3.5258   21.9140 C   0  0  0  0  0  0  0  0  0  0  0  0
   11.5863    9.6815   19.4539 C   0  0  0  0  0  0  0  0  0  0  0  0
   12.9648    4.1543   20.9205 C   0  0  0  0  0  0  0  0  0  0  0  0
    8.2089    3.6265   20.8929 C   0  0  0  0  0  0  0  0  0  0  0  0
    7.3827    2.5724   20.5432 C   0  0  0  0  0  0  0  0  0  0  0  0
   11.1529    7.2750   20.8025 C   0  0  0  0  0  0  0  0  0  0  0  0
   10.2573    8.3215   20.9827 C   0  0  0  0  0  0  0  0  0  0  0  0
   11.1606    5.9378   21.2366 N   0  0  0  0  0  0  0  0  0  0  0  0
    9.8932   11.6736   19.0677 O   0  0  0  0  0  0  0  0  0  0  0  0
    6.4470    4.5850   22.2321 C   0  0  0  0  0  0  0  0  0  0  0  0
    8.4619    6.9895   22.2968 C   0  0  0  0  0  0  0  0  0  0  0  0
   12.2747    7.5102   20.0420 C   0  0  0  0  0  0  0  0  0  0  0  0
   14.2544    6.2142   19.4191 C   0  0  0  0  0  0  0  0  0  0  0  0
   13.0695    6.3705   20.0375 N   0  0  0  0  0  0  0  0  0  0  0  0
    9.1913    8.0876   21.8361 N   0  0  0  0  0  0  0  0  0  0  0  0
   10.4739    9.4813   20.2889 C   0  0  0  0  0  0  0  0  0  0  0  0
    7.5551    7.1270   23.1200 O   0  0  0  0  0  0  0  0  0  0  0  0
  1 11  4  0
  1 21  4  0
  2  4  1  0
  2  8  1  0
  2 11  1  0
  3 10  4  0
  3 14  4  0
  4  5  1  0
  4 18  2  0
  6 12  1  0
  6 17  4  0
  6 23  4  0
  7  9  1  0
  7 13  4  0
  7 19  4  0
  9 20  1  0
 10 19  4  0
 11 25  4  0
 13 14  4  0
 15 16  4  0
 15 17  4  0
 15 21  4  0
 16 24  1  0
 16 25  4  0
 20 24  1  0
 20 26  2  0
 21 23  4  0
 22 23  1  0
M  END
$$$$

 Created by Python create_sdf_string function

 26 28  0  0  0  0  0  0  0  0999 V2000
   12.4616    8.6700   19.4180 N   0  0  0  0  0  0  0  0  0  0  0  0
   11.8329   10.8148   18.6769 N   0  0  0  0  0  0  0  0  0  0  0  0
    6.1021    2.5564   21.0678 C   0  0  0  0  0  0  0  0  0  0  0  0
   10.9097   11.8051   18.4804 C   0  0  0  0  0  0  0  0  0  0  0  0
   11.2280   12.9135   17.5669 C   0  0  0  0  0  0  0  0  0  0  0  0
   12.3782    5.4231   20.7777 C   0  0  0  0  0  0  0  0  0  0  0  0
    7.7365    4.6508   21.6987 C   0  0  0  0  0  0  0  0  0  0  0  0
   13.0186   11.0102   18.0020 C   0  0  0  0  0  0  0  0  0  0  0  0
    8.6628    5.7088   21.8871 N   0  0  0  0  0  0  0  0  0  0  0  0
    5.6516    3.5258   21.9140 C   0  0  0  0  0  0  0  0  0  0  0  0
   11.5863    9.6815   19.4539 C   0  0  0  0  0  0  0  0  0  0  0  0
   12.9648    4.1543   20.9205 C   0  0  0  0  0  0  0  0  0  0  0  0
    8.2089    3.6265   20.8929 C   0  0  0  0  0  0  0  0  0  0  0  0
    7.3827    2.5724   20.5432 C   0  0  0  0  0  0  0  0  0  0  0  0
   11.1529    7.2750   20.8025 C   0  0  0  0  0  0  0  0  0  0  0  0
   10.2573    8.3215   20.9827 C   0  0  0  0  0  0  0  0  0  0  0  0
   11.1606    5.9378   21.2366 N   0  0  0  0  0  0  0  0  0  0  0  0
    9.8932   11.6736   19.0677 O   0  0  0  0  0  0  0  0  0  0  0  0
    6.4470    4.5850   22.2321 C   0  0  0  0  0  0  0  0  0  0  0  0
    8.4619    6.9895   22.2968 C   0  0  0  0  0  0  0  0  0  0  0  0
   12.2747    7.5102   20.0420 C   0  0  0  0  0  0  0  0  0  0  0  0
   14.2544    6.2142   19.4191 C   0  0  0  0  0  0  0  0  0  0  0  0
   13.0695    6.3705   20.0375 N   0  0  0  0  0  0  0  0  0  0  0  0
    9.1913    8.0876   21.8361 N   0  0  0  0  0  0  0  0  0  0  0  0
   10.4739    9.4813   20.2889 C   0  0  0  0  0  0  0  0  0  0  0  0
    7.5551    7.1270   23.1200 O   0  0  0  0  0  0  0  0  0  0  0  0
  1 11  4  0
  1 21  4  0
  2  4  1  0
  2  8  1  0
  2 11  1  0
  3 10  4  0
  3 14  4  0
  4  5  1  0
  4 18  2  0
  6 12  1  0
  6 17  4  0
  6 23  4  0
  7  9  1  0
  7 13  4  0
  7 19  4  0
  9 20  1  0
 10 19  4  0
 11 25  4  0
 13 14  4  0
 15 16  4  0
 15 17  4  0
 15 21  4  0
 16 24  1  0
 16 25  4  0
 20 24  1  0
 20 26  2  0
 21 23  4  0
 22 23  1  0
M  END
$$$$

 Created by Python create_sdf_string function

 26 28  0  0  0  0  0  0  0  0999 V2000
   12.4616    8.6700   19.4180 N   0  0  0  0  0  0  0  0  0  0  0  0
   11.8329   10.8148   18.6769 N   0  0  0  0  0  0  0  0  0  0  0  0
    6.1021    2.5564   21.0678 C   0  0  0  0  0  0  0  0  0  0  0  0
   10.9097   11.8051   18.4804 C   0  0  0  0  0  0  0  0  0  0  0  0
   11.2280   12.9135   17.5669 C   0  0  0  0  0  0  0  0  0  0  0  0
   12.3782    5.4231   20.7777 C   0  0  0  0  0  0  0  0  0  0  0  0
    7.7365    4.6508   21.6987 C   0  0  0  0  0  0  0  0  0  0  0  0
   13.0186   11.0102   18.0020 C   0  0  0  0  0  0  0  0  0  0  0  0
    8.6628    5.7088   21.8871 N   0  0  0  0  0  0  0  0  0  0  0  0
    5.6516    3.5258   21.9140 C   0  0  0  0  0  0  0  0  0  0  0  0
   11.5863    9.6815   19.4539 C   0  0  0  0  0  0  0  0  0  0  0  0
   12.9648    4.1543   20.9205 C   0  0  0  0  0  0  0  0  0  0  0  0
    8.2089    3.6265   20.8929 C   0  0  0  0  0  0  0  0  0  0  0  0
    7.3827    2.5724   20.5432 C   0  0  0  0  0  0  0  0  0  0  0  0
   11.1529    7.2750   20.8025 C   0  0  0  0  0  0  0  0  0  0  0  0
   10.2573    8.3215   20.9827 C   0  0  0  0  0  0  0  0  0  0  0  0
   11.1606    5.9378   21.2366 N   0  0  0  0  0  0  0  0  0  0  0  0
    9.8932   11.6736   19.0677 O   0  0  0  0  0  0  0  0  0  0  0  0
    6.4470    4.5850   22.2321 C   0  0  0  0  0  0  0  0  0  0  0  0
    8.4619    6.9895   22.2968 C   0  0  0  0  0  0  0  0  0  0  0  0
   12.2747    7.5102   20.0420 C   0  0  0  0  0  0  0  0  0  0  0  0
   14.2544    6.2142   19.4191 C   0  0  0  0  0  0  0  0  0  0  0  0
   13.0695    6.3705   20.0375 N   0  0  0  0  0  0  0  0  0  0  0  0
    9.1913    8.0876   21.8361 N   0  0  0  0  0  0  0  0  0  0  0  0
   10.4739    9.4813   20.2889 C   0  0  0  0  0  0  0  0  0  0  0  0
    7.5551    7.1270   23.1200 O   0  0  0  0  0  0  0  0  0  0  0  0
  1 11  4  0
  1 21  4  0
  2  4  1  0
  2  8  1  0
  2 11  1  0
  3 10  4  0
  3 14  4  0
  4  5  1  0
  4 18  2  0
  6 12  1  0
  6 17  4  0
  6 23  4  0
  7  9  1  0
  7 13  4  0
  7 19  4  0
  9 20  1  0
 10 19  4  0
 11 25  4  0
 13 14  4  0
 15 16  4  0
 15 17  4  0
 15 21  4  0
 16 24  1  0
 16 25  4  0
 20 24  1  0
 20 26  2  0
 21 23  4  0
 22 23  1  0
M  END
$$$$

 Created by Python create_sdf_string function

 26 28  0  0  0  0  0  0  0  0999 V2000
   12.4616    8.6700   19.4180 N   0  0  0  0  0  0  0  0  0  0  0  0
   11.8329   10.8148   18.6769 N   0  0  0  0  0  0  0  0  0  0  0  0
    6.1021    2.5564   21.0678 C   0  0  0  0  0  0  0  0  0  0  0  0
   10.9097   11.8051   18.4804 C   0  0  0  0  0  0  0  0  0  0  0  0
   11.2280   12.9135   17.5669 C   0  0  0  0  0  0  0  0  0  0  0  0
   12.3782    5.4231   20.7777 C   0  0  0  0  0  0  0  0  0  0  0  0
    7.7365    4.6508   21.6987 C   0  0  0  0  0  0  0  0  0  0  0  0
   13.0186   11.0102   18.0020 C   0  0  0  0  0  0  0  0  0  0  0  0
    8.6628    5.7088   21.8871 N   0  0  0  0  0  0  0  0  0  0  0  0
    5.6516    3.5258   21.9140 C   0  0  0  0  0  0  0  0  0  0  0  0
   11.5863    9.6815   19.4539 C   0  0  0  0  0  0  0  0  0  0  0  0
   12.9648    4.1543   20.9205 C   0  0  0  0  0  0  0  0  0  0  0  0
    8.2089    3.6265   20.8929 C   0  0  0  0  0  0  0  0  0  0  0  0
    7.3827    2.5724   20.5432 C   0  0  0  0  0  0  0  0  0  0  0  0
   11.1529    7.2750   20.8025 C   0  0  0  0  0  0  0  0  0  0  0  0
   10.2573    8.3215   20.9827 C   0  0  0  0  0  0  0  0  0  0  0  0
   11.1606    5.9378   21.2366 N   0  0  0  0  0  0  0  0  0  0  0  0
    9.8932   11.6736   19.0677 O   0  0  0  0  0  0  0  0  0  0  0  0
    6.4470    4.5850   22.2321 C   0  0  0  0  0  0  0  0  0  0  0  0
    8.4619    6.9895   22.2968 C   0  0  0  0  0  0  0  0  0  0  0  0
   12.2747    7.5102   20.0420 C   0  0  0  0  0  0  0  0  0  0  0  0
   14.2544    6.2142   19.4191 C   0  0  0  0  0  0  0  0  0  0  0  0
   13.0695    6.3705   20.0375 N   0  0  0  0  0  0  0  0  0  0  0  0
    9.1913    8.0876   21.8361 N   0  0  0  0  0  0  0  0  0  0  0  0
   10.4739    9.4813   20.2889 C   0  0  0  0  0  0  0  0  0  0  0  0
    7.5551    7.1270   23.1200 O   0  0  0  0  0  0  0  0  0  0  0  0
  1 11  4  0
  1 21  4  0
  2  4  1  0
  2  8  1  0
  2 11  1  0
  3 10  4  0
  3 14  4  0
  4  5  1  0
  4 18  2  0
  6 12  1  0
  6 17  4  0
  6 23  4  0
  7  9  1  0
  7 13  4  0
  7 19  4  0
  9 20  1  0
 10 19  4  0
 11 25  4  0
 13 14  4  0
 15 16  4  0
 15 17  4  0
 15 21  4  0
 16 24  1  0
 16 25  4  0
 20 24  1  0
 20 26  2  0
 21 23  4  0
 22 23  1  0
M  END
$$$$

 Created by Python create_sdf_string function

 26 28  0  0  0  0  0  0  0  0999 V2000
   12.4616    8.6700   19.4180 N   0  0  0  0  0  0  0  0  0  0  0  0
   11.8329   10.8148   18.6769 N   0  0  0  0  0  0  0  0  0  0  0  0
    6.1021    2.5564   21.0678 C   0  0  0  0  0  0  0  0  0  0  0  0
   10.9097   11.8051   18.4804 C   0  0  0  0  0  0  0  0  0  0  0  0
   11.2280   12.9135   17.5669 C   0  0  0  0  0  0  0  0  0  0  0  0
   12.3782    5.4231   20.7777 C   0  0  0  0  0  0  0  0  0  0  0  0
    7.7365    4.6508   21.6987 C   0  0  0  0  0  0  0  0  0  0  0  0
   13.0186   11.0102   18.0020 C   0  0  0  0  0  0  0  0  0  0  0  0
    8.6628    5.7088   21.8871 N   0  0  0  0  0  0  0  0  0  0  0  0
    5.6516    3.5258   21.9140 C   0  0  0  0  0  0  0  0  0  0  0  0
   11.5863    9.6815   19.4539 C   0  0  0  0  0  0  0  0  0  0  0  0
   12.9648    4.1543   20.9205 C   0  0  0  0  0  0  0  0  0  0  0  0
    8.2089    3.6265   20.8929 C   0  0  0  0  0  0  0  0  0  0  0  0
    7.3827    2.5724   20.5432 C   0  0  0  0  0  0  0  0  0  0  0  0
   11.1529    7.2750   20.8025 C   0  0  0  0  0  0  0  0  0  0  0  0
   10.2573    8.3215   20.9827 C   0  0  0  0  0  0  0  0  0  0  0  0
   11.1606    5.9378   21.2366 N   0  0  0  0  0  0  0  0  0  0  0  0
    9.8932   11.6736   19.0677 O   0  0  0  0  0  0  0  0  0  0  0  0
    6.4470    4.5850   22.2321 C   0  0  0  0  0  0  0  0  0  0  0  0
    8.4619    6.9895   22.2968 C   0  0  0  0  0  0  0  0  0  0  0  0
   12.2747    7.5102   20.0420 C   0  0  0  0  0  0  0  0  0  0  0  0
   14.2544    6.2142   19.4191 C   0  0  0  0  0  0  0  0  0  0  0  0
   13.0695    6.3705   20.0375 N   0  0  0  0  0  0  0  0  0  0  0  0
    9.1913    8.0876   21.8361 N   0  0  0  0  0  0  0  0  0  0  0  0
   10.4739    9.4813   20.2889 C   0  0  0  0  0  0  0  0  0  0  0  0
    7.5551    7.1270   23.1200 O   0  0  0  0  0  0  0  0  0  0  0  0
  1 11  4  0
  1 21  4  0
  2  4  1  0
  2  8  1  0
  2 11  1  0
  3 10  4  0
  3 14  4  0
  4  5  1  0
  4 18  2  0
  6 12  1  0
  6 17  4  0
  6 23  4  0
  7  9  1  0
  7 13  4  0
  7 19  4  0
  9 20  1  0
 10 19  4  0
 11 25  4  0
 13 14  4  0
 15 16  4  0
 15 17  4  0
 15 21  4  0
 16 24  1  0
 16 25  4  0
 20 24  1  0
 20 26  2  0
 21 23  4  0
 22 23  1  0
M  END
$$$$

 Created by Python create_sdf_string function

 26 28  0  0  0  0  0  0  0  0999 V2000
   12.4616    8.6700   19.4180 N   0  0  0  0  0  0  0  0  0  0  0  0
   11.8329   10.8148   18.6769 N   0  0  0  0  0  0  0  0  0  0  0  0
    6.1021    2.5564   21.0678 C   0  0  0  0  0  0  0  0  0  0  0  0
   10.9097   11.8051   18.4804 C   0  0  0  0  0  0  0  0  0  0  0  0
   11.2280   12.9135   17.5669 C   0  0  0  0  0  0  0  0  0  0  0  0
   12.3782    5.4231   20.7777 C   0  0  0  0  0  0  0  0  0  0  0  0
    7.7365    4.6508   21.6987 C   0  0  0  0  0  0  0  0  0  0  0  0
   13.0186   11.0102   18.0020 C   0  0  0  0  0  0  0  0  0  0  0  0
    8.6628    5.7088   21.8871 N   0  0  0  0  0  0  0  0  0  0  0  0
    5.6516    3.5258   21.9140 C   0  0  0  0  0  0  0  0  0  0  0  0
   11.5863    9.6815   19.4539 C   0  0  0  0  0  0  0  0  0  0  0  0
   12.9648    4.1543   20.9205 C   0  0  0  0  0  0  0  0  0  0  0  0
    8.2089    3.6265   20.8929 C   0  0  0  0  0  0  0  0  0  0  0  0
    7.3827    2.5724   20.5432 C   0  0  0  0  0  0  0  0  0  0  0  0
   11.1529    7.2750   20.8025 C   0  0  0  0  0  0  0  0  0  0  0  0
   10.2573    8.3215   20.9827 C   0  0  0  0  0  0  0  0  0  0  0  0
   11.1606    5.9378   21.2366 N   0  0  0  0  0  0  0  0  0  0  0  0
    9.8932   11.6736   19.0677 O   0  0  0  0  0  0  0  0  0  0  0  0
    6.4470    4.5850   22.2321 C   0  0  0  0  0  0  0  0  0  0  0  0
    8.4619    6.9895   22.2968 C   0  0  0  0  0  0  0  0  0  0  0  0
   12.2747    7.5102   20.0420 C   0  0  0  0  0  0  0  0  0  0  0  0
   14.2544    6.2142   19.4191 C   0  0  0  0  0  0  0  0  0  0  0  0
   13.0695    6.3705   20.0375 N   0  0  0  0  0  0  0  0  0  0  0  0
    9.1913    8.0876   21.8361 N   0  0  0  0  0  0  0  0  0  0  0  0
   10.4739    9.4813   20.2889 C   0  0  0  0  0  0  0  0  0  0  0  0
    7.5551    7.1270   23.1200 O   0  0  0  0  0  0  0  0  0  0  0  0
  1 11  4  0
  1 21  4  0
  2  4  1  0
  2  8  1  0
  2 11  1  0
  3 10  4  0
  3 14  4  0
  4  5  1  0
  4 18  2  0
  6 12  1  0
  6 17  4  0
  6 23  4  0
  7  9  1  0
  7 13  4  0
  7 19  4  0
  9 20  1  0
 10 19  4  0
 11 25  4  0
 13 14  4  0
 15 16  4  0
 15 17  4  0
 15 21  4  0
 16 24  1  0
 16 25  4  0
 20 24  1  0
 20 26  2  0
 21 23  4  0
 22 23  1  0
M  END
$$$$

 Created by Python create_sdf_string function

 26 28  0  0  0  0  0  0  0  0999 V2000
   12.4616    8.6700   19.4180 N   0  0  0  0  0  0  0  0  0  0  0  0
   11.8329   10.8148   18.6769 N   0  0  0  0  0  0  0  0  0  0  0  0
    6.1021    2.5564   21.0678 C   0  0  0  0  0  0  0  0  0  0  0  0
   10.9097   11.8051   18.4804 C   0  0  0  0  0  0  0  0  0  0  0  0
   11.2280   12.9135   17.5669 C   0  0  0  0  0  0  0  0  0  0  0  0
   12.3782    5.4231   20.7777 C   0  0  0  0  0  0  0  0  0  0  0  0
    7.7365    4.6508   21.6987 C   0  0  0  0  0  0  0  0  0  0  0  0
   13.0186   11.0102   18.0020 C   0  0  0  0  0  0  0  0  0  0  0  0
    8.6628    5.7088   21.8871 N   0  0  0  0  0  0  0  0  0  0  0  0
    5.6516    3.5258   21.9140 C   0  0  0  0  0  0  0  0  0  0  0  0
   11.5863    9.6815   19.4539 C   0  0  0  0  0  0  0  0  0  0  0  0
   12.9648    4.1543   20.9205 C   0  0  0  0  0  0  0  0  0  0  0  0
    8.2089    3.6265   20.8929 C   0  0  0  0  0  0  0  0  0  0  0  0
    7.3827    2.5724   20.5432 C   0  0  0  0  0  0  0  0  0  0  0  0
   11.1529    7.2750   20.8025 C   0  0  0  0  0  0  0  0  0  0  0  0
   10.2573    8.3215   20.9827 C   0  0  0  0  0  0  0  0  0  0  0  0
   11.1606    5.9378   21.2366 N   0  0  0  0  0  0  0  0  0  0  0  0
    9.8932   11.6736   19.0677 O   0  0  0  0  0  0  0  0  0  0  0  0
    6.4470    4.5850   22.2321 C   0  0  0  0  0  0  0  0  0  0  0  0
    8.4619    6.9895   22.2968 C   0  0  0  0  0  0  0  0  0  0  0  0
   12.2747    7.5102   20.0420 C   0  0  0  0  0  0  0  0  0  0  0  0
   14.2544    6.2142   19.4191 C   0  0  0  0  0  0  0  0  0  0  0  0
   13.0695    6.3705   20.0375 N   0  0  0  0  0  0  0  0  0  0  0  0
    9.1913    8.0876   21.8361 N   0  0  0  0  0  0  0  0  0  0  0  0
   10.4739    9.4813   20.2889 C   0  0  0  0  0  0  0  0  0  0  0  0
    7.5551    7.1270   23.1200 O   0  0  0  0  0  0  0  0  0  0  0  0
  1 11  4  0
  1 21  4  0
  2  4  1  0
  2  8  1  0
  2 11  1  0
  3 10  4  0
  3 14  4  0
  4  5  1  0
  4 18  2  0
  6 12  1  0
  6 17  4  0
  6 23  4  0
  7  9  1  0
  7 13  4  0
  7 19  4  0
  9 20  1  0
 10 19  4  0
 11 25  4  0
 13 14  4  0
 15 16  4  0
 15 17  4  0
 15 21  4  0
 16 24  1  0
 16 25  4  0
 20 24  1  0
 20 26  2  0
 21 23  4  0
 22 23  1  0
M  END
$$$$

 Created by Python create_sdf_string function

 26 28  0  0  0  0  0  0  0  0999 V2000
   12.4616    8.6700   19.4180 N   0  0  0  0  0  0  0  0  0  0  0  0
   11.8329   10.8148   18.6769 N   0  0  0  0  0  0  0  0  0  0  0  0
    6.1021    2.5564   21.0678 C   0  0  0  0  0  0  0  0  0  0  0  0
   10.9097   11.8051   18.4804 C   0  0  0  0  0  0  0  0  0  0  0  0
   11.2280   12.9135   17.5669 C   0  0  0  0  0  0  0  0  0  0  0  0
   12.3782    5.4231   20.7777 C   0  0  0  0  0  0  0  0  0  0  0  0
    7.7365    4.6508   21.6987 C   0  0  0  0  0  0  0  0  0  0  0  0
   13.0186   11.0102   18.0020 C   0  0  0  0  0  0  0  0  0  0  0  0
    8.6628    5.7088   21.8871 N   0  0  0  0  0  0  0  0  0  0  0  0
    5.6516    3.5258   21.9140 C   0  0  0  0  0  0  0  0  0  0  0  0
   11.5863    9.6815   19.4539 C   0  0  0  0  0  0  0  0  0  0  0  0
   12.9648    4.1543   20.9205 C   0  0  0  0  0  0  0  0  0  0  0  0
    8.2089    3.6265   20.8929 C   0  0  0  0  0  0  0  0  0  0  0  0
    7.3827    2.5724   20.5432 C   0  0  0  0  0  0  0  0  0  0  0  0
   11.1529    7.2750   20.8025 C   0  0  0  0  0  0  0  0  0  0  0  0
   10.2573    8.3215   20.9827 C   0  0  0  0  0  0  0  0  0  0  0  0
   11.1606    5.9378   21.2366 N   0  0  0  0  0  0  0  0  0  0  0  0
    9.8932   11.6736   19.0677 O   0  0  0  0  0  0  0  0  0  0  0  0
    6.4470    4.5850   22.2321 C   0  0  0  0  0  0  0  0  0  0  0  0
    8.4619    6.9895   22.2968 C   0  0  0  0  0  0  0  0  0  0  0  0
   12.2747    7.5102   20.0420 C   0  0  0  0  0  0  0  0  0  0  0  0
   14.2544    6.2142   19.4191 C   0  0  0  0  0  0  0  0  0  0  0  0
   13.0695    6.3705   20.0375 N   0  0  0  0  0  0  0  0  0  0  0  0
    9.1913    8.0876   21.8361 N   0  0  0  0  0  0  0  0  0  0  0  0
   10.4739    9.4813   20.2889 C   0  0  0  0  0  0  0  0  0  0  0  0
    7.5551    7.1270   23.1200 O   0  0  0  0  0  0  0  0  0  0  0  0
  1 11  4  0
  1 21  4  0
  2  4  1  0
  2  8  1  0
  2 11  1  0
  3 10  4  0
  3 14  4  0
  4  5  1  0
  4 18  2  0
  6 12  1  0
  6 17  4  0
  6 23  4  0
  7  9  1  0
  7 13  4  0
  7 19  4  0
  9 20  1  0
 10 19  4  0
 11 25  4  0
 13 14  4  0
 15 16  4  0
 15 17  4  0
 15 21  4  0
 16 24  1  0
 16 25  4  0
 20 24  1  0
 20 26  2  0
 21 23  4  0
 22 23  1  0
M  END
$$$$

 Created by Python create_sdf_string function

 26 28  0  0  0  0  0  0  0  0999 V2000
   12.4616    8.6700   19.4180 N   0  0  0  0  0  0  0  0  0  0  0  0
   11.8329   10.8148   18.6769 N   0  0  0  0  0  0  0  0  0  0  0  0
    6.1021    2.5564   21.0678 C   0  0  0  0  0  0  0  0  0  0  0  0
   10.9097   11.8051   18.4804 C   0  0  0  0  0  0  0  0  0  0  0  0
   11.2280   12.9135   17.5669 C   0  0  0  0  0  0  0  0  0  0  0  0
   12.3782    5.4231   20.7777 C   0  0  0  0  0  0  0  0  0  0  0  0
    7.7365    4.6508   21.6987 C   0  0  0  0  0  0  0  0  0  0  0  0
   13.0186   11.0102   18.0020 C   0  0  0  0  0  0  0  0  0  0  0  0
    8.6628    5.7088   21.8871 N   0  0  0  0  0  0  0  0  0  0  0  0
    5.6516    3.5258   21.9140 C   0  0  0  0  0  0  0  0  0  0  0  0
   11.5863    9.6815   19.4539 C   0  0  0  0  0  0  0  0  0  0  0  0
   12.9648    4.1543   20.9205 C   0  0  0  0  0  0  0  0  0  0  0  0
    8.2089    3.6265   20.8929 C   0  0  0  0  0  0  0  0  0  0  0  0
    7.3827    2.5724   20.5432 C   0  0  0  0  0  0  0  0  0  0  0  0
   11.1529    7.2750   20.8025 C   0  0  0  0  0  0  0  0  0  0  0  0
   10.2573    8.3215   20.9827 C   0  0  0  0  0  0  0  0  0  0  0  0
   11.1606    5.9378   21.2366 N   0  0  0  0  0  0  0  0  0  0  0  0
    9.8932   11.6736   19.0677 O   0  0  0  0  0  0  0  0  0  0  0  0
    6.4470    4.5850   22.2321 C   0  0  0  0  0  0  0  0  0  0  0  0
    8.4619    6.9895   22.2968 C   0  0  0  0  0  0  0  0  0  0  0  0
   12.2747    7.5102   20.0420 C   0  0  0  0  0  0  0  0  0  0  0  0
   14.2544    6.2142   19.4191 C   0  0  0  0  0  0  0  0  0  0  0  0
   13.0695    6.3705   20.0375 N   0  0  0  0  0  0  0  0  0  0  0  0
    9.1913    8.0876   21.8361 N   0  0  0  0  0  0  0  0  0  0  0  0
   10.4739    9.4813   20.2889 C   0  0  0  0  0  0  0  0  0  0  0  0
    7.5551    7.1270   23.1200 O   0  0  0  0  0  0  0  0  0  0  0  0
  1 11  4  0
  1 21  4  0
  2  4  1  0
  2  8  1  0
  2 11  1  0
  3 10  4  0
  3 14  4  0
  4  5  1  0
  4 18  2  0
  6 12  1  0
  6 17  4  0
  6 23  4  0
  7  9  1  0
  7 13  4  0
  7 19  4  0
  9 20  1  0
 10 19  4  0
 11 25  4  0
 13 14  4  0
 15 16  4  0
 15 17  4  0
 15 21  4  0
 16 24  1  0
 16 25  4  0
 20 24  1  0
 20 26  2  0
 21 23  4  0
 22 23  1  0
M  END
$$$$

 Created by Python create_sdf_string function

 26 28  0  0  0  0  0  0  0  0999 V2000
   12.4616    8.6700   19.4180 N   0  0  0  0  0  0  0  0  0  0  0  0
   11.8329   10.8148   18.6769 N   0  0  0  0  0  0  0  0  0  0  0  0
    6.1021    2.5564   21.0678 C   0  0  0  0  0  0  0  0  0  0  0  0
   10.9097   11.8051   18.4804 C   0  0  0  0  0  0  0  0  0  0  0  0
   11.2280   12.9135   17.5669 C   0  0  0  0  0  0  0  0  0  0  0  0
   12.3782    5.4231   20.7777 C   0  0  0  0  0  0  0  0  0  0  0  0
    7.7365    4.6508   21.6987 C   0  0  0  0  0  0  0  0  0  0  0  0
   13.0186   11.0102   18.0020 C   0  0  0  0  0  0  0  0  0  0  0  0
    8.6628    5.7088   21.8871 N   0  0  0  0  0  0  0  0  0  0  0  0
    5.6516    3.5258   21.9140 C   0  0  0  0  0  0  0  0  0  0  0  0
   11.5863    9.6815   19.4539 C   0  0  0  0  0  0  0  0  0  0  0  0
   12.9648    4.1543   20.9205 C   0  0  0  0  0  0  0  0  0  0  0  0
    8.2089    3.6265   20.8929 C   0  0  0  0  0  0  0  0  0  0  0  0
    7.3827    2.5724   20.5432 C   0  0  0  0  0  0  0  0  0  0  0  0
   11.1529    7.2750   20.8025 C   0  0  0  0  0  0  0  0  0  0  0  0
   10.2573    8.3215   20.9827 C   0  0  0  0  0  0  0  0  0  0  0  0
   11.1606    5.9378   21.2366 N   0  0  0  0  0  0  0  0  0  0  0  0
    9.8932   11.6736   19.0677 O   0  0  0  0  0  0  0  0  0  0  0  0
    6.4470    4.5850   22.2321 C   0  0  0  0  0  0  0  0  0  0  0  0
    8.4619    6.9895   22.2968 C   0  0  0  0  0  0  0  0  0  0  0  0
   12.2747    7.5102   20.0420 C   0  0  0  0  0  0  0  0  0  0  0  0
   14.2544    6.2142   19.4191 C   0  0  0  0  0  0  0  0  0  0  0  0
   13.0695    6.3705   20.0375 N   0  0  0  0  0  0  0  0  0  0  0  0
    9.1913    8.0876   21.8361 N   0  0  0  0  0  0  0  0  0  0  0  0
   10.4739    9.4813   20.2889 C   0  0  0  0  0  0  0  0  0  0  0  0
    7.5551    7.1270   23.1200 O   0  0  0  0  0  0  0  0  0  0  0  0
  1 11  4  0
  1 21  4  0
  2  4  1  0
  2  8  1  0
  2 11  1  0
  3 10  4  0
  3 14  4  0
  4  5  1  0
  4 18  2  0
  6 12  1  0
  6 17  4  0
  6 23  4  0
  7  9  1  0
  7 13  4  0
  7 19  4  0
  9 20  1  0
 10 19  4  0
 11 25  4  0
 13 14  4  0
 15 16  4  0
 15 17  4  0
 15 21  4  0
 16 24  1  0
 16 25  4  0
 20 24  1  0
 20 26  2  0
 21 23  4  0
 22 23  1  0
M  END
$$$$

 Created by Python create_sdf_string function

 26 28  0  0  0  0  0  0  0  0999 V2000
   12.4616    8.6700   19.4180 N   0  0  0  0  0  0  0  0  0  0  0  0
   11.8329   10.8148   18.6769 N   0  0  0  0  0  0  0  0  0  0  0  0
    6.1021    2.5564   21.0678 C   0  0  0  0  0  0  0  0  0  0  0  0
   10.9097   11.8051   18.4804 C   0  0  0  0  0  0  0  0  0  0  0  0
   11.2280   12.9135   17.5669 C   0  0  0  0  0  0  0  0  0  0  0  0
   12.3782    5.4231   20.7777 C   0  0  0  0  0  0  0  0  0  0  0  0
    7.7365    4.6508   21.6987 C   0  0  0  0  0  0  0  0  0  0  0  0
   13.0186   11.0102   18.0020 C   0  0  0  0  0  0  0  0  0  0  0  0
    8.6628    5.7088   21.8871 N   0  0  0  0  0  0  0  0  0  0  0  0
    5.6516    3.5258   21.9140 C   0  0  0  0  0  0  0  0  0  0  0  0
   11.5863    9.6815   19.4539 C   0  0  0  0  0  0  0  0  0  0  0  0
   12.9648    4.1543   20.9205 C   0  0  0  0  0  0  0  0  0  0  0  0
    8.2089    3.6265   20.8929 C   0  0  0  0  0  0  0  0  0  0  0  0
    7.3827    2.5724   20.5432 C   0  0  0  0  0  0  0  0  0  0  0  0
   11.1529    7.2750   20.8025 C   0  0  0  0  0  0  0  0  0  0  0  0
   10.2573    8.3215   20.9827 C   0  0  0  0  0  0  0  0  0  0  0  0
   11.1606    5.9378   21.2366 N   0  0  0  0  0  0  0  0  0  0  0  0
    9.8932   11.6736   19.0677 O   0  0  0  0  0  0  0  0  0  0  0  0
    6.4470    4.5850   22.2321 C   0  0  0  0  0  0  0  0  0  0  0  0
    8.4619    6.9895   22.2968 C   0  0  0  0  0  0  0  0  0  0  0  0
   12.2747    7.5102   20.0420 C   0  0  0  0  0  0  0  0  0  0  0  0
   14.2544    6.2142   19.4191 C   0  0  0  0  0  0  0  0  0  0  0  0
   13.0695    6.3705   20.0375 N   0  0  0  0  0  0  0  0  0  0  0  0
    9.1913    8.0876   21.8361 N   0  0  0  0  0  0  0  0  0  0  0  0
   10.4739    9.4813   20.2889 C   0  0  0  0  0  0  0  0  0  0  0  0
    7.5551    7.1270   23.1200 O   0  0  0  0  0  0  0  0  0  0  0  0
  1 11  4  0
  1 21  4  0
  2  4  1  0
  2  8  1  0
  2 11  1  0
  3 10  4  0
  3 14  4  0
  4  5  1  0
  4 18  2  0
  6 12  1  0
  6 17  4  0
  6 23  4  0
  7  9  1  0
  7 13  4  0
  7 19  4  0
  9 20  1  0
 10 19  4  0
 11 25  4  0
 13 14  4  0
 15 16  4  0
 15 17  4  0
 15 21  4  0
 16 24  1  0
 16 25  4  0
 20 24  1  0
 20 26  2  0
 21 23  4  0
 22 23  1  0
M  END
$$$$

 Created by Python create_sdf_string function

 26 28  0  0  0  0  0  0  0  0999 V2000
   12.4616    8.6700   19.4180 N   0  0  0  0  0  0  0  0  0  0  0  0
   11.8329   10.8148   18.6769 N   0  0  0  0  0  0  0  0  0  0  0  0
    6.1021    2.5564   21.0678 C   0  0  0  0  0  0  0  0  0  0  0  0
   10.9097   11.8051   18.4804 C   0  0  0  0  0  0  0  0  0  0  0  0
   11.2280   12.9135   17.5669 C   0  0  0  0  0  0  0  0  0  0  0  0
   12.3782    5.4231   20.7777 C   0  0  0  0  0  0  0  0  0  0  0  0
    7.7365    4.6508   21.6987 C   0  0  0  0  0  0  0  0  0  0  0  0
   13.0186   11.0102   18.0020 C   0  0  0  0  0  0  0  0  0  0  0  0
    8.6628    5.7088   21.8871 N   0  0  0  0  0  0  0  0  0  0  0  0
    5.6516    3.5258   21.9140 C   0  0  0  0  0  0  0  0  0  0  0  0
   11.5863    9.6815   19.4539 C   0  0  0  0  0  0  0  0  0  0  0  0
   12.9648    4.1543   20.9205 C   0  0  0  0  0  0  0  0  0  0  0  0
    8.2089    3.6265   20.8929 C   0  0  0  0  0  0  0  0  0  0  0  0
    7.3827    2.5724   20.5432 C   0  0  0  0  0  0  0  0  0  0  0  0
   11.1529    7.2750   20.8025 C   0  0  0  0  0  0  0  0  0  0  0  0
   10.2573    8.3215   20.9827 C   0  0  0  0  0  0  0  0  0  0  0  0
   11.1606    5.9378   21.2366 N   0  0  0  0  0  0  0  0  0  0  0  0
    9.8932   11.6736   19.0677 O   0  0  0  0  0  0  0  0  0  0  0  0
    6.4470    4.5850   22.2321 C   0  0  0  0  0  0  0  0  0  0  0  0
    8.4619    6.9895   22.2968 C   0  0  0  0  0  0  0  0  0  0  0  0
   12.2747    7.5102   20.0420 C   0  0  0  0  0  0  0  0  0  0  0  0
   14.2544    6.2142   19.4191 C   0  0  0  0  0  0  0  0  0  0  0  0
   13.0695    6.3705   20.0375 N   0  0  0  0  0  0  0  0  0  0  0  0
    9.1913    8.0876   21.8361 N   0  0  0  0  0  0  0  0  0  0  0  0
   10.4739    9.4813   20.2889 C   0  0  0  0  0  0  0  0  0  0  0  0
    7.5551    7.1270   23.1200 O   0  0  0  0  0  0  0  0  0  0  0  0
  1 11  4  0
  1 21  4  0
  2  4  1  0
  2  8  1  0
  2 11  1  0
  3 10  4  0
  3 14  4  0
  4  5  1  0
  4 18  2  0
  6 12  1  0
  6 17  4  0
  6 23  4  0
  7  9  1  0
  7 13  4  0
  7 19  4  0
  9 20  1  0
 10 19  4  0
 11 25  4  0
 13 14  4  0
 15 16  4  0
 15 17  4  0
 15 21  4  0
 16 24  1  0
 16 25  4  0
 20 24  1  0
 20 26  2  0
 21 23  4  0
 22 23  1  0
M  END
$$$$

 Created by Python create_sdf_string function

 26 28  0  0  0  0  0  0  0  0999 V2000
   12.4616    8.6700   19.4180 N   0  0  0  0  0  0  0  0  0  0  0  0
   11.8329   10.8148   18.6769 N   0  0  0  0  0  0  0  0  0  0  0  0
    6.1021    2.5564   21.0678 C   0  0  0  0  0  0  0  0  0  0  0  0
   10.9097   11.8051   18.4804 C   0  0  0  0  0  0  0  0  0  0  0  0
   11.2280   12.9135   17.5669 C   0  0  0  0  0  0  0  0  0  0  0  0
   12.3782    5.4231   20.7777 C   0  0  0  0  0  0  0  0  0  0  0  0
    7.7365    4.6508   21.6987 C   0  0  0  0  0  0  0  0  0  0  0  0
   13.0186   11.0102   18.0020 C   0  0  0  0  0  0  0  0  0  0  0  0
    8.6628    5.7088   21.8871 N   0  0  0  0  0  0  0  0  0  0  0  0
    5.6516    3.5258   21.9140 C   0  0  0  0  0  0  0  0  0  0  0  0
   11.5863    9.6815   19.4539 C   0  0  0  0  0  0  0  0  0  0  0  0
   12.9648    4.1543   20.9205 C   0  0  0  0  0  0  0  0  0  0  0  0
    8.2089    3.6265   20.8929 C   0  0  0  0  0  0  0  0  0  0  0  0
    7.3827    2.5724   20.5432 C   0  0  0  0  0  0  0  0  0  0  0  0
   11.1529    7.2750   20.8025 C   0  0  0  0  0  0  0  0  0  0  0  0
   10.2573    8.3215   20.9827 C   0  0  0  0  0  0  0  0  0  0  0  0
   11.1606    5.9378   21.2366 N   0  0  0  0  0  0  0  0  0  0  0  0
    9.8932   11.6736   19.0677 O   0  0  0  0  0  0  0  0  0  0  0  0
    6.4470    4.5850   22.2321 C   0  0  0  0  0  0  0  0  0  0  0  0
    8.4619    6.9895   22.2968 C   0  0  0  0  0  0  0  0  0  0  0  0
   12.2747    7.5102   20.0420 C   0  0  0  0  0  0  0  0  0  0  0  0
   14.2544    6.2142   19.4191 C   0  0  0  0  0  0  0  0  0  0  0  0
   13.0695    6.3705   20.0375 N   0  0  0  0  0  0  0  0  0  0  0  0
    9.1913    8.0876   21.8361 N   0  0  0  0  0  0  0  0  0  0  0  0
   10.4739    9.4813   20.2889 C   0  0  0  0  0  0  0  0  0  0  0  0
    7.5551    7.1270   23.1200 O   0  0  0  0  0  0  0  0  0  0  0  0
  1 11  4  0
  1 21  4  0
  2  4  1  0
  2  8  1  0
  2 11  1  0
  3 10  4  0
  3 14  4  0
  4  5  1  0
  4 18  2  0
  6 12  1  0
  6 17  4  0
  6 23  4  0
  7  9  1  0
  7 13  4  0
  7 19  4  0
  9 20  1  0
 10 19  4  0
 11 25  4  0
 13 14  4  0
 15 16  4  0
 15 17  4  0
 15 21  4  0
 16 24  1  0
 16 25  4  0
 20 24  1  0
 20 26  2  0
 21 23  4  0
 22 23  1  0
M  END
$$$$

 Created by Python create_sdf_string function

 26 28  0  0  0  0  0  0  0  0999 V2000
   12.4616    8.6700   19.4180 N   0  0  0  0  0  0  0  0  0  0  0  0
   11.8329   10.8148   18.6769 N   0  0  0  0  0  0  0  0  0  0  0  0
    6.1021    2.5564   21.0678 C   0  0  0  0  0  0  0  0  0  0  0  0
   10.9097   11.8051   18.4804 C   0  0  0  0  0  0  0  0  0  0  0  0
   11.2280   12.9135   17.5669 C   0  0  0  0  0  0  0  0  0  0  0  0
   12.3782    5.4231   20.7777 C   0  0  0  0  0  0  0  0  0  0  0  0
    7.7365    4.6508   21.6987 C   0  0  0  0  0  0  0  0  0  0  0  0
   13.0186   11.0102   18.0020 C   0  0  0  0  0  0  0  0  0  0  0  0
    8.6628    5.7088   21.8871 N   0  0  0  0  0  0  0  0  0  0  0  0
    5.6516    3.5258   21.9140 C   0  0  0  0  0  0  0  0  0  0  0  0
   11.5863    9.6815   19.4539 C   0  0  0  0  0  0  0  0  0  0  0  0
   12.9648    4.1543   20.9205 C   0  0  0  0  0  0  0  0  0  0  0  0
    8.2089    3.6265   20.8929 C   0  0  0  0  0  0  0  0  0  0  0  0
    7.3827    2.5724   20.5432 C   0  0  0  0  0  0  0  0  0  0  0  0
   11.1529    7.2750   20.8025 C   0  0  0  0  0  0  0  0  0  0  0  0
   10.2573    8.3215   20.9827 C   0  0  0  0  0  0  0  0  0  0  0  0
   11.1606    5.9378   21.2366 N   0  0  0  0  0  0  0  0  0  0  0  0
    9.8932   11.6736   19.0677 O   0  0  0  0  0  0  0  0  0  0  0  0
    6.4470    4.5850   22.2321 C   0  0  0  0  0  0  0  0  0  0  0  0
    8.4619    6.9895   22.2968 C   0  0  0  0  0  0  0  0  0  0  0  0
   12.2747    7.5102   20.0420 C   0  0  0  0  0  0  0  0  0  0  0  0
   14.2544    6.2142   19.4191 C   0  0  0  0  0  0  0  0  0  0  0  0
   13.0695    6.3705   20.0375 N   0  0  0  0  0  0  0  0  0  0  0  0
    9.1913    8.0876   21.8361 N   0  0  0  0  0  0  0  0  0  0  0  0
   10.4739    9.4813   20.2889 C   0  0  0  0  0  0  0  0  0  0  0  0
    7.5551    7.1270   23.1200 O   0  0  0  0  0  0  0  0  0  0  0  0
  1 11  4  0
  1 21  4  0
  2  4  1  0
  2  8  1  0
  2 11  1  0
  3 10  4  0
  3 14  4  0
  4  5  1  0
  4 18  2  0
  6 12  1  0
  6 17  4  0
  6 23  4  0
  7  9  1  0
  7 13  4  0
  7 19  4  0
  9 20  1  0
 10 19  4  0
 11 25  4  0
 13 14  4  0
 15 16  4  0
 15 17  4  0
 15 21  4  0
 16 24  1  0
 16 25  4  0
 20 24  1  0
 20 26  2  0
 21 23  4  0
 22 23  1  0
M  END
$$$$

 Created by Python create_sdf_string function

 26 28  0  0  0  0  0  0  0  0999 V2000
   12.4616    8.6700   19.4180 N   0  0  0  0  0  0  0  0  0  0  0  0
   11.8329   10.8148   18.6769 N   0  0  0  0  0  0  0  0  0  0  0  0
    6.1021    2.5564   21.0678 C   0  0  0  0  0  0  0  0  0  0  0  0
   10.9097   11.8051   18.4804 C   0  0  0  0  0  0  0  0  0  0  0  0
   11.2280   12.9135   17.5669 C   0  0  0  0  0  0  0  0  0  0  0  0
   12.3782    5.4231   20.7777 C   0  0  0  0  0  0  0  0  0  0  0  0
    7.7365    4.6508   21.6987 C   0  0  0  0  0  0  0  0  0  0  0  0
   13.0186   11.0102   18.0020 C   0  0  0  0  0  0  0  0  0  0  0  0
    8.6628    5.7088   21.8871 N   0  0  0  0  0  0  0  0  0  0  0  0
    5.6516    3.5258   21.9140 C   0  0  0  0  0  0  0  0  0  0  0  0
   11.5863    9.6815   19.4539 C   0  0  0  0  0  0  0  0  0  0  0  0
   12.9648    4.1543   20.9205 C   0  0  0  0  0  0  0  0  0  0  0  0
    8.2089    3.6265   20.8929 C   0  0  0  0  0  0  0  0  0  0  0  0
    7.3827    2.5724   20.5432 C   0  0  0  0  0  0  0  0  0  0  0  0
   11.1529    7.2750   20.8025 C   0  0  0  0  0  0  0  0  0  0  0  0
   10.2573    8.3215   20.9827 C   0  0  0  0  0  0  0  0  0  0  0  0
   11.1606    5.9378   21.2366 N   0  0  0  0  0  0  0  0  0  0  0  0
    9.8932   11.6736   19.0677 O   0  0  0  0  0  0  0  0  0  0  0  0
    6.4470    4.5850   22.2321 C   0  0  0  0  0  0  0  0  0  0  0  0
    8.4619    6.9895   22.2968 C   0  0  0  0  0  0  0  0  0  0  0  0
   12.2747    7.5102   20.0420 C   0  0  0  0  0  0  0  0  0  0  0  0
   14.2544    6.2142   19.4191 C   0  0  0  0  0  0  0  0  0  0  0  0
   13.0695    6.3705   20.0375 N   0  0  0  0  0  0  0  0  0  0  0  0
    9.1913    8.0876   21.8361 N   0  0  0  0  0  0  0  0  0  0  0  0
   10.4739    9.4813   20.2889 C   0  0  0  0  0  0  0  0  0  0  0  0
    7.5551    7.1270   23.1200 O   0  0  0  0  0  0  0  0  0  0  0  0
  1 11  4  0
  1 21  4  0
  2  4  1  0
  2  8  1  0
  2 11  1  0
  3 10  4  0
  3 14  4  0
  4  5  1  0
  4 18  2  0
  6 12  1  0
  6 17  4  0
  6 23  4  0
  7  9  1  0
  7 13  4  0
  7 19  4  0
  9 20  1  0
 10 19  4  0
 11 25  4  0
 13 14  4  0
 15 16  4  0
 15 17  4  0
 15 21  4  0
 16 24  1  0
 16 25  4  0
 20 24  1  0
 20 26  2  0
 21 23  4  0
 22 23  1  0
M  END
$$$$

 Created by Python create_sdf_string function

 26 28  0  0  0  0  0  0  0  0999 V2000
   12.4616    8.6700   19.4180 N   0  0  0  0  0  0  0  0  0  0  0  0
   11.8329   10.8148   18.6769 N   0  0  0  0  0  0  0  0  0  0  0  0
    6.1021    2.5564   21.0678 C   0  0  0  0  0  0  0  0  0  0  0  0
   10.9097   11.8051   18.4804 C   0  0  0  0  0  0  0  0  0  0  0  0
   11.2280   12.9135   17.5669 C   0  0  0  0  0  0  0  0  0  0  0  0
   12.3782    5.4231   20.7777 C   0  0  0  0  0  0  0  0  0  0  0  0
    7.7365    4.6508   21.6987 C   0  0  0  0  0  0  0  0  0  0  0  0
   13.0186   11.0102   18.0020 C   0  0  0  0  0  0  0  0  0  0  0  0
    8.6628    5.7088   21.8871 N   0  0  0  0  0  0  0  0  0  0  0  0
    5.6516    3.5258   21.9140 C   0  0  0  0  0  0  0  0  0  0  0  0
   11.5863    9.6815   19.4539 C   0  0  0  0  0  0  0  0  0  0  0  0
   12.9648    4.1543   20.9205 C   0  0  0  0  0  0  0  0  0  0  0  0
    8.2089    3.6265   20.8929 C   0  0  0  0  0  0  0  0  0  0  0  0
    7.3827    2.5724   20.5432 C   0  0  0  0  0  0  0  0  0  0  0  0
   11.1529    7.2750   20.8025 C   0  0  0  0  0  0  0  0  0  0  0  0
   10.2573    8.3215   20.9827 C   0  0  0  0  0  0  0  0  0  0  0  0
   11.1606    5.9378   21.2366 N   0  0  0  0  0  0  0  0  0  0  0  0
    9.8932   11.6736   19.0677 O   0  0  0  0  0  0  0  0  0  0  0  0
    6.4470    4.5850   22.2321 C   0  0  0  0  0  0  0  0  0  0  0  0
    8.4619    6.9895   22.2968 C   0  0  0  0  0  0  0  0  0  0  0  0
   12.2747    7.5102   20.0420 C   0  0  0  0  0  0  0  0  0  0  0  0
   14.2544    6.2142   19.4191 C   0  0  0  0  0  0  0  0  0  0  0  0
   13.0695    6.3705   20.0375 N   0  0  0  0  0  0  0  0  0  0  0  0
    9.1913    8.0876   21.8361 N   0  0  0  0  0  0  0  0  0  0  0  0
   10.4739    9.4813   20.2889 C   0  0  0  0  0  0  0  0  0  0  0  0
    7.5551    7.1270   23.1200 O   0  0  0  0  0  0  0  0  0  0  0  0
  1 11  4  0
  1 21  4  0
  2  4  1  0
  2  8  1  0
  2 11  1  0
  3 10  4  0
  3 14  4  0
  4  5  1  0
  4 18  2  0
  6 12  1  0
  6 17  4  0
  6 23  4  0
  7  9  1  0
  7 13  4  0
  7 19  4  0
  9 20  1  0
 10 19  4  0
 11 25  4  0
 13 14  4  0
 15 16  4  0
 15 17  4  0
 15 21  4  0
 16 24  1  0
 16 25  4  0
 20 24  1  0
 20 26  2  0
 21 23  4  0
 22 23  1  0
M  END
$$$$

 Created by Python create_sdf_string function

 26 28  0  0  0  0  0  0  0  0999 V2000
   12.4616    8.6700   19.4180 N   0  0  0  0  0  0  0  0  0  0  0  0
   11.8329   10.8148   18.6769 N   0  0  0  0  0  0  0  0  0  0  0  0
    6.1021    2.5564   21.0678 C   0  0  0  0  0  0  0  0  0  0  0  0
   10.9097   11.8051   18.4804 C   0  0  0  0  0  0  0  0  0  0  0  0
   11.2280   12.9135   17.5669 C   0  0  0  0  0  0  0  0  0  0  0  0
   12.3782    5.4231   20.7777 C   0  0  0  0  0  0  0  0  0  0  0  0
    7.7365    4.6508   21.6987 C   0  0  0  0  0  0  0  0  0  0  0  0
   13.0186   11.0102   18.0020 C   0  0  0  0  0  0  0  0  0  0  0  0
    8.6628    5.7088   21.8871 N   0  0  0  0  0  0  0  0  0  0  0  0
    5.6516    3.5258   21.9140 C   0  0  0  0  0  0  0  0  0  0  0  0
   11.5863    9.6815   19.4539 C   0  0  0  0  0  0  0  0  0  0  0  0
   12.9648    4.1543   20.9205 C   0  0  0  0  0  0  0  0  0  0  0  0
    8.2089    3.6265   20.8929 C   0  0  0  0  0  0  0  0  0  0  0  0
    7.3827    2.5724   20.5432 C   0  0  0  0  0  0  0  0  0  0  0  0
   11.1529    7.2750   20.8025 C   0  0  0  0  0  0  0  0  0  0  0  0
   10.2573    8.3215   20.9827 C   0  0  0  0  0  0  0  0  0  0  0  0
   11.1606    5.9378   21.2366 N   0  0  0  0  0  0  0  0  0  0  0  0
    9.8932   11.6736   19.0677 O   0  0  0  0  0  0  0  0  0  0  0  0
    6.4470    4.5850   22.2321 C   0  0  0  0  0  0  0  0  0  0  0  0
    8.4619    6.9895   22.2968 C   0  0  0  0  0  0  0  0  0  0  0  0
   12.2747    7.5102   20.0420 C   0  0  0  0  0  0  0  0  0  0  0  0
   14.2544    6.2142   19.4191 C   0  0  0  0  0  0  0  0  0  0  0  0
   13.0695    6.3705   20.0375 N   0  0  0  0  0  0  0  0  0  0  0  0
    9.1913    8.0876   21.8361 N   0  0  0  0  0  0  0  0  0  0  0  0
   10.4739    9.4813   20.2889 C   0  0  0  0  0  0  0  0  0  0  0  0
    7.5551    7.1270   23.1200 O   0  0  0  0  0  0  0  0  0  0  0  0
  1 11  4  0
  1 21  4  0
  2  4  1  0
  2  8  1  0
  2 11  1  0
  3 10  4  0
  3 14  4  0
  4  5  1  0
  4 18  2  0
  6 12  1  0
  6 17  4  0
  6 23  4  0
  7  9  1  0
  7 13  4  0
  7 19  4  0
  9 20  1  0
 10 19  4  0
 11 25  4  0
 13 14  4  0
 15 16  4  0
 15 17  4  0
 15 21  4  0
 16 24  1  0
 16 25  4  0
 20 24  1  0
 20 26  2  0
 21 23  4  0
 22 23  1  0
M  END
$$$$

 Created by Python create_sdf_string function

 26 28  0  0  0  0  0  0  0  0999 V2000
   12.4616    8.6700   19.4180 N   0  0  0  0  0  0  0  0  0  0  0  0
   11.8329   10.8148   18.6769 N   0  0  0  0  0  0  0  0  0  0  0  0
    6.1021    2.5564   21.0678 C   0  0  0  0  0  0  0  0  0  0  0  0
   10.9097   11.8051   18.4804 C   0  0  0  0  0  0  0  0  0  0  0  0
   11.2280   12.9135   17.5669 C   0  0  0  0  0  0  0  0  0  0  0  0
   12.3782    5.4231   20.7777 C   0  0  0  0  0  0  0  0  0  0  0  0
    7.7365    4.6508   21.6987 C   0  0  0  0  0  0  0  0  0  0  0  0
   13.0186   11.0102   18.0020 C   0  0  0  0  0  0  0  0  0  0  0  0
    8.6628    5.7088   21.8871 N   0  0  0  0  0  0  0  0  0  0  0  0
    5.6516    3.5258   21.9140 C   0  0  0  0  0  0  0  0  0  0  0  0
   11.5863    9.6815   19.4539 C   0  0  0  0  0  0  0  0  0  0  0  0
   12.9648    4.1543   20.9205 C   0  0  0  0  0  0  0  0  0  0  0  0
    8.2089    3.6265   20.8929 C   0  0  0  0  0  0  0  0  0  0  0  0
    7.3827    2.5724   20.5432 C   0  0  0  0  0  0  0  0  0  0  0  0
   11.1529    7.2750   20.8025 C   0  0  0  0  0  0  0  0  0  0  0  0
   10.2573    8.3215   20.9827 C   0  0  0  0  0  0  0  0  0  0  0  0
   11.1606    5.9378   21.2366 N   0  0  0  0  0  0  0  0  0  0  0  0
    9.8932   11.6736   19.0677 O   0  0  0  0  0  0  0  0  0  0  0  0
    6.4470    4.5850   22.2321 C   0  0  0  0  0  0  0  0  0  0  0  0
    8.4619    6.9895   22.2968 C   0  0  0  0  0  0  0  0  0  0  0  0
   12.2747    7.5102   20.0420 C   0  0  0  0  0  0  0  0  0  0  0  0
   14.2544    6.2142   19.4191 C   0  0  0  0  0  0  0  0  0  0  0  0
   13.0695    6.3705   20.0375 N   0  0  0  0  0  0  0  0  0  0  0  0
    9.1913    8.0876   21.8361 N   0  0  0  0  0  0  0  0  0  0  0  0
   10.4739    9.4813   20.2889 C   0  0  0  0  0  0  0  0  0  0  0  0
    7.5551    7.1270   23.1200 O   0  0  0  0  0  0  0  0  0  0  0  0
  1 11  4  0
  1 21  4  0
  2  4  1  0
  2  8  1  0
  2 11  1  0
  3 10  4  0
  3 14  4  0
  4  5  1  0
  4 18  2  0
  6 12  1  0
  6 17  4  0
  6 23  4  0
  7  9  1  0
  7 13  4  0
  7 19  4  0
  9 20  1  0
 10 19  4  0
 11 25  4  0
 13 14  4  0
 15 16  4  0
 15 17  4  0
 15 21  4  0
 16 24  1  0
 16 25  4  0
 20 24  1  0
 20 26  2  0
 21 23  4  0
 22 23  1  0
M  END
$$$$

 Created by Python create_sdf_string function

 26 28  0  0  0  0  0  0  0  0999 V2000
   12.4616    8.6700   19.4180 N   0  0  0  0  0  0  0  0  0  0  0  0
   11.8329   10.8148   18.6769 N   0  0  0  0  0  0  0  0  0  0  0  0
    6.1021    2.5564   21.0678 C   0  0  0  0  0  0  0  0  0  0  0  0
   10.9097   11.8051   18.4804 C   0  0  0  0  0  0  0  0  0  0  0  0
   11.2280   12.9135   17.5669 C   0  0  0  0  0  0  0  0  0  0  0  0
   12.3782    5.4231   20.7777 C   0  0  0  0  0  0  0  0  0  0  0  0
    7.7365    4.6508   21.6987 C   0  0  0  0  0  0  0  0  0  0  0  0
   13.0186   11.0102   18.0020 C   0  0  0  0  0  0  0  0  0  0  0  0
    8.6628    5.7088   21.8871 N   0  0  0  0  0  0  0  0  0  0  0  0
    5.6516    3.5258   21.9140 C   0  0  0  0  0  0  0  0  0  0  0  0
   11.5863    9.6815   19.4539 C   0  0  0  0  0  0  0  0  0  0  0  0
   12.9648    4.1543   20.9205 C   0  0  0  0  0  0  0  0  0  0  0  0
    8.2089    3.6265   20.8929 C   0  0  0  0  0  0  0  0  0  0  0  0
    7.3827    2.5724   20.5432 C   0  0  0  0  0  0  0  0  0  0  0  0
   11.1529    7.2750   20.8025 C   0  0  0  0  0  0  0  0  0  0  0  0
   10.2573    8.3215   20.9827 C   0  0  0  0  0  0  0  0  0  0  0  0
   11.1606    5.9378   21.2366 N   0  0  0  0  0  0  0  0  0  0  0  0
    9.8932   11.6736   19.0677 O   0  0  0  0  0  0  0  0  0  0  0  0
    6.4470    4.5850   22.2321 C   0  0  0  0  0  0  0  0  0  0  0  0
    8.4619    6.9895   22.2968 C   0  0  0  0  0  0  0  0  0  0  0  0
   12.2747    7.5102   20.0420 C   0  0  0  0  0  0  0  0  0  0  0  0
   14.2544    6.2142   19.4191 C   0  0  0  0  0  0  0  0  0  0  0  0
   13.0695    6.3705   20.0375 N   0  0  0  0  0  0  0  0  0  0  0  0
    9.1913    8.0876   21.8361 N   0  0  0  0  0  0  0  0  0  0  0  0
   10.4739    9.4813   20.2889 C   0  0  0  0  0  0  0  0  0  0  0  0
    7.5551    7.1270   23.1200 O   0  0  0  0  0  0  0  0  0  0  0  0
  1 11  4  0
  1 21  4  0
  2  4  1  0
  2  8  1  0
  2 11  1  0
  3 10  4  0
  3 14  4  0
  4  5  1  0
  4 18  2  0
  6 12  1  0
  6 17  4  0
  6 23  4  0
  7  9  1  0
  7 13  4  0
  7 19  4  0
  9 20  1  0
 10 19  4  0
 11 25  4  0
 13 14  4  0
 15 16  4  0
 15 17  4  0
 15 21  4  0
 16 24  1  0
 16 25  4  0
 20 24  1  0
 20 26  2  0
 21 23  4  0
 22 23  1  0
M  END
$$$$

 Created by Python create_sdf_string function

 26 28  0  0  0  0  0  0  0  0999 V2000
   12.4616    8.6700   19.4180 N   0  0  0  0  0  0  0  0  0  0  0  0
   11.8329   10.8148   18.6769 N   0  0  0  0  0  0  0  0  0  0  0  0
    6.1021    2.5564   21.0678 C   0  0  0  0  0  0  0  0  0  0  0  0
   10.9097   11.8051   18.4804 C   0  0  0  0  0  0  0  0  0  0  0  0
   11.2280   12.9135   17.5669 C   0  0  0  0  0  0  0  0  0  0  0  0
   12.3782    5.4231   20.7777 C   0  0  0  0  0  0  0  0  0  0  0  0
    7.7365    4.6508   21.6987 C   0  0  0  0  0  0  0  0  0  0  0  0
   13.0186   11.0102   18.0020 C   0  0  0  0  0  0  0  0  0  0  0  0
    8.6628    5.7088   21.8871 N   0  0  0  0  0  0  0  0  0  0  0  0
    5.6516    3.5258   21.9140 C   0  0  0  0  0  0  0  0  0  0  0  0
   11.5863    9.6815   19.4539 C   0  0  0  0  0  0  0  0  0  0  0  0
   12.9648    4.1543   20.9205 C   0  0  0  0  0  0  0  0  0  0  0  0
    8.2089    3.6265   20.8929 C   0  0  0  0  0  0  0  0  0  0  0  0
    7.3827    2.5724   20.5432 C   0  0  0  0  0  0  0  0  0  0  0  0
   11.1529    7.2750   20.8025 C   0  0  0  0  0  0  0  0  0  0  0  0
   10.2573    8.3215   20.9827 C   0  0  0  0  0  0  0  0  0  0  0  0
   11.1606    5.9378   21.2366 N   0  0  0  0  0  0  0  0  0  0  0  0
    9.8932   11.6736   19.0677 O   0  0  0  0  0  0  0  0  0  0  0  0
    6.4470    4.5850   22.2321 C   0  0  0  0  0  0  0  0  0  0  0  0
    8.4619    6.9895   22.2968 C   0  0  0  0  0  0  0  0  0  0  0  0
   12.2747    7.5102   20.0420 C   0  0  0  0  0  0  0  0  0  0  0  0
   14.2544    6.2142   19.4191 C   0  0  0  0  0  0  0  0  0  0  0  0
   13.0695    6.3705   20.0375 N   0  0  0  0  0  0  0  0  0  0  0  0
    9.1913    8.0876   21.8361 N   0  0  0  0  0  0  0  0  0  0  0  0
   10.4739    9.4813   20.2889 C   0  0  0  0  0  0  0  0  0  0  0  0
    7.5551    7.1270   23.1200 O   0  0  0  0  0  0  0  0  0  0  0  0
  1 11  4  0
  1 21  4  0
  2  4  1  0
  2  8  1  0
  2 11  1  0
  3 10  4  0
  3 14  4  0
  4  5  1  0
  4 18  2  0
  6 12  1  0
  6 17  4  0
  6 23  4  0
  7  9  1  0
  7 13  4  0
  7 19  4  0
  9 20  1  0
 10 19  4  0
 11 25  4  0
 13 14  4  0
 15 16  4  0
 15 17  4  0
 15 21  4  0
 16 24  1  0
 16 25  4  0
 20 24  1  0
 20 26  2  0
 21 23  4  0
 22 23  1  0
M  END
$$$$

 Created by Python create_sdf_string function

 26 28  0  0  0  0  0  0  0  0999 V2000
   12.4616    8.6700   19.4180 N   0  0  0  0  0  0  0  0  0  0  0  0
   11.8329   10.8148   18.6769 N   0  0  0  0  0  0  0  0  0  0  0  0
    6.1021    2.5564   21.0678 C   0  0  0  0  0  0  0  0  0  0  0  0
   10.9097   11.8051   18.4804 C   0  0  0  0  0  0  0  0  0  0  0  0
   11.2280   12.9135   17.5669 C   0  0  0  0  0  0  0  0  0  0  0  0
   12.3782    5.4231   20.7777 C   0  0  0  0  0  0  0  0  0  0  0  0
    7.7365    4.6508   21.6987 C   0  0  0  0  0  0  0  0  0  0  0  0
   13.0186   11.0102   18.0020 C   0  0  0  0  0  0  0  0  0  0  0  0
    8.6628    5.7088   21.8871 N   0  0  0  0  0  0  0  0  0  0  0  0
    5.6516    3.5258   21.9140 C   0  0  0  0  0  0  0  0  0  0  0  0
   11.5863    9.6815   19.4539 C   0  0  0  0  0  0  0  0  0  0  0  0
   12.9648    4.1543   20.9205 C   0  0  0  0  0  0  0  0  0  0  0  0
    8.2089    3.6265   20.8929 C   0  0  0  0  0  0  0  0  0  0  0  0
    7.3827    2.5724   20.5432 C   0  0  0  0  0  0  0  0  0  0  0  0
   11.1529    7.2750   20.8025 C   0  0  0  0  0  0  0  0  0  0  0  0
   10.2573    8.3215   20.9827 C   0  0  0  0  0  0  0  0  0  0  0  0
   11.1606    5.9378   21.2366 N   0  0  0  0  0  0  0  0  0  0  0  0
    9.8932   11.6736   19.0677 O   0  0  0  0  0  0  0  0  0  0  0  0
    6.4470    4.5850   22.2321 C   0  0  0  0  0  0  0  0  0  0  0  0
    8.4619    6.9895   22.2968 C   0  0  0  0  0  0  0  0  0  0  0  0
   12.2747    7.5102   20.0420 C   0  0  0  0  0  0  0  0  0  0  0  0
   14.2544    6.2142   19.4191 C   0  0  0  0  0  0  0  0  0  0  0  0
   13.0695    6.3705   20.0375 N   0  0  0  0  0  0  0  0  0  0  0  0
    9.1913    8.0876   21.8361 N   0  0  0  0  0  0  0  0  0  0  0  0
   10.4739    9.4813   20.2889 C   0  0  0  0  0  0  0  0  0  0  0  0
    7.5551    7.1270   23.1200 O   0  0  0  0  0  0  0  0  0  0  0  0
  1 11  4  0
  1 21  4  0
  2  4  1  0
  2  8  1  0
  2 11  1  0
  3 10  4  0
  3 14  4  0
  4  5  1  0
  4 18  2  0
  6 12  1  0
  6 17  4  0
  6 23  4  0
  7  9  1  0
  7 13  4  0
  7 19  4  0
  9 20  1  0
 10 19  4  0
 11 25  4  0
 13 14  4  0
 15 16  4  0
 15 17  4  0
 15 21  4  0
 16 24  1  0
 16 25  4  0
 20 24  1  0
 20 26  2  0
 21 23  4  0
 22 23  1  0
M  END
$$$$

 Created by Python create_sdf_string function

 26 28  0  0  0  0  0  0  0  0999 V2000
   12.4616    8.6700   19.4180 N   0  0  0  0  0  0  0  0  0  0  0  0
   11.8329   10.8148   18.6769 N   0  0  0  0  0  0  0  0  0  0  0  0
    6.1021    2.5564   21.0678 C   0  0  0  0  0  0  0  0  0  0  0  0
   10.9097   11.8051   18.4804 C   0  0  0  0  0  0  0  0  0  0  0  0
   11.2280   12.9135   17.5669 C   0  0  0  0  0  0  0  0  0  0  0  0
   12.3782    5.4231   20.7777 C   0  0  0  0  0  0  0  0  0  0  0  0
    7.7365    4.6508   21.6987 C   0  0  0  0  0  0  0  0  0  0  0  0
   13.0186   11.0102   18.0020 C   0  0  0  0  0  0  0  0  0  0  0  0
    8.6628    5.7088   21.8871 N   0  0  0  0  0  0  0  0  0  0  0  0
    5.6516    3.5258   21.9140 C   0  0  0  0  0  0  0  0  0  0  0  0
   11.5863    9.6815   19.4539 C   0  0  0  0  0  0  0  0  0  0  0  0
   12.9648    4.1543   20.9205 C   0  0  0  0  0  0  0  0  0  0  0  0
    8.2089    3.6265   20.8929 C   0  0  0  0  0  0  0  0  0  0  0  0
    7.3827    2.5724   20.5432 C   0  0  0  0  0  0  0  0  0  0  0  0
   11.1529    7.2750   20.8025 C   0  0  0  0  0  0  0  0  0  0  0  0
   10.2573    8.3215   20.9827 C   0  0  0  0  0  0  0  0  0  0  0  0
   11.1606    5.9378   21.2366 N   0  0  0  0  0  0  0  0  0  0  0  0
    9.8932   11.6736   19.0677 O   0  0  0  0  0  0  0  0  0  0  0  0
    6.4470    4.5850   22.2321 C   0  0  0  0  0  0  0  0  0  0  0  0
    8.4619    6.9895   22.2968 C   0  0  0  0  0  0  0  0  0  0  0  0
   12.2747    7.5102   20.0420 C   0  0  0  0  0  0  0  0  0  0  0  0
   14.2544    6.2142   19.4191 C   0  0  0  0  0  0  0  0  0  0  0  0
   13.0695    6.3705   20.0375 N   0  0  0  0  0  0  0  0  0  0  0  0
    9.1913    8.0876   21.8361 N   0  0  0  0  0  0  0  0  0  0  0  0
   10.4739    9.4813   20.2889 C   0  0  0  0  0  0  0  0  0  0  0  0
    7.5551    7.1270   23.1200 O   0  0  0  0  0  0  0  0  0  0  0  0
  1 11  4  0
  1 21  4  0
  2  4  1  0
  2  8  1  0
  2 11  1  0
  3 10  4  0
  3 14  4  0
  4  5  1  0
  4 18  2  0
  6 12  1  0
  6 17  4  0
  6 23  4  0
  7  9  1  0
  7 13  4  0
  7 19  4  0
  9 20  1  0
 10 19  4  0
 11 25  4  0
 13 14  4  0
 15 16  4  0
 15 17  4  0
 15 21  4  0
 16 24  1  0
 16 25  4  0
 20 24  1  0
 20 26  2  0
 21 23  4  0
 22 23  1  0
M  END
$$$$

 Created by Python create_sdf_string function

 26 28  0  0  0  0  0  0  0  0999 V2000
   12.4616    8.6700   19.4180 N   0  0  0  0  0  0  0  0  0  0  0  0
   11.8329   10.8148   18.6769 N   0  0  0  0  0  0  0  0  0  0  0  0
    6.1021    2.5564   21.0678 C   0  0  0  0  0  0  0  0  0  0  0  0
   10.9097   11.8051   18.4804 C   0  0  0  0  0  0  0  0  0  0  0  0
   11.2280   12.9135   17.5669 C   0  0  0  0  0  0  0  0  0  0  0  0
   12.3782    5.4231   20.7777 C   0  0  0  0  0  0  0  0  0  0  0  0
    7.7365    4.6508   21.6987 C   0  0  0  0  0  0  0  0  0  0  0  0
   13.0186   11.0102   18.0020 C   0  0  0  0  0  0  0  0  0  0  0  0
    8.6628    5.7088   21.8871 N   0  0  0  0  0  0  0  0  0  0  0  0
    5.6516    3.5258   21.9140 C   0  0  0  0  0  0  0  0  0  0  0  0
   11.5863    9.6815   19.4539 C   0  0  0  0  0  0  0  0  0  0  0  0
   12.9648    4.1543   20.9205 C   0  0  0  0  0  0  0  0  0  0  0  0
    8.2089    3.6265   20.8929 C   0  0  0  0  0  0  0  0  0  0  0  0
    7.3827    2.5724   20.5432 C   0  0  0  0  0  0  0  0  0  0  0  0
   11.1529    7.2750   20.8025 C   0  0  0  0  0  0  0  0  0  0  0  0
   10.2573    8.3215   20.9827 C   0  0  0  0  0  0  0  0  0  0  0  0
   11.1606    5.9378   21.2366 N   0  0  0  0  0  0  0  0  0  0  0  0
    9.8932   11.6736   19.0677 O   0  0  0  0  0  0  0  0  0  0  0  0
    6.4470    4.5850   22.2321 C   0  0  0  0  0  0  0  0  0  0  0  0
    8.4619    6.9895   22.2968 C   0  0  0  0  0  0  0  0  0  0  0  0
   12.2747    7.5102   20.0420 C   0  0  0  0  0  0  0  0  0  0  0  0
   14.2544    6.2142   19.4191 C   0  0  0  0  0  0  0  0  0  0  0  0
   13.0695    6.3705   20.0375 N   0  0  0  0  0  0  0  0  0  0  0  0
    9.1913    8.0876   21.8361 N   0  0  0  0  0  0  0  0  0  0  0  0
   10.4739    9.4813   20.2889 C   0  0  0  0  0  0  0  0  0  0  0  0
    7.5551    7.1270   23.1200 O   0  0  0  0  0  0  0  0  0  0  0  0
  1 11  4  0
  1 21  4  0
  2  4  1  0
  2  8  1  0
  2 11  1  0
  3 10  4  0
  3 14  4  0
  4  5  1  0
  4 18  2  0
  6 12  1  0
  6 17  4  0
  6 23  4  0
  7  9  1  0
  7 13  4  0
  7 19  4  0
  9 20  1  0
 10 19  4  0
 11 25  4  0
 13 14  4  0
 15 16  4  0
 15 17  4  0
 15 21  4  0
 16 24  1  0
 16 25  4  0
 20 24  1  0
 20 26  2  0
 21 23  4  0
 22 23  1  0
M  END
$$$$

 Created by Python create_sdf_string function

 26 28  0  0  0  0  0  0  0  0999 V2000
   12.4616    8.6700   19.4180 N   0  0  0  0  0  0  0  0  0  0  0  0
   11.8329   10.8148   18.6769 N   0  0  0  0  0  0  0  0  0  0  0  0
    6.1021    2.5564   21.0678 C   0  0  0  0  0  0  0  0  0  0  0  0
   10.9097   11.8051   18.4804 C   0  0  0  0  0  0  0  0  0  0  0  0
   11.2280   12.9135   17.5669 C   0  0  0  0  0  0  0  0  0  0  0  0
   12.3782    5.4231   20.7777 C   0  0  0  0  0  0  0  0  0  0  0  0
    7.7365    4.6508   21.6987 C   0  0  0  0  0  0  0  0  0  0  0  0
   13.0186   11.0102   18.0020 C   0  0  0  0  0  0  0  0  0  0  0  0
    8.6628    5.7088   21.8871 N   0  0  0  0  0  0  0  0  0  0  0  0
    5.6516    3.5258   21.9140 C   0  0  0  0  0  0  0  0  0  0  0  0
   11.5863    9.6815   19.4539 C   0  0  0  0  0  0  0  0  0  0  0  0
   12.9648    4.1543   20.9205 C   0  0  0  0  0  0  0  0  0  0  0  0
    8.2089    3.6265   20.8929 C   0  0  0  0  0  0  0  0  0  0  0  0
    7.3827    2.5724   20.5432 C   0  0  0  0  0  0  0  0  0  0  0  0
   11.1529    7.2750   20.8025 C   0  0  0  0  0  0  0  0  0  0  0  0
   10.2573    8.3215   20.9827 C   0  0  0  0  0  0  0  0  0  0  0  0
   11.1606    5.9378   21.2366 N   0  0  0  0  0  0  0  0  0  0  0  0
    9.8932   11.6736   19.0677 O   0  0  0  0  0  0  0  0  0  0  0  0
    6.4470    4.5850   22.2321 C   0  0  0  0  0  0  0  0  0  0  0  0
    8.4619    6.9895   22.2968 C   0  0  0  0  0  0  0  0  0  0  0  0
   12.2747    7.5102   20.0420 C   0  0  0  0  0  0  0  0  0  0  0  0
   14.2544    6.2142   19.4191 C   0  0  0  0  0  0  0  0  0  0  0  0
   13.0695    6.3705   20.0375 N   0  0  0  0  0  0  0  0  0  0  0  0
    9.1913    8.0876   21.8361 N   0  0  0  0  0  0  0  0  0  0  0  0
   10.4739    9.4813   20.2889 C   0  0  0  0  0  0  0  0  0  0  0  0
    7.5551    7.1270   23.1200 O   0  0  0  0  0  0  0  0  0  0  0  0
  1 11  4  0
  1 21  4  0
  2  4  1  0
  2  8  1  0
  2 11  1  0
  3 10  4  0
  3 14  4  0
  4  5  1  0
  4 18  2  0
  6 12  1  0
  6 17  4  0
  6 23  4  0
  7  9  1  0
  7 13  4  0
  7 19  4  0
  9 20  1  0
 10 19  4  0
 11 25  4  0
 13 14  4  0
 15 16  4  0
 15 17  4  0
 15 21  4  0
 16 24  1  0
 16 25  4  0
 20 24  1  0
 20 26  2  0
 21 23  4  0
 22 23  1  0
M  END
$$$$

 Created by Python create_sdf_string function

 26 28  0  0  0  0  0  0  0  0999 V2000
   12.4616    8.6700   19.4180 N   0  0  0  0  0  0  0  0  0  0  0  0
   11.8329   10.8148   18.6769 N   0  0  0  0  0  0  0  0  0  0  0  0
    6.1021    2.5564   21.0678 C   0  0  0  0  0  0  0  0  0  0  0  0
   10.9097   11.8051   18.4804 C   0  0  0  0  0  0  0  0  0  0  0  0
   11.2280   12.9135   17.5669 C   0  0  0  0  0  0  0  0  0  0  0  0
   12.3782    5.4231   20.7777 C   0  0  0  0  0  0  0  0  0  0  0  0
    7.7365    4.6508   21.6987 C   0  0  0  0  0  0  0  0  0  0  0  0
   13.0186   11.0102   18.0020 C   0  0  0  0  0  0  0  0  0  0  0  0
    8.6628    5.7088   21.8871 N   0  0  0  0  0  0  0  0  0  0  0  0
    5.6516    3.5258   21.9140 C   0  0  0  0  0  0  0  0  0  0  0  0
   11.5863    9.6815   19.4539 C   0  0  0  0  0  0  0  0  0  0  0  0
   12.9648    4.1543   20.9205 C   0  0  0  0  0  0  0  0  0  0  0  0
    8.2089    3.6265   20.8929 C   0  0  0  0  0  0  0  0  0  0  0  0
    7.3827    2.5724   20.5432 C   0  0  0  0  0  0  0  0  0  0  0  0
   11.1529    7.2750   20.8025 C   0  0  0  0  0  0  0  0  0  0  0  0
   10.2573    8.3215   20.9827 C   0  0  0  0  0  0  0  0  0  0  0  0
   11.1606    5.9378   21.2366 N   0  0  0  0  0  0  0  0  0  0  0  0
    9.8932   11.6736   19.0677 O   0  0  0  0  0  0  0  0  0  0  0  0
    6.4470    4.5850   22.2321 C   0  0  0  0  0  0  0  0  0  0  0  0
    8.4619    6.9895   22.2968 C   0  0  0  0  0  0  0  0  0  0  0  0
   12.2747    7.5102   20.0420 C   0  0  0  0  0  0  0  0  0  0  0  0
   14.2544    6.2142   19.4191 C   0  0  0  0  0  0  0  0  0  0  0  0
   13.0695    6.3705   20.0375 N   0  0  0  0  0  0  0  0  0  0  0  0
    9.1913    8.0876   21.8361 N   0  0  0  0  0  0  0  0  0  0  0  0
   10.4739    9.4813   20.2889 C   0  0  0  0  0  0  0  0  0  0  0  0
    7.5551    7.1270   23.1200 O   0  0  0  0  0  0  0  0  0  0  0  0
  1 11  4  0
  1 21  4  0
  2  4  1  0
  2  8  1  0
  2 11  1  0
  3 10  4  0
  3 14  4  0
  4  5  1  0
  4 18  2  0
  6 12  1  0
  6 17  4  0
  6 23  4  0
  7  9  1  0
  7 13  4  0
  7 19  4  0
  9 20  1  0
 10 19  4  0
 11 25  4  0
 13 14  4  0
 15 16  4  0
 15 17  4  0
 15 21  4  0
 16 24  1  0
 16 25  4  0
 20 24  1  0
 20 26  2  0
 21 23  4  0
 22 23  1  0
M  END
$$$$

 Created by Python create_sdf_string function

 26 28  0  0  0  0  0  0  0  0999 V2000
   12.4616    8.6700   19.4180 N   0  0  0  0  0  0  0  0  0  0  0  0
   11.8329   10.8148   18.6769 N   0  0  0  0  0  0  0  0  0  0  0  0
    6.1021    2.5564   21.0678 C   0  0  0  0  0  0  0  0  0  0  0  0
   10.9097   11.8051   18.4804 C   0  0  0  0  0  0  0  0  0  0  0  0
   11.2280   12.9135   17.5669 C   0  0  0  0  0  0  0  0  0  0  0  0
   12.3782    5.4231   20.7777 C   0  0  0  0  0  0  0  0  0  0  0  0
    7.7365    4.6508   21.6987 C   0  0  0  0  0  0  0  0  0  0  0  0
   13.0186   11.0102   18.0020 C   0  0  0  0  0  0  0  0  0  0  0  0
    8.6628    5.7088   21.8871 N   0  0  0  0  0  0  0  0  0  0  0  0
    5.6516    3.5258   21.9140 C   0  0  0  0  0  0  0  0  0  0  0  0
   11.5863    9.6815   19.4539 C   0  0  0  0  0  0  0  0  0  0  0  0
   12.9648    4.1543   20.9205 C   0  0  0  0  0  0  0  0  0  0  0  0
    8.2089    3.6265   20.8929 C   0  0  0  0  0  0  0  0  0  0  0  0
    7.3827    2.5724   20.5432 C   0  0  0  0  0  0  0  0  0  0  0  0
   11.1529    7.2750   20.8025 C   0  0  0  0  0  0  0  0  0  0  0  0
   10.2573    8.3215   20.9827 C   0  0  0  0  0  0  0  0  0  0  0  0
   11.1606    5.9378   21.2366 N   0  0  0  0  0  0  0  0  0  0  0  0
    9.8932   11.6736   19.0677 O   0  0  0  0  0  0  0  0  0  0  0  0
    6.4470    4.5850   22.2321 C   0  0  0  0  0  0  0  0  0  0  0  0
    8.4619    6.9895   22.2968 C   0  0  0  0  0  0  0  0  0  0  0  0
   12.2747    7.5102   20.0420 C   0  0  0  0  0  0  0  0  0  0  0  0
   14.2544    6.2142   19.4191 C   0  0  0  0  0  0  0  0  0  0  0  0
   13.0695    6.3705   20.0375 N   0  0  0  0  0  0  0  0  0  0  0  0
    9.1913    8.0876   21.8361 N   0  0  0  0  0  0  0  0  0  0  0  0
   10.4739    9.4813   20.2889 C   0  0  0  0  0  0  0  0  0  0  0  0
    7.5551    7.1270   23.1200 O   0  0  0  0  0  0  0  0  0  0  0  0
  1 11  4  0
  1 21  4  0
  2  4  1  0
  2  8  1  0
  2 11  1  0
  3 10  4  0
  3 14  4  0
  4  5  1  0
  4 18  2  0
  6 12  1  0
  6 17  4  0
  6 23  4  0
  7  9  1  0
  7 13  4  0
  7 19  4  0
  9 20  1  0
 10 19  4  0
 11 25  4  0
 13 14  4  0
 15 16  4  0
 15 17  4  0
 15 21  4  0
 16 24  1  0
 16 25  4  0
 20 24  1  0
 20 26  2  0
 21 23  4  0
 22 23  1  0
M  END
$$$$

 Created by Python create_sdf_string function

 26 28  0  0  0  0  0  0  0  0999 V2000
   12.4616    8.6700   19.4180 N   0  0  0  0  0  0  0  0  0  0  0  0
   11.8329   10.8148   18.6769 N   0  0  0  0  0  0  0  0  0  0  0  0
    6.1021    2.5564   21.0678 C   0  0  0  0  0  0  0  0  0  0  0  0
   10.9097   11.8051   18.4804 C   0  0  0  0  0  0  0  0  0  0  0  0
   11.2280   12.9135   17.5669 C   0  0  0  0  0  0  0  0  0  0  0  0
   12.3782    5.4231   20.7777 C   0  0  0  0  0  0  0  0  0  0  0  0
    7.7365    4.6508   21.6987 C   0  0  0  0  0  0  0  0  0  0  0  0
   13.0186   11.0102   18.0020 C   0  0  0  0  0  0  0  0  0  0  0  0
    8.6628    5.7088   21.8871 N   0  0  0  0  0  0  0  0  0  0  0  0
    5.6516    3.5258   21.9140 C   0  0  0  0  0  0  0  0  0  0  0  0
   11.5863    9.6815   19.4539 C   0  0  0  0  0  0  0  0  0  0  0  0
   12.9648    4.1543   20.9205 C   0  0  0  0  0  0  0  0  0  0  0  0
    8.2089    3.6265   20.8929 C   0  0  0  0  0  0  0  0  0  0  0  0
    7.3827    2.5724   20.5432 C   0  0  0  0  0  0  0  0  0  0  0  0
   11.1529    7.2750   20.8025 C   0  0  0  0  0  0  0  0  0  0  0  0
   10.2573    8.3215   20.9827 C   0  0  0  0  0  0  0  0  0  0  0  0
   11.1606    5.9378   21.2366 N   0  0  0  0  0  0  0  0  0  0  0  0
    9.8932   11.6736   19.0677 O   0  0  0  0  0  0  0  0  0  0  0  0
    6.4470    4.5850   22.2321 C   0  0  0  0  0  0  0  0  0  0  0  0
    8.4619    6.9895   22.2968 C   0  0  0  0  0  0  0  0  0  0  0  0
   12.2747    7.5102   20.0420 C   0  0  0  0  0  0  0  0  0  0  0  0
   14.2544    6.2142   19.4191 C   0  0  0  0  0  0  0  0  0  0  0  0
   13.0695    6.3705   20.0375 N   0  0  0  0  0  0  0  0  0  0  0  0
    9.1913    8.0876   21.8361 N   0  0  0  0  0  0  0  0  0  0  0  0
   10.4739    9.4813   20.2889 C   0  0  0  0  0  0  0  0  0  0  0  0
    7.5551    7.1270   23.1200 O   0  0  0  0  0  0  0  0  0  0  0  0
  1 11  4  0
  1 21  4  0
  2  4  1  0
  2  8  1  0
  2 11  1  0
  3 10  4  0
  3 14  4  0
  4  5  1  0
  4 18  2  0
  6 12  1  0
  6 17  4  0
  6 23  4  0
  7  9  1  0
  7 13  4  0
  7 19  4  0
  9 20  1  0
 10 19  4  0
 11 25  4  0
 13 14  4  0
 15 16  4  0
 15 17  4  0
 15 21  4  0
 16 24  1  0
 16 25  4  0
 20 24  1  0
 20 26  2  0
 21 23  4  0
 22 23  1  0
M  END
$$$$

 Created by Python create_sdf_string function

 26 28  0  0  0  0  0  0  0  0999 V2000
   12.4616    8.6700   19.4180 N   0  0  0  0  0  0  0  0  0  0  0  0
   11.8329   10.8148   18.6769 N   0  0  0  0  0  0  0  0  0  0  0  0
    6.1021    2.5564   21.0678 C   0  0  0  0  0  0  0  0  0  0  0  0
   10.9097   11.8051   18.4804 C   0  0  0  0  0  0  0  0  0  0  0  0
   11.2280   12.9135   17.5669 C   0  0  0  0  0  0  0  0  0  0  0  0
   12.3782    5.4231   20.7777 C   0  0  0  0  0  0  0  0  0  0  0  0
    7.7365    4.6508   21.6987 C   0  0  0  0  0  0  0  0  0  0  0  0
   13.0186   11.0102   18.0020 C   0  0  0  0  0  0  0  0  0  0  0  0
    8.6628    5.7088   21.8871 N   0  0  0  0  0  0  0  0  0  0  0  0
    5.6516    3.5258   21.9140 C   0  0  0  0  0  0  0  0  0  0  0  0
   11.5863    9.6815   19.4539 C   0  0  0  0  0  0  0  0  0  0  0  0
   12.9648    4.1543   20.9205 C   0  0  0  0  0  0  0  0  0  0  0  0
    8.2089    3.6265   20.8929 C   0  0  0  0  0  0  0  0  0  0  0  0
    7.3827    2.5724   20.5432 C   0  0  0  0  0  0  0  0  0  0  0  0
   11.1529    7.2750   20.8025 C   0  0  0  0  0  0  0  0  0  0  0  0
   10.2573    8.3215   20.9827 C   0  0  0  0  0  0  0  0  0  0  0  0
   11.1606    5.9378   21.2366 N   0  0  0  0  0  0  0  0  0  0  0  0
    9.8932   11.6736   19.0677 O   0  0  0  0  0  0  0  0  0  0  0  0
    6.4470    4.5850   22.2321 C   0  0  0  0  0  0  0  0  0  0  0  0
    8.4619    6.9895   22.2968 C   0  0  0  0  0  0  0  0  0  0  0  0
   12.2747    7.5102   20.0420 C   0  0  0  0  0  0  0  0  0  0  0  0
   14.2544    6.2142   19.4191 C   0  0  0  0  0  0  0  0  0  0  0  0
   13.0695    6.3705   20.0375 N   0  0  0  0  0  0  0  0  0  0  0  0
    9.1913    8.0876   21.8361 N   0  0  0  0  0  0  0  0  0  0  0  0
   10.4739    9.4813   20.2889 C   0  0  0  0  0  0  0  0  0  0  0  0
    7.5551    7.1270   23.1200 O   0  0  0  0  0  0  0  0  0  0  0  0
  1 11  4  0
  1 21  4  0
  2  4  1  0
  2  8  1  0
  2 11  1  0
  3 10  4  0
  3 14  4  0
  4  5  1  0
  4 18  2  0
  6 12  1  0
  6 17  4  0
  6 23  4  0
  7  9  1  0
  7 13  4  0
  7 19  4  0
  9 20  1  0
 10 19  4  0
 11 25  4  0
 13 14  4  0
 15 16  4  0
 15 17  4  0
 15 21  4  0
 16 24  1  0
 16 25  4  0
 20 24  1  0
 20 26  2  0
 21 23  4  0
 22 23  1  0
M  END
$$$$

 Created by Python create_sdf_string function

 26 28  0  0  0  0  0  0  0  0999 V2000
   12.4616    8.6700   19.4180 N   0  0  0  0  0  0  0  0  0  0  0  0
   11.8329   10.8148   18.6769 N   0  0  0  0  0  0  0  0  0  0  0  0
    6.1021    2.5564   21.0678 C   0  0  0  0  0  0  0  0  0  0  0  0
   10.9097   11.8051   18.4804 C   0  0  0  0  0  0  0  0  0  0  0  0
   11.2280   12.9135   17.5669 C   0  0  0  0  0  0  0  0  0  0  0  0
   12.3782    5.4231   20.7777 C   0  0  0  0  0  0  0  0  0  0  0  0
    7.7365    4.6508   21.6987 C   0  0  0  0  0  0  0  0  0  0  0  0
   13.0186   11.0102   18.0020 C   0  0  0  0  0  0  0  0  0  0  0  0
    8.6628    5.7088   21.8871 N   0  0  0  0  0  0  0  0  0  0  0  0
    5.6516    3.5258   21.9140 C   0  0  0  0  0  0  0  0  0  0  0  0
   11.5863    9.6815   19.4539 C   0  0  0  0  0  0  0  0  0  0  0  0
   12.9648    4.1543   20.9205 C   0  0  0  0  0  0  0  0  0  0  0  0
    8.2089    3.6265   20.8929 C   0  0  0  0  0  0  0  0  0  0  0  0
    7.3827    2.5724   20.5432 C   0  0  0  0  0  0  0  0  0  0  0  0
   11.1529    7.2750   20.8025 C   0  0  0  0  0  0  0  0  0  0  0  0
   10.2573    8.3215   20.9827 C   0  0  0  0  0  0  0  0  0  0  0  0
   11.1606    5.9378   21.2366 N   0  0  0  0  0  0  0  0  0  0  0  0
    9.8932   11.6736   19.0677 O   0  0  0  0  0  0  0  0  0  0  0  0
    6.4470    4.5850   22.2321 C   0  0  0  0  0  0  0  0  0  0  0  0
    8.4619    6.9895   22.2968 C   0  0  0  0  0  0  0  0  0  0  0  0
   12.2747    7.5102   20.0420 C   0  0  0  0  0  0  0  0  0  0  0  0
   14.2544    6.2142   19.4191 C   0  0  0  0  0  0  0  0  0  0  0  0
   13.0695    6.3705   20.0375 N   0  0  0  0  0  0  0  0  0  0  0  0
    9.1913    8.0876   21.8361 N   0  0  0  0  0  0  0  0  0  0  0  0
   10.4739    9.4813   20.2889 C   0  0  0  0  0  0  0  0  0  0  0  0
    7.5551    7.1270   23.1200 O   0  0  0  0  0  0  0  0  0  0  0  0
  1 11  4  0
  1 21  4  0
  2  4  1  0
  2  8  1  0
  2 11  1  0
  3 10  4  0
  3 14  4  0
  4  5  1  0
  4 18  2  0
  6 12  1  0
  6 17  4  0
  6 23  4  0
  7  9  1  0
  7 13  4  0
  7 19  4  0
  9 20  1  0
 10 19  4  0
 11 25  4  0
 13 14  4  0
 15 16  4  0
 15 17  4  0
 15 21  4  0
 16 24  1  0
 16 25  4  0
 20 24  1  0
 20 26  2  0
 21 23  4  0
 22 23  1  0
M  END
$$$$

 Created by Python create_sdf_string function

 26 28  0  0  0  0  0  0  0  0999 V2000
   12.4616    8.6700   19.4180 N   0  0  0  0  0  0  0  0  0  0  0  0
   11.8329   10.8148   18.6769 N   0  0  0  0  0  0  0  0  0  0  0  0
    6.1021    2.5564   21.0678 C   0  0  0  0  0  0  0  0  0  0  0  0
   10.9097   11.8051   18.4804 C   0  0  0  0  0  0  0  0  0  0  0  0
   11.2280   12.9135   17.5669 C   0  0  0  0  0  0  0  0  0  0  0  0
   12.3782    5.4231   20.7777 C   0  0  0  0  0  0  0  0  0  0  0  0
    7.7365    4.6508   21.6987 C   0  0  0  0  0  0  0  0  0  0  0  0
   13.0186   11.0102   18.0020 C   0  0  0  0  0  0  0  0  0  0  0  0
    8.6628    5.7088   21.8871 N   0  0  0  0  0  0  0  0  0  0  0  0
    5.6516    3.5258   21.9140 C   0  0  0  0  0  0  0  0  0  0  0  0
   11.5863    9.6815   19.4539 C   0  0  0  0  0  0  0  0  0  0  0  0
   12.9648    4.1543   20.9205 C   0  0  0  0  0  0  0  0  0  0  0  0
    8.2089    3.6265   20.8929 C   0  0  0  0  0  0  0  0  0  0  0  0
    7.3827    2.5724   20.5432 C   0  0  0  0  0  0  0  0  0  0  0  0
   11.1529    7.2750   20.8025 C   0  0  0  0  0  0  0  0  0  0  0  0
   10.2573    8.3215   20.9827 C   0  0  0  0  0  0  0  0  0  0  0  0
   11.1606    5.9378   21.2366 N   0  0  0  0  0  0  0  0  0  0  0  0
    9.8932   11.6736   19.0677 O   0  0  0  0  0  0  0  0  0  0  0  0
    6.4470    4.5850   22.2321 C   0  0  0  0  0  0  0  0  0  0  0  0
    8.4619    6.9895   22.2968 C   0  0  0  0  0  0  0  0  0  0  0  0
   12.2747    7.5102   20.0420 C   0  0  0  0  0  0  0  0  0  0  0  0
   14.2544    6.2142   19.4191 C   0  0  0  0  0  0  0  0  0  0  0  0
   13.0695    6.3705   20.0375 N   0  0  0  0  0  0  0  0  0  0  0  0
    9.1913    8.0876   21.8361 N   0  0  0  0  0  0  0  0  0  0  0  0
   10.4739    9.4813   20.2889 C   0  0  0  0  0  0  0  0  0  0  0  0
    7.5551    7.1270   23.1200 O   0  0  0  0  0  0  0  0  0  0  0  0
  1 11  4  0
  1 21  4  0
  2  4  1  0
  2  8  1  0
  2 11  1  0
  3 10  4  0
  3 14  4  0
  4  5  1  0
  4 18  2  0
  6 12  1  0
  6 17  4  0
  6 23  4  0
  7  9  1  0
  7 13  4  0
  7 19  4  0
  9 20  1  0
 10 19  4  0
 11 25  4  0
 13 14  4  0
 15 16  4  0
 15 17  4  0
 15 21  4  0
 16 24  1  0
 16 25  4  0
 20 24  1  0
 20 26  2  0
 21 23  4  0
 22 23  1  0
M  END
$$$$

 Created by Python create_sdf_string function

 26 28  0  0  0  0  0  0  0  0999 V2000
   12.4616    8.6700   19.4180 N   0  0  0  0  0  0  0  0  0  0  0  0
   11.8329   10.8148   18.6769 N   0  0  0  0  0  0  0  0  0  0  0  0
    6.1021    2.5564   21.0678 C   0  0  0  0  0  0  0  0  0  0  0  0
   10.9097   11.8051   18.4804 C   0  0  0  0  0  0  0  0  0  0  0  0
   11.2280   12.9135   17.5669 C   0  0  0  0  0  0  0  0  0  0  0  0
   12.3782    5.4231   20.7777 C   0  0  0  0  0  0  0  0  0  0  0  0
    7.7365    4.6508   21.6987 C   0  0  0  0  0  0  0  0  0  0  0  0
   13.0186   11.0102   18.0020 C   0  0  0  0  0  0  0  0  0  0  0  0
    8.6628    5.7088   21.8871 N   0  0  0  0  0  0  0  0  0  0  0  0
    5.6516    3.5258   21.9140 C   0  0  0  0  0  0  0  0  0  0  0  0
   11.5863    9.6815   19.4539 C   0  0  0  0  0  0  0  0  0  0  0  0
   12.9648    4.1543   20.9205 C   0  0  0  0  0  0  0  0  0  0  0  0
    8.2089    3.6265   20.8929 C   0  0  0  0  0  0  0  0  0  0  0  0
    7.3827    2.5724   20.5432 C   0  0  0  0  0  0  0  0  0  0  0  0
   11.1529    7.2750   20.8025 C   0  0  0  0  0  0  0  0  0  0  0  0
   10.2573    8.3215   20.9827 C   0  0  0  0  0  0  0  0  0  0  0  0
   11.1606    5.9378   21.2366 N   0  0  0  0  0  0  0  0  0  0  0  0
    9.8932   11.6736   19.0677 O   0  0  0  0  0  0  0  0  0  0  0  0
    6.4470    4.5850   22.2321 C   0  0  0  0  0  0  0  0  0  0  0  0
    8.4619    6.9895   22.2968 C   0  0  0  0  0  0  0  0  0  0  0  0
   12.2747    7.5102   20.0420 C   0  0  0  0  0  0  0  0  0  0  0  0
   14.2544    6.2142   19.4191 C   0  0  0  0  0  0  0  0  0  0  0  0
   13.0695    6.3705   20.0375 N   0  0  0  0  0  0  0  0  0  0  0  0
    9.1913    8.0876   21.8361 N   0  0  0  0  0  0  0  0  0  0  0  0
   10.4739    9.4813   20.2889 C   0  0  0  0  0  0  0  0  0  0  0  0
    7.5551    7.1270   23.1200 O   0  0  0  0  0  0  0  0  0  0  0  0
  1 11  4  0
  1 21  4  0
  2  4  1  0
  2  8  1  0
  2 11  1  0
  3 10  4  0
  3 14  4  0
  4  5  1  0
  4 18  2  0
  6 12  1  0
  6 17  4  0
  6 23  4  0
  7  9  1  0
  7 13  4  0
  7 19  4  0
  9 20  1  0
 10 19  4  0
 11 25  4  0
 13 14  4  0
 15 16  4  0
 15 17  4  0
 15 21  4  0
 16 24  1  0
 16 25  4  0
 20 24  1  0
 20 26  2  0
 21 23  4  0
 22 23  1  0
M  END
$$$$

 Created by Python create_sdf_string function

 26 28  0  0  0  0  0  0  0  0999 V2000
   12.4616    8.6700   19.4180 N   0  0  0  0  0  0  0  0  0  0  0  0
   11.8329   10.8148   18.6769 N   0  0  0  0  0  0  0  0  0  0  0  0
    6.1021    2.5564   21.0678 C   0  0  0  0  0  0  0  0  0  0  0  0
   10.9097   11.8051   18.4804 C   0  0  0  0  0  0  0  0  0  0  0  0
   11.2280   12.9135   17.5669 C   0  0  0  0  0  0  0  0  0  0  0  0
   12.3782    5.4231   20.7777 C   0  0  0  0  0  0  0  0  0  0  0  0
    7.7365    4.6508   21.6987 C   0  0  0  0  0  0  0  0  0  0  0  0
   13.0186   11.0102   18.0020 C   0  0  0  0  0  0  0  0  0  0  0  0
    8.6628    5.7088   21.8871 N   0  0  0  0  0  0  0  0  0  0  0  0
    5.6516    3.5258   21.9140 C   0  0  0  0  0  0  0  0  0  0  0  0
   11.5863    9.6815   19.4539 C   0  0  0  0  0  0  0  0  0  0  0  0
   12.9648    4.1543   20.9205 C   0  0  0  0  0  0  0  0  0  0  0  0
    8.2089    3.6265   20.8929 C   0  0  0  0  0  0  0  0  0  0  0  0
    7.3827    2.5724   20.5432 C   0  0  0  0  0  0  0  0  0  0  0  0
   11.1529    7.2750   20.8025 C   0  0  0  0  0  0  0  0  0  0  0  0
   10.2573    8.3215   20.9827 C   0  0  0  0  0  0  0  0  0  0  0  0
   11.1606    5.9378   21.2366 N   0  0  0  0  0  0  0  0  0  0  0  0
    9.8932   11.6736   19.0677 O   0  0  0  0  0  0  0  0  0  0  0  0
    6.4470    4.5850   22.2321 C   0  0  0  0  0  0  0  0  0  0  0  0
    8.4619    6.9895   22.2968 C   0  0  0  0  0  0  0  0  0  0  0  0
   12.2747    7.5102   20.0420 C   0  0  0  0  0  0  0  0  0  0  0  0
   14.2544    6.2142   19.4191 C   0  0  0  0  0  0  0  0  0  0  0  0
   13.0695    6.3705   20.0375 N   0  0  0  0  0  0  0  0  0  0  0  0
    9.1913    8.0876   21.8361 N   0  0  0  0  0  0  0  0  0  0  0  0
   10.4739    9.4813   20.2889 C   0  0  0  0  0  0  0  0  0  0  0  0
    7.5551    7.1270   23.1200 O   0  0  0  0  0  0  0  0  0  0  0  0
  1 11  4  0
  1 21  4  0
  2  4  1  0
  2  8  1  0
  2 11  1  0
  3 10  4  0
  3 14  4  0
  4  5  1  0
  4 18  2  0
  6 12  1  0
  6 17  4  0
  6 23  4  0
  7  9  1  0
  7 13  4  0
  7 19  4  0
  9 20  1  0
 10 19  4  0
 11 25  4  0
 13 14  4  0
 15 16  4  0
 15 17  4  0
 15 21  4  0
 16 24  1  0
 16 25  4  0
 20 24  1  0
 20 26  2  0
 21 23  4  0
 22 23  1  0
M  END
$$$$

 Created by Python create_sdf_string function

 26 28  0  0  0  0  0  0  0  0999 V2000
   12.4616    8.6700   19.4180 N   0  0  0  0  0  0  0  0  0  0  0  0
   11.8329   10.8148   18.6769 N   0  0  0  0  0  0  0  0  0  0  0  0
    6.1021    2.5564   21.0678 C   0  0  0  0  0  0  0  0  0  0  0  0
   10.9097   11.8051   18.4804 C   0  0  0  0  0  0  0  0  0  0  0  0
   11.2280   12.9135   17.5669 C   0  0  0  0  0  0  0  0  0  0  0  0
   12.3782    5.4231   20.7777 C   0  0  0  0  0  0  0  0  0  0  0  0
    7.7365    4.6508   21.6987 C   0  0  0  0  0  0  0  0  0  0  0  0
   13.0186   11.0102   18.0020 C   0  0  0  0  0  0  0  0  0  0  0  0
    8.6628    5.7088   21.8871 N   0  0  0  0  0  0  0  0  0  0  0  0
    5.6516    3.5258   21.9140 C   0  0  0  0  0  0  0  0  0  0  0  0
   11.5863    9.6815   19.4539 C   0  0  0  0  0  0  0  0  0  0  0  0
   12.9648    4.1543   20.9205 C   0  0  0  0  0  0  0  0  0  0  0  0
    8.2089    3.6265   20.8929 C   0  0  0  0  0  0  0  0  0  0  0  0
    7.3827    2.5724   20.5432 C   0  0  0  0  0  0  0  0  0  0  0  0
   11.1529    7.2750   20.8025 C   0  0  0  0  0  0  0  0  0  0  0  0
   10.2573    8.3215   20.9827 C   0  0  0  0  0  0  0  0  0  0  0  0
   11.1606    5.9378   21.2366 N   0  0  0  0  0  0  0  0  0  0  0  0
    9.8932   11.6736   19.0677 O   0  0  0  0  0  0  0  0  0  0  0  0
    6.4470    4.5850   22.2321 C   0  0  0  0  0  0  0  0  0  0  0  0
    8.4619    6.9895   22.2968 C   0  0  0  0  0  0  0  0  0  0  0  0
   12.2747    7.5102   20.0420 C   0  0  0  0  0  0  0  0  0  0  0  0
   14.2544    6.2142   19.4191 C   0  0  0  0  0  0  0  0  0  0  0  0
   13.0695    6.3705   20.0375 N   0  0  0  0  0  0  0  0  0  0  0  0
    9.1913    8.0876   21.8361 N   0  0  0  0  0  0  0  0  0  0  0  0
   10.4739    9.4813   20.2889 C   0  0  0  0  0  0  0  0  0  0  0  0
    7.5551    7.1270   23.1200 O   0  0  0  0  0  0  0  0  0  0  0  0
  1 11  4  0
  1 21  4  0
  2  4  1  0
  2  8  1  0
  2 11  1  0
  3 10  4  0
  3 14  4  0
  4  5  1  0
  4 18  2  0
  6 12  1  0
  6 17  4  0
  6 23  4  0
  7  9  1  0
  7 13  4  0
  7 19  4  0
  9 20  1  0
 10 19  4  0
 11 25  4  0
 13 14  4  0
 15 16  4  0
 15 17  4  0
 15 21  4  0
 16 24  1  0
 16 25  4  0
 20 24  1  0
 20 26  2  0
 21 23  4  0
 22 23  1  0
M  END
$$$$

 Created by Python create_sdf_string function

 26 28  0  0  0  0  0  0  0  0999 V2000
   12.4616    8.6700   19.4180 N   0  0  0  0  0  0  0  0  0  0  0  0
   11.8329   10.8148   18.6769 N   0  0  0  0  0  0  0  0  0  0  0  0
    6.1021    2.5564   21.0678 C   0  0  0  0  0  0  0  0  0  0  0  0
   10.9097   11.8051   18.4804 C   0  0  0  0  0  0  0  0  0  0  0  0
   11.2280   12.9135   17.5669 C   0  0  0  0  0  0  0  0  0  0  0  0
   12.3782    5.4231   20.7777 C   0  0  0  0  0  0  0  0  0  0  0  0
    7.7365    4.6508   21.6987 C   0  0  0  0  0  0  0  0  0  0  0  0
   13.0186   11.0102   18.0020 C   0  0  0  0  0  0  0  0  0  0  0  0
    8.6628    5.7088   21.8871 N   0  0  0  0  0  0  0  0  0  0  0  0
    5.6516    3.5258   21.9140 C   0  0  0  0  0  0  0  0  0  0  0  0
   11.5863    9.6815   19.4539 C   0  0  0  0  0  0  0  0  0  0  0  0
   12.9648    4.1543   20.9205 C   0  0  0  0  0  0  0  0  0  0  0  0
    8.2089    3.6265   20.8929 C   0  0  0  0  0  0  0  0  0  0  0  0
    7.3827    2.5724   20.5432 C   0  0  0  0  0  0  0  0  0  0  0  0
   11.1529    7.2750   20.8025 C   0  0  0  0  0  0  0  0  0  0  0  0
   10.2573    8.3215   20.9827 C   0  0  0  0  0  0  0  0  0  0  0  0
   11.1606    5.9378   21.2366 N   0  0  0  0  0  0  0  0  0  0  0  0
    9.8932   11.6736   19.0677 O   0  0  0  0  0  0  0  0  0  0  0  0
    6.4470    4.5850   22.2321 C   0  0  0  0  0  0  0  0  0  0  0  0
    8.4619    6.9895   22.2968 C   0  0  0  0  0  0  0  0  0  0  0  0
   12.2747    7.5102   20.0420 C   0  0  0  0  0  0  0  0  0  0  0  0
   14.2544    6.2142   19.4191 C   0  0  0  0  0  0  0  0  0  0  0  0
   13.0695    6.3705   20.0375 N   0  0  0  0  0  0  0  0  0  0  0  0
    9.1913    8.0876   21.8361 N   0  0  0  0  0  0  0  0  0  0  0  0
   10.4739    9.4813   20.2889 C   0  0  0  0  0  0  0  0  0  0  0  0
    7.5551    7.1270   23.1200 O   0  0  0  0  0  0  0  0  0  0  0  0
  1 11  4  0
  1 21  4  0
  2  4  1  0
  2  8  1  0
  2 11  1  0
  3 10  4  0
  3 14  4  0
  4  5  1  0
  4 18  2  0
  6 12  1  0
  6 17  4  0
  6 23  4  0
  7  9  1  0
  7 13  4  0
  7 19  4  0
  9 20  1  0
 10 19  4  0
 11 25  4  0
 13 14  4  0
 15 16  4  0
 15 17  4  0
 15 21  4  0
 16 24  1  0
 16 25  4  0
 20 24  1  0
 20 26  2  0
 21 23  4  0
 22 23  1  0
M  END
$$$$

 Created by Python create_sdf_string function

 26 28  0  0  0  0  0  0  0  0999 V2000
   12.4616    8.6700   19.4180 N   0  0  0  0  0  0  0  0  0  0  0  0
   11.8329   10.8148   18.6769 N   0  0  0  0  0  0  0  0  0  0  0  0
    6.1021    2.5564   21.0678 C   0  0  0  0  0  0  0  0  0  0  0  0
   10.9097   11.8051   18.4804 C   0  0  0  0  0  0  0  0  0  0  0  0
   11.2280   12.9135   17.5669 C   0  0  0  0  0  0  0  0  0  0  0  0
   12.3782    5.4231   20.7777 C   0  0  0  0  0  0  0  0  0  0  0  0
    7.7365    4.6508   21.6987 C   0  0  0  0  0  0  0  0  0  0  0  0
   13.0186   11.0102   18.0020 C   0  0  0  0  0  0  0  0  0  0  0  0
    8.6628    5.7088   21.8871 N   0  0  0  0  0  0  0  0  0  0  0  0
    5.6516    3.5258   21.9140 C   0  0  0  0  0  0  0  0  0  0  0  0
   11.5863    9.6815   19.4539 C   0  0  0  0  0  0  0  0  0  0  0  0
   12.9648    4.1543   20.9205 C   0  0  0  0  0  0  0  0  0  0  0  0
    8.2089    3.6265   20.8929 C   0  0  0  0  0  0  0  0  0  0  0  0
    7.3827    2.5724   20.5432 C   0  0  0  0  0  0  0  0  0  0  0  0
   11.1529    7.2750   20.8025 C   0  0  0  0  0  0  0  0  0  0  0  0
   10.2573    8.3215   20.9827 C   0  0  0  0  0  0  0  0  0  0  0  0
   11.1606    5.9378   21.2366 N   0  0  0  0  0  0  0  0  0  0  0  0
    9.8932   11.6736   19.0677 O   0  0  0  0  0  0  0  0  0  0  0  0
    6.4470    4.5850   22.2321 C   0  0  0  0  0  0  0  0  0  0  0  0
    8.4619    6.9895   22.2968 C   0  0  0  0  0  0  0  0  0  0  0  0
   12.2747    7.5102   20.0420 C   0  0  0  0  0  0  0  0  0  0  0  0
   14.2544    6.2142   19.4191 C   0  0  0  0  0  0  0  0  0  0  0  0
   13.0695    6.3705   20.0375 N   0  0  0  0  0  0  0  0  0  0  0  0
    9.1913    8.0876   21.8361 N   0  0  0  0  0  0  0  0  0  0  0  0
   10.4739    9.4813   20.2889 C   0  0  0  0  0  0  0  0  0  0  0  0
    7.5551    7.1270   23.1200 O   0  0  0  0  0  0  0  0  0  0  0  0
  1 11  4  0
  1 21  4  0
  2  4  1  0
  2  8  1  0
  2 11  1  0
  3 10  4  0
  3 14  4  0
  4  5  1  0
  4 18  2  0
  6 12  1  0
  6 17  4  0
  6 23  4  0
  7  9  1  0
  7 13  4  0
  7 19  4  0
  9 20  1  0
 10 19  4  0
 11 25  4  0
 13 14  4  0
 15 16  4  0
 15 17  4  0
 15 21  4  0
 16 24  1  0
 16 25  4  0
 20 24  1  0
 20 26  2  0
 21 23  4  0
 22 23  1  0
M  END
$$$$

 Created by Python create_sdf_string function

 26 28  0  0  0  0  0  0  0  0999 V2000
   12.4616    8.6700   19.4180 N   0  0  0  0  0  0  0  0  0  0  0  0
   11.8329   10.8148   18.6769 N   0  0  0  0  0  0  0  0  0  0  0  0
    6.1021    2.5564   21.0678 C   0  0  0  0  0  0  0  0  0  0  0  0
   10.9097   11.8051   18.4804 C   0  0  0  0  0  0  0  0  0  0  0  0
   11.2280   12.9135   17.5669 C   0  0  0  0  0  0  0  0  0  0  0  0
   12.3782    5.4231   20.7777 C   0  0  0  0  0  0  0  0  0  0  0  0
    7.7365    4.6508   21.6987 C   0  0  0  0  0  0  0  0  0  0  0  0
   13.0186   11.0102   18.0020 C   0  0  0  0  0  0  0  0  0  0  0  0
    8.6628    5.7088   21.8871 N   0  0  0  0  0  0  0  0  0  0  0  0
    5.6516    3.5258   21.9140 C   0  0  0  0  0  0  0  0  0  0  0  0
   11.5863    9.6815   19.4539 C   0  0  0  0  0  0  0  0  0  0  0  0
   12.9648    4.1543   20.9205 C   0  0  0  0  0  0  0  0  0  0  0  0
    8.2089    3.6265   20.8929 C   0  0  0  0  0  0  0  0  0  0  0  0
    7.3827    2.5724   20.5432 C   0  0  0  0  0  0  0  0  0  0  0  0
   11.1529    7.2750   20.8025 C   0  0  0  0  0  0  0  0  0  0  0  0
   10.2573    8.3215   20.9827 C   0  0  0  0  0  0  0  0  0  0  0  0
   11.1606    5.9378   21.2366 N   0  0  0  0  0  0  0  0  0  0  0  0
    9.8932   11.6736   19.0677 O   0  0  0  0  0  0  0  0  0  0  0  0
    6.4470    4.5850   22.2321 C   0  0  0  0  0  0  0  0  0  0  0  0
    8.4619    6.9895   22.2968 C   0  0  0  0  0  0  0  0  0  0  0  0
   12.2747    7.5102   20.0420 C   0  0  0  0  0  0  0  0  0  0  0  0
   14.2544    6.2142   19.4191 C   0  0  0  0  0  0  0  0  0  0  0  0
   13.0695    6.3705   20.0375 N   0  0  0  0  0  0  0  0  0  0  0  0
    9.1913    8.0876   21.8361 N   0  0  0  0  0  0  0  0  0  0  0  0
   10.4739    9.4813   20.2889 C   0  0  0  0  0  0  0  0  0  0  0  0
    7.5551    7.1270   23.1200 O   0  0  0  0  0  0  0  0  0  0  0  0
  1 11  4  0
  1 21  4  0
  2  4  1  0
  2  8  1  0
  2 11  1  0
  3 10  4  0
  3 14  4  0
  4  5  1  0
  4 18  2  0
  6 12  1  0
  6 17  4  0
  6 23  4  0
  7  9  1  0
  7 13  4  0
  7 19  4  0
  9 20  1  0
 10 19  4  0
 11 25  4  0
 13 14  4  0
 15 16  4  0
 15 17  4  0
 15 21  4  0
 16 24  1  0
 16 25  4  0
 20 24  1  0
 20 26  2  0
 21 23  4  0
 22 23  1  0
M  END
$$$$

 Created by Python create_sdf_string function

 26 28  0  0  0  0  0  0  0  0999 V2000
   12.4616    8.6700   19.4180 N   0  0  0  0  0  0  0  0  0  0  0  0
   11.8329   10.8148   18.6769 N   0  0  0  0  0  0  0  0  0  0  0  0
    6.1021    2.5564   21.0678 C   0  0  0  0  0  0  0  0  0  0  0  0
   10.9097   11.8051   18.4804 C   0  0  0  0  0  0  0  0  0  0  0  0
   11.2280   12.9135   17.5669 C   0  0  0  0  0  0  0  0  0  0  0  0
   12.3782    5.4231   20.7777 C   0  0  0  0  0  0  0  0  0  0  0  0
    7.7365    4.6508   21.6987 C   0  0  0  0  0  0  0  0  0  0  0  0
   13.0186   11.0102   18.0020 C   0  0  0  0  0  0  0  0  0  0  0  0
    8.6628    5.7088   21.8871 N   0  0  0  0  0  0  0  0  0  0  0  0
    5.6516    3.5258   21.9140 C   0  0  0  0  0  0  0  0  0  0  0  0
   11.5863    9.6815   19.4539 C   0  0  0  0  0  0  0  0  0  0  0  0
   12.9648    4.1543   20.9205 C   0  0  0  0  0  0  0  0  0  0  0  0
    8.2089    3.6265   20.8929 C   0  0  0  0  0  0  0  0  0  0  0  0
    7.3827    2.5724   20.5432 C   0  0  0  0  0  0  0  0  0  0  0  0
   11.1529    7.2750   20.8025 C   0  0  0  0  0  0  0  0  0  0  0  0
   10.2573    8.3215   20.9827 C   0  0  0  0  0  0  0  0  0  0  0  0
   11.1606    5.9378   21.2366 N   0  0  0  0  0  0  0  0  0  0  0  0
    9.8932   11.6736   19.0677 O   0  0  0  0  0  0  0  0  0  0  0  0
    6.4470    4.5850   22.2321 C   0  0  0  0  0  0  0  0  0  0  0  0
    8.4619    6.9895   22.2968 C   0  0  0  0  0  0  0  0  0  0  0  0
   12.2747    7.5102   20.0420 C   0  0  0  0  0  0  0  0  0  0  0  0
   14.2544    6.2142   19.4191 C   0  0  0  0  0  0  0  0  0  0  0  0
   13.0695    6.3705   20.0375 N   0  0  0  0  0  0  0  0  0  0  0  0
    9.1913    8.0876   21.8361 N   0  0  0  0  0  0  0  0  0  0  0  0
   10.4739    9.4813   20.2889 C   0  0  0  0  0  0  0  0  0  0  0  0
    7.5551    7.1270   23.1200 O   0  0  0  0  0  0  0  0  0  0  0  0
  1 11  4  0
  1 21  4  0
  2  4  1  0
  2  8  1  0
  2 11  1  0
  3 10  4  0
  3 14  4  0
  4  5  1  0
  4 18  2  0
  6 12  1  0
  6 17  4  0
  6 23  4  0
  7  9  1  0
  7 13  4  0
  7 19  4  0
  9 20  1  0
 10 19  4  0
 11 25  4  0
 13 14  4  0
 15 16  4  0
 15 17  4  0
 15 21  4  0
 16 24  1  0
 16 25  4  0
 20 24  1  0
 20 26  2  0
 21 23  4  0
 22 23  1  0
M  END
$$$$

 Created by Python create_sdf_string function

 26 28  0  0  0  0  0  0  0  0999 V2000
   12.4616    8.6700   19.4180 N   0  0  0  0  0  0  0  0  0  0  0  0
   11.8329   10.8148   18.6769 N   0  0  0  0  0  0  0  0  0  0  0  0
    6.1021    2.5564   21.0678 C   0  0  0  0  0  0  0  0  0  0  0  0
   10.9097   11.8051   18.4804 C   0  0  0  0  0  0  0  0  0  0  0  0
   11.2280   12.9135   17.5669 C   0  0  0  0  0  0  0  0  0  0  0  0
   12.3782    5.4231   20.7777 C   0  0  0  0  0  0  0  0  0  0  0  0
    7.7365    4.6508   21.6987 C   0  0  0  0  0  0  0  0  0  0  0  0
   13.0186   11.0102   18.0020 C   0  0  0  0  0  0  0  0  0  0  0  0
    8.6628    5.7088   21.8871 N   0  0  0  0  0  0  0  0  0  0  0  0
    5.6516    3.5258   21.9140 C   0  0  0  0  0  0  0  0  0  0  0  0
   11.5863    9.6815   19.4539 C   0  0  0  0  0  0  0  0  0  0  0  0
   12.9648    4.1543   20.9205 C   0  0  0  0  0  0  0  0  0  0  0  0
    8.2089    3.6265   20.8929 C   0  0  0  0  0  0  0  0  0  0  0  0
    7.3827    2.5724   20.5432 C   0  0  0  0  0  0  0  0  0  0  0  0
   11.1529    7.2750   20.8025 C   0  0  0  0  0  0  0  0  0  0  0  0
   10.2573    8.3215   20.9827 C   0  0  0  0  0  0  0  0  0  0  0  0
   11.1606    5.9378   21.2366 N   0  0  0  0  0  0  0  0  0  0  0  0
    9.8932   11.6736   19.0677 O   0  0  0  0  0  0  0  0  0  0  0  0
    6.4470    4.5850   22.2321 C   0  0  0  0  0  0  0  0  0  0  0  0
    8.4619    6.9895   22.2968 C   0  0  0  0  0  0  0  0  0  0  0  0
   12.2747    7.5102   20.0420 C   0  0  0  0  0  0  0  0  0  0  0  0
   14.2544    6.2142   19.4191 C   0  0  0  0  0  0  0  0  0  0  0  0
   13.0695    6.3705   20.0375 N   0  0  0  0  0  0  0  0  0  0  0  0
    9.1913    8.0876   21.8361 N   0  0  0  0  0  0  0  0  0  0  0  0
   10.4739    9.4813   20.2889 C   0  0  0  0  0  0  0  0  0  0  0  0
    7.5551    7.1270   23.1200 O   0  0  0  0  0  0  0  0  0  0  0  0
  1 11  4  0
  1 21  4  0
  2  4  1  0
  2  8  1  0
  2 11  1  0
  3 10  4  0
  3 14  4  0
  4  5  1  0
  4 18  2  0
  6 12  1  0
  6 17  4  0
  6 23  4  0
  7  9  1  0
  7 13  4  0
  7 19  4  0
  9 20  1  0
 10 19  4  0
 11 25  4  0
 13 14  4  0
 15 16  4  0
 15 17  4  0
 15 21  4  0
 16 24  1  0
 16 25  4  0
 20 24  1  0
 20 26  2  0
 21 23  4  0
 22 23  1  0
M  END
$$$$

 Created by Python create_sdf_string function

 26 28  0  0  0  0  0  0  0  0999 V2000
   12.4616    8.6700   19.4180 N   0  0  0  0  0  0  0  0  0  0  0  0
   11.8329   10.8148   18.6769 N   0  0  0  0  0  0  0  0  0  0  0  0
    6.1021    2.5564   21.0678 C   0  0  0  0  0  0  0  0  0  0  0  0
   10.9097   11.8051   18.4804 C   0  0  0  0  0  0  0  0  0  0  0  0
   11.2280   12.9135   17.5669 C   0  0  0  0  0  0  0  0  0  0  0  0
   12.3782    5.4231   20.7777 C   0  0  0  0  0  0  0  0  0  0  0  0
    7.7365    4.6508   21.6987 C   0  0  0  0  0  0  0  0  0  0  0  0
   13.0186   11.0102   18.0020 C   0  0  0  0  0  0  0  0  0  0  0  0
    8.6628    5.7088   21.8871 N   0  0  0  0  0  0  0  0  0  0  0  0
    5.6516    3.5258   21.9140 C   0  0  0  0  0  0  0  0  0  0  0  0
   11.5863    9.6815   19.4539 C   0  0  0  0  0  0  0  0  0  0  0  0
   12.9648    4.1543   20.9205 C   0  0  0  0  0  0  0  0  0  0  0  0
    8.2089    3.6265   20.8929 C   0  0  0  0  0  0  0  0  0  0  0  0
    7.3827    2.5724   20.5432 C   0  0  0  0  0  0  0  0  0  0  0  0
   11.1529    7.2750   20.8025 C   0  0  0  0  0  0  0  0  0  0  0  0
   10.2573    8.3215   20.9827 C   0  0  0  0  0  0  0  0  0  0  0  0
   11.1606    5.9378   21.2366 N   0  0  0  0  0  0  0  0  0  0  0  0
    9.8932   11.6736   19.0677 O   0  0  0  0  0  0  0  0  0  0  0  0
    6.4470    4.5850   22.2321 C   0  0  0  0  0  0  0  0  0  0  0  0
    8.4619    6.9895   22.2968 C   0  0  0  0  0  0  0  0  0  0  0  0
   12.2747    7.5102   20.0420 C   0  0  0  0  0  0  0  0  0  0  0  0
   14.2544    6.2142   19.4191 C   0  0  0  0  0  0  0  0  0  0  0  0
   13.0695    6.3705   20.0375 N   0  0  0  0  0  0  0  0  0  0  0  0
    9.1913    8.0876   21.8361 N   0  0  0  0  0  0  0  0  0  0  0  0
   10.4739    9.4813   20.2889 C   0  0  0  0  0  0  0  0  0  0  0  0
    7.5551    7.1270   23.1200 O   0  0  0  0  0  0  0  0  0  0  0  0
  1 11  4  0
  1 21  4  0
  2  4  1  0
  2  8  1  0
  2 11  1  0
  3 10  4  0
  3 14  4  0
  4  5  1  0
  4 18  2  0
  6 12  1  0
  6 17  4  0
  6 23  4  0
  7  9  1  0
  7 13  4  0
  7 19  4  0
  9 20  1  0
 10 19  4  0
 11 25  4  0
 13 14  4  0
 15 16  4  0
 15 17  4  0
 15 21  4  0
 16 24  1  0
 16 25  4  0
 20 24  1  0
 20 26  2  0
 21 23  4  0
 22 23  1  0
M  END
$$$$

 Created by Python create_sdf_string function

 26 28  0  0  0  0  0  0  0  0999 V2000
   12.4616    8.6700   19.4180 N   0  0  0  0  0  0  0  0  0  0  0  0
   11.8329   10.8148   18.6769 N   0  0  0  0  0  0  0  0  0  0  0  0
    6.1021    2.5564   21.0678 C   0  0  0  0  0  0  0  0  0  0  0  0
   10.9097   11.8051   18.4804 C   0  0  0  0  0  0  0  0  0  0  0  0
   11.2280   12.9135   17.5669 C   0  0  0  0  0  0  0  0  0  0  0  0
   12.3782    5.4231   20.7777 C   0  0  0  0  0  0  0  0  0  0  0  0
    7.7365    4.6508   21.6987 C   0  0  0  0  0  0  0  0  0  0  0  0
   13.0186   11.0102   18.0020 C   0  0  0  0  0  0  0  0  0  0  0  0
    8.6628    5.7088   21.8871 N   0  0  0  0  0  0  0  0  0  0  0  0
    5.6516    3.5258   21.9140 C   0  0  0  0  0  0  0  0  0  0  0  0
   11.5863    9.6815   19.4539 C   0  0  0  0  0  0  0  0  0  0  0  0
   12.9648    4.1543   20.9205 C   0  0  0  0  0  0  0  0  0  0  0  0
    8.2089    3.6265   20.8929 C   0  0  0  0  0  0  0  0  0  0  0  0
    7.3827    2.5724   20.5432 C   0  0  0  0  0  0  0  0  0  0  0  0
   11.1529    7.2750   20.8025 C   0  0  0  0  0  0  0  0  0  0  0  0
   10.2573    8.3215   20.9827 C   0  0  0  0  0  0  0  0  0  0  0  0
   11.1606    5.9378   21.2366 N   0  0  0  0  0  0  0  0  0  0  0  0
    9.8932   11.6736   19.0677 O   0  0  0  0  0  0  0  0  0  0  0  0
    6.4470    4.5850   22.2321 C   0  0  0  0  0  0  0  0  0  0  0  0
    8.4619    6.9895   22.2968 C   0  0  0  0  0  0  0  0  0  0  0  0
   12.2747    7.5102   20.0420 C   0  0  0  0  0  0  0  0  0  0  0  0
   14.2544    6.2142   19.4191 C   0  0  0  0  0  0  0  0  0  0  0  0
   13.0695    6.3705   20.0375 N   0  0  0  0  0  0  0  0  0  0  0  0
    9.1913    8.0876   21.8361 N   0  0  0  0  0  0  0  0  0  0  0  0
   10.4739    9.4813   20.2889 C   0  0  0  0  0  0  0  0  0  0  0  0
    7.5551    7.1270   23.1200 O   0  0  0  0  0  0  0  0  0  0  0  0
  1 11  4  0
  1 21  4  0
  2  4  1  0
  2  8  1  0
  2 11  1  0
  3 10  4  0
  3 14  4  0
  4  5  1  0
  4 18  2  0
  6 12  1  0
  6 17  4  0
  6 23  4  0
  7  9  1  0
  7 13  4  0
  7 19  4  0
  9 20  1  0
 10 19  4  0
 11 25  4  0
 13 14  4  0
 15 16  4  0
 15 17  4  0
 15 21  4  0
 16 24  1  0
 16 25  4  0
 20 24  1  0
 20 26  2  0
 21 23  4  0
 22 23  1  0
M  END
$$$$

 Created by Python create_sdf_string function

 26 28  0  0  0  0  0  0  0  0999 V2000
   12.4616    8.6700   19.4180 N   0  0  0  0  0  0  0  0  0  0  0  0
   11.8329   10.8148   18.6769 N   0  0  0  0  0  0  0  0  0  0  0  0
    6.1021    2.5564   21.0678 C   0  0  0  0  0  0  0  0  0  0  0  0
   10.9097   11.8051   18.4804 C   0  0  0  0  0  0  0  0  0  0  0  0
   11.2280   12.9135   17.5669 C   0  0  0  0  0  0  0  0  0  0  0  0
   12.3782    5.4231   20.7777 C   0  0  0  0  0  0  0  0  0  0  0  0
    7.7365    4.6508   21.6987 C   0  0  0  0  0  0  0  0  0  0  0  0
   13.0186   11.0102   18.0020 C   0  0  0  0  0  0  0  0  0  0  0  0
    8.6628    5.7088   21.8871 N   0  0  0  0  0  0  0  0  0  0  0  0
    5.6516    3.5258   21.9140 C   0  0  0  0  0  0  0  0  0  0  0  0
   11.5863    9.6815   19.4539 C   0  0  0  0  0  0  0  0  0  0  0  0
   12.9648    4.1543   20.9205 C   0  0  0  0  0  0  0  0  0  0  0  0
    8.2089    3.6265   20.8929 C   0  0  0  0  0  0  0  0  0  0  0  0
    7.3827    2.5724   20.5432 C   0  0  0  0  0  0  0  0  0  0  0  0
   11.1529    7.2750   20.8025 C   0  0  0  0  0  0  0  0  0  0  0  0
   10.2573    8.3215   20.9827 C   0  0  0  0  0  0  0  0  0  0  0  0
   11.1606    5.9378   21.2366 N   0  0  0  0  0  0  0  0  0  0  0  0
    9.8932   11.6736   19.0677 O   0  0  0  0  0  0  0  0  0  0  0  0
    6.4470    4.5850   22.2321 C   0  0  0  0  0  0  0  0  0  0  0  0
    8.4619    6.9895   22.2968 C   0  0  0  0  0  0  0  0  0  0  0  0
   12.2747    7.5102   20.0420 C   0  0  0  0  0  0  0  0  0  0  0  0
   14.2544    6.2142   19.4191 C   0  0  0  0  0  0  0  0  0  0  0  0
   13.0695    6.3705   20.0375 N   0  0  0  0  0  0  0  0  0  0  0  0
    9.1913    8.0876   21.8361 N   0  0  0  0  0  0  0  0  0  0  0  0
   10.4739    9.4813   20.2889 C   0  0  0  0  0  0  0  0  0  0  0  0
    7.5551    7.1270   23.1200 O   0  0  0  0  0  0  0  0  0  0  0  0
  1 11  4  0
  1 21  4  0
  2  4  1  0
  2  8  1  0
  2 11  1  0
  3 10  4  0
  3 14  4  0
  4  5  1  0
  4 18  2  0
  6 12  1  0
  6 17  4  0
  6 23  4  0
  7  9  1  0
  7 13  4  0
  7 19  4  0
  9 20  1  0
 10 19  4  0
 11 25  4  0
 13 14  4  0
 15 16  4  0
 15 17  4  0
 15 21  4  0
 16 24  1  0
 16 25  4  0
 20 24  1  0
 20 26  2  0
 21 23  4  0
 22 23  1  0
M  END
$$$$

 Created by Python create_sdf_string function

 26 28  0  0  0  0  0  0  0  0999 V2000
   12.4616    8.6700   19.4180 N   0  0  0  0  0  0  0  0  0  0  0  0
   11.8329   10.8148   18.6769 N   0  0  0  0  0  0  0  0  0  0  0  0
    6.1021    2.5564   21.0678 C   0  0  0  0  0  0  0  0  0  0  0  0
   10.9097   11.8051   18.4804 C   0  0  0  0  0  0  0  0  0  0  0  0
   11.2280   12.9135   17.5669 C   0  0  0  0  0  0  0  0  0  0  0  0
   12.3782    5.4231   20.7777 C   0  0  0  0  0  0  0  0  0  0  0  0
    7.7365    4.6508   21.6987 C   0  0  0  0  0  0  0  0  0  0  0  0
   13.0186   11.0102   18.0020 C   0  0  0  0  0  0  0  0  0  0  0  0
    8.6628    5.7088   21.8871 N   0  0  0  0  0  0  0  0  0  0  0  0
    5.6516    3.5258   21.9140 C   0  0  0  0  0  0  0  0  0  0  0  0
   11.5863    9.6815   19.4539 C   0  0  0  0  0  0  0  0  0  0  0  0
   12.9648    4.1543   20.9205 C   0  0  0  0  0  0  0  0  0  0  0  0
    8.2089    3.6265   20.8929 C   0  0  0  0  0  0  0  0  0  0  0  0
    7.3827    2.5724   20.5432 C   0  0  0  0  0  0  0  0  0  0  0  0
   11.1529    7.2750   20.8025 C   0  0  0  0  0  0  0  0  0  0  0  0
   10.2573    8.3215   20.9827 C   0  0  0  0  0  0  0  0  0  0  0  0
   11.1606    5.9378   21.2366 N   0  0  0  0  0  0  0  0  0  0  0  0
    9.8932   11.6736   19.0677 O   0  0  0  0  0  0  0  0  0  0  0  0
    6.4470    4.5850   22.2321 C   0  0  0  0  0  0  0  0  0  0  0  0
    8.4619    6.9895   22.2968 C   0  0  0  0  0  0  0  0  0  0  0  0
   12.2747    7.5102   20.0420 C   0  0  0  0  0  0  0  0  0  0  0  0
   14.2544    6.2142   19.4191 C   0  0  0  0  0  0  0  0  0  0  0  0
   13.0695    6.3705   20.0375 N   0  0  0  0  0  0  0  0  0  0  0  0
    9.1913    8.0876   21.8361 N   0  0  0  0  0  0  0  0  0  0  0  0
   10.4739    9.4813   20.2889 C   0  0  0  0  0  0  0  0  0  0  0  0
    7.5551    7.1270   23.1200 O   0  0  0  0  0  0  0  0  0  0  0  0
  1 11  4  0
  1 21  4  0
  2  4  1  0
  2  8  1  0
  2 11  1  0
  3 10  4  0
  3 14  4  0
  4  5  1  0
  4 18  2  0
  6 12  1  0
  6 17  4  0
  6 23  4  0
  7  9  1  0
  7 13  4  0
  7 19  4  0
  9 20  1  0
 10 19  4  0
 11 25  4  0
 13 14  4  0
 15 16  4  0
 15 17  4  0
 15 21  4  0
 16 24  1  0
 16 25  4  0
 20 24  1  0
 20 26  2  0
 21 23  4  0
 22 23  1  0
M  END
$$$$

 Created by Python create_sdf_string function

 26 28  0  0  0  0  0  0  0  0999 V2000
   12.4616    8.6700   19.4180 N   0  0  0  0  0  0  0  0  0  0  0  0
   11.8329   10.8148   18.6769 N   0  0  0  0  0  0  0  0  0  0  0  0
    6.1021    2.5564   21.0678 C   0  0  0  0  0  0  0  0  0  0  0  0
   10.9097   11.8051   18.4804 C   0  0  0  0  0  0  0  0  0  0  0  0
   11.2280   12.9135   17.5669 C   0  0  0  0  0  0  0  0  0  0  0  0
   12.3782    5.4231   20.7777 C   0  0  0  0  0  0  0  0  0  0  0  0
    7.7365    4.6508   21.6987 C   0  0  0  0  0  0  0  0  0  0  0  0
   13.0186   11.0102   18.0020 C   0  0  0  0  0  0  0  0  0  0  0  0
    8.6628    5.7088   21.8871 N   0  0  0  0  0  0  0  0  0  0  0  0
    5.6516    3.5258   21.9140 C   0  0  0  0  0  0  0  0  0  0  0  0
   11.5863    9.6815   19.4539 C   0  0  0  0  0  0  0  0  0  0  0  0
   12.9648    4.1543   20.9205 C   0  0  0  0  0  0  0  0  0  0  0  0
    8.2089    3.6265   20.8929 C   0  0  0  0  0  0  0  0  0  0  0  0
    7.3827    2.5724   20.5432 C   0  0  0  0  0  0  0  0  0  0  0  0
   11.1529    7.2750   20.8025 C   0  0  0  0  0  0  0  0  0  0  0  0
   10.2573    8.3215   20.9827 C   0  0  0  0  0  0  0  0  0  0  0  0
   11.1606    5.9378   21.2366 N   0  0  0  0  0  0  0  0  0  0  0  0
    9.8932   11.6736   19.0677 O   0  0  0  0  0  0  0  0  0  0  0  0
    6.4470    4.5850   22.2321 C   0  0  0  0  0  0  0  0  0  0  0  0
    8.4619    6.9895   22.2968 C   0  0  0  0  0  0  0  0  0  0  0  0
   12.2747    7.5102   20.0420 C   0  0  0  0  0  0  0  0  0  0  0  0
   14.2544    6.2142   19.4191 C   0  0  0  0  0  0  0  0  0  0  0  0
   13.0695    6.3705   20.0375 N   0  0  0  0  0  0  0  0  0  0  0  0
    9.1913    8.0876   21.8361 N   0  0  0  0  0  0  0  0  0  0  0  0
   10.4739    9.4813   20.2889 C   0  0  0  0  0  0  0  0  0  0  0  0
    7.5551    7.1270   23.1200 O   0  0  0  0  0  0  0  0  0  0  0  0
  1 11  4  0
  1 21  4  0
  2  4  1  0
  2  8  1  0
  2 11  1  0
  3 10  4  0
  3 14  4  0
  4  5  1  0
  4 18  2  0
  6 12  1  0
  6 17  4  0
  6 23  4  0
  7  9  1  0
  7 13  4  0
  7 19  4  0
  9 20  1  0
 10 19  4  0
 11 25  4  0
 13 14  4  0
 15 16  4  0
 15 17  4  0
 15 21  4  0
 16 24  1  0
 16 25  4  0
 20 24  1  0
 20 26  2  0
 21 23  4  0
 22 23  1  0
M  END
$$$$

 Created by Python create_sdf_string function

 26 28  0  0  0  0  0  0  0  0999 V2000
   12.4616    8.6700   19.4180 N   0  0  0  0  0  0  0  0  0  0  0  0
   11.8329   10.8148   18.6769 N   0  0  0  0  0  0  0  0  0  0  0  0
    6.1021    2.5564   21.0678 C   0  0  0  0  0  0  0  0  0  0  0  0
   10.9097   11.8051   18.4804 C   0  0  0  0  0  0  0  0  0  0  0  0
   11.2280   12.9135   17.5669 C   0  0  0  0  0  0  0  0  0  0  0  0
   12.3782    5.4231   20.7777 C   0  0  0  0  0  0  0  0  0  0  0  0
    7.7365    4.6508   21.6987 C   0  0  0  0  0  0  0  0  0  0  0  0
   13.0186   11.0102   18.0020 C   0  0  0  0  0  0  0  0  0  0  0  0
    8.6628    5.7088   21.8871 N   0  0  0  0  0  0  0  0  0  0  0  0
    5.6516    3.5258   21.9140 C   0  0  0  0  0  0  0  0  0  0  0  0
   11.5863    9.6815   19.4539 C   0  0  0  0  0  0  0  0  0  0  0  0
   12.9648    4.1543   20.9205 C   0  0  0  0  0  0  0  0  0  0  0  0
    8.2089    3.6265   20.8929 C   0  0  0  0  0  0  0  0  0  0  0  0
    7.3827    2.5724   20.5432 C   0  0  0  0  0  0  0  0  0  0  0  0
   11.1529    7.2750   20.8025 C   0  0  0  0  0  0  0  0  0  0  0  0
   10.2573    8.3215   20.9827 C   0  0  0  0  0  0  0  0  0  0  0  0
   11.1606    5.9378   21.2366 N   0  0  0  0  0  0  0  0  0  0  0  0
    9.8932   11.6736   19.0677 O   0  0  0  0  0  0  0  0  0  0  0  0
    6.4470    4.5850   22.2321 C   0  0  0  0  0  0  0  0  0  0  0  0
    8.4619    6.9895   22.2968 C   0  0  0  0  0  0  0  0  0  0  0  0
   12.2747    7.5102   20.0420 C   0  0  0  0  0  0  0  0  0  0  0  0
   14.2544    6.2142   19.4191 C   0  0  0  0  0  0  0  0  0  0  0  0
   13.0695    6.3705   20.0375 N   0  0  0  0  0  0  0  0  0  0  0  0
    9.1913    8.0876   21.8361 N   0  0  0  0  0  0  0  0  0  0  0  0
   10.4739    9.4813   20.2889 C   0  0  0  0  0  0  0  0  0  0  0  0
    7.5551    7.1270   23.1200 O   0  0  0  0  0  0  0  0  0  0  0  0
  1 11  4  0
  1 21  4  0
  2  4  1  0
  2  8  1  0
  2 11  1  0
  3 10  4  0
  3 14  4  0
  4  5  1  0
  4 18  2  0
  6 12  1  0
  6 17  4  0
  6 23  4  0
  7  9  1  0
  7 13  4  0
  7 19  4  0
  9 20  1  0
 10 19  4  0
 11 25  4  0
 13 14  4  0
 15 16  4  0
 15 17  4  0
 15 21  4  0
 16 24  1  0
 16 25  4  0
 20 24  1  0
 20 26  2  0
 21 23  4  0
 22 23  1  0
M  END
$$$$

 Created by Python create_sdf_string function

 26 28  0  0  0  0  0  0  0  0999 V2000
   12.4616    8.6700   19.4180 N   0  0  0  0  0  0  0  0  0  0  0  0
   11.8329   10.8148   18.6769 N   0  0  0  0  0  0  0  0  0  0  0  0
    6.1021    2.5564   21.0678 C   0  0  0  0  0  0  0  0  0  0  0  0
   10.9097   11.8051   18.4804 C   0  0  0  0  0  0  0  0  0  0  0  0
   11.2280   12.9135   17.5669 C   0  0  0  0  0  0  0  0  0  0  0  0
   12.3782    5.4231   20.7777 C   0  0  0  0  0  0  0  0  0  0  0  0
    7.7365    4.6508   21.6987 C   0  0  0  0  0  0  0  0  0  0  0  0
   13.0186   11.0102   18.0020 C   0  0  0  0  0  0  0  0  0  0  0  0
    8.6628    5.7088   21.8871 N   0  0  0  0  0  0  0  0  0  0  0  0
    5.6516    3.5258   21.9140 C   0  0  0  0  0  0  0  0  0  0  0  0
   11.5863    9.6815   19.4539 C   0  0  0  0  0  0  0  0  0  0  0  0
   12.9648    4.1543   20.9205 C   0  0  0  0  0  0  0  0  0  0  0  0
    8.2089    3.6265   20.8929 C   0  0  0  0  0  0  0  0  0  0  0  0
    7.3827    2.5724   20.5432 C   0  0  0  0  0  0  0  0  0  0  0  0
   11.1529    7.2750   20.8025 C   0  0  0  0  0  0  0  0  0  0  0  0
   10.2573    8.3215   20.9827 C   0  0  0  0  0  0  0  0  0  0  0  0
   11.1606    5.9378   21.2366 N   0  0  0  0  0  0  0  0  0  0  0  0
    9.8932   11.6736   19.0677 O   0  0  0  0  0  0  0  0  0  0  0  0
    6.4470    4.5850   22.2321 C   0  0  0  0  0  0  0  0  0  0  0  0
    8.4619    6.9895   22.2968 C   0  0  0  0  0  0  0  0  0  0  0  0
   12.2747    7.5102   20.0420 C   0  0  0  0  0  0  0  0  0  0  0  0
   14.2544    6.2142   19.4191 C   0  0  0  0  0  0  0  0  0  0  0  0
   13.0695    6.3705   20.0375 N   0  0  0  0  0  0  0  0  0  0  0  0
    9.1913    8.0876   21.8361 N   0  0  0  0  0  0  0  0  0  0  0  0
   10.4739    9.4813   20.2889 C   0  0  0  0  0  0  0  0  0  0  0  0
    7.5551    7.1270   23.1200 O   0  0  0  0  0  0  0  0  0  0  0  0
  1 11  4  0
  1 21  4  0
  2  4  1  0
  2  8  1  0
  2 11  1  0
  3 10  4  0
  3 14  4  0
  4  5  1  0
  4 18  2  0
  6 12  1  0
  6 17  4  0
  6 23  4  0
  7  9  1  0
  7 13  4  0
  7 19  4  0
  9 20  1  0
 10 19  4  0
 11 25  4  0
 13 14  4  0
 15 16  4  0
 15 17  4  0
 15 21  4  0
 16 24  1  0
 16 25  4  0
 20 24  1  0
 20 26  2  0
 21 23  4  0
 22 23  1  0
M  END
$$$$

 Created by Python create_sdf_string function

 26 28  0  0  0  0  0  0  0  0999 V2000
   12.4616    8.6700   19.4180 N   0  0  0  0  0  0  0  0  0  0  0  0
   11.8329   10.8148   18.6769 N   0  0  0  0  0  0  0  0  0  0  0  0
    6.1021    2.5564   21.0678 C   0  0  0  0  0  0  0  0  0  0  0  0
   10.9097   11.8051   18.4804 C   0  0  0  0  0  0  0  0  0  0  0  0
   11.2280   12.9135   17.5669 C   0  0  0  0  0  0  0  0  0  0  0  0
   12.3782    5.4231   20.7777 C   0  0  0  0  0  0  0  0  0  0  0  0
    7.7365    4.6508   21.6987 C   0  0  0  0  0  0  0  0  0  0  0  0
   13.0186   11.0102   18.0020 C   0  0  0  0  0  0  0  0  0  0  0  0
    8.6628    5.7088   21.8871 N   0  0  0  0  0  0  0  0  0  0  0  0
    5.6516    3.5258   21.9140 C   0  0  0  0  0  0  0  0  0  0  0  0
   11.5863    9.6815   19.4539 C   0  0  0  0  0  0  0  0  0  0  0  0
   12.9648    4.1543   20.9205 C   0  0  0  0  0  0  0  0  0  0  0  0
    8.2089    3.6265   20.8929 C   0  0  0  0  0  0  0  0  0  0  0  0
    7.3827    2.5724   20.5432 C   0  0  0  0  0  0  0  0  0  0  0  0
   11.1529    7.2750   20.8025 C   0  0  0  0  0  0  0  0  0  0  0  0
   10.2573    8.3215   20.9827 C   0  0  0  0  0  0  0  0  0  0  0  0
   11.1606    5.9378   21.2366 N   0  0  0  0  0  0  0  0  0  0  0  0
    9.8932   11.6736   19.0677 O   0  0  0  0  0  0  0  0  0  0  0  0
    6.4470    4.5850   22.2321 C   0  0  0  0  0  0  0  0  0  0  0  0
    8.4619    6.9895   22.2968 C   0  0  0  0  0  0  0  0  0  0  0  0
   12.2747    7.5102   20.0420 C   0  0  0  0  0  0  0  0  0  0  0  0
   14.2544    6.2142   19.4191 C   0  0  0  0  0  0  0  0  0  0  0  0
   13.0695    6.3705   20.0375 N   0  0  0  0  0  0  0  0  0  0  0  0
    9.1913    8.0876   21.8361 N   0  0  0  0  0  0  0  0  0  0  0  0
   10.4739    9.4813   20.2889 C   0  0  0  0  0  0  0  0  0  0  0  0
    7.5551    7.1270   23.1200 O   0  0  0  0  0  0  0  0  0  0  0  0
  1 11  4  0
  1 21  4  0
  2  4  1  0
  2  8  1  0
  2 11  1  0
  3 10  4  0
  3 14  4  0
  4  5  1  0
  4 18  2  0
  6 12  1  0
  6 17  4  0
  6 23  4  0
  7  9  1  0
  7 13  4  0
  7 19  4  0
  9 20  1  0
 10 19  4  0
 11 25  4  0
 13 14  4  0
 15 16  4  0
 15 17  4  0
 15 21  4  0
 16 24  1  0
 16 25  4  0
 20 24  1  0
 20 26  2  0
 21 23  4  0
 22 23  1  0
M  END
$$$$

 Created by Python create_sdf_string function

 26 28  0  0  0  0  0  0  0  0999 V2000
   12.4616    8.6700   19.4180 N   0  0  0  0  0  0  0  0  0  0  0  0
   11.8329   10.8148   18.6769 N   0  0  0  0  0  0  0  0  0  0  0  0
    6.1021    2.5564   21.0678 C   0  0  0  0  0  0  0  0  0  0  0  0
   10.9097   11.8051   18.4804 C   0  0  0  0  0  0  0  0  0  0  0  0
   11.2280   12.9135   17.5669 C   0  0  0  0  0  0  0  0  0  0  0  0
   12.3782    5.4231   20.7777 C   0  0  0  0  0  0  0  0  0  0  0  0
    7.7365    4.6508   21.6987 C   0  0  0  0  0  0  0  0  0  0  0  0
   13.0186   11.0102   18.0020 C   0  0  0  0  0  0  0  0  0  0  0  0
    8.6628    5.7088   21.8871 N   0  0  0  0  0  0  0  0  0  0  0  0
    5.6516    3.5258   21.9140 C   0  0  0  0  0  0  0  0  0  0  0  0
   11.5863    9.6815   19.4539 C   0  0  0  0  0  0  0  0  0  0  0  0
   12.9648    4.1543   20.9205 C   0  0  0  0  0  0  0  0  0  0  0  0
    8.2089    3.6265   20.8929 C   0  0  0  0  0  0  0  0  0  0  0  0
    7.3827    2.5724   20.5432 C   0  0  0  0  0  0  0  0  0  0  0  0
   11.1529    7.2750   20.8025 C   0  0  0  0  0  0  0  0  0  0  0  0
   10.2573    8.3215   20.9827 C   0  0  0  0  0  0  0  0  0  0  0  0
   11.1606    5.9378   21.2366 N   0  0  0  0  0  0  0  0  0  0  0  0
    9.8932   11.6736   19.0677 O   0  0  0  0  0  0  0  0  0  0  0  0
    6.4470    4.5850   22.2321 C   0  0  0  0  0  0  0  0  0  0  0  0
    8.4619    6.9895   22.2968 C   0  0  0  0  0  0  0  0  0  0  0  0
   12.2747    7.5102   20.0420 C   0  0  0  0  0  0  0  0  0  0  0  0
   14.2544    6.2142   19.4191 C   0  0  0  0  0  0  0  0  0  0  0  0
   13.0695    6.3705   20.0375 N   0  0  0  0  0  0  0  0  0  0  0  0
    9.1913    8.0876   21.8361 N   0  0  0  0  0  0  0  0  0  0  0  0
   10.4739    9.4813   20.2889 C   0  0  0  0  0  0  0  0  0  0  0  0
    7.5551    7.1270   23.1200 O   0  0  0  0  0  0  0  0  0  0  0  0
  1 11  4  0
  1 21  4  0
  2  4  1  0
  2  8  1  0
  2 11  1  0
  3 10  4  0
  3 14  4  0
  4  5  1  0
  4 18  2  0
  6 12  1  0
  6 17  4  0
  6 23  4  0
  7  9  1  0
  7 13  4  0
  7 19  4  0
  9 20  1  0
 10 19  4  0
 11 25  4  0
 13 14  4  0
 15 16  4  0
 15 17  4  0
 15 21  4  0
 16 24  1  0
 16 25  4  0
 20 24  1  0
 20 26  2  0
 21 23  4  0
 22 23  1  0
M  END
$$$$

 Created by Python create_sdf_string function

 26 28  0  0  0  0  0  0  0  0999 V2000
   12.4616    8.6700   19.4180 N   0  0  0  0  0  0  0  0  0  0  0  0
   11.8329   10.8148   18.6769 N   0  0  0  0  0  0  0  0  0  0  0  0
    6.1021    2.5564   21.0678 C   0  0  0  0  0  0  0  0  0  0  0  0
   10.9097   11.8051   18.4804 C   0  0  0  0  0  0  0  0  0  0  0  0
   11.2280   12.9135   17.5669 C   0  0  0  0  0  0  0  0  0  0  0  0
   12.3782    5.4231   20.7777 C   0  0  0  0  0  0  0  0  0  0  0  0
    7.7365    4.6508   21.6987 C   0  0  0  0  0  0  0  0  0  0  0  0
   13.0186   11.0102   18.0020 C   0  0  0  0  0  0  0  0  0  0  0  0
    8.6628    5.7088   21.8871 N   0  0  0  0  0  0  0  0  0  0  0  0
    5.6516    3.5258   21.9140 C   0  0  0  0  0  0  0  0  0  0  0  0
   11.5863    9.6815   19.4539 C   0  0  0  0  0  0  0  0  0  0  0  0
   12.9648    4.1543   20.9205 C   0  0  0  0  0  0  0  0  0  0  0  0
    8.2089    3.6265   20.8929 C   0  0  0  0  0  0  0  0  0  0  0  0
    7.3827    2.5724   20.5432 C   0  0  0  0  0  0  0  0  0  0  0  0
   11.1529    7.2750   20.8025 C   0  0  0  0  0  0  0  0  0  0  0  0
   10.2573    8.3215   20.9827 C   0  0  0  0  0  0  0  0  0  0  0  0
   11.1606    5.9378   21.2366 N   0  0  0  0  0  0  0  0  0  0  0  0
    9.8932   11.6736   19.0677 O   0  0  0  0  0  0  0  0  0  0  0  0
    6.4470    4.5850   22.2321 C   0  0  0  0  0  0  0  0  0  0  0  0
    8.4619    6.9895   22.2968 C   0  0  0  0  0  0  0  0  0  0  0  0
   12.2747    7.5102   20.0420 C   0  0  0  0  0  0  0  0  0  0  0  0
   14.2544    6.2142   19.4191 C   0  0  0  0  0  0  0  0  0  0  0  0
   13.0695    6.3705   20.0375 N   0  0  0  0  0  0  0  0  0  0  0  0
    9.1913    8.0876   21.8361 N   0  0  0  0  0  0  0  0  0  0  0  0
   10.4739    9.4813   20.2889 C   0  0  0  0  0  0  0  0  0  0  0  0
    7.5551    7.1270   23.1200 O   0  0  0  0  0  0  0  0  0  0  0  0
  1 11  4  0
  1 21  4  0
  2  4  1  0
  2  8  1  0
  2 11  1  0
  3 10  4  0
  3 14  4  0
  4  5  1  0
  4 18  2  0
  6 12  1  0
  6 17  4  0
  6 23  4  0
  7  9  1  0
  7 13  4  0
  7 19  4  0
  9 20  1  0
 10 19  4  0
 11 25  4  0
 13 14  4  0
 15 16  4  0
 15 17  4  0
 15 21  4  0
 16 24  1  0
 16 25  4  0
 20 24  1  0
 20 26  2  0
 21 23  4  0
 22 23  1  0
M  END
$$$$

 Created by Python create_sdf_string function

 26 28  0  0  0  0  0  0  0  0999 V2000
   12.4616    8.6700   19.4180 N   0  0  0  0  0  0  0  0  0  0  0  0
   11.8329   10.8148   18.6769 N   0  0  0  0  0  0  0  0  0  0  0  0
    6.1021    2.5564   21.0678 C   0  0  0  0  0  0  0  0  0  0  0  0
   10.9097   11.8051   18.4804 C   0  0  0  0  0  0  0  0  0  0  0  0
   11.2280   12.9135   17.5669 C   0  0  0  0  0  0  0  0  0  0  0  0
   12.3782    5.4231   20.7777 C   0  0  0  0  0  0  0  0  0  0  0  0
    7.7365    4.6508   21.6987 C   0  0  0  0  0  0  0  0  0  0  0  0
   13.0186   11.0102   18.0020 C   0  0  0  0  0  0  0  0  0  0  0  0
    8.6628    5.7088   21.8871 N   0  0  0  0  0  0  0  0  0  0  0  0
    5.6516    3.5258   21.9140 C   0  0  0  0  0  0  0  0  0  0  0  0
   11.5863    9.6815   19.4539 C   0  0  0  0  0  0  0  0  0  0  0  0
   12.9648    4.1543   20.9205 C   0  0  0  0  0  0  0  0  0  0  0  0
    8.2089    3.6265   20.8929 C   0  0  0  0  0  0  0  0  0  0  0  0
    7.3827    2.5724   20.5432 C   0  0  0  0  0  0  0  0  0  0  0  0
   11.1529    7.2750   20.8025 C   0  0  0  0  0  0  0  0  0  0  0  0
   10.2573    8.3215   20.9827 C   0  0  0  0  0  0  0  0  0  0  0  0
   11.1606    5.9378   21.2366 N   0  0  0  0  0  0  0  0  0  0  0  0
    9.8932   11.6736   19.0677 O   0  0  0  0  0  0  0  0  0  0  0  0
    6.4470    4.5850   22.2321 C   0  0  0  0  0  0  0  0  0  0  0  0
    8.4619    6.9895   22.2968 C   0  0  0  0  0  0  0  0  0  0  0  0
   12.2747    7.5102   20.0420 C   0  0  0  0  0  0  0  0  0  0  0  0
   14.2544    6.2142   19.4191 C   0  0  0  0  0  0  0  0  0  0  0  0
   13.0695    6.3705   20.0375 N   0  0  0  0  0  0  0  0  0  0  0  0
    9.1913    8.0876   21.8361 N   0  0  0  0  0  0  0  0  0  0  0  0
   10.4739    9.4813   20.2889 C   0  0  0  0  0  0  0  0  0  0  0  0
    7.5551    7.1270   23.1200 O   0  0  0  0  0  0  0  0  0  0  0  0
  1 11  4  0
  1 21  4  0
  2  4  1  0
  2  8  1  0
  2 11  1  0
  3 10  4  0
  3 14  4  0
  4  5  1  0
  4 18  2  0
  6 12  1  0
  6 17  4  0
  6 23  4  0
  7  9  1  0
  7 13  4  0
  7 19  4  0
  9 20  1  0
 10 19  4  0
 11 25  4  0
 13 14  4  0
 15 16  4  0
 15 17  4  0
 15 21  4  0
 16 24  1  0
 16 25  4  0
 20 24  1  0
 20 26  2  0
 21 23  4  0
 22 23  1  0
M  END
$$$$

 Created by Python create_sdf_string function

 26 28  0  0  0  0  0  0  0  0999 V2000
   12.4616    8.6700   19.4180 N   0  0  0  0  0  0  0  0  0  0  0  0
   11.8329   10.8148   18.6769 N   0  0  0  0  0  0  0  0  0  0  0  0
    6.1021    2.5564   21.0678 C   0  0  0  0  0  0  0  0  0  0  0  0
   10.9097   11.8051   18.4804 C   0  0  0  0  0  0  0  0  0  0  0  0
   11.2280   12.9135   17.5669 C   0  0  0  0  0  0  0  0  0  0  0  0
   12.3782    5.4231   20.7777 C   0  0  0  0  0  0  0  0  0  0  0  0
    7.7365    4.6508   21.6987 C   0  0  0  0  0  0  0  0  0  0  0  0
   13.0186   11.0102   18.0020 C   0  0  0  0  0  0  0  0  0  0  0  0
    8.6628    5.7088   21.8871 N   0  0  0  0  0  0  0  0  0  0  0  0
    5.6516    3.5258   21.9140 C   0  0  0  0  0  0  0  0  0  0  0  0
   11.5863    9.6815   19.4539 C   0  0  0  0  0  0  0  0  0  0  0  0
   12.9648    4.1543   20.9205 C   0  0  0  0  0  0  0  0  0  0  0  0
    8.2089    3.6265   20.8929 C   0  0  0  0  0  0  0  0  0  0  0  0
    7.3827    2.5724   20.5432 C   0  0  0  0  0  0  0  0  0  0  0  0
   11.1529    7.2750   20.8025 C   0  0  0  0  0  0  0  0  0  0  0  0
   10.2573    8.3215   20.9827 C   0  0  0  0  0  0  0  0  0  0  0  0
   11.1606    5.9378   21.2366 N   0  0  0  0  0  0  0  0  0  0  0  0
    9.8932   11.6736   19.0677 O   0  0  0  0  0  0  0  0  0  0  0  0
    6.4470    4.5850   22.2321 C   0  0  0  0  0  0  0  0  0  0  0  0
    8.4619    6.9895   22.2968 C   0  0  0  0  0  0  0  0  0  0  0  0
   12.2747    7.5102   20.0420 C   0  0  0  0  0  0  0  0  0  0  0  0
   14.2544    6.2142   19.4191 C   0  0  0  0  0  0  0  0  0  0  0  0
   13.0695    6.3705   20.0375 N   0  0  0  0  0  0  0  0  0  0  0  0
    9.1913    8.0876   21.8361 N   0  0  0  0  0  0  0  0  0  0  0  0
   10.4739    9.4813   20.2889 C   0  0  0  0  0  0  0  0  0  0  0  0
    7.5551    7.1270   23.1200 O   0  0  0  0  0  0  0  0  0  0  0  0
  1 11  4  0
  1 21  4  0
  2  4  1  0
  2  8  1  0
  2 11  1  0
  3 10  4  0
  3 14  4  0
  4  5  1  0
  4 18  2  0
  6 12  1  0
  6 17  4  0
  6 23  4  0
  7  9  1  0
  7 13  4  0
  7 19  4  0
  9 20  1  0
 10 19  4  0
 11 25  4  0
 13 14  4  0
 15 16  4  0
 15 17  4  0
 15 21  4  0
 16 24  1  0
 16 25  4  0
 20 24  1  0
 20 26  2  0
 21 23  4  0
 22 23  1  0
M  END
$$$$

 Created by Python create_sdf_string function

 26 28  0  0  0  0  0  0  0  0999 V2000
   12.4616    8.6700   19.4180 N   0  0  0  0  0  0  0  0  0  0  0  0
   11.8329   10.8148   18.6769 N   0  0  0  0  0  0  0  0  0  0  0  0
    6.1021    2.5564   21.0678 C   0  0  0  0  0  0  0  0  0  0  0  0
   10.9097   11.8051   18.4804 C   0  0  0  0  0  0  0  0  0  0  0  0
   11.2280   12.9135   17.5669 C   0  0  0  0  0  0  0  0  0  0  0  0
   12.3782    5.4231   20.7777 C   0  0  0  0  0  0  0  0  0  0  0  0
    7.7365    4.6508   21.6987 C   0  0  0  0  0  0  0  0  0  0  0  0
   13.0186   11.0102   18.0020 C   0  0  0  0  0  0  0  0  0  0  0  0
    8.6628    5.7088   21.8871 N   0  0  0  0  0  0  0  0  0  0  0  0
    5.6516    3.5258   21.9140 C   0  0  0  0  0  0  0  0  0  0  0  0
   11.5863    9.6815   19.4539 C   0  0  0  0  0  0  0  0  0  0  0  0
   12.9648    4.1543   20.9205 C   0  0  0  0  0  0  0  0  0  0  0  0
    8.2089    3.6265   20.8929 C   0  0  0  0  0  0  0  0  0  0  0  0
    7.3827    2.5724   20.5432 C   0  0  0  0  0  0  0  0  0  0  0  0
   11.1529    7.2750   20.8025 C   0  0  0  0  0  0  0  0  0  0  0  0
   10.2573    8.3215   20.9827 C   0  0  0  0  0  0  0  0  0  0  0  0
   11.1606    5.9378   21.2366 N   0  0  0  0  0  0  0  0  0  0  0  0
    9.8932   11.6736   19.0677 O   0  0  0  0  0  0  0  0  0  0  0  0
    6.4470    4.5850   22.2321 C   0  0  0  0  0  0  0  0  0  0  0  0
    8.4619    6.9895   22.2968 C   0  0  0  0  0  0  0  0  0  0  0  0
   12.2747    7.5102   20.0420 C   0  0  0  0  0  0  0  0  0  0  0  0
   14.2544    6.2142   19.4191 C   0  0  0  0  0  0  0  0  0  0  0  0
   13.0695    6.3705   20.0375 N   0  0  0  0  0  0  0  0  0  0  0  0
    9.1913    8.0876   21.8361 N   0  0  0  0  0  0  0  0  0  0  0  0
   10.4739    9.4813   20.2889 C   0  0  0  0  0  0  0  0  0  0  0  0
    7.5551    7.1270   23.1200 O   0  0  0  0  0  0  0  0  0  0  0  0
  1 11  4  0
  1 21  4  0
  2  4  1  0
  2  8  1  0
  2 11  1  0
  3 10  4  0
  3 14  4  0
  4  5  1  0
  4 18  2  0
  6 12  1  0
  6 17  4  0
  6 23  4  0
  7  9  1  0
  7 13  4  0
  7 19  4  0
  9 20  1  0
 10 19  4  0
 11 25  4  0
 13 14  4  0
 15 16  4  0
 15 17  4  0
 15 21  4  0
 16 24  1  0
 16 25  4  0
 20 24  1  0
 20 26  2  0
 21 23  4  0
 22 23  1  0
M  END
$$$$

 Created by Python create_sdf_string function

 26 28  0  0  0  0  0  0  0  0999 V2000
   12.4616    8.6700   19.4180 N   0  0  0  0  0  0  0  0  0  0  0  0
   11.8329   10.8148   18.6769 N   0  0  0  0  0  0  0  0  0  0  0  0
    6.1021    2.5564   21.0678 C   0  0  0  0  0  0  0  0  0  0  0  0
   10.9097   11.8051   18.4804 C   0  0  0  0  0  0  0  0  0  0  0  0
   11.2280   12.9135   17.5669 C   0  0  0  0  0  0  0  0  0  0  0  0
   12.3782    5.4231   20.7777 C   0  0  0  0  0  0  0  0  0  0  0  0
    7.7365    4.6508   21.6987 C   0  0  0  0  0  0  0  0  0  0  0  0
   13.0186   11.0102   18.0020 C   0  0  0  0  0  0  0  0  0  0  0  0
    8.6628    5.7088   21.8871 N   0  0  0  0  0  0  0  0  0  0  0  0
    5.6516    3.5258   21.9140 C   0  0  0  0  0  0  0  0  0  0  0  0
   11.5863    9.6815   19.4539 C   0  0  0  0  0  0  0  0  0  0  0  0
   12.9648    4.1543   20.9205 C   0  0  0  0  0  0  0  0  0  0  0  0
    8.2089    3.6265   20.8929 C   0  0  0  0  0  0  0  0  0  0  0  0
    7.3827    2.5724   20.5432 C   0  0  0  0  0  0  0  0  0  0  0  0
   11.1529    7.2750   20.8025 C   0  0  0  0  0  0  0  0  0  0  0  0
   10.2573    8.3215   20.9827 C   0  0  0  0  0  0  0  0  0  0  0  0
   11.1606    5.9378   21.2366 N   0  0  0  0  0  0  0  0  0  0  0  0
    9.8932   11.6736   19.0677 O   0  0  0  0  0  0  0  0  0  0  0  0
    6.4470    4.5850   22.2321 C   0  0  0  0  0  0  0  0  0  0  0  0
    8.4619    6.9895   22.2968 C   0  0  0  0  0  0  0  0  0  0  0  0
   12.2747    7.5102   20.0420 C   0  0  0  0  0  0  0  0  0  0  0  0
   14.2544    6.2142   19.4191 C   0  0  0  0  0  0  0  0  0  0  0  0
   13.0695    6.3705   20.0375 N   0  0  0  0  0  0  0  0  0  0  0  0
    9.1913    8.0876   21.8361 N   0  0  0  0  0  0  0  0  0  0  0  0
   10.4739    9.4813   20.2889 C   0  0  0  0  0  0  0  0  0  0  0  0
    7.5551    7.1270   23.1200 O   0  0  0  0  0  0  0  0  0  0  0  0
  1 11  4  0
  1 21  4  0
  2  4  1  0
  2  8  1  0
  2 11  1  0
  3 10  4  0
  3 14  4  0
  4  5  1  0
  4 18  2  0
  6 12  1  0
  6 17  4  0
  6 23  4  0
  7  9  1  0
  7 13  4  0
  7 19  4  0
  9 20  1  0
 10 19  4  0
 11 25  4  0
 13 14  4  0
 15 16  4  0
 15 17  4  0
 15 21  4  0
 16 24  1  0
 16 25  4  0
 20 24  1  0
 20 26  2  0
 21 23  4  0
 22 23  1  0
M  END
$$$$

 Created by Python create_sdf_string function

 26 28  0  0  0  0  0  0  0  0999 V2000
   12.4616    8.6700   19.4180 N   0  0  0  0  0  0  0  0  0  0  0  0
   11.8329   10.8148   18.6769 N   0  0  0  0  0  0  0  0  0  0  0  0
    6.1021    2.5564   21.0678 C   0  0  0  0  0  0  0  0  0  0  0  0
   10.9097   11.8051   18.4804 C   0  0  0  0  0  0  0  0  0  0  0  0
   11.2280   12.9135   17.5669 C   0  0  0  0  0  0  0  0  0  0  0  0
   12.3782    5.4231   20.7777 C   0  0  0  0  0  0  0  0  0  0  0  0
    7.7365    4.6508   21.6987 C   0  0  0  0  0  0  0  0  0  0  0  0
   13.0186   11.0102   18.0020 C   0  0  0  0  0  0  0  0  0  0  0  0
    8.6628    5.7088   21.8871 N   0  0  0  0  0  0  0  0  0  0  0  0
    5.6516    3.5258   21.9140 C   0  0  0  0  0  0  0  0  0  0  0  0
   11.5863    9.6815   19.4539 C   0  0  0  0  0  0  0  0  0  0  0  0
   12.9648    4.1543   20.9205 C   0  0  0  0  0  0  0  0  0  0  0  0
    8.2089    3.6265   20.8929 C   0  0  0  0  0  0  0  0  0  0  0  0
    7.3827    2.5724   20.5432 C   0  0  0  0  0  0  0  0  0  0  0  0
   11.1529    7.2750   20.8025 C   0  0  0  0  0  0  0  0  0  0  0  0
   10.2573    8.3215   20.9827 C   0  0  0  0  0  0  0  0  0  0  0  0
   11.1606    5.9378   21.2366 N   0  0  0  0  0  0  0  0  0  0  0  0
    9.8932   11.6736   19.0677 O   0  0  0  0  0  0  0  0  0  0  0  0
    6.4470    4.5850   22.2321 C   0  0  0  0  0  0  0  0  0  0  0  0
    8.4619    6.9895   22.2968 C   0  0  0  0  0  0  0  0  0  0  0  0
   12.2747    7.5102   20.0420 C   0  0  0  0  0  0  0  0  0  0  0  0
   14.2544    6.2142   19.4191 C   0  0  0  0  0  0  0  0  0  0  0  0
   13.0695    6.3705   20.0375 N   0  0  0  0  0  0  0  0  0  0  0  0
    9.1913    8.0876   21.8361 N   0  0  0  0  0  0  0  0  0  0  0  0
   10.4739    9.4813   20.2889 C   0  0  0  0  0  0  0  0  0  0  0  0
    7.5551    7.1270   23.1200 O   0  0  0  0  0  0  0  0  0  0  0  0
  1 11  4  0
  1 21  4  0
  2  4  1  0
  2  8  1  0
  2 11  1  0
  3 10  4  0
  3 14  4  0
  4  5  1  0
  4 18  2  0
  6 12  1  0
  6 17  4  0
  6 23  4  0
  7  9  1  0
  7 13  4  0
  7 19  4  0
  9 20  1  0
 10 19  4  0
 11 25  4  0
 13 14  4  0
 15 16  4  0
 15 17  4  0
 15 21  4  0
 16 24  1  0
 16 25  4  0
 20 24  1  0
 20 26  2  0
 21 23  4  0
 22 23  1  0
M  END
$$$$

 Created by Python create_sdf_string function

 26 28  0  0  0  0  0  0  0  0999 V2000
   12.4616    8.6700   19.4180 N   0  0  0  0  0  0  0  0  0  0  0  0
   11.8329   10.8148   18.6769 N   0  0  0  0  0  0  0  0  0  0  0  0
    6.1021    2.5564   21.0678 C   0  0  0  0  0  0  0  0  0  0  0  0
   10.9097   11.8051   18.4804 C   0  0  0  0  0  0  0  0  0  0  0  0
   11.2280   12.9135   17.5669 C   0  0  0  0  0  0  0  0  0  0  0  0
   12.3782    5.4231   20.7777 C   0  0  0  0  0  0  0  0  0  0  0  0
    7.7365    4.6508   21.6987 C   0  0  0  0  0  0  0  0  0  0  0  0
   13.0186   11.0102   18.0020 C   0  0  0  0  0  0  0  0  0  0  0  0
    8.6628    5.7088   21.8871 N   0  0  0  0  0  0  0  0  0  0  0  0
    5.6516    3.5258   21.9140 C   0  0  0  0  0  0  0  0  0  0  0  0
   11.5863    9.6815   19.4539 C   0  0  0  0  0  0  0  0  0  0  0  0
   12.9648    4.1543   20.9205 C   0  0  0  0  0  0  0  0  0  0  0  0
    8.2089    3.6265   20.8929 C   0  0  0  0  0  0  0  0  0  0  0  0
    7.3827    2.5724   20.5432 C   0  0  0  0  0  0  0  0  0  0  0  0
   11.1529    7.2750   20.8025 C   0  0  0  0  0  0  0  0  0  0  0  0
   10.2573    8.3215   20.9827 C   0  0  0  0  0  0  0  0  0  0  0  0
   11.1606    5.9378   21.2366 N   0  0  0  0  0  0  0  0  0  0  0  0
    9.8932   11.6736   19.0677 O   0  0  0  0  0  0  0  0  0  0  0  0
    6.4470    4.5850   22.2321 C   0  0  0  0  0  0  0  0  0  0  0  0
    8.4619    6.9895   22.2968 C   0  0  0  0  0  0  0  0  0  0  0  0
   12.2747    7.5102   20.0420 C   0  0  0  0  0  0  0  0  0  0  0  0
   14.2544    6.2142   19.4191 C   0  0  0  0  0  0  0  0  0  0  0  0
   13.0695    6.3705   20.0375 N   0  0  0  0  0  0  0  0  0  0  0  0
    9.1913    8.0876   21.8361 N   0  0  0  0  0  0  0  0  0  0  0  0
   10.4739    9.4813   20.2889 C   0  0  0  0  0  0  0  0  0  0  0  0
    7.5551    7.1270   23.1200 O   0  0  0  0  0  0  0  0  0  0  0  0
  1 11  4  0
  1 21  4  0
  2  4  1  0
  2  8  1  0
  2 11  1  0
  3 10  4  0
  3 14  4  0
  4  5  1  0
  4 18  2  0
  6 12  1  0
  6 17  4  0
  6 23  4  0
  7  9  1  0
  7 13  4  0
  7 19  4  0
  9 20  1  0
 10 19  4  0
 11 25  4  0
 13 14  4  0
 15 16  4  0
 15 17  4  0
 15 21  4  0
 16 24  1  0
 16 25  4  0
 20 24  1  0
 20 26  2  0
 21 23  4  0
 22 23  1  0
M  END
$$$$

 Created by Python create_sdf_string function

 26 28  0  0  0  0  0  0  0  0999 V2000
   12.4616    8.6700   19.4180 N   0  0  0  0  0  0  0  0  0  0  0  0
   11.8329   10.8148   18.6769 N   0  0  0  0  0  0  0  0  0  0  0  0
    6.1021    2.5564   21.0678 C   0  0  0  0  0  0  0  0  0  0  0  0
   10.9097   11.8051   18.4804 C   0  0  0  0  0  0  0  0  0  0  0  0
   11.2280   12.9135   17.5669 C   0  0  0  0  0  0  0  0  0  0  0  0
   12.3782    5.4231   20.7777 C   0  0  0  0  0  0  0  0  0  0  0  0
    7.7365    4.6508   21.6987 C   0  0  0  0  0  0  0  0  0  0  0  0
   13.0186   11.0102   18.0020 C   0  0  0  0  0  0  0  0  0  0  0  0
    8.6628    5.7088   21.8871 N   0  0  0  0  0  0  0  0  0  0  0  0
    5.6516    3.5258   21.9140 C   0  0  0  0  0  0  0  0  0  0  0  0
   11.5863    9.6815   19.4539 C   0  0  0  0  0  0  0  0  0  0  0  0
   12.9648    4.1543   20.9205 C   0  0  0  0  0  0  0  0  0  0  0  0
    8.2089    3.6265   20.8929 C   0  0  0  0  0  0  0  0  0  0  0  0
    7.3827    2.5724   20.5432 C   0  0  0  0  0  0  0  0  0  0  0  0
   11.1529    7.2750   20.8025 C   0  0  0  0  0  0  0  0  0  0  0  0
   10.2573    8.3215   20.9827 C   0  0  0  0  0  0  0  0  0  0  0  0
   11.1606    5.9378   21.2366 N   0  0  0  0  0  0  0  0  0  0  0  0
    9.8932   11.6736   19.0677 O   0  0  0  0  0  0  0  0  0  0  0  0
    6.4470    4.5850   22.2321 C   0  0  0  0  0  0  0  0  0  0  0  0
    8.4619    6.9895   22.2968 C   0  0  0  0  0  0  0  0  0  0  0  0
   12.2747    7.5102   20.0420 C   0  0  0  0  0  0  0  0  0  0  0  0
   14.2544    6.2142   19.4191 C   0  0  0  0  0  0  0  0  0  0  0  0
   13.0695    6.3705   20.0375 N   0  0  0  0  0  0  0  0  0  0  0  0
    9.1913    8.0876   21.8361 N   0  0  0  0  0  0  0  0  0  0  0  0
   10.4739    9.4813   20.2889 C   0  0  0  0  0  0  0  0  0  0  0  0
    7.5551    7.1270   23.1200 O   0  0  0  0  0  0  0  0  0  0  0  0
  1 11  4  0
  1 21  4  0
  2  4  1  0
  2  8  1  0
  2 11  1  0
  3 10  4  0
  3 14  4  0
  4  5  1  0
  4 18  2  0
  6 12  1  0
  6 17  4  0
  6 23  4  0
  7  9  1  0
  7 13  4  0
  7 19  4  0
  9 20  1  0
 10 19  4  0
 11 25  4  0
 13 14  4  0
 15 16  4  0
 15 17  4  0
 15 21  4  0
 16 24  1  0
 16 25  4  0
 20 24  1  0
 20 26  2  0
 21 23  4  0
 22 23  1  0
M  END
$$$$

 Created by Python create_sdf_string function

 26 28  0  0  0  0  0  0  0  0999 V2000
   12.4616    8.6700   19.4180 N   0  0  0  0  0  0  0  0  0  0  0  0
   11.8329   10.8148   18.6769 N   0  0  0  0  0  0  0  0  0  0  0  0
    6.1021    2.5564   21.0678 C   0  0  0  0  0  0  0  0  0  0  0  0
   10.9097   11.8051   18.4804 C   0  0  0  0  0  0  0  0  0  0  0  0
   11.2280   12.9135   17.5669 C   0  0  0  0  0  0  0  0  0  0  0  0
   12.3782    5.4231   20.7777 C   0  0  0  0  0  0  0  0  0  0  0  0
    7.7365    4.6508   21.6987 C   0  0  0  0  0  0  0  0  0  0  0  0
   13.0186   11.0102   18.0020 C   0  0  0  0  0  0  0  0  0  0  0  0
    8.6628    5.7088   21.8871 N   0  0  0  0  0  0  0  0  0  0  0  0
    5.6516    3.5258   21.9140 C   0  0  0  0  0  0  0  0  0  0  0  0
   11.5863    9.6815   19.4539 C   0  0  0  0  0  0  0  0  0  0  0  0
   12.9648    4.1543   20.9205 C   0  0  0  0  0  0  0  0  0  0  0  0
    8.2089    3.6265   20.8929 C   0  0  0  0  0  0  0  0  0  0  0  0
    7.3827    2.5724   20.5432 C   0  0  0  0  0  0  0  0  0  0  0  0
   11.1529    7.2750   20.8025 C   0  0  0  0  0  0  0  0  0  0  0  0
   10.2573    8.3215   20.9827 C   0  0  0  0  0  0  0  0  0  0  0  0
   11.1606    5.9378   21.2366 N   0  0  0  0  0  0  0  0  0  0  0  0
    9.8932   11.6736   19.0677 O   0  0  0  0  0  0  0  0  0  0  0  0
    6.4470    4.5850   22.2321 C   0  0  0  0  0  0  0  0  0  0  0  0
    8.4619    6.9895   22.2968 C   0  0  0  0  0  0  0  0  0  0  0  0
   12.2747    7.5102   20.0420 C   0  0  0  0  0  0  0  0  0  0  0  0
   14.2544    6.2142   19.4191 C   0  0  0  0  0  0  0  0  0  0  0  0
   13.0695    6.3705   20.0375 N   0  0  0  0  0  0  0  0  0  0  0  0
    9.1913    8.0876   21.8361 N   0  0  0  0  0  0  0  0  0  0  0  0
   10.4739    9.4813   20.2889 C   0  0  0  0  0  0  0  0  0  0  0  0
    7.5551    7.1270   23.1200 O   0  0  0  0  0  0  0  0  0  0  0  0
  1 11  4  0
  1 21  4  0
  2  4  1  0
  2  8  1  0
  2 11  1  0
  3 10  4  0
  3 14  4  0
  4  5  1  0
  4 18  2  0
  6 12  1  0
  6 17  4  0
  6 23  4  0
  7  9  1  0
  7 13  4  0
  7 19  4  0
  9 20  1  0
 10 19  4  0
 11 25  4  0
 13 14  4  0
 15 16  4  0
 15 17  4  0
 15 21  4  0
 16 24  1  0
 16 25  4  0
 20 24  1  0
 20 26  2  0
 21 23  4  0
 22 23  1  0
M  END
$$$$

 Created by Python create_sdf_string function

 26 28  0  0  0  0  0  0  0  0999 V2000
   12.4616    8.6700   19.4180 N   0  0  0  0  0  0  0  0  0  0  0  0
   11.8329   10.8148   18.6769 N   0  0  0  0  0  0  0  0  0  0  0  0
    6.1021    2.5564   21.0678 C   0  0  0  0  0  0  0  0  0  0  0  0
   10.9097   11.8051   18.4804 C   0  0  0  0  0  0  0  0  0  0  0  0
   11.2280   12.9135   17.5669 C   0  0  0  0  0  0  0  0  0  0  0  0
   12.3782    5.4231   20.7777 C   0  0  0  0  0  0  0  0  0  0  0  0
    7.7365    4.6508   21.6987 C   0  0  0  0  0  0  0  0  0  0  0  0
   13.0186   11.0102   18.0020 C   0  0  0  0  0  0  0  0  0  0  0  0
    8.6628    5.7088   21.8871 N   0  0  0  0  0  0  0  0  0  0  0  0
    5.6516    3.5258   21.9140 C   0  0  0  0  0  0  0  0  0  0  0  0
   11.5863    9.6815   19.4539 C   0  0  0  0  0  0  0  0  0  0  0  0
   12.9648    4.1543   20.9205 C   0  0  0  0  0  0  0  0  0  0  0  0
    8.2089    3.6265   20.8929 C   0  0  0  0  0  0  0  0  0  0  0  0
    7.3827    2.5724   20.5432 C   0  0  0  0  0  0  0  0  0  0  0  0
   11.1529    7.2750   20.8025 C   0  0  0  0  0  0  0  0  0  0  0  0
   10.2573    8.3215   20.9827 C   0  0  0  0  0  0  0  0  0  0  0  0
   11.1606    5.9378   21.2366 N   0  0  0  0  0  0  0  0  0  0  0  0
    9.8932   11.6736   19.0677 O   0  0  0  0  0  0  0  0  0  0  0  0
    6.4470    4.5850   22.2321 C   0  0  0  0  0  0  0  0  0  0  0  0
    8.4619    6.9895   22.2968 C   0  0  0  0  0  0  0  0  0  0  0  0
   12.2747    7.5102   20.0420 C   0  0  0  0  0  0  0  0  0  0  0  0
   14.2544    6.2142   19.4191 C   0  0  0  0  0  0  0  0  0  0  0  0
   13.0695    6.3705   20.0375 N   0  0  0  0  0  0  0  0  0  0  0  0
    9.1913    8.0876   21.8361 N   0  0  0  0  0  0  0  0  0  0  0  0
   10.4739    9.4813   20.2889 C   0  0  0  0  0  0  0  0  0  0  0  0
    7.5551    7.1270   23.1200 O   0  0  0  0  0  0  0  0  0  0  0  0
  1 11  4  0
  1 21  4  0
  2  4  1  0
  2  8  1  0
  2 11  1  0
  3 10  4  0
  3 14  4  0
  4  5  1  0
  4 18  2  0
  6 12  1  0
  6 17  4  0
  6 23  4  0
  7  9  1  0
  7 13  4  0
  7 19  4  0
  9 20  1  0
 10 19  4  0
 11 25  4  0
 13 14  4  0
 15 16  4  0
 15 17  4  0
 15 21  4  0
 16 24  1  0
 16 25  4  0
 20 24  1  0
 20 26  2  0
 21 23  4  0
 22 23  1  0
M  END
$$$$

 Created by Python create_sdf_string function

 26 28  0  0  0  0  0  0  0  0999 V2000
   12.4616    8.6700   19.4180 N   0  0  0  0  0  0  0  0  0  0  0  0
   11.8329   10.8148   18.6769 N   0  0  0  0  0  0  0  0  0  0  0  0
    6.1021    2.5564   21.0678 C   0  0  0  0  0  0  0  0  0  0  0  0
   10.9097   11.8051   18.4804 C   0  0  0  0  0  0  0  0  0  0  0  0
   11.2280   12.9135   17.5669 C   0  0  0  0  0  0  0  0  0  0  0  0
   12.3782    5.4231   20.7777 C   0  0  0  0  0  0  0  0  0  0  0  0
    7.7365    4.6508   21.6987 C   0  0  0  0  0  0  0  0  0  0  0  0
   13.0186   11.0102   18.0020 C   0  0  0  0  0  0  0  0  0  0  0  0
    8.6628    5.7088   21.8871 N   0  0  0  0  0  0  0  0  0  0  0  0
    5.6516    3.5258   21.9140 C   0  0  0  0  0  0  0  0  0  0  0  0
   11.5863    9.6815   19.4539 C   0  0  0  0  0  0  0  0  0  0  0  0
   12.9648    4.1543   20.9205 C   0  0  0  0  0  0  0  0  0  0  0  0
    8.2089    3.6265   20.8929 C   0  0  0  0  0  0  0  0  0  0  0  0
    7.3827    2.5724   20.5432 C   0  0  0  0  0  0  0  0  0  0  0  0
   11.1529    7.2750   20.8025 C   0  0  0  0  0  0  0  0  0  0  0  0
   10.2573    8.3215   20.9827 C   0  0  0  0  0  0  0  0  0  0  0  0
   11.1606    5.9378   21.2366 N   0  0  0  0  0  0  0  0  0  0  0  0
    9.8932   11.6736   19.0677 O   0  0  0  0  0  0  0  0  0  0  0  0
    6.4470    4.5850   22.2321 C   0  0  0  0  0  0  0  0  0  0  0  0
    8.4619    6.9895   22.2968 C   0  0  0  0  0  0  0  0  0  0  0  0
   12.2747    7.5102   20.0420 C   0  0  0  0  0  0  0  0  0  0  0  0
   14.2544    6.2142   19.4191 C   0  0  0  0  0  0  0  0  0  0  0  0
   13.0695    6.3705   20.0375 N   0  0  0  0  0  0  0  0  0  0  0  0
    9.1913    8.0876   21.8361 N   0  0  0  0  0  0  0  0  0  0  0  0
   10.4739    9.4813   20.2889 C   0  0  0  0  0  0  0  0  0  0  0  0
    7.5551    7.1270   23.1200 O   0  0  0  0  0  0  0  0  0  0  0  0
  1 11  4  0
  1 21  4  0
  2  4  1  0
  2  8  1  0
  2 11  1  0
  3 10  4  0
  3 14  4  0
  4  5  1  0
  4 18  2  0
  6 12  1  0
  6 17  4  0
  6 23  4  0
  7  9  1  0
  7 13  4  0
  7 19  4  0
  9 20  1  0
 10 19  4  0
 11 25  4  0
 13 14  4  0
 15 16  4  0
 15 17  4  0
 15 21  4  0
 16 24  1  0
 16 25  4  0
 20 24  1  0
 20 26  2  0
 21 23  4  0
 22 23  1  0
M  END
$$$$

 Created by Python create_sdf_string function

 26 28  0  0  0  0  0  0  0  0999 V2000
   12.4616    8.6700   19.4180 N   0  0  0  0  0  0  0  0  0  0  0  0
   11.8329   10.8148   18.6769 N   0  0  0  0  0  0  0  0  0  0  0  0
    6.1021    2.5564   21.0678 C   0  0  0  0  0  0  0  0  0  0  0  0
   10.9097   11.8051   18.4804 C   0  0  0  0  0  0  0  0  0  0  0  0
   11.2280   12.9135   17.5669 C   0  0  0  0  0  0  0  0  0  0  0  0
   12.3782    5.4231   20.7777 C   0  0  0  0  0  0  0  0  0  0  0  0
    7.7365    4.6508   21.6987 C   0  0  0  0  0  0  0  0  0  0  0  0
   13.0186   11.0102   18.0020 C   0  0  0  0  0  0  0  0  0  0  0  0
    8.6628    5.7088   21.8871 N   0  0  0  0  0  0  0  0  0  0  0  0
    5.6516    3.5258   21.9140 C   0  0  0  0  0  0  0  0  0  0  0  0
   11.5863    9.6815   19.4539 C   0  0  0  0  0  0  0  0  0  0  0  0
   12.9648    4.1543   20.9205 C   0  0  0  0  0  0  0  0  0  0  0  0
    8.2089    3.6265   20.8929 C   0  0  0  0  0  0  0  0  0  0  0  0
    7.3827    2.5724   20.5432 C   0  0  0  0  0  0  0  0  0  0  0  0
   11.1529    7.2750   20.8025 C   0  0  0  0  0  0  0  0  0  0  0  0
   10.2573    8.3215   20.9827 C   0  0  0  0  0  0  0  0  0  0  0  0
   11.1606    5.9378   21.2366 N   0  0  0  0  0  0  0  0  0  0  0  0
    9.8932   11.6736   19.0677 O   0  0  0  0  0  0  0  0  0  0  0  0
    6.4470    4.5850   22.2321 C   0  0  0  0  0  0  0  0  0  0  0  0
    8.4619    6.9895   22.2968 C   0  0  0  0  0  0  0  0  0  0  0  0
   12.2747    7.5102   20.0420 C   0  0  0  0  0  0  0  0  0  0  0  0
   14.2544    6.2142   19.4191 C   0  0  0  0  0  0  0  0  0  0  0  0
   13.0695    6.3705   20.0375 N   0  0  0  0  0  0  0  0  0  0  0  0
    9.1913    8.0876   21.8361 N   0  0  0  0  0  0  0  0  0  0  0  0
   10.4739    9.4813   20.2889 C   0  0  0  0  0  0  0  0  0  0  0  0
    7.5551    7.1270   23.1200 O   0  0  0  0  0  0  0  0  0  0  0  0
  1 11  4  0
  1 21  4  0
  2  4  1  0
  2  8  1  0
  2 11  1  0
  3 10  4  0
  3 14  4  0
  4  5  1  0
  4 18  2  0
  6 12  1  0
  6 17  4  0
  6 23  4  0
  7  9  1  0
  7 13  4  0
  7 19  4  0
  9 20  1  0
 10 19  4  0
 11 25  4  0
 13 14  4  0
 15 16  4  0
 15 17  4  0
 15 21  4  0
 16 24  1  0
 16 25  4  0
 20 24  1  0
 20 26  2  0
 21 23  4  0
 22 23  1  0
M  END
$$$$

 Created by Python create_sdf_string function

 26 28  0  0  0  0  0  0  0  0999 V2000
   12.4616    8.6700   19.4180 N   0  0  0  0  0  0  0  0  0  0  0  0
   11.8329   10.8148   18.6769 N   0  0  0  0  0  0  0  0  0  0  0  0
    6.1021    2.5564   21.0678 C   0  0  0  0  0  0  0  0  0  0  0  0
   10.9097   11.8051   18.4804 C   0  0  0  0  0  0  0  0  0  0  0  0
   11.2280   12.9135   17.5669 C   0  0  0  0  0  0  0  0  0  0  0  0
   12.3782    5.4231   20.7777 C   0  0  0  0  0  0  0  0  0  0  0  0
    7.7365    4.6508   21.6987 C   0  0  0  0  0  0  0  0  0  0  0  0
   13.0186   11.0102   18.0020 C   0  0  0  0  0  0  0  0  0  0  0  0
    8.6628    5.7088   21.8871 N   0  0  0  0  0  0  0  0  0  0  0  0
    5.6516    3.5258   21.9140 C   0  0  0  0  0  0  0  0  0  0  0  0
   11.5863    9.6815   19.4539 C   0  0  0  0  0  0  0  0  0  0  0  0
   12.9648    4.1543   20.9205 C   0  0  0  0  0  0  0  0  0  0  0  0
    8.2089    3.6265   20.8929 C   0  0  0  0  0  0  0  0  0  0  0  0
    7.3827    2.5724   20.5432 C   0  0  0  0  0  0  0  0  0  0  0  0
   11.1529    7.2750   20.8025 C   0  0  0  0  0  0  0  0  0  0  0  0
   10.2573    8.3215   20.9827 C   0  0  0  0  0  0  0  0  0  0  0  0
   11.1606    5.9378   21.2366 N   0  0  0  0  0  0  0  0  0  0  0  0
    9.8932   11.6736   19.0677 O   0  0  0  0  0  0  0  0  0  0  0  0
    6.4470    4.5850   22.2321 C   0  0  0  0  0  0  0  0  0  0  0  0
    8.4619    6.9895   22.2968 C   0  0  0  0  0  0  0  0  0  0  0  0
   12.2747    7.5102   20.0420 C   0  0  0  0  0  0  0  0  0  0  0  0
   14.2544    6.2142   19.4191 C   0  0  0  0  0  0  0  0  0  0  0  0
   13.0695    6.3705   20.0375 N   0  0  0  0  0  0  0  0  0  0  0  0
    9.1913    8.0876   21.8361 N   0  0  0  0  0  0  0  0  0  0  0  0
   10.4739    9.4813   20.2889 C   0  0  0  0  0  0  0  0  0  0  0  0
    7.5551    7.1270   23.1200 O   0  0  0  0  0  0  0  0  0  0  0  0
  1 11  4  0
  1 21  4  0
  2  4  1  0
  2  8  1  0
  2 11  1  0
  3 10  4  0
  3 14  4  0
  4  5  1  0
  4 18  2  0
  6 12  1  0
  6 17  4  0
  6 23  4  0
  7  9  1  0
  7 13  4  0
  7 19  4  0
  9 20  1  0
 10 19  4  0
 11 25  4  0
 13 14  4  0
 15 16  4  0
 15 17  4  0
 15 21  4  0
 16 24  1  0
 16 25  4  0
 20 24  1  0
 20 26  2  0
 21 23  4  0
 22 23  1  0
M  END
$$$$

 Created by Python create_sdf_string function

 26 28  0  0  0  0  0  0  0  0999 V2000
   12.4616    8.6700   19.4180 N   0  0  0  0  0  0  0  0  0  0  0  0
   11.8329   10.8148   18.6769 N   0  0  0  0  0  0  0  0  0  0  0  0
    6.1021    2.5564   21.0678 C   0  0  0  0  0  0  0  0  0  0  0  0
   10.9097   11.8051   18.4804 C   0  0  0  0  0  0  0  0  0  0  0  0
   11.2280   12.9135   17.5669 C   0  0  0  0  0  0  0  0  0  0  0  0
   12.3782    5.4231   20.7777 C   0  0  0  0  0  0  0  0  0  0  0  0
    7.7365    4.6508   21.6987 C   0  0  0  0  0  0  0  0  0  0  0  0
   13.0186   11.0102   18.0020 C   0  0  0  0  0  0  0  0  0  0  0  0
    8.6628    5.7088   21.8871 N   0  0  0  0  0  0  0  0  0  0  0  0
    5.6516    3.5258   21.9140 C   0  0  0  0  0  0  0  0  0  0  0  0
   11.5863    9.6815   19.4539 C   0  0  0  0  0  0  0  0  0  0  0  0
   12.9648    4.1543   20.9205 C   0  0  0  0  0  0  0  0  0  0  0  0
    8.2089    3.6265   20.8929 C   0  0  0  0  0  0  0  0  0  0  0  0
    7.3827    2.5724   20.5432 C   0  0  0  0  0  0  0  0  0  0  0  0
   11.1529    7.2750   20.8025 C   0  0  0  0  0  0  0  0  0  0  0  0
   10.2573    8.3215   20.9827 C   0  0  0  0  0  0  0  0  0  0  0  0
   11.1606    5.9378   21.2366 N   0  0  0  0  0  0  0  0  0  0  0  0
    9.8932   11.6736   19.0677 O   0  0  0  0  0  0  0  0  0  0  0  0
    6.4470    4.5850   22.2321 C   0  0  0  0  0  0  0  0  0  0  0  0
    8.4619    6.9895   22.2968 C   0  0  0  0  0  0  0  0  0  0  0  0
   12.2747    7.5102   20.0420 C   0  0  0  0  0  0  0  0  0  0  0  0
   14.2544    6.2142   19.4191 C   0  0  0  0  0  0  0  0  0  0  0  0
   13.0695    6.3705   20.0375 N   0  0  0  0  0  0  0  0  0  0  0  0
    9.1913    8.0876   21.8361 N   0  0  0  0  0  0  0  0  0  0  0  0
   10.4739    9.4813   20.2889 C   0  0  0  0  0  0  0  0  0  0  0  0
    7.5551    7.1270   23.1200 O   0  0  0  0  0  0  0  0  0  0  0  0
  1 11  4  0
  1 21  4  0
  2  4  1  0
  2  8  1  0
  2 11  1  0
  3 10  4  0
  3 14  4  0
  4  5  1  0
  4 18  2  0
  6 12  1  0
  6 17  4  0
  6 23  4  0
  7  9  1  0
  7 13  4  0
  7 19  4  0
  9 20  1  0
 10 19  4  0
 11 25  4  0
 13 14  4  0
 15 16  4  0
 15 17  4  0
 15 21  4  0
 16 24  1  0
 16 25  4  0
 20 24  1  0
 20 26  2  0
 21 23  4  0
 22 23  1  0
M  END
$$$$

 Created by Python create_sdf_string function

 26 28  0  0  0  0  0  0  0  0999 V2000
   12.4616    8.6700   19.4180 N   0  0  0  0  0  0  0  0  0  0  0  0
   11.8329   10.8148   18.6769 N   0  0  0  0  0  0  0  0  0  0  0  0
    6.1021    2.5564   21.0678 C   0  0  0  0  0  0  0  0  0  0  0  0
   10.9097   11.8051   18.4804 C   0  0  0  0  0  0  0  0  0  0  0  0
   11.2280   12.9135   17.5669 C   0  0  0  0  0  0  0  0  0  0  0  0
   12.3782    5.4231   20.7777 C   0  0  0  0  0  0  0  0  0  0  0  0
    7.7365    4.6508   21.6987 C   0  0  0  0  0  0  0  0  0  0  0  0
   13.0186   11.0102   18.0020 C   0  0  0  0  0  0  0  0  0  0  0  0
    8.6628    5.7088   21.8871 N   0  0  0  0  0  0  0  0  0  0  0  0
    5.6516    3.5258   21.9140 C   0  0  0  0  0  0  0  0  0  0  0  0
   11.5863    9.6815   19.4539 C   0  0  0  0  0  0  0  0  0  0  0  0
   12.9648    4.1543   20.9205 C   0  0  0  0  0  0  0  0  0  0  0  0
    8.2089    3.6265   20.8929 C   0  0  0  0  0  0  0  0  0  0  0  0
    7.3827    2.5724   20.5432 C   0  0  0  0  0  0  0  0  0  0  0  0
   11.1529    7.2750   20.8025 C   0  0  0  0  0  0  0  0  0  0  0  0
   10.2573    8.3215   20.9827 C   0  0  0  0  0  0  0  0  0  0  0  0
   11.1606    5.9378   21.2366 N   0  0  0  0  0  0  0  0  0  0  0  0
    9.8932   11.6736   19.0677 O   0  0  0  0  0  0  0  0  0  0  0  0
    6.4470    4.5850   22.2321 C   0  0  0  0  0  0  0  0  0  0  0  0
    8.4619    6.9895   22.2968 C   0  0  0  0  0  0  0  0  0  0  0  0
   12.2747    7.5102   20.0420 C   0  0  0  0  0  0  0  0  0  0  0  0
   14.2544    6.2142   19.4191 C   0  0  0  0  0  0  0  0  0  0  0  0
   13.0695    6.3705   20.0375 N   0  0  0  0  0  0  0  0  0  0  0  0
    9.1913    8.0876   21.8361 N   0  0  0  0  0  0  0  0  0  0  0  0
   10.4739    9.4813   20.2889 C   0  0  0  0  0  0  0  0  0  0  0  0
    7.5551    7.1270   23.1200 O   0  0  0  0  0  0  0  0  0  0  0  0
  1 11  4  0
  1 21  4  0
  2  4  1  0
  2  8  1  0
  2 11  1  0
  3 10  4  0
  3 14  4  0
  4  5  1  0
  4 18  2  0
  6 12  1  0
  6 17  4  0
  6 23  4  0
  7  9  1  0
  7 13  4  0
  7 19  4  0
  9 20  1  0
 10 19  4  0
 11 25  4  0
 13 14  4  0
 15 16  4  0
 15 17  4  0
 15 21  4  0
 16 24  1  0
 16 25  4  0
 20 24  1  0
 20 26  2  0
 21 23  4  0
 22 23  1  0
M  END
$$$$

 Created by Python create_sdf_string function

 26 28  0  0  0  0  0  0  0  0999 V2000
   12.4616    8.6700   19.4180 N   0  0  0  0  0  0  0  0  0  0  0  0
   11.8329   10.8148   18.6769 N   0  0  0  0  0  0  0  0  0  0  0  0
    6.1021    2.5564   21.0678 C   0  0  0  0  0  0  0  0  0  0  0  0
   10.9097   11.8051   18.4804 C   0  0  0  0  0  0  0  0  0  0  0  0
   11.2280   12.9135   17.5669 C   0  0  0  0  0  0  0  0  0  0  0  0
   12.3782    5.4231   20.7777 C   0  0  0  0  0  0  0  0  0  0  0  0
    7.7365    4.6508   21.6987 C   0  0  0  0  0  0  0  0  0  0  0  0
   13.0186   11.0102   18.0020 C   0  0  0  0  0  0  0  0  0  0  0  0
    8.6628    5.7088   21.8871 N   0  0  0  0  0  0  0  0  0  0  0  0
    5.6516    3.5258   21.9140 C   0  0  0  0  0  0  0  0  0  0  0  0
   11.5863    9.6815   19.4539 C   0  0  0  0  0  0  0  0  0  0  0  0
   12.9648    4.1543   20.9205 C   0  0  0  0  0  0  0  0  0  0  0  0
    8.2089    3.6265   20.8929 C   0  0  0  0  0  0  0  0  0  0  0  0
    7.3827    2.5724   20.5432 C   0  0  0  0  0  0  0  0  0  0  0  0
   11.1529    7.2750   20.8025 C   0  0  0  0  0  0  0  0  0  0  0  0
   10.2573    8.3215   20.9827 C   0  0  0  0  0  0  0  0  0  0  0  0
   11.1606    5.9378   21.2366 N   0  0  0  0  0  0  0  0  0  0  0  0
    9.8932   11.6736   19.0677 O   0  0  0  0  0  0  0  0  0  0  0  0
    6.4470    4.5850   22.2321 C   0  0  0  0  0  0  0  0  0  0  0  0
    8.4619    6.9895   22.2968 C   0  0  0  0  0  0  0  0  0  0  0  0
   12.2747    7.5102   20.0420 C   0  0  0  0  0  0  0  0  0  0  0  0
   14.2544    6.2142   19.4191 C   0  0  0  0  0  0  0  0  0  0  0  0
   13.0695    6.3705   20.0375 N   0  0  0  0  0  0  0  0  0  0  0  0
    9.1913    8.0876   21.8361 N   0  0  0  0  0  0  0  0  0  0  0  0
   10.4739    9.4813   20.2889 C   0  0  0  0  0  0  0  0  0  0  0  0
    7.5551    7.1270   23.1200 O   0  0  0  0  0  0  0  0  0  0  0  0
  1 11  4  0
  1 21  4  0
  2  4  1  0
  2  8  1  0
  2 11  1  0
  3 10  4  0
  3 14  4  0
  4  5  1  0
  4 18  2  0
  6 12  1  0
  6 17  4  0
  6 23  4  0
  7  9  1  0
  7 13  4  0
  7 19  4  0
  9 20  1  0
 10 19  4  0
 11 25  4  0
 13 14  4  0
 15 16  4  0
 15 17  4  0
 15 21  4  0
 16 24  1  0
 16 25  4  0
 20 24  1  0
 20 26  2  0
 21 23  4  0
 22 23  1  0
M  END
$$$$

 Created by Python create_sdf_string function

 26 28  0  0  0  0  0  0  0  0999 V2000
   12.4616    8.6700   19.4180 N   0  0  0  0  0  0  0  0  0  0  0  0
   11.8329   10.8148   18.6769 N   0  0  0  0  0  0  0  0  0  0  0  0
    6.1021    2.5564   21.0678 C   0  0  0  0  0  0  0  0  0  0  0  0
   10.9097   11.8051   18.4804 C   0  0  0  0  0  0  0  0  0  0  0  0
   11.2280   12.9135   17.5669 C   0  0  0  0  0  0  0  0  0  0  0  0
   12.3782    5.4231   20.7777 C   0  0  0  0  0  0  0  0  0  0  0  0
    7.7365    4.6508   21.6987 C   0  0  0  0  0  0  0  0  0  0  0  0
   13.0186   11.0102   18.0020 C   0  0  0  0  0  0  0  0  0  0  0  0
    8.6628    5.7088   21.8871 N   0  0  0  0  0  0  0  0  0  0  0  0
    5.6516    3.5258   21.9140 C   0  0  0  0  0  0  0  0  0  0  0  0
   11.5863    9.6815   19.4539 C   0  0  0  0  0  0  0  0  0  0  0  0
   12.9648    4.1543   20.9205 C   0  0  0  0  0  0  0  0  0  0  0  0
    8.2089    3.6265   20.8929 C   0  0  0  0  0  0  0  0  0  0  0  0
    7.3827    2.5724   20.5432 C   0  0  0  0  0  0  0  0  0  0  0  0
   11.1529    7.2750   20.8025 C   0  0  0  0  0  0  0  0  0  0  0  0
   10.2573    8.3215   20.9827 C   0  0  0  0  0  0  0  0  0  0  0  0
   11.1606    5.9378   21.2366 N   0  0  0  0  0  0  0  0  0  0  0  0
    9.8932   11.6736   19.0677 O   0  0  0  0  0  0  0  0  0  0  0  0
    6.4470    4.5850   22.2321 C   0  0  0  0  0  0  0  0  0  0  0  0
    8.4619    6.9895   22.2968 C   0  0  0  0  0  0  0  0  0  0  0  0
   12.2747    7.5102   20.0420 C   0  0  0  0  0  0  0  0  0  0  0  0
   14.2544    6.2142   19.4191 C   0  0  0  0  0  0  0  0  0  0  0  0
   13.0695    6.3705   20.0375 N   0  0  0  0  0  0  0  0  0  0  0  0
    9.1913    8.0876   21.8361 N   0  0  0  0  0  0  0  0  0  0  0  0
   10.4739    9.4813   20.2889 C   0  0  0  0  0  0  0  0  0  0  0  0
    7.5551    7.1270   23.1200 O   0  0  0  0  0  0  0  0  0  0  0  0
  1 11  4  0
  1 21  4  0
  2  4  1  0
  2  8  1  0
  2 11  1  0
  3 10  4  0
  3 14  4  0
  4  5  1  0
  4 18  2  0
  6 12  1  0
  6 17  4  0
  6 23  4  0
  7  9  1  0
  7 13  4  0
  7 19  4  0
  9 20  1  0
 10 19  4  0
 11 25  4  0
 13 14  4  0
 15 16  4  0
 15 17  4  0
 15 21  4  0
 16 24  1  0
 16 25  4  0
 20 24  1  0
 20 26  2  0
 21 23  4  0
 22 23  1  0
M  END
$$$$

 Created by Python create_sdf_string function

 26 28  0  0  0  0  0  0  0  0999 V2000
   12.4616    8.6700   19.4180 N   0  0  0  0  0  0  0  0  0  0  0  0
   11.8329   10.8148   18.6769 N   0  0  0  0  0  0  0  0  0  0  0  0
    6.1021    2.5564   21.0678 C   0  0  0  0  0  0  0  0  0  0  0  0
   10.9097   11.8051   18.4804 C   0  0  0  0  0  0  0  0  0  0  0  0
   11.2280   12.9135   17.5669 C   0  0  0  0  0  0  0  0  0  0  0  0
   12.3782    5.4231   20.7777 C   0  0  0  0  0  0  0  0  0  0  0  0
    7.7365    4.6508   21.6987 C   0  0  0  0  0  0  0  0  0  0  0  0
   13.0186   11.0102   18.0020 C   0  0  0  0  0  0  0  0  0  0  0  0
    8.6628    5.7088   21.8871 N   0  0  0  0  0  0  0  0  0  0  0  0
    5.6516    3.5258   21.9140 C   0  0  0  0  0  0  0  0  0  0  0  0
   11.5863    9.6815   19.4539 C   0  0  0  0  0  0  0  0  0  0  0  0
   12.9648    4.1543   20.9205 C   0  0  0  0  0  0  0  0  0  0  0  0
    8.2089    3.6265   20.8929 C   0  0  0  0  0  0  0  0  0  0  0  0
    7.3827    2.5724   20.5432 C   0  0  0  0  0  0  0  0  0  0  0  0
   11.1529    7.2750   20.8025 C   0  0  0  0  0  0  0  0  0  0  0  0
   10.2573    8.3215   20.9827 C   0  0  0  0  0  0  0  0  0  0  0  0
   11.1606    5.9378   21.2366 N   0  0  0  0  0  0  0  0  0  0  0  0
    9.8932   11.6736   19.0677 O   0  0  0  0  0  0  0  0  0  0  0  0
    6.4470    4.5850   22.2321 C   0  0  0  0  0  0  0  0  0  0  0  0
    8.4619    6.9895   22.2968 C   0  0  0  0  0  0  0  0  0  0  0  0
   12.2747    7.5102   20.0420 C   0  0  0  0  0  0  0  0  0  0  0  0
   14.2544    6.2142   19.4191 C   0  0  0  0  0  0  0  0  0  0  0  0
   13.0695    6.3705   20.0375 N   0  0  0  0  0  0  0  0  0  0  0  0
    9.1913    8.0876   21.8361 N   0  0  0  0  0  0  0  0  0  0  0  0
   10.4739    9.4813   20.2889 C   0  0  0  0  0  0  0  0  0  0  0  0
    7.5551    7.1270   23.1200 O   0  0  0  0  0  0  0  0  0  0  0  0
  1 11  4  0
  1 21  4  0
  2  4  1  0
  2  8  1  0
  2 11  1  0
  3 10  4  0
  3 14  4  0
  4  5  1  0
  4 18  2  0
  6 12  1  0
  6 17  4  0
  6 23  4  0
  7  9  1  0
  7 13  4  0
  7 19  4  0
  9 20  1  0
 10 19  4  0
 11 25  4  0
 13 14  4  0
 15 16  4  0
 15 17  4  0
 15 21  4  0
 16 24  1  0
 16 25  4  0
 20 24  1  0
 20 26  2  0
 21 23  4  0
 22 23  1  0
M  END
$$$$

 Created by Python create_sdf_string function

 26 28  0  0  0  0  0  0  0  0999 V2000
   12.4616    8.6700   19.4180 N   0  0  0  0  0  0  0  0  0  0  0  0
   11.8329   10.8148   18.6769 N   0  0  0  0  0  0  0  0  0  0  0  0
    6.1021    2.5564   21.0678 C   0  0  0  0  0  0  0  0  0  0  0  0
   10.9097   11.8051   18.4804 C   0  0  0  0  0  0  0  0  0  0  0  0
   11.2280   12.9135   17.5669 C   0  0  0  0  0  0  0  0  0  0  0  0
   12.3782    5.4231   20.7777 C   0  0  0  0  0  0  0  0  0  0  0  0
    7.7365    4.6508   21.6987 C   0  0  0  0  0  0  0  0  0  0  0  0
   13.0186   11.0102   18.0020 C   0  0  0  0  0  0  0  0  0  0  0  0
    8.6628    5.7088   21.8871 N   0  0  0  0  0  0  0  0  0  0  0  0
    5.6516    3.5258   21.9140 C   0  0  0  0  0  0  0  0  0  0  0  0
   11.5863    9.6815   19.4539 C   0  0  0  0  0  0  0  0  0  0  0  0
   12.9648    4.1543   20.9205 C   0  0  0  0  0  0  0  0  0  0  0  0
    8.2089    3.6265   20.8929 C   0  0  0  0  0  0  0  0  0  0  0  0
    7.3827    2.5724   20.5432 C   0  0  0  0  0  0  0  0  0  0  0  0
   11.1529    7.2750   20.8025 C   0  0  0  0  0  0  0  0  0  0  0  0
   10.2573    8.3215   20.9827 C   0  0  0  0  0  0  0  0  0  0  0  0
   11.1606    5.9378   21.2366 N   0  0  0  0  0  0  0  0  0  0  0  0
    9.8932   11.6736   19.0677 O   0  0  0  0  0  0  0  0  0  0  0  0
    6.4470    4.5850   22.2321 C   0  0  0  0  0  0  0  0  0  0  0  0
    8.4619    6.9895   22.2968 C   0  0  0  0  0  0  0  0  0  0  0  0
   12.2747    7.5102   20.0420 C   0  0  0  0  0  0  0  0  0  0  0  0
   14.2544    6.2142   19.4191 C   0  0  0  0  0  0  0  0  0  0  0  0
   13.0695    6.3705   20.0375 N   0  0  0  0  0  0  0  0  0  0  0  0
    9.1913    8.0876   21.8361 N   0  0  0  0  0  0  0  0  0  0  0  0
   10.4739    9.4813   20.2889 C   0  0  0  0  0  0  0  0  0  0  0  0
    7.5551    7.1270   23.1200 O   0  0  0  0  0  0  0  0  0  0  0  0
  1 11  4  0
  1 21  4  0
  2  4  1  0
  2  8  1  0
  2 11  1  0
  3 10  4  0
  3 14  4  0
  4  5  1  0
  4 18  2  0
  6 12  1  0
  6 17  4  0
  6 23  4  0
  7  9  1  0
  7 13  4  0
  7 19  4  0
  9 20  1  0
 10 19  4  0
 11 25  4  0
 13 14  4  0
 15 16  4  0
 15 17  4  0
 15 21  4  0
 16 24  1  0
 16 25  4  0
 20 24  1  0
 20 26  2  0
 21 23  4  0
 22 23  1  0
M  END
$$$$

 Created by Python create_sdf_string function

 26 28  0  0  0  0  0  0  0  0999 V2000
   12.4616    8.6700   19.4180 N   0  0  0  0  0  0  0  0  0  0  0  0
   11.8329   10.8148   18.6769 N   0  0  0  0  0  0  0  0  0  0  0  0
    6.1021    2.5564   21.0678 C   0  0  0  0  0  0  0  0  0  0  0  0
   10.9097   11.8051   18.4804 C   0  0  0  0  0  0  0  0  0  0  0  0
   11.2280   12.9135   17.5669 C   0  0  0  0  0  0  0  0  0  0  0  0
   12.3782    5.4231   20.7777 C   0  0  0  0  0  0  0  0  0  0  0  0
    7.7365    4.6508   21.6987 C   0  0  0  0  0  0  0  0  0  0  0  0
   13.0186   11.0102   18.0020 C   0  0  0  0  0  0  0  0  0  0  0  0
    8.6628    5.7088   21.8871 N   0  0  0  0  0  0  0  0  0  0  0  0
    5.6516    3.5258   21.9140 C   0  0  0  0  0  0  0  0  0  0  0  0
   11.5863    9.6815   19.4539 C   0  0  0  0  0  0  0  0  0  0  0  0
   12.9648    4.1543   20.9205 C   0  0  0  0  0  0  0  0  0  0  0  0
    8.2089    3.6265   20.8929 C   0  0  0  0  0  0  0  0  0  0  0  0
    7.3827    2.5724   20.5432 C   0  0  0  0  0  0  0  0  0  0  0  0
   11.1529    7.2750   20.8025 C   0  0  0  0  0  0  0  0  0  0  0  0
   10.2573    8.3215   20.9827 C   0  0  0  0  0  0  0  0  0  0  0  0
   11.1606    5.9378   21.2366 N   0  0  0  0  0  0  0  0  0  0  0  0
    9.8932   11.6736   19.0677 O   0  0  0  0  0  0  0  0  0  0  0  0
    6.4470    4.5850   22.2321 C   0  0  0  0  0  0  0  0  0  0  0  0
    8.4619    6.9895   22.2968 C   0  0  0  0  0  0  0  0  0  0  0  0
   12.2747    7.5102   20.0420 C   0  0  0  0  0  0  0  0  0  0  0  0
   14.2544    6.2142   19.4191 C   0  0  0  0  0  0  0  0  0  0  0  0
   13.0695    6.3705   20.0375 N   0  0  0  0  0  0  0  0  0  0  0  0
    9.1913    8.0876   21.8361 N   0  0  0  0  0  0  0  0  0  0  0  0
   10.4739    9.4813   20.2889 C   0  0  0  0  0  0  0  0  0  0  0  0
    7.5551    7.1270   23.1200 O   0  0  0  0  0  0  0  0  0  0  0  0
  1 11  4  0
  1 21  4  0
  2  4  1  0
  2  8  1  0
  2 11  1  0
  3 10  4  0
  3 14  4  0
  4  5  1  0
  4 18  2  0
  6 12  1  0
  6 17  4  0
  6 23  4  0
  7  9  1  0
  7 13  4  0
  7 19  4  0
  9 20  1  0
 10 19  4  0
 11 25  4  0
 13 14  4  0
 15 16  4  0
 15 17  4  0
 15 21  4  0
 16 24  1  0
 16 25  4  0
 20 24  1  0
 20 26  2  0
 21 23  4  0
 22 23  1  0
M  END
$$$$

 Created by Python create_sdf_string function

 26 28  0  0  0  0  0  0  0  0999 V2000
   12.4616    8.6700   19.4180 N   0  0  0  0  0  0  0  0  0  0  0  0
   11.8329   10.8148   18.6769 N   0  0  0  0  0  0  0  0  0  0  0  0
    6.1021    2.5564   21.0678 C   0  0  0  0  0  0  0  0  0  0  0  0
   10.9097   11.8051   18.4804 C   0  0  0  0  0  0  0  0  0  0  0  0
   11.2280   12.9135   17.5669 C   0  0  0  0  0  0  0  0  0  0  0  0
   12.3782    5.4231   20.7777 C   0  0  0  0  0  0  0  0  0  0  0  0
    7.7365    4.6508   21.6987 C   0  0  0  0  0  0  0  0  0  0  0  0
   13.0186   11.0102   18.0020 C   0  0  0  0  0  0  0  0  0  0  0  0
    8.6628    5.7088   21.8871 N   0  0  0  0  0  0  0  0  0  0  0  0
    5.6516    3.5258   21.9140 C   0  0  0  0  0  0  0  0  0  0  0  0
   11.5863    9.6815   19.4539 C   0  0  0  0  0  0  0  0  0  0  0  0
   12.9648    4.1543   20.9205 C   0  0  0  0  0  0  0  0  0  0  0  0
    8.2089    3.6265   20.8929 C   0  0  0  0  0  0  0  0  0  0  0  0
    7.3827    2.5724   20.5432 C   0  0  0  0  0  0  0  0  0  0  0  0
   11.1529    7.2750   20.8025 C   0  0  0  0  0  0  0  0  0  0  0  0
   10.2573    8.3215   20.9827 C   0  0  0  0  0  0  0  0  0  0  0  0
   11.1606    5.9378   21.2366 N   0  0  0  0  0  0  0  0  0  0  0  0
    9.8932   11.6736   19.0677 O   0  0  0  0  0  0  0  0  0  0  0  0
    6.4470    4.5850   22.2321 C   0  0  0  0  0  0  0  0  0  0  0  0
    8.4619    6.9895   22.2968 C   0  0  0  0  0  0  0  0  0  0  0  0
   12.2747    7.5102   20.0420 C   0  0  0  0  0  0  0  0  0  0  0  0
   14.2544    6.2142   19.4191 C   0  0  0  0  0  0  0  0  0  0  0  0
   13.0695    6.3705   20.0375 N   0  0  0  0  0  0  0  0  0  0  0  0
    9.1913    8.0876   21.8361 N   0  0  0  0  0  0  0  0  0  0  0  0
   10.4739    9.4813   20.2889 C   0  0  0  0  0  0  0  0  0  0  0  0
    7.5551    7.1270   23.1200 O   0  0  0  0  0  0  0  0  0  0  0  0
  1 11  4  0
  1 21  4  0
  2  4  1  0
  2  8  1  0
  2 11  1  0
  3 10  4  0
  3 14  4  0
  4  5  1  0
  4 18  2  0
  6 12  1  0
  6 17  4  0
  6 23  4  0
  7  9  1  0
  7 13  4  0
  7 19  4  0
  9 20  1  0
 10 19  4  0
 11 25  4  0
 13 14  4  0
 15 16  4  0
 15 17  4  0
 15 21  4  0
 16 24  1  0
 16 25  4  0
 20 24  1  0
 20 26  2  0
 21 23  4  0
 22 23  1  0
M  END
$$$$

 Created by Python create_sdf_string function

 26 28  0  0  0  0  0  0  0  0999 V2000
   12.4616    8.6700   19.4180 N   0  0  0  0  0  0  0  0  0  0  0  0
   11.8329   10.8148   18.6769 N   0  0  0  0  0  0  0  0  0  0  0  0
    6.1021    2.5564   21.0678 C   0  0  0  0  0  0  0  0  0  0  0  0
   10.9097   11.8051   18.4804 C   0  0  0  0  0  0  0  0  0  0  0  0
   11.2280   12.9135   17.5669 C   0  0  0  0  0  0  0  0  0  0  0  0
   12.3782    5.4231   20.7777 C   0  0  0  0  0  0  0  0  0  0  0  0
    7.7365    4.6508   21.6987 C   0  0  0  0  0  0  0  0  0  0  0  0
   13.0186   11.0102   18.0020 C   0  0  0  0  0  0  0  0  0  0  0  0
    8.6628    5.7088   21.8871 N   0  0  0  0  0  0  0  0  0  0  0  0
    5.6516    3.5258   21.9140 C   0  0  0  0  0  0  0  0  0  0  0  0
   11.5863    9.6815   19.4539 C   0  0  0  0  0  0  0  0  0  0  0  0
   12.9648    4.1543   20.9205 C   0  0  0  0  0  0  0  0  0  0  0  0
    8.2089    3.6265   20.8929 C   0  0  0  0  0  0  0  0  0  0  0  0
    7.3827    2.5724   20.5432 C   0  0  0  0  0  0  0  0  0  0  0  0
   11.1529    7.2750   20.8025 C   0  0  0  0  0  0  0  0  0  0  0  0
   10.2573    8.3215   20.9827 C   0  0  0  0  0  0  0  0  0  0  0  0
   11.1606    5.9378   21.2366 N   0  0  0  0  0  0  0  0  0  0  0  0
    9.8932   11.6736   19.0677 O   0  0  0  0  0  0  0  0  0  0  0  0
    6.4470    4.5850   22.2321 C   0  0  0  0  0  0  0  0  0  0  0  0
    8.4619    6.9895   22.2968 C   0  0  0  0  0  0  0  0  0  0  0  0
   12.2747    7.5102   20.0420 C   0  0  0  0  0  0  0  0  0  0  0  0
   14.2544    6.2142   19.4191 C   0  0  0  0  0  0  0  0  0  0  0  0
   13.0695    6.3705   20.0375 N   0  0  0  0  0  0  0  0  0  0  0  0
    9.1913    8.0876   21.8361 N   0  0  0  0  0  0  0  0  0  0  0  0
   10.4739    9.4813   20.2889 C   0  0  0  0  0  0  0  0  0  0  0  0
    7.5551    7.1270   23.1200 O   0  0  0  0  0  0  0  0  0  0  0  0
  1 11  4  0
  1 21  4  0
  2  4  1  0
  2  8  1  0
  2 11  1  0
  3 10  4  0
  3 14  4  0
  4  5  1  0
  4 18  2  0
  6 12  1  0
  6 17  4  0
  6 23  4  0
  7  9  1  0
  7 13  4  0
  7 19  4  0
  9 20  1  0
 10 19  4  0
 11 25  4  0
 13 14  4  0
 15 16  4  0
 15 17  4  0
 15 21  4  0
 16 24  1  0
 16 25  4  0
 20 24  1  0
 20 26  2  0
 21 23  4  0
 22 23  1  0
M  END
$$$$

 Created by Python create_sdf_string function

 26 28  0  0  0  0  0  0  0  0999 V2000
   12.4616    8.6700   19.4180 N   0  0  0  0  0  0  0  0  0  0  0  0
   11.8329   10.8148   18.6769 N   0  0  0  0  0  0  0  0  0  0  0  0
    6.1021    2.5564   21.0678 C   0  0  0  0  0  0  0  0  0  0  0  0
   10.9097   11.8051   18.4804 C   0  0  0  0  0  0  0  0  0  0  0  0
   11.2280   12.9135   17.5669 C   0  0  0  0  0  0  0  0  0  0  0  0
   12.3782    5.4231   20.7777 C   0  0  0  0  0  0  0  0  0  0  0  0
    7.7365    4.6508   21.6987 C   0  0  0  0  0  0  0  0  0  0  0  0
   13.0186   11.0102   18.0020 C   0  0  0  0  0  0  0  0  0  0  0  0
    8.6628    5.7088   21.8871 N   0  0  0  0  0  0  0  0  0  0  0  0
    5.6516    3.5258   21.9140 C   0  0  0  0  0  0  0  0  0  0  0  0
   11.5863    9.6815   19.4539 C   0  0  0  0  0  0  0  0  0  0  0  0
   12.9648    4.1543   20.9205 C   0  0  0  0  0  0  0  0  0  0  0  0
    8.2089    3.6265   20.8929 C   0  0  0  0  0  0  0  0  0  0  0  0
    7.3827    2.5724   20.5432 C   0  0  0  0  0  0  0  0  0  0  0  0
   11.1529    7.2750   20.8025 C   0  0  0  0  0  0  0  0  0  0  0  0
   10.2573    8.3215   20.9827 C   0  0  0  0  0  0  0  0  0  0  0  0
   11.1606    5.9378   21.2366 N   0  0  0  0  0  0  0  0  0  0  0  0
    9.8932   11.6736   19.0677 O   0  0  0  0  0  0  0  0  0  0  0  0
    6.4470    4.5850   22.2321 C   0  0  0  0  0  0  0  0  0  0  0  0
    8.4619    6.9895   22.2968 C   0  0  0  0  0  0  0  0  0  0  0  0
   12.2747    7.5102   20.0420 C   0  0  0  0  0  0  0  0  0  0  0  0
   14.2544    6.2142   19.4191 C   0  0  0  0  0  0  0  0  0  0  0  0
   13.0695    6.3705   20.0375 N   0  0  0  0  0  0  0  0  0  0  0  0
    9.1913    8.0876   21.8361 N   0  0  0  0  0  0  0  0  0  0  0  0
   10.4739    9.4813   20.2889 C   0  0  0  0  0  0  0  0  0  0  0  0
    7.5551    7.1270   23.1200 O   0  0  0  0  0  0  0  0  0  0  0  0
  1 11  4  0
  1 21  4  0
  2  4  1  0
  2  8  1  0
  2 11  1  0
  3 10  4  0
  3 14  4  0
  4  5  1  0
  4 18  2  0
  6 12  1  0
  6 17  4  0
  6 23  4  0
  7  9  1  0
  7 13  4  0
  7 19  4  0
  9 20  1  0
 10 19  4  0
 11 25  4  0
 13 14  4  0
 15 16  4  0
 15 17  4  0
 15 21  4  0
 16 24  1  0
 16 25  4  0
 20 24  1  0
 20 26  2  0
 21 23  4  0
 22 23  1  0
M  END
$$$$

 Created by Python create_sdf_string function

 26 28  0  0  0  0  0  0  0  0999 V2000
   12.4616    8.6700   19.4180 N   0  0  0  0  0  0  0  0  0  0  0  0
   11.8329   10.8148   18.6769 N   0  0  0  0  0  0  0  0  0  0  0  0
    6.1021    2.5564   21.0678 C   0  0  0  0  0  0  0  0  0  0  0  0
   10.9097   11.8051   18.4804 C   0  0  0  0  0  0  0  0  0  0  0  0
   11.2280   12.9135   17.5669 C   0  0  0  0  0  0  0  0  0  0  0  0
   12.3782    5.4231   20.7777 C   0  0  0  0  0  0  0  0  0  0  0  0
    7.7365    4.6508   21.6987 C   0  0  0  0  0  0  0  0  0  0  0  0
   13.0186   11.0102   18.0020 C   0  0  0  0  0  0  0  0  0  0  0  0
    8.6628    5.7088   21.8871 N   0  0  0  0  0  0  0  0  0  0  0  0
    5.6516    3.5258   21.9140 C   0  0  0  0  0  0  0  0  0  0  0  0
   11.5863    9.6815   19.4539 C   0  0  0  0  0  0  0  0  0  0  0  0
   12.9648    4.1543   20.9205 C   0  0  0  0  0  0  0  0  0  0  0  0
    8.2089    3.6265   20.8929 C   0  0  0  0  0  0  0  0  0  0  0  0
    7.3827    2.5724   20.5432 C   0  0  0  0  0  0  0  0  0  0  0  0
   11.1529    7.2750   20.8025 C   0  0  0  0  0  0  0  0  0  0  0  0
   10.2573    8.3215   20.9827 C   0  0  0  0  0  0  0  0  0  0  0  0
   11.1606    5.9378   21.2366 N   0  0  0  0  0  0  0  0  0  0  0  0
    9.8932   11.6736   19.0677 O   0  0  0  0  0  0  0  0  0  0  0  0
    6.4470    4.5850   22.2321 C   0  0  0  0  0  0  0  0  0  0  0  0
    8.4619    6.9895   22.2968 C   0  0  0  0  0  0  0  0  0  0  0  0
   12.2747    7.5102   20.0420 C   0  0  0  0  0  0  0  0  0  0  0  0
   14.2544    6.2142   19.4191 C   0  0  0  0  0  0  0  0  0  0  0  0
   13.0695    6.3705   20.0375 N   0  0  0  0  0  0  0  0  0  0  0  0
    9.1913    8.0876   21.8361 N   0  0  0  0  0  0  0  0  0  0  0  0
   10.4739    9.4813   20.2889 C   0  0  0  0  0  0  0  0  0  0  0  0
    7.5551    7.1270   23.1200 O   0  0  0  0  0  0  0  0  0  0  0  0
  1 11  4  0
  1 21  4  0
  2  4  1  0
  2  8  1  0
  2 11  1  0
  3 10  4  0
  3 14  4  0
  4  5  1  0
  4 18  2  0
  6 12  1  0
  6 17  4  0
  6 23  4  0
  7  9  1  0
  7 13  4  0
  7 19  4  0
  9 20  1  0
 10 19  4  0
 11 25  4  0
 13 14  4  0
 15 16  4  0
 15 17  4  0
 15 21  4  0
 16 24  1  0
 16 25  4  0
 20 24  1  0
 20 26  2  0
 21 23  4  0
 22 23  1  0
M  END
$$$$

 Created by Python create_sdf_string function

 26 28  0  0  0  0  0  0  0  0999 V2000
   12.4616    8.6700   19.4180 N   0  0  0  0  0  0  0  0  0  0  0  0
   11.8329   10.8148   18.6769 N   0  0  0  0  0  0  0  0  0  0  0  0
    6.1021    2.5564   21.0678 C   0  0  0  0  0  0  0  0  0  0  0  0
   10.9097   11.8051   18.4804 C   0  0  0  0  0  0  0  0  0  0  0  0
   11.2280   12.9135   17.5669 C   0  0  0  0  0  0  0  0  0  0  0  0
   12.3782    5.4231   20.7777 C   0  0  0  0  0  0  0  0  0  0  0  0
    7.7365    4.6508   21.6987 C   0  0  0  0  0  0  0  0  0  0  0  0
   13.0186   11.0102   18.0020 C   0  0  0  0  0  0  0  0  0  0  0  0
    8.6628    5.7088   21.8871 N   0  0  0  0  0  0  0  0  0  0  0  0
    5.6516    3.5258   21.9140 C   0  0  0  0  0  0  0  0  0  0  0  0
   11.5863    9.6815   19.4539 C   0  0  0  0  0  0  0  0  0  0  0  0
   12.9648    4.1543   20.9205 C   0  0  0  0  0  0  0  0  0  0  0  0
    8.2089    3.6265   20.8929 C   0  0  0  0  0  0  0  0  0  0  0  0
    7.3827    2.5724   20.5432 C   0  0  0  0  0  0  0  0  0  0  0  0
   11.1529    7.2750   20.8025 C   0  0  0  0  0  0  0  0  0  0  0  0
   10.2573    8.3215   20.9827 C   0  0  0  0  0  0  0  0  0  0  0  0
   11.1606    5.9378   21.2366 N   0  0  0  0  0  0  0  0  0  0  0  0
    9.8932   11.6736   19.0677 O   0  0  0  0  0  0  0  0  0  0  0  0
    6.4470    4.5850   22.2321 C   0  0  0  0  0  0  0  0  0  0  0  0
    8.4619    6.9895   22.2968 C   0  0  0  0  0  0  0  0  0  0  0  0
   12.2747    7.5102   20.0420 C   0  0  0  0  0  0  0  0  0  0  0  0
   14.2544    6.2142   19.4191 C   0  0  0  0  0  0  0  0  0  0  0  0
   13.0695    6.3705   20.0375 N   0  0  0  0  0  0  0  0  0  0  0  0
    9.1913    8.0876   21.8361 N   0  0  0  0  0  0  0  0  0  0  0  0
   10.4739    9.4813   20.2889 C   0  0  0  0  0  0  0  0  0  0  0  0
    7.5551    7.1270   23.1200 O   0  0  0  0  0  0  0  0  0  0  0  0
  1 11  4  0
  1 21  4  0
  2  4  1  0
  2  8  1  0
  2 11  1  0
  3 10  4  0
  3 14  4  0
  4  5  1  0
  4 18  2  0
  6 12  1  0
  6 17  4  0
  6 23  4  0
  7  9  1  0
  7 13  4  0
  7 19  4  0
  9 20  1  0
 10 19  4  0
 11 25  4  0
 13 14  4  0
 15 16  4  0
 15 17  4  0
 15 21  4  0
 16 24  1  0
 16 25  4  0
 20 24  1  0
 20 26  2  0
 21 23  4  0
 22 23  1  0
M  END
$$$$

 Created by Python create_sdf_string function

 26 28  0  0  0  0  0  0  0  0999 V2000
   12.4616    8.6700   19.4180 N   0  0  0  0  0  0  0  0  0  0  0  0
   11.8329   10.8148   18.6769 N   0  0  0  0  0  0  0  0  0  0  0  0
    6.1021    2.5564   21.0678 C   0  0  0  0  0  0  0  0  0  0  0  0
   10.9097   11.8051   18.4804 C   0  0  0  0  0  0  0  0  0  0  0  0
   11.2280   12.9135   17.5669 C   0  0  0  0  0  0  0  0  0  0  0  0
   12.3782    5.4231   20.7777 C   0  0  0  0  0  0  0  0  0  0  0  0
    7.7365    4.6508   21.6987 C   0  0  0  0  0  0  0  0  0  0  0  0
   13.0186   11.0102   18.0020 C   0  0  0  0  0  0  0  0  0  0  0  0
    8.6628    5.7088   21.8871 N   0  0  0  0  0  0  0  0  0  0  0  0
    5.6516    3.5258   21.9140 C   0  0  0  0  0  0  0  0  0  0  0  0
   11.5863    9.6815   19.4539 C   0  0  0  0  0  0  0  0  0  0  0  0
   12.9648    4.1543   20.9205 C   0  0  0  0  0  0  0  0  0  0  0  0
    8.2089    3.6265   20.8929 C   0  0  0  0  0  0  0  0  0  0  0  0
    7.3827    2.5724   20.5432 C   0  0  0  0  0  0  0  0  0  0  0  0
   11.1529    7.2750   20.8025 C   0  0  0  0  0  0  0  0  0  0  0  0
   10.2573    8.3215   20.9827 C   0  0  0  0  0  0  0  0  0  0  0  0
   11.1606    5.9378   21.2366 N   0  0  0  0  0  0  0  0  0  0  0  0
    9.8932   11.6736   19.0677 O   0  0  0  0  0  0  0  0  0  0  0  0
    6.4470    4.5850   22.2321 C   0  0  0  0  0  0  0  0  0  0  0  0
    8.4619    6.9895   22.2968 C   0  0  0  0  0  0  0  0  0  0  0  0
   12.2747    7.5102   20.0420 C   0  0  0  0  0  0  0  0  0  0  0  0
   14.2544    6.2142   19.4191 C   0  0  0  0  0  0  0  0  0  0  0  0
   13.0695    6.3705   20.0375 N   0  0  0  0  0  0  0  0  0  0  0  0
    9.1913    8.0876   21.8361 N   0  0  0  0  0  0  0  0  0  0  0  0
   10.4739    9.4813   20.2889 C   0  0  0  0  0  0  0  0  0  0  0  0
    7.5551    7.1270   23.1200 O   0  0  0  0  0  0  0  0  0  0  0  0
  1 11  4  0
  1 21  4  0
  2  4  1  0
  2  8  1  0
  2 11  1  0
  3 10  4  0
  3 14  4  0
  4  5  1  0
  4 18  2  0
  6 12  1  0
  6 17  4  0
  6 23  4  0
  7  9  1  0
  7 13  4  0
  7 19  4  0
  9 20  1  0
 10 19  4  0
 11 25  4  0
 13 14  4  0
 15 16  4  0
 15 17  4  0
 15 21  4  0
 16 24  1  0
 16 25  4  0
 20 24  1  0
 20 26  2  0
 21 23  4  0
 22 23  1  0
M  END
$$$$

 Created by Python create_sdf_string function

 26 28  0  0  0  0  0  0  0  0999 V2000
   12.4616    8.6700   19.4180 N   0  0  0  0  0  0  0  0  0  0  0  0
   11.8329   10.8148   18.6769 N   0  0  0  0  0  0  0  0  0  0  0  0
    6.1021    2.5564   21.0678 C   0  0  0  0  0  0  0  0  0  0  0  0
   10.9097   11.8051   18.4804 C   0  0  0  0  0  0  0  0  0  0  0  0
   11.2280   12.9135   17.5669 C   0  0  0  0  0  0  0  0  0  0  0  0
   12.3782    5.4231   20.7777 C   0  0  0  0  0  0  0  0  0  0  0  0
    7.7365    4.6508   21.6987 C   0  0  0  0  0  0  0  0  0  0  0  0
   13.0186   11.0102   18.0020 C   0  0  0  0  0  0  0  0  0  0  0  0
    8.6628    5.7088   21.8871 N   0  0  0  0  0  0  0  0  0  0  0  0
    5.6516    3.5258   21.9140 C   0  0  0  0  0  0  0  0  0  0  0  0
   11.5863    9.6815   19.4539 C   0  0  0  0  0  0  0  0  0  0  0  0
   12.9648    4.1543   20.9205 C   0  0  0  0  0  0  0  0  0  0  0  0
    8.2089    3.6265   20.8929 C   0  0  0  0  0  0  0  0  0  0  0  0
    7.3827    2.5724   20.5432 C   0  0  0  0  0  0  0  0  0  0  0  0
   11.1529    7.2750   20.8025 C   0  0  0  0  0  0  0  0  0  0  0  0
   10.2573    8.3215   20.9827 C   0  0  0  0  0  0  0  0  0  0  0  0
   11.1606    5.9378   21.2366 N   0  0  0  0  0  0  0  0  0  0  0  0
    9.8932   11.6736   19.0677 O   0  0  0  0  0  0  0  0  0  0  0  0
    6.4470    4.5850   22.2321 C   0  0  0  0  0  0  0  0  0  0  0  0
    8.4619    6.9895   22.2968 C   0  0  0  0  0  0  0  0  0  0  0  0
   12.2747    7.5102   20.0420 C   0  0  0  0  0  0  0  0  0  0  0  0
   14.2544    6.2142   19.4191 C   0  0  0  0  0  0  0  0  0  0  0  0
   13.0695    6.3705   20.0375 N   0  0  0  0  0  0  0  0  0  0  0  0
    9.1913    8.0876   21.8361 N   0  0  0  0  0  0  0  0  0  0  0  0
   10.4739    9.4813   20.2889 C   0  0  0  0  0  0  0  0  0  0  0  0
    7.5551    7.1270   23.1200 O   0  0  0  0  0  0  0  0  0  0  0  0
  1 11  4  0
  1 21  4  0
  2  4  1  0
  2  8  1  0
  2 11  1  0
  3 10  4  0
  3 14  4  0
  4  5  1  0
  4 18  2  0
  6 12  1  0
  6 17  4  0
  6 23  4  0
  7  9  1  0
  7 13  4  0
  7 19  4  0
  9 20  1  0
 10 19  4  0
 11 25  4  0
 13 14  4  0
 15 16  4  0
 15 17  4  0
 15 21  4  0
 16 24  1  0
 16 25  4  0
 20 24  1  0
 20 26  2  0
 21 23  4  0
 22 23  1  0
M  END
$$$$

 Created by Python create_sdf_string function

 26 28  0  0  0  0  0  0  0  0999 V2000
   12.4616    8.6700   19.4180 N   0  0  0  0  0  0  0  0  0  0  0  0
   11.8329   10.8148   18.6769 N   0  0  0  0  0  0  0  0  0  0  0  0
    6.1021    2.5564   21.0678 C   0  0  0  0  0  0  0  0  0  0  0  0
   10.9097   11.8051   18.4804 C   0  0  0  0  0  0  0  0  0  0  0  0
   11.2280   12.9135   17.5669 C   0  0  0  0  0  0  0  0  0  0  0  0
   12.3782    5.4231   20.7777 C   0  0  0  0  0  0  0  0  0  0  0  0
    7.7365    4.6508   21.6987 C   0  0  0  0  0  0  0  0  0  0  0  0
   13.0186   11.0102   18.0020 C   0  0  0  0  0  0  0  0  0  0  0  0
    8.6628    5.7088   21.8871 N   0  0  0  0  0  0  0  0  0  0  0  0
    5.6516    3.5258   21.9140 C   0  0  0  0  0  0  0  0  0  0  0  0
   11.5863    9.6815   19.4539 C   0  0  0  0  0  0  0  0  0  0  0  0
   12.9648    4.1543   20.9205 C   0  0  0  0  0  0  0  0  0  0  0  0
    8.2089    3.6265   20.8929 C   0  0  0  0  0  0  0  0  0  0  0  0
    7.3827    2.5724   20.5432 C   0  0  0  0  0  0  0  0  0  0  0  0
   11.1529    7.2750   20.8025 C   0  0  0  0  0  0  0  0  0  0  0  0
   10.2573    8.3215   20.9827 C   0  0  0  0  0  0  0  0  0  0  0  0
   11.1606    5.9378   21.2366 N   0  0  0  0  0  0  0  0  0  0  0  0
    9.8932   11.6736   19.0677 O   0  0  0  0  0  0  0  0  0  0  0  0
    6.4470    4.5850   22.2321 C   0  0  0  0  0  0  0  0  0  0  0  0
    8.4619    6.9895   22.2968 C   0  0  0  0  0  0  0  0  0  0  0  0
   12.2747    7.5102   20.0420 C   0  0  0  0  0  0  0  0  0  0  0  0
   14.2544    6.2142   19.4191 C   0  0  0  0  0  0  0  0  0  0  0  0
   13.0695    6.3705   20.0375 N   0  0  0  0  0  0  0  0  0  0  0  0
    9.1913    8.0876   21.8361 N   0  0  0  0  0  0  0  0  0  0  0  0
   10.4739    9.4813   20.2889 C   0  0  0  0  0  0  0  0  0  0  0  0
    7.5551    7.1270   23.1200 O   0  0  0  0  0  0  0  0  0  0  0  0
  1 11  4  0
  1 21  4  0
  2  4  1  0
  2  8  1  0
  2 11  1  0
  3 10  4  0
  3 14  4  0
  4  5  1  0
  4 18  2  0
  6 12  1  0
  6 17  4  0
  6 23  4  0
  7  9  1  0
  7 13  4  0
  7 19  4  0
  9 20  1  0
 10 19  4  0
 11 25  4  0
 13 14  4  0
 15 16  4  0
 15 17  4  0
 15 21  4  0
 16 24  1  0
 16 25  4  0
 20 24  1  0
 20 26  2  0
 21 23  4  0
 22 23  1  0
M  END
$$$$

 Created by Python create_sdf_string function

 26 28  0  0  0  0  0  0  0  0999 V2000
   12.4616    8.6700   19.4180 N   0  0  0  0  0  0  0  0  0  0  0  0
   11.8329   10.8148   18.6769 N   0  0  0  0  0  0  0  0  0  0  0  0
    6.1021    2.5564   21.0678 C   0  0  0  0  0  0  0  0  0  0  0  0
   10.9097   11.8051   18.4804 C   0  0  0  0  0  0  0  0  0  0  0  0
   11.2280   12.9135   17.5669 C   0  0  0  0  0  0  0  0  0  0  0  0
   12.3782    5.4231   20.7777 C   0  0  0  0  0  0  0  0  0  0  0  0
    7.7365    4.6508   21.6987 C   0  0  0  0  0  0  0  0  0  0  0  0
   13.0186   11.0102   18.0020 C   0  0  0  0  0  0  0  0  0  0  0  0
    8.6628    5.7088   21.8871 N   0  0  0  0  0  0  0  0  0  0  0  0
    5.6516    3.5258   21.9140 C   0  0  0  0  0  0  0  0  0  0  0  0
   11.5863    9.6815   19.4539 C   0  0  0  0  0  0  0  0  0  0  0  0
   12.9648    4.1543   20.9205 C   0  0  0  0  0  0  0  0  0  0  0  0
    8.2089    3.6265   20.8929 C   0  0  0  0  0  0  0  0  0  0  0  0
    7.3827    2.5724   20.5432 C   0  0  0  0  0  0  0  0  0  0  0  0
   11.1529    7.2750   20.8025 C   0  0  0  0  0  0  0  0  0  0  0  0
   10.2573    8.3215   20.9827 C   0  0  0  0  0  0  0  0  0  0  0  0
   11.1606    5.9378   21.2366 N   0  0  0  0  0  0  0  0  0  0  0  0
    9.8932   11.6736   19.0677 O   0  0  0  0  0  0  0  0  0  0  0  0
    6.4470    4.5850   22.2321 C   0  0  0  0  0  0  0  0  0  0  0  0
    8.4619    6.9895   22.2968 C   0  0  0  0  0  0  0  0  0  0  0  0
   12.2747    7.5102   20.0420 C   0  0  0  0  0  0  0  0  0  0  0  0
   14.2544    6.2142   19.4191 C   0  0  0  0  0  0  0  0  0  0  0  0
   13.0695    6.3705   20.0375 N   0  0  0  0  0  0  0  0  0  0  0  0
    9.1913    8.0876   21.8361 N   0  0  0  0  0  0  0  0  0  0  0  0
   10.4739    9.4813   20.2889 C   0  0  0  0  0  0  0  0  0  0  0  0
    7.5551    7.1270   23.1200 O   0  0  0  0  0  0  0  0  0  0  0  0
  1 11  4  0
  1 21  4  0
  2  4  1  0
  2  8  1  0
  2 11  1  0
  3 10  4  0
  3 14  4  0
  4  5  1  0
  4 18  2  0
  6 12  1  0
  6 17  4  0
  6 23  4  0
  7  9  1  0
  7 13  4  0
  7 19  4  0
  9 20  1  0
 10 19  4  0
 11 25  4  0
 13 14  4  0
 15 16  4  0
 15 17  4  0
 15 21  4  0
 16 24  1  0
 16 25  4  0
 20 24  1  0
 20 26  2  0
 21 23  4  0
 22 23  1  0
M  END
$$$$

 Created by Python create_sdf_string function

 26 28  0  0  0  0  0  0  0  0999 V2000
   12.4616    8.6700   19.4180 N   0  0  0  0  0  0  0  0  0  0  0  0
   11.8329   10.8148   18.6769 N   0  0  0  0  0  0  0  0  0  0  0  0
    6.1021    2.5564   21.0678 C   0  0  0  0  0  0  0  0  0  0  0  0
   10.9097   11.8051   18.4804 C   0  0  0  0  0  0  0  0  0  0  0  0
   11.2280   12.9135   17.5669 C   0  0  0  0  0  0  0  0  0  0  0  0
   12.3782    5.4231   20.7777 C   0  0  0  0  0  0  0  0  0  0  0  0
    7.7365    4.6508   21.6987 C   0  0  0  0  0  0  0  0  0  0  0  0
   13.0186   11.0102   18.0020 C   0  0  0  0  0  0  0  0  0  0  0  0
    8.6628    5.7088   21.8871 N   0  0  0  0  0  0  0  0  0  0  0  0
    5.6516    3.5258   21.9140 C   0  0  0  0  0  0  0  0  0  0  0  0
   11.5863    9.6815   19.4539 C   0  0  0  0  0  0  0  0  0  0  0  0
   12.9648    4.1543   20.9205 C   0  0  0  0  0  0  0  0  0  0  0  0
    8.2089    3.6265   20.8929 C   0  0  0  0  0  0  0  0  0  0  0  0
    7.3827    2.5724   20.5432 C   0  0  0  0  0  0  0  0  0  0  0  0
   11.1529    7.2750   20.8025 C   0  0  0  0  0  0  0  0  0  0  0  0
   10.2573    8.3215   20.9827 C   0  0  0  0  0  0  0  0  0  0  0  0
   11.1606    5.9378   21.2366 N   0  0  0  0  0  0  0  0  0  0  0  0
    9.8932   11.6736   19.0677 O   0  0  0  0  0  0  0  0  0  0  0  0
    6.4470    4.5850   22.2321 C   0  0  0  0  0  0  0  0  0  0  0  0
    8.4619    6.9895   22.2968 C   0  0  0  0  0  0  0  0  0  0  0  0
   12.2747    7.5102   20.0420 C   0  0  0  0  0  0  0  0  0  0  0  0
   14.2544    6.2142   19.4191 C   0  0  0  0  0  0  0  0  0  0  0  0
   13.0695    6.3705   20.0375 N   0  0  0  0  0  0  0  0  0  0  0  0
    9.1913    8.0876   21.8361 N   0  0  0  0  0  0  0  0  0  0  0  0
   10.4739    9.4813   20.2889 C   0  0  0  0  0  0  0  0  0  0  0  0
    7.5551    7.1270   23.1200 O   0  0  0  0  0  0  0  0  0  0  0  0
  1 11  4  0
  1 21  4  0
  2  4  1  0
  2  8  1  0
  2 11  1  0
  3 10  4  0
  3 14  4  0
  4  5  1  0
  4 18  2  0
  6 12  1  0
  6 17  4  0
  6 23  4  0
  7  9  1  0
  7 13  4  0
  7 19  4  0
  9 20  1  0
 10 19  4  0
 11 25  4  0
 13 14  4  0
 15 16  4  0
 15 17  4  0
 15 21  4  0
 16 24  1  0
 16 25  4  0
 20 24  1  0
 20 26  2  0
 21 23  4  0
 22 23  1  0
M  END
$$$$

 Created by Python create_sdf_string function

 26 28  0  0  0  0  0  0  0  0999 V2000
   12.4616    8.6700   19.4180 N   0  0  0  0  0  0  0  0  0  0  0  0
   11.8329   10.8148   18.6769 N   0  0  0  0  0  0  0  0  0  0  0  0
    6.1021    2.5564   21.0678 C   0  0  0  0  0  0  0  0  0  0  0  0
   10.9097   11.8051   18.4804 C   0  0  0  0  0  0  0  0  0  0  0  0
   11.2280   12.9135   17.5669 C   0  0  0  0  0  0  0  0  0  0  0  0
   12.3782    5.4231   20.7777 C   0  0  0  0  0  0  0  0  0  0  0  0
    7.7365    4.6508   21.6987 C   0  0  0  0  0  0  0  0  0  0  0  0
   13.0186   11.0102   18.0020 C   0  0  0  0  0  0  0  0  0  0  0  0
    8.6628    5.7088   21.8871 N   0  0  0  0  0  0  0  0  0  0  0  0
    5.6516    3.5258   21.9140 C   0  0  0  0  0  0  0  0  0  0  0  0
   11.5863    9.6815   19.4539 C   0  0  0  0  0  0  0  0  0  0  0  0
   12.9648    4.1543   20.9205 C   0  0  0  0  0  0  0  0  0  0  0  0
    8.2089    3.6265   20.8929 C   0  0  0  0  0  0  0  0  0  0  0  0
    7.3827    2.5724   20.5432 C   0  0  0  0  0  0  0  0  0  0  0  0
   11.1529    7.2750   20.8025 C   0  0  0  0  0  0  0  0  0  0  0  0
   10.2573    8.3215   20.9827 C   0  0  0  0  0  0  0  0  0  0  0  0
   11.1606    5.9378   21.2366 N   0  0  0  0  0  0  0  0  0  0  0  0
    9.8932   11.6736   19.0677 O   0  0  0  0  0  0  0  0  0  0  0  0
    6.4470    4.5850   22.2321 C   0  0  0  0  0  0  0  0  0  0  0  0
    8.4619    6.9895   22.2968 C   0  0  0  0  0  0  0  0  0  0  0  0
   12.2747    7.5102   20.0420 C   0  0  0  0  0  0  0  0  0  0  0  0
   14.2544    6.2142   19.4191 C   0  0  0  0  0  0  0  0  0  0  0  0
   13.0695    6.3705   20.0375 N   0  0  0  0  0  0  0  0  0  0  0  0
    9.1913    8.0876   21.8361 N   0  0  0  0  0  0  0  0  0  0  0  0
   10.4739    9.4813   20.2889 C   0  0  0  0  0  0  0  0  0  0  0  0
    7.5551    7.1270   23.1200 O   0  0  0  0  0  0  0  0  0  0  0  0
  1 11  4  0
  1 21  4  0
  2  4  1  0
  2  8  1  0
  2 11  1  0
  3 10  4  0
  3 14  4  0
  4  5  1  0
  4 18  2  0
  6 12  1  0
  6 17  4  0
  6 23  4  0
  7  9  1  0
  7 13  4  0
  7 19  4  0
  9 20  1  0
 10 19  4  0
 11 25  4  0
 13 14  4  0
 15 16  4  0
 15 17  4  0
 15 21  4  0
 16 24  1  0
 16 25  4  0
 20 24  1  0
 20 26  2  0
 21 23  4  0
 22 23  1  0
M  END
$$$$

 Created by Python create_sdf_string function

 26 28  0  0  0  0  0  0  0  0999 V2000
   12.4616    8.6700   19.4180 N   0  0  0  0  0  0  0  0  0  0  0  0
   11.8329   10.8148   18.6769 N   0  0  0  0  0  0  0  0  0  0  0  0
    6.1021    2.5564   21.0678 C   0  0  0  0  0  0  0  0  0  0  0  0
   10.9097   11.8051   18.4804 C   0  0  0  0  0  0  0  0  0  0  0  0
   11.2280   12.9135   17.5669 C   0  0  0  0  0  0  0  0  0  0  0  0
   12.3782    5.4231   20.7777 C   0  0  0  0  0  0  0  0  0  0  0  0
    7.7365    4.6508   21.6987 C   0  0  0  0  0  0  0  0  0  0  0  0
   13.0186   11.0102   18.0020 C   0  0  0  0  0  0  0  0  0  0  0  0
    8.6628    5.7088   21.8871 N   0  0  0  0  0  0  0  0  0  0  0  0
    5.6516    3.5258   21.9140 C   0  0  0  0  0  0  0  0  0  0  0  0
   11.5863    9.6815   19.4539 C   0  0  0  0  0  0  0  0  0  0  0  0
   12.9648    4.1543   20.9205 C   0  0  0  0  0  0  0  0  0  0  0  0
    8.2089    3.6265   20.8929 C   0  0  0  0  0  0  0  0  0  0  0  0
    7.3827    2.5724   20.5432 C   0  0  0  0  0  0  0  0  0  0  0  0
   11.1529    7.2750   20.8025 C   0  0  0  0  0  0  0  0  0  0  0  0
   10.2573    8.3215   20.9827 C   0  0  0  0  0  0  0  0  0  0  0  0
   11.1606    5.9378   21.2366 N   0  0  0  0  0  0  0  0  0  0  0  0
    9.8932   11.6736   19.0677 O   0  0  0  0  0  0  0  0  0  0  0  0
    6.4470    4.5850   22.2321 C   0  0  0  0  0  0  0  0  0  0  0  0
    8.4619    6.9895   22.2968 C   0  0  0  0  0  0  0  0  0  0  0  0
   12.2747    7.5102   20.0420 C   0  0  0  0  0  0  0  0  0  0  0  0
   14.2544    6.2142   19.4191 C   0  0  0  0  0  0  0  0  0  0  0  0
   13.0695    6.3705   20.0375 N   0  0  0  0  0  0  0  0  0  0  0  0
    9.1913    8.0876   21.8361 N   0  0  0  0  0  0  0  0  0  0  0  0
   10.4739    9.4813   20.2889 C   0  0  0  0  0  0  0  0  0  0  0  0
    7.5551    7.1270   23.1200 O   0  0  0  0  0  0  0  0  0  0  0  0
  1 11  4  0
  1 21  4  0
  2  4  1  0
  2  8  1  0
  2 11  1  0
  3 10  4  0
  3 14  4  0
  4  5  1  0
  4 18  2  0
  6 12  1  0
  6 17  4  0
  6 23  4  0
  7  9  1  0
  7 13  4  0
  7 19  4  0
  9 20  1  0
 10 19  4  0
 11 25  4  0
 13 14  4  0
 15 16  4  0
 15 17  4  0
 15 21  4  0
 16 24  1  0
 16 25  4  0
 20 24  1  0
 20 26  2  0
 21 23  4  0
 22 23  1  0
M  END
$$$$

 Created by Python create_sdf_string function

 26 28  0  0  0  0  0  0  0  0999 V2000
   12.4616    8.6700   19.4180 N   0  0  0  0  0  0  0  0  0  0  0  0
   11.8329   10.8148   18.6769 N   0  0  0  0  0  0  0  0  0  0  0  0
    6.1021    2.5564   21.0678 C   0  0  0  0  0  0  0  0  0  0  0  0
   10.9097   11.8051   18.4804 C   0  0  0  0  0  0  0  0  0  0  0  0
   11.2280   12.9135   17.5669 C   0  0  0  0  0  0  0  0  0  0  0  0
   12.3782    5.4231   20.7777 C   0  0  0  0  0  0  0  0  0  0  0  0
    7.7365    4.6508   21.6987 C   0  0  0  0  0  0  0  0  0  0  0  0
   13.0186   11.0102   18.0020 C   0  0  0  0  0  0  0  0  0  0  0  0
    8.6628    5.7088   21.8871 N   0  0  0  0  0  0  0  0  0  0  0  0
    5.6516    3.5258   21.9140 C   0  0  0  0  0  0  0  0  0  0  0  0
   11.5863    9.6815   19.4539 C   0  0  0  0  0  0  0  0  0  0  0  0
   12.9648    4.1543   20.9205 C   0  0  0  0  0  0  0  0  0  0  0  0
    8.2089    3.6265   20.8929 C   0  0  0  0  0  0  0  0  0  0  0  0
    7.3827    2.5724   20.5432 C   0  0  0  0  0  0  0  0  0  0  0  0
   11.1529    7.2750   20.8025 C   0  0  0  0  0  0  0  0  0  0  0  0
   10.2573    8.3215   20.9827 C   0  0  0  0  0  0  0  0  0  0  0  0
   11.1606    5.9378   21.2366 N   0  0  0  0  0  0  0  0  0  0  0  0
    9.8932   11.6736   19.0677 O   0  0  0  0  0  0  0  0  0  0  0  0
    6.4470    4.5850   22.2321 C   0  0  0  0  0  0  0  0  0  0  0  0
    8.4619    6.9895   22.2968 C   0  0  0  0  0  0  0  0  0  0  0  0
   12.2747    7.5102   20.0420 C   0  0  0  0  0  0  0  0  0  0  0  0
   14.2544    6.2142   19.4191 C   0  0  0  0  0  0  0  0  0  0  0  0
   13.0695    6.3705   20.0375 N   0  0  0  0  0  0  0  0  0  0  0  0
    9.1913    8.0876   21.8361 N   0  0  0  0  0  0  0  0  0  0  0  0
   10.4739    9.4813   20.2889 C   0  0  0  0  0  0  0  0  0  0  0  0
    7.5551    7.1270   23.1200 O   0  0  0  0  0  0  0  0  0  0  0  0
  1 11  4  0
  1 21  4  0
  2  4  1  0
  2  8  1  0
  2 11  1  0
  3 10  4  0
  3 14  4  0
  4  5  1  0
  4 18  2  0
  6 12  1  0
  6 17  4  0
  6 23  4  0
  7  9  1  0
  7 13  4  0
  7 19  4  0
  9 20  1  0
 10 19  4  0
 11 25  4  0
 13 14  4  0
 15 16  4  0
 15 17  4  0
 15 21  4  0
 16 24  1  0
 16 25  4  0
 20 24  1  0
 20 26  2  0
 21 23  4  0
 22 23  1  0
M  END
$$$$

 Created by Python create_sdf_string function

 26 28  0  0  0  0  0  0  0  0999 V2000
   12.4616    8.6700   19.4180 N   0  0  0  0  0  0  0  0  0  0  0  0
   11.8329   10.8148   18.6769 N   0  0  0  0  0  0  0  0  0  0  0  0
    6.1021    2.5564   21.0678 C   0  0  0  0  0  0  0  0  0  0  0  0
   10.9097   11.8051   18.4804 C   0  0  0  0  0  0  0  0  0  0  0  0
   11.2280   12.9135   17.5669 C   0  0  0  0  0  0  0  0  0  0  0  0
   12.3782    5.4231   20.7777 C   0  0  0  0  0  0  0  0  0  0  0  0
    7.7365    4.6508   21.6987 C   0  0  0  0  0  0  0  0  0  0  0  0
   13.0186   11.0102   18.0020 C   0  0  0  0  0  0  0  0  0  0  0  0
    8.6628    5.7088   21.8871 N   0  0  0  0  0  0  0  0  0  0  0  0
    5.6516    3.5258   21.9140 C   0  0  0  0  0  0  0  0  0  0  0  0
   11.5863    9.6815   19.4539 C   0  0  0  0  0  0  0  0  0  0  0  0
   12.9648    4.1543   20.9205 C   0  0  0  0  0  0  0  0  0  0  0  0
    8.2089    3.6265   20.8929 C   0  0  0  0  0  0  0  0  0  0  0  0
    7.3827    2.5724   20.5432 C   0  0  0  0  0  0  0  0  0  0  0  0
   11.1529    7.2750   20.8025 C   0  0  0  0  0  0  0  0  0  0  0  0
   10.2573    8.3215   20.9827 C   0  0  0  0  0  0  0  0  0  0  0  0
   11.1606    5.9378   21.2366 N   0  0  0  0  0  0  0  0  0  0  0  0
    9.8932   11.6736   19.0677 O   0  0  0  0  0  0  0  0  0  0  0  0
    6.4470    4.5850   22.2321 C   0  0  0  0  0  0  0  0  0  0  0  0
    8.4619    6.9895   22.2968 C   0  0  0  0  0  0  0  0  0  0  0  0
   12.2747    7.5102   20.0420 C   0  0  0  0  0  0  0  0  0  0  0  0
   14.2544    6.2142   19.4191 C   0  0  0  0  0  0  0  0  0  0  0  0
   13.0695    6.3705   20.0375 N   0  0  0  0  0  0  0  0  0  0  0  0
    9.1913    8.0876   21.8361 N   0  0  0  0  0  0  0  0  0  0  0  0
   10.4739    9.4813   20.2889 C   0  0  0  0  0  0  0  0  0  0  0  0
    7.5551    7.1270   23.1200 O   0  0  0  0  0  0  0  0  0  0  0  0
  1 11  4  0
  1 21  4  0
  2  4  1  0
  2  8  1  0
  2 11  1  0
  3 10  4  0
  3 14  4  0
  4  5  1  0
  4 18  2  0
  6 12  1  0
  6 17  4  0
  6 23  4  0
  7  9  1  0
  7 13  4  0
  7 19  4  0
  9 20  1  0
 10 19  4  0
 11 25  4  0
 13 14  4  0
 15 16  4  0
 15 17  4  0
 15 21  4  0
 16 24  1  0
 16 25  4  0
 20 24  1  0
 20 26  2  0
 21 23  4  0
 22 23  1  0
M  END
$$$$

 Created by Python create_sdf_string function

 26 28  0  0  0  0  0  0  0  0999 V2000
   12.4616    8.6700   19.4180 N   0  0  0  0  0  0  0  0  0  0  0  0
   11.8329   10.8148   18.6769 N   0  0  0  0  0  0  0  0  0  0  0  0
    6.1021    2.5564   21.0678 C   0  0  0  0  0  0  0  0  0  0  0  0
   10.9097   11.8051   18.4804 C   0  0  0  0  0  0  0  0  0  0  0  0
   11.2280   12.9135   17.5669 C   0  0  0  0  0  0  0  0  0  0  0  0
   12.3782    5.4231   20.7777 C   0  0  0  0  0  0  0  0  0  0  0  0
    7.7365    4.6508   21.6987 C   0  0  0  0  0  0  0  0  0  0  0  0
   13.0186   11.0102   18.0020 C   0  0  0  0  0  0  0  0  0  0  0  0
    8.6628    5.7088   21.8871 N   0  0  0  0  0  0  0  0  0  0  0  0
    5.6516    3.5258   21.9140 C   0  0  0  0  0  0  0  0  0  0  0  0
   11.5863    9.6815   19.4539 C   0  0  0  0  0  0  0  0  0  0  0  0
   12.9648    4.1543   20.9205 C   0  0  0  0  0  0  0  0  0  0  0  0
    8.2089    3.6265   20.8929 C   0  0  0  0  0  0  0  0  0  0  0  0
    7.3827    2.5724   20.5432 C   0  0  0  0  0  0  0  0  0  0  0  0
   11.1529    7.2750   20.8025 C   0  0  0  0  0  0  0  0  0  0  0  0
   10.2573    8.3215   20.9827 C   0  0  0  0  0  0  0  0  0  0  0  0
   11.1606    5.9378   21.2366 N   0  0  0  0  0  0  0  0  0  0  0  0
    9.8932   11.6736   19.0677 O   0  0  0  0  0  0  0  0  0  0  0  0
    6.4470    4.5850   22.2321 C   0  0  0  0  0  0  0  0  0  0  0  0
    8.4619    6.9895   22.2968 C   0  0  0  0  0  0  0  0  0  0  0  0
   12.2747    7.5102   20.0420 C   0  0  0  0  0  0  0  0  0  0  0  0
   14.2544    6.2142   19.4191 C   0  0  0  0  0  0  0  0  0  0  0  0
   13.0695    6.3705   20.0375 N   0  0  0  0  0  0  0  0  0  0  0  0
    9.1913    8.0876   21.8361 N   0  0  0  0  0  0  0  0  0  0  0  0
   10.4739    9.4813   20.2889 C   0  0  0  0  0  0  0  0  0  0  0  0
    7.5551    7.1270   23.1200 O   0  0  0  0  0  0  0  0  0  0  0  0
  1 11  4  0
  1 21  4  0
  2  4  1  0
  2  8  1  0
  2 11  1  0
  3 10  4  0
  3 14  4  0
  4  5  1  0
  4 18  2  0
  6 12  1  0
  6 17  4  0
  6 23  4  0
  7  9  1  0
  7 13  4  0
  7 19  4  0
  9 20  1  0
 10 19  4  0
 11 25  4  0
 13 14  4  0
 15 16  4  0
 15 17  4  0
 15 21  4  0
 16 24  1  0
 16 25  4  0
 20 24  1  0
 20 26  2  0
 21 23  4  0
 22 23  1  0
M  END
$$$$

 Created by Python create_sdf_string function

 26 28  0  0  0  0  0  0  0  0999 V2000
   12.4616    8.6700   19.4180 N   0  0  0  0  0  0  0  0  0  0  0  0
   11.8329   10.8148   18.6769 N   0  0  0  0  0  0  0  0  0  0  0  0
    6.1021    2.5564   21.0678 C   0  0  0  0  0  0  0  0  0  0  0  0
   10.9097   11.8051   18.4804 C   0  0  0  0  0  0  0  0  0  0  0  0
   11.2280   12.9135   17.5669 C   0  0  0  0  0  0  0  0  0  0  0  0
   12.3782    5.4231   20.7777 C   0  0  0  0  0  0  0  0  0  0  0  0
    7.7365    4.6508   21.6987 C   0  0  0  0  0  0  0  0  0  0  0  0
   13.0186   11.0102   18.0020 C   0  0  0  0  0  0  0  0  0  0  0  0
    8.6628    5.7088   21.8871 N   0  0  0  0  0  0  0  0  0  0  0  0
    5.6516    3.5258   21.9140 C   0  0  0  0  0  0  0  0  0  0  0  0
   11.5863    9.6815   19.4539 C   0  0  0  0  0  0  0  0  0  0  0  0
   12.9648    4.1543   20.9205 C   0  0  0  0  0  0  0  0  0  0  0  0
    8.2089    3.6265   20.8929 C   0  0  0  0  0  0  0  0  0  0  0  0
    7.3827    2.5724   20.5432 C   0  0  0  0  0  0  0  0  0  0  0  0
   11.1529    7.2750   20.8025 C   0  0  0  0  0  0  0  0  0  0  0  0
   10.2573    8.3215   20.9827 C   0  0  0  0  0  0  0  0  0  0  0  0
   11.1606    5.9378   21.2366 N   0  0  0  0  0  0  0  0  0  0  0  0
    9.8932   11.6736   19.0677 O   0  0  0  0  0  0  0  0  0  0  0  0
    6.4470    4.5850   22.2321 C   0  0  0  0  0  0  0  0  0  0  0  0
    8.4619    6.9895   22.2968 C   0  0  0  0  0  0  0  0  0  0  0  0
   12.2747    7.5102   20.0420 C   0  0  0  0  0  0  0  0  0  0  0  0
   14.2544    6.2142   19.4191 C   0  0  0  0  0  0  0  0  0  0  0  0
   13.0695    6.3705   20.0375 N   0  0  0  0  0  0  0  0  0  0  0  0
    9.1913    8.0876   21.8361 N   0  0  0  0  0  0  0  0  0  0  0  0
   10.4739    9.4813   20.2889 C   0  0  0  0  0  0  0  0  0  0  0  0
    7.5551    7.1270   23.1200 O   0  0  0  0  0  0  0  0  0  0  0  0
  1 11  4  0
  1 21  4  0
  2  4  1  0
  2  8  1  0
  2 11  1  0
  3 10  4  0
  3 14  4  0
  4  5  1  0
  4 18  2  0
  6 12  1  0
  6 17  4  0
  6 23  4  0
  7  9  1  0
  7 13  4  0
  7 19  4  0
  9 20  1  0
 10 19  4  0
 11 25  4  0
 13 14  4  0
 15 16  4  0
 15 17  4  0
 15 21  4  0
 16 24  1  0
 16 25  4  0
 20 24  1  0
 20 26  2  0
 21 23  4  0
 22 23  1  0
M  END
$$$$

 Created by Python create_sdf_string function

 26 28  0  0  0  0  0  0  0  0999 V2000
   12.4616    8.6700   19.4180 N   0  0  0  0  0  0  0  0  0  0  0  0
   11.8329   10.8148   18.6769 N   0  0  0  0  0  0  0  0  0  0  0  0
    6.1021    2.5564   21.0678 C   0  0  0  0  0  0  0  0  0  0  0  0
   10.9097   11.8051   18.4804 C   0  0  0  0  0  0  0  0  0  0  0  0
   11.2280   12.9135   17.5669 C   0  0  0  0  0  0  0  0  0  0  0  0
   12.3782    5.4231   20.7777 C   0  0  0  0  0  0  0  0  0  0  0  0
    7.7365    4.6508   21.6987 C   0  0  0  0  0  0  0  0  0  0  0  0
   13.0186   11.0102   18.0020 C   0  0  0  0  0  0  0  0  0  0  0  0
    8.6628    5.7088   21.8871 N   0  0  0  0  0  0  0  0  0  0  0  0
    5.6516    3.5258   21.9140 C   0  0  0  0  0  0  0  0  0  0  0  0
   11.5863    9.6815   19.4539 C   0  0  0  0  0  0  0  0  0  0  0  0
   12.9648    4.1543   20.9205 C   0  0  0  0  0  0  0  0  0  0  0  0
    8.2089    3.6265   20.8929 C   0  0  0  0  0  0  0  0  0  0  0  0
    7.3827    2.5724   20.5432 C   0  0  0  0  0  0  0  0  0  0  0  0
   11.1529    7.2750   20.8025 C   0  0  0  0  0  0  0  0  0  0  0  0
   10.2573    8.3215   20.9827 C   0  0  0  0  0  0  0  0  0  0  0  0
   11.1606    5.9378   21.2366 N   0  0  0  0  0  0  0  0  0  0  0  0
    9.8932   11.6736   19.0677 O   0  0  0  0  0  0  0  0  0  0  0  0
    6.4470    4.5850   22.2321 C   0  0  0  0  0  0  0  0  0  0  0  0
    8.4619    6.9895   22.2968 C   0  0  0  0  0  0  0  0  0  0  0  0
   12.2747    7.5102   20.0420 C   0  0  0  0  0  0  0  0  0  0  0  0
   14.2544    6.2142   19.4191 C   0  0  0  0  0  0  0  0  0  0  0  0
   13.0695    6.3705   20.0375 N   0  0  0  0  0  0  0  0  0  0  0  0
    9.1913    8.0876   21.8361 N   0  0  0  0  0  0  0  0  0  0  0  0
   10.4739    9.4813   20.2889 C   0  0  0  0  0  0  0  0  0  0  0  0
    7.5551    7.1270   23.1200 O   0  0  0  0  0  0  0  0  0  0  0  0
  1 11  4  0
  1 21  4  0
  2  4  1  0
  2  8  1  0
  2 11  1  0
  3 10  4  0
  3 14  4  0
  4  5  1  0
  4 18  2  0
  6 12  1  0
  6 17  4  0
  6 23  4  0
  7  9  1  0
  7 13  4  0
  7 19  4  0
  9 20  1  0
 10 19  4  0
 11 25  4  0
 13 14  4  0
 15 16  4  0
 15 17  4  0
 15 21  4  0
 16 24  1  0
 16 25  4  0
 20 24  1  0
 20 26  2  0
 21 23  4  0
 22 23  1  0
M  END
$$$$

 Created by Python create_sdf_string function

 26 28  0  0  0  0  0  0  0  0999 V2000
   12.4616    8.6700   19.4180 N   0  0  0  0  0  0  0  0  0  0  0  0
   11.8329   10.8148   18.6769 N   0  0  0  0  0  0  0  0  0  0  0  0
    6.1021    2.5564   21.0678 C   0  0  0  0  0  0  0  0  0  0  0  0
   10.9097   11.8051   18.4804 C   0  0  0  0  0  0  0  0  0  0  0  0
   11.2280   12.9135   17.5669 C   0  0  0  0  0  0  0  0  0  0  0  0
   12.3782    5.4231   20.7777 C   0  0  0  0  0  0  0  0  0  0  0  0
    7.7365    4.6508   21.6987 C   0  0  0  0  0  0  0  0  0  0  0  0
   13.0186   11.0102   18.0020 C   0  0  0  0  0  0  0  0  0  0  0  0
    8.6628    5.7088   21.8871 N   0  0  0  0  0  0  0  0  0  0  0  0
    5.6516    3.5258   21.9140 C   0  0  0  0  0  0  0  0  0  0  0  0
   11.5863    9.6815   19.4539 C   0  0  0  0  0  0  0  0  0  0  0  0
   12.9648    4.1543   20.9205 C   0  0  0  0  0  0  0  0  0  0  0  0
    8.2089    3.6265   20.8929 C   0  0  0  0  0  0  0  0  0  0  0  0
    7.3827    2.5724   20.5432 C   0  0  0  0  0  0  0  0  0  0  0  0
   11.1529    7.2750   20.8025 C   0  0  0  0  0  0  0  0  0  0  0  0
   10.2573    8.3215   20.9827 C   0  0  0  0  0  0  0  0  0  0  0  0
   11.1606    5.9378   21.2366 N   0  0  0  0  0  0  0  0  0  0  0  0
    9.8932   11.6736   19.0677 O   0  0  0  0  0  0  0  0  0  0  0  0
    6.4470    4.5850   22.2321 C   0  0  0  0  0  0  0  0  0  0  0  0
    8.4619    6.9895   22.2968 C   0  0  0  0  0  0  0  0  0  0  0  0
   12.2747    7.5102   20.0420 C   0  0  0  0  0  0  0  0  0  0  0  0
   14.2544    6.2142   19.4191 C   0  0  0  0  0  0  0  0  0  0  0  0
   13.0695    6.3705   20.0375 N   0  0  0  0  0  0  0  0  0  0  0  0
    9.1913    8.0876   21.8361 N   0  0  0  0  0  0  0  0  0  0  0  0
   10.4739    9.4813   20.2889 C   0  0  0  0  0  0  0  0  0  0  0  0
    7.5551    7.1270   23.1200 O   0  0  0  0  0  0  0  0  0  0  0  0
  1 11  4  0
  1 21  4  0
  2  4  1  0
  2  8  1  0
  2 11  1  0
  3 10  4  0
  3 14  4  0
  4  5  1  0
  4 18  2  0
  6 12  1  0
  6 17  4  0
  6 23  4  0
  7  9  1  0
  7 13  4  0
  7 19  4  0
  9 20  1  0
 10 19  4  0
 11 25  4  0
 13 14  4  0
 15 16  4  0
 15 17  4  0
 15 21  4  0
 16 24  1  0
 16 25  4  0
 20 24  1  0
 20 26  2  0
 21 23  4  0
 22 23  1  0
M  END
$$$$

 Created by Python create_sdf_string function

 26 28  0  0  0  0  0  0  0  0999 V2000
   12.4616    8.6700   19.4180 N   0  0  0  0  0  0  0  0  0  0  0  0
   11.8329   10.8148   18.6769 N   0  0  0  0  0  0  0  0  0  0  0  0
    6.1021    2.5564   21.0678 C   0  0  0  0  0  0  0  0  0  0  0  0
   10.9097   11.8051   18.4804 C   0  0  0  0  0  0  0  0  0  0  0  0
   11.2280   12.9135   17.5669 C   0  0  0  0  0  0  0  0  0  0  0  0
   12.3782    5.4231   20.7777 C   0  0  0  0  0  0  0  0  0  0  0  0
    7.7365    4.6508   21.6987 C   0  0  0  0  0  0  0  0  0  0  0  0
   13.0186   11.0102   18.0020 C   0  0  0  0  0  0  0  0  0  0  0  0
    8.6628    5.7088   21.8871 N   0  0  0  0  0  0  0  0  0  0  0  0
    5.6516    3.5258   21.9140 C   0  0  0  0  0  0  0  0  0  0  0  0
   11.5863    9.6815   19.4539 C   0  0  0  0  0  0  0  0  0  0  0  0
   12.9648    4.1543   20.9205 C   0  0  0  0  0  0  0  0  0  0  0  0
    8.2089    3.6265   20.8929 C   0  0  0  0  0  0  0  0  0  0  0  0
    7.3827    2.5724   20.5432 C   0  0  0  0  0  0  0  0  0  0  0  0
   11.1529    7.2750   20.8025 C   0  0  0  0  0  0  0  0  0  0  0  0
   10.2573    8.3215   20.9827 C   0  0  0  0  0  0  0  0  0  0  0  0
   11.1606    5.9378   21.2366 N   0  0  0  0  0  0  0  0  0  0  0  0
    9.8932   11.6736   19.0677 O   0  0  0  0  0  0  0  0  0  0  0  0
    6.4470    4.5850   22.2321 C   0  0  0  0  0  0  0  0  0  0  0  0
    8.4619    6.9895   22.2968 C   0  0  0  0  0  0  0  0  0  0  0  0
   12.2747    7.5102   20.0420 C   0  0  0  0  0  0  0  0  0  0  0  0
   14.2544    6.2142   19.4191 C   0  0  0  0  0  0  0  0  0  0  0  0
   13.0695    6.3705   20.0375 N   0  0  0  0  0  0  0  0  0  0  0  0
    9.1913    8.0876   21.8361 N   0  0  0  0  0  0  0  0  0  0  0  0
   10.4739    9.4813   20.2889 C   0  0  0  0  0  0  0  0  0  0  0  0
    7.5551    7.1270   23.1200 O   0  0  0  0  0  0  0  0  0  0  0  0
  1 11  4  0
  1 21  4  0
  2  4  1  0
  2  8  1  0
  2 11  1  0
  3 10  4  0
  3 14  4  0
  4  5  1  0
  4 18  2  0
  6 12  1  0
  6 17  4  0
  6 23  4  0
  7  9  1  0
  7 13  4  0
  7 19  4  0
  9 20  1  0
 10 19  4  0
 11 25  4  0
 13 14  4  0
 15 16  4  0
 15 17  4  0
 15 21  4  0
 16 24  1  0
 16 25  4  0
 20 24  1  0
 20 26  2  0
 21 23  4  0
 22 23  1  0
M  END
$$$$

 Created by Python create_sdf_string function

 26 28  0  0  0  0  0  0  0  0999 V2000
   12.4616    8.6700   19.4180 N   0  0  0  0  0  0  0  0  0  0  0  0
   11.8329   10.8148   18.6769 N   0  0  0  0  0  0  0  0  0  0  0  0
    6.1021    2.5564   21.0678 C   0  0  0  0  0  0  0  0  0  0  0  0
   10.9097   11.8051   18.4804 C   0  0  0  0  0  0  0  0  0  0  0  0
   11.2280   12.9135   17.5669 C   0  0  0  0  0  0  0  0  0  0  0  0
   12.3782    5.4231   20.7777 C   0  0  0  0  0  0  0  0  0  0  0  0
    7.7365    4.6508   21.6987 C   0  0  0  0  0  0  0  0  0  0  0  0
   13.0186   11.0102   18.0020 C   0  0  0  0  0  0  0  0  0  0  0  0
    8.6628    5.7088   21.8871 N   0  0  0  0  0  0  0  0  0  0  0  0
    5.6516    3.5258   21.9140 C   0  0  0  0  0  0  0  0  0  0  0  0
   11.5863    9.6815   19.4539 C   0  0  0  0  0  0  0  0  0  0  0  0
   12.9648    4.1543   20.9205 C   0  0  0  0  0  0  0  0  0  0  0  0
    8.2089    3.6265   20.8929 C   0  0  0  0  0  0  0  0  0  0  0  0
    7.3827    2.5724   20.5432 C   0  0  0  0  0  0  0  0  0  0  0  0
   11.1529    7.2750   20.8025 C   0  0  0  0  0  0  0  0  0  0  0  0
   10.2573    8.3215   20.9827 C   0  0  0  0  0  0  0  0  0  0  0  0
   11.1606    5.9378   21.2366 N   0  0  0  0  0  0  0  0  0  0  0  0
    9.8932   11.6736   19.0677 O   0  0  0  0  0  0  0  0  0  0  0  0
    6.4470    4.5850   22.2321 C   0  0  0  0  0  0  0  0  0  0  0  0
    8.4619    6.9895   22.2968 C   0  0  0  0  0  0  0  0  0  0  0  0
   12.2747    7.5102   20.0420 C   0  0  0  0  0  0  0  0  0  0  0  0
   14.2544    6.2142   19.4191 C   0  0  0  0  0  0  0  0  0  0  0  0
   13.0695    6.3705   20.0375 N   0  0  0  0  0  0  0  0  0  0  0  0
    9.1913    8.0876   21.8361 N   0  0  0  0  0  0  0  0  0  0  0  0
   10.4739    9.4813   20.2889 C   0  0  0  0  0  0  0  0  0  0  0  0
    7.5551    7.1270   23.1200 O   0  0  0  0  0  0  0  0  0  0  0  0
  1 11  4  0
  1 21  4  0
  2  4  1  0
  2  8  1  0
  2 11  1  0
  3 10  4  0
  3 14  4  0
  4  5  1  0
  4 18  2  0
  6 12  1  0
  6 17  4  0
  6 23  4  0
  7  9  1  0
  7 13  4  0
  7 19  4  0
  9 20  1  0
 10 19  4  0
 11 25  4  0
 13 14  4  0
 15 16  4  0
 15 17  4  0
 15 21  4  0
 16 24  1  0
 16 25  4  0
 20 24  1  0
 20 26  2  0
 21 23  4  0
 22 23  1  0
M  END
$$$$

 Created by Python create_sdf_string function

 26 28  0  0  0  0  0  0  0  0999 V2000
   12.4616    8.6700   19.4180 N   0  0  0  0  0  0  0  0  0  0  0  0
   11.8329   10.8148   18.6769 N   0  0  0  0  0  0  0  0  0  0  0  0
    6.1021    2.5564   21.0678 C   0  0  0  0  0  0  0  0  0  0  0  0
   10.9097   11.8051   18.4804 C   0  0  0  0  0  0  0  0  0  0  0  0
   11.2280   12.9135   17.5669 C   0  0  0  0  0  0  0  0  0  0  0  0
   12.3782    5.4231   20.7777 C   0  0  0  0  0  0  0  0  0  0  0  0
    7.7365    4.6508   21.6987 C   0  0  0  0  0  0  0  0  0  0  0  0
   13.0186   11.0102   18.0020 C   0  0  0  0  0  0  0  0  0  0  0  0
    8.6628    5.7088   21.8871 N   0  0  0  0  0  0  0  0  0  0  0  0
    5.6516    3.5258   21.9140 C   0  0  0  0  0  0  0  0  0  0  0  0
   11.5863    9.6815   19.4539 C   0  0  0  0  0  0  0  0  0  0  0  0
   12.9648    4.1543   20.9205 C   0  0  0  0  0  0  0  0  0  0  0  0
    8.2089    3.6265   20.8929 C   0  0  0  0  0  0  0  0  0  0  0  0
    7.3827    2.5724   20.5432 C   0  0  0  0  0  0  0  0  0  0  0  0
   11.1529    7.2750   20.8025 C   0  0  0  0  0  0  0  0  0  0  0  0
   10.2573    8.3215   20.9827 C   0  0  0  0  0  0  0  0  0  0  0  0
   11.1606    5.9378   21.2366 N   0  0  0  0  0  0  0  0  0  0  0  0
    9.8932   11.6736   19.0677 O   0  0  0  0  0  0  0  0  0  0  0  0
    6.4470    4.5850   22.2321 C   0  0  0  0  0  0  0  0  0  0  0  0
    8.4619    6.9895   22.2968 C   0  0  0  0  0  0  0  0  0  0  0  0
   12.2747    7.5102   20.0420 C   0  0  0  0  0  0  0  0  0  0  0  0
   14.2544    6.2142   19.4191 C   0  0  0  0  0  0  0  0  0  0  0  0
   13.0695    6.3705   20.0375 N   0  0  0  0  0  0  0  0  0  0  0  0
    9.1913    8.0876   21.8361 N   0  0  0  0  0  0  0  0  0  0  0  0
   10.4739    9.4813   20.2889 C   0  0  0  0  0  0  0  0  0  0  0  0
    7.5551    7.1270   23.1200 O   0  0  0  0  0  0  0  0  0  0  0  0
  1 11  4  0
  1 21  4  0
  2  4  1  0
  2  8  1  0
  2 11  1  0
  3 10  4  0
  3 14  4  0
  4  5  1  0
  4 18  2  0
  6 12  1  0
  6 17  4  0
  6 23  4  0
  7  9  1  0
  7 13  4  0
  7 19  4  0
  9 20  1  0
 10 19  4  0
 11 25  4  0
 13 14  4  0
 15 16  4  0
 15 17  4  0
 15 21  4  0
 16 24  1  0
 16 25  4  0
 20 24  1  0
 20 26  2  0
 21 23  4  0
 22 23  1  0
M  END
$$$$

 Created by Python create_sdf_string function

 26 28  0  0  0  0  0  0  0  0999 V2000
   12.4616    8.6700   19.4180 N   0  0  0  0  0  0  0  0  0  0  0  0
   11.8329   10.8148   18.6769 N   0  0  0  0  0  0  0  0  0  0  0  0
    6.1021    2.5564   21.0678 C   0  0  0  0  0  0  0  0  0  0  0  0
   10.9097   11.8051   18.4804 C   0  0  0  0  0  0  0  0  0  0  0  0
   11.2280   12.9135   17.5669 C   0  0  0  0  0  0  0  0  0  0  0  0
   12.3782    5.4231   20.7777 C   0  0  0  0  0  0  0  0  0  0  0  0
    7.7365    4.6508   21.6987 C   0  0  0  0  0  0  0  0  0  0  0  0
   13.0186   11.0102   18.0020 C   0  0  0  0  0  0  0  0  0  0  0  0
    8.6628    5.7088   21.8871 N   0  0  0  0  0  0  0  0  0  0  0  0
    5.6516    3.5258   21.9140 C   0  0  0  0  0  0  0  0  0  0  0  0
   11.5863    9.6815   19.4539 C   0  0  0  0  0  0  0  0  0  0  0  0
   12.9648    4.1543   20.9205 C   0  0  0  0  0  0  0  0  0  0  0  0
    8.2089    3.6265   20.8929 C   0  0  0  0  0  0  0  0  0  0  0  0
    7.3827    2.5724   20.5432 C   0  0  0  0  0  0  0  0  0  0  0  0
   11.1529    7.2750   20.8025 C   0  0  0  0  0  0  0  0  0  0  0  0
   10.2573    8.3215   20.9827 C   0  0  0  0  0  0  0  0  0  0  0  0
   11.1606    5.9378   21.2366 N   0  0  0  0  0  0  0  0  0  0  0  0
    9.8932   11.6736   19.0677 O   0  0  0  0  0  0  0  0  0  0  0  0
    6.4470    4.5850   22.2321 C   0  0  0  0  0  0  0  0  0  0  0  0
    8.4619    6.9895   22.2968 C   0  0  0  0  0  0  0  0  0  0  0  0
   12.2747    7.5102   20.0420 C   0  0  0  0  0  0  0  0  0  0  0  0
   14.2544    6.2142   19.4191 C   0  0  0  0  0  0  0  0  0  0  0  0
   13.0695    6.3705   20.0375 N   0  0  0  0  0  0  0  0  0  0  0  0
    9.1913    8.0876   21.8361 N   0  0  0  0  0  0  0  0  0  0  0  0
   10.4739    9.4813   20.2889 C   0  0  0  0  0  0  0  0  0  0  0  0
    7.5551    7.1270   23.1200 O   0  0  0  0  0  0  0  0  0  0  0  0
  1 11  4  0
  1 21  4  0
  2  4  1  0
  2  8  1  0
  2 11  1  0
  3 10  4  0
  3 14  4  0
  4  5  1  0
  4 18  2  0
  6 12  1  0
  6 17  4  0
  6 23  4  0
  7  9  1  0
  7 13  4  0
  7 19  4  0
  9 20  1  0
 10 19  4  0
 11 25  4  0
 13 14  4  0
 15 16  4  0
 15 17  4  0
 15 21  4  0
 16 24  1  0
 16 25  4  0
 20 24  1  0
 20 26  2  0
 21 23  4  0
 22 23  1  0
M  END
$$$$

 Created by Python create_sdf_string function

 26 28  0  0  0  0  0  0  0  0999 V2000
   12.4616    8.6700   19.4180 N   0  0  0  0  0  0  0  0  0  0  0  0
   11.8329   10.8148   18.6769 N   0  0  0  0  0  0  0  0  0  0  0  0
    6.1021    2.5564   21.0678 C   0  0  0  0  0  0  0  0  0  0  0  0
   10.9097   11.8051   18.4804 C   0  0  0  0  0  0  0  0  0  0  0  0
   11.2280   12.9135   17.5669 C   0  0  0  0  0  0  0  0  0  0  0  0
   12.3782    5.4231   20.7777 C   0  0  0  0  0  0  0  0  0  0  0  0
    7.7365    4.6508   21.6987 C   0  0  0  0  0  0  0  0  0  0  0  0
   13.0186   11.0102   18.0020 C   0  0  0  0  0  0  0  0  0  0  0  0
    8.6628    5.7088   21.8871 N   0  0  0  0  0  0  0  0  0  0  0  0
    5.6516    3.5258   21.9140 C   0  0  0  0  0  0  0  0  0  0  0  0
   11.5863    9.6815   19.4539 C   0  0  0  0  0  0  0  0  0  0  0  0
   12.9648    4.1543   20.9205 C   0  0  0  0  0  0  0  0  0  0  0  0
    8.2089    3.6265   20.8929 C   0  0  0  0  0  0  0  0  0  0  0  0
    7.3827    2.5724   20.5432 C   0  0  0  0  0  0  0  0  0  0  0  0
   11.1529    7.2750   20.8025 C   0  0  0  0  0  0  0  0  0  0  0  0
   10.2573    8.3215   20.9827 C   0  0  0  0  0  0  0  0  0  0  0  0
   11.1606    5.9378   21.2366 N   0  0  0  0  0  0  0  0  0  0  0  0
    9.8932   11.6736   19.0677 O   0  0  0  0  0  0  0  0  0  0  0  0
    6.4470    4.5850   22.2321 C   0  0  0  0  0  0  0  0  0  0  0  0
    8.4619    6.9895   22.2968 C   0  0  0  0  0  0  0  0  0  0  0  0
   12.2747    7.5102   20.0420 C   0  0  0  0  0  0  0  0  0  0  0  0
   14.2544    6.2142   19.4191 C   0  0  0  0  0  0  0  0  0  0  0  0
   13.0695    6.3705   20.0375 N   0  0  0  0  0  0  0  0  0  0  0  0
    9.1913    8.0876   21.8361 N   0  0  0  0  0  0  0  0  0  0  0  0
   10.4739    9.4813   20.2889 C   0  0  0  0  0  0  0  0  0  0  0  0
    7.5551    7.1270   23.1200 O   0  0  0  0  0  0  0  0  0  0  0  0
  1 11  4  0
  1 21  4  0
  2  4  1  0
  2  8  1  0
  2 11  1  0
  3 10  4  0
  3 14  4  0
  4  5  1  0
  4 18  2  0
  6 12  1  0
  6 17  4  0
  6 23  4  0
  7  9  1  0
  7 13  4  0
  7 19  4  0
  9 20  1  0
 10 19  4  0
 11 25  4  0
 13 14  4  0
 15 16  4  0
 15 17  4  0
 15 21  4  0
 16 24  1  0
 16 25  4  0
 20 24  1  0
 20 26  2  0
 21 23  4  0
 22 23  1  0
M  END
$$$$

 Created by Python create_sdf_string function

 26 28  0  0  0  0  0  0  0  0999 V2000
   12.4616    8.6700   19.4180 N   0  0  0  0  0  0  0  0  0  0  0  0
   11.8329   10.8148   18.6769 N   0  0  0  0  0  0  0  0  0  0  0  0
    6.1021    2.5564   21.0678 C   0  0  0  0  0  0  0  0  0  0  0  0
   10.9097   11.8051   18.4804 C   0  0  0  0  0  0  0  0  0  0  0  0
   11.2280   12.9135   17.5669 C   0  0  0  0  0  0  0  0  0  0  0  0
   12.3782    5.4231   20.7777 C   0  0  0  0  0  0  0  0  0  0  0  0
    7.7365    4.6508   21.6987 C   0  0  0  0  0  0  0  0  0  0  0  0
   13.0186   11.0102   18.0020 C   0  0  0  0  0  0  0  0  0  0  0  0
    8.6628    5.7088   21.8871 N   0  0  0  0  0  0  0  0  0  0  0  0
    5.6516    3.5258   21.9140 C   0  0  0  0  0  0  0  0  0  0  0  0
   11.5863    9.6815   19.4539 C   0  0  0  0  0  0  0  0  0  0  0  0
   12.9648    4.1543   20.9205 C   0  0  0  0  0  0  0  0  0  0  0  0
    8.2089    3.6265   20.8929 C   0  0  0  0  0  0  0  0  0  0  0  0
    7.3827    2.5724   20.5432 C   0  0  0  0  0  0  0  0  0  0  0  0
   11.1529    7.2750   20.8025 C   0  0  0  0  0  0  0  0  0  0  0  0
   10.2573    8.3215   20.9827 C   0  0  0  0  0  0  0  0  0  0  0  0
   11.1606    5.9378   21.2366 N   0  0  0  0  0  0  0  0  0  0  0  0
    9.8932   11.6736   19.0677 O   0  0  0  0  0  0  0  0  0  0  0  0
    6.4470    4.5850   22.2321 C   0  0  0  0  0  0  0  0  0  0  0  0
    8.4619    6.9895   22.2968 C   0  0  0  0  0  0  0  0  0  0  0  0
   12.2747    7.5102   20.0420 C   0  0  0  0  0  0  0  0  0  0  0  0
   14.2544    6.2142   19.4191 C   0  0  0  0  0  0  0  0  0  0  0  0
   13.0695    6.3705   20.0375 N   0  0  0  0  0  0  0  0  0  0  0  0
    9.1913    8.0876   21.8361 N   0  0  0  0  0  0  0  0  0  0  0  0
   10.4739    9.4813   20.2889 C   0  0  0  0  0  0  0  0  0  0  0  0
    7.5551    7.1270   23.1200 O   0  0  0  0  0  0  0  0  0  0  0  0
  1 11  4  0
  1 21  4  0
  2  4  1  0
  2  8  1  0
  2 11  1  0
  3 10  4  0
  3 14  4  0
  4  5  1  0
  4 18  2  0
  6 12  1  0
  6 17  4  0
  6 23  4  0
  7  9  1  0
  7 13  4  0
  7 19  4  0
  9 20  1  0
 10 19  4  0
 11 25  4  0
 13 14  4  0
 15 16  4  0
 15 17  4  0
 15 21  4  0
 16 24  1  0
 16 25  4  0
 20 24  1  0
 20 26  2  0
 21 23  4  0
 22 23  1  0
M  END
$$$$

 Created by Python create_sdf_string function

 26 28  0  0  0  0  0  0  0  0999 V2000
   12.4616    8.6700   19.4180 N   0  0  0  0  0  0  0  0  0  0  0  0
   11.8329   10.8148   18.6769 N   0  0  0  0  0  0  0  0  0  0  0  0
    6.1021    2.5564   21.0678 C   0  0  0  0  0  0  0  0  0  0  0  0
   10.9097   11.8051   18.4804 C   0  0  0  0  0  0  0  0  0  0  0  0
   11.2280   12.9135   17.5669 C   0  0  0  0  0  0  0  0  0  0  0  0
   12.3782    5.4231   20.7777 C   0  0  0  0  0  0  0  0  0  0  0  0
    7.7365    4.6508   21.6987 C   0  0  0  0  0  0  0  0  0  0  0  0
   13.0186   11.0102   18.0020 C   0  0  0  0  0  0  0  0  0  0  0  0
    8.6628    5.7088   21.8871 N   0  0  0  0  0  0  0  0  0  0  0  0
    5.6516    3.5258   21.9140 C   0  0  0  0  0  0  0  0  0  0  0  0
   11.5863    9.6815   19.4539 C   0  0  0  0  0  0  0  0  0  0  0  0
   12.9648    4.1543   20.9205 C   0  0  0  0  0  0  0  0  0  0  0  0
    8.2089    3.6265   20.8929 C   0  0  0  0  0  0  0  0  0  0  0  0
    7.3827    2.5724   20.5432 C   0  0  0  0  0  0  0  0  0  0  0  0
   11.1529    7.2750   20.8025 C   0  0  0  0  0  0  0  0  0  0  0  0
   10.2573    8.3215   20.9827 C   0  0  0  0  0  0  0  0  0  0  0  0
   11.1606    5.9378   21.2366 N   0  0  0  0  0  0  0  0  0  0  0  0
    9.8932   11.6736   19.0677 O   0  0  0  0  0  0  0  0  0  0  0  0
    6.4470    4.5850   22.2321 C   0  0  0  0  0  0  0  0  0  0  0  0
    8.4619    6.9895   22.2968 C   0  0  0  0  0  0  0  0  0  0  0  0
   12.2747    7.5102   20.0420 C   0  0  0  0  0  0  0  0  0  0  0  0
   14.2544    6.2142   19.4191 C   0  0  0  0  0  0  0  0  0  0  0  0
   13.0695    6.3705   20.0375 N   0  0  0  0  0  0  0  0  0  0  0  0
    9.1913    8.0876   21.8361 N   0  0  0  0  0  0  0  0  0  0  0  0
   10.4739    9.4813   20.2889 C   0  0  0  0  0  0  0  0  0  0  0  0
    7.5551    7.1270   23.1200 O   0  0  0  0  0  0  0  0  0  0  0  0
  1 11  4  0
  1 21  4  0
  2  4  1  0
  2  8  1  0
  2 11  1  0
  3 10  4  0
  3 14  4  0
  4  5  1  0
  4 18  2  0
  6 12  1  0
  6 17  4  0
  6 23  4  0
  7  9  1  0
  7 13  4  0
  7 19  4  0
  9 20  1  0
 10 19  4  0
 11 25  4  0
 13 14  4  0
 15 16  4  0
 15 17  4  0
 15 21  4  0
 16 24  1  0
 16 25  4  0
 20 24  1  0
 20 26  2  0
 21 23  4  0
 22 23  1  0
M  END
$$$$

 Created by Python create_sdf_string function

 26 28  0  0  0  0  0  0  0  0999 V2000
   12.4616    8.6700   19.4180 N   0  0  0  0  0  0  0  0  0  0  0  0
   11.8329   10.8148   18.6769 N   0  0  0  0  0  0  0  0  0  0  0  0
    6.1021    2.5564   21.0678 C   0  0  0  0  0  0  0  0  0  0  0  0
   10.9097   11.8051   18.4804 C   0  0  0  0  0  0  0  0  0  0  0  0
   11.2280   12.9135   17.5669 C   0  0  0  0  0  0  0  0  0  0  0  0
   12.3782    5.4231   20.7777 C   0  0  0  0  0  0  0  0  0  0  0  0
    7.7365    4.6508   21.6987 C   0  0  0  0  0  0  0  0  0  0  0  0
   13.0186   11.0102   18.0020 C   0  0  0  0  0  0  0  0  0  0  0  0
    8.6628    5.7088   21.8871 N   0  0  0  0  0  0  0  0  0  0  0  0
    5.6516    3.5258   21.9140 C   0  0  0  0  0  0  0  0  0  0  0  0
   11.5863    9.6815   19.4539 C   0  0  0  0  0  0  0  0  0  0  0  0
   12.9648    4.1543   20.9205 C   0  0  0  0  0  0  0  0  0  0  0  0
    8.2089    3.6265   20.8929 C   0  0  0  0  0  0  0  0  0  0  0  0
    7.3827    2.5724   20.5432 C   0  0  0  0  0  0  0  0  0  0  0  0
   11.1529    7.2750   20.8025 C   0  0  0  0  0  0  0  0  0  0  0  0
   10.2573    8.3215   20.9827 C   0  0  0  0  0  0  0  0  0  0  0  0
   11.1606    5.9378   21.2366 N   0  0  0  0  0  0  0  0  0  0  0  0
    9.8932   11.6736   19.0677 O   0  0  0  0  0  0  0  0  0  0  0  0
    6.4470    4.5850   22.2321 C   0  0  0  0  0  0  0  0  0  0  0  0
    8.4619    6.9895   22.2968 C   0  0  0  0  0  0  0  0  0  0  0  0
   12.2747    7.5102   20.0420 C   0  0  0  0  0  0  0  0  0  0  0  0
   14.2544    6.2142   19.4191 C   0  0  0  0  0  0  0  0  0  0  0  0
   13.0695    6.3705   20.0375 N   0  0  0  0  0  0  0  0  0  0  0  0
    9.1913    8.0876   21.8361 N   0  0  0  0  0  0  0  0  0  0  0  0
   10.4739    9.4813   20.2889 C   0  0  0  0  0  0  0  0  0  0  0  0
    7.5551    7.1270   23.1200 O   0  0  0  0  0  0  0  0  0  0  0  0
  1 11  4  0
  1 21  4  0
  2  4  1  0
  2  8  1  0
  2 11  1  0
  3 10  4  0
  3 14  4  0
  4  5  1  0
  4 18  2  0
  6 12  1  0
  6 17  4  0
  6 23  4  0
  7  9  1  0
  7 13  4  0
  7 19  4  0
  9 20  1  0
 10 19  4  0
 11 25  4  0
 13 14  4  0
 15 16  4  0
 15 17  4  0
 15 21  4  0
 16 24  1  0
 16 25  4  0
 20 24  1  0
 20 26  2  0
 21 23  4  0
 22 23  1  0
M  END
$$$$

 Created by Python create_sdf_string function

 26 28  0  0  0  0  0  0  0  0999 V2000
   12.4616    8.6700   19.4180 N   0  0  0  0  0  0  0  0  0  0  0  0
   11.8329   10.8148   18.6769 N   0  0  0  0  0  0  0  0  0  0  0  0
    6.1021    2.5564   21.0678 C   0  0  0  0  0  0  0  0  0  0  0  0
   10.9097   11.8051   18.4804 C   0  0  0  0  0  0  0  0  0  0  0  0
   11.2280   12.9135   17.5669 C   0  0  0  0  0  0  0  0  0  0  0  0
   12.3782    5.4231   20.7777 C   0  0  0  0  0  0  0  0  0  0  0  0
    7.7365    4.6508   21.6987 C   0  0  0  0  0  0  0  0  0  0  0  0
   13.0186   11.0102   18.0020 C   0  0  0  0  0  0  0  0  0  0  0  0
    8.6628    5.7088   21.8871 N   0  0  0  0  0  0  0  0  0  0  0  0
    5.6516    3.5258   21.9140 C   0  0  0  0  0  0  0  0  0  0  0  0
   11.5863    9.6815   19.4539 C   0  0  0  0  0  0  0  0  0  0  0  0
   12.9648    4.1543   20.9205 C   0  0  0  0  0  0  0  0  0  0  0  0
    8.2089    3.6265   20.8929 C   0  0  0  0  0  0  0  0  0  0  0  0
    7.3827    2.5724   20.5432 C   0  0  0  0  0  0  0  0  0  0  0  0
   11.1529    7.2750   20.8025 C   0  0  0  0  0  0  0  0  0  0  0  0
   10.2573    8.3215   20.9827 C   0  0  0  0  0  0  0  0  0  0  0  0
   11.1606    5.9378   21.2366 N   0  0  0  0  0  0  0  0  0  0  0  0
    9.8932   11.6736   19.0677 O   0  0  0  0  0  0  0  0  0  0  0  0
    6.4470    4.5850   22.2321 C   0  0  0  0  0  0  0  0  0  0  0  0
    8.4619    6.9895   22.2968 C   0  0  0  0  0  0  0  0  0  0  0  0
   12.2747    7.5102   20.0420 C   0  0  0  0  0  0  0  0  0  0  0  0
   14.2544    6.2142   19.4191 C   0  0  0  0  0  0  0  0  0  0  0  0
   13.0695    6.3705   20.0375 N   0  0  0  0  0  0  0  0  0  0  0  0
    9.1913    8.0876   21.8361 N   0  0  0  0  0  0  0  0  0  0  0  0
   10.4739    9.4813   20.2889 C   0  0  0  0  0  0  0  0  0  0  0  0
    7.5551    7.1270   23.1200 O   0  0  0  0  0  0  0  0  0  0  0  0
  1 11  4  0
  1 21  4  0
  2  4  1  0
  2  8  1  0
  2 11  1  0
  3 10  4  0
  3 14  4  0
  4  5  1  0
  4 18  2  0
  6 12  1  0
  6 17  4  0
  6 23  4  0
  7  9  1  0
  7 13  4  0
  7 19  4  0
  9 20  1  0
 10 19  4  0
 11 25  4  0
 13 14  4  0
 15 16  4  0
 15 17  4  0
 15 21  4  0
 16 24  1  0
 16 25  4  0
 20 24  1  0
 20 26  2  0
 21 23  4  0
 22 23  1  0
M  END
$$$$

 Created by Python create_sdf_string function

 26 28  0  0  0  0  0  0  0  0999 V2000
   12.4616    8.6700   19.4180 N   0  0  0  0  0  0  0  0  0  0  0  0
   11.8329   10.8148   18.6769 N   0  0  0  0  0  0  0  0  0  0  0  0
    6.1021    2.5564   21.0678 C   0  0  0  0  0  0  0  0  0  0  0  0
   10.9097   11.8051   18.4804 C   0  0  0  0  0  0  0  0  0  0  0  0
   11.2280   12.9135   17.5669 C   0  0  0  0  0  0  0  0  0  0  0  0
   12.3782    5.4231   20.7777 C   0  0  0  0  0  0  0  0  0  0  0  0
    7.7365    4.6508   21.6987 C   0  0  0  0  0  0  0  0  0  0  0  0
   13.0186   11.0102   18.0020 C   0  0  0  0  0  0  0  0  0  0  0  0
    8.6628    5.7088   21.8871 N   0  0  0  0  0  0  0  0  0  0  0  0
    5.6516    3.5258   21.9140 C   0  0  0  0  0  0  0  0  0  0  0  0
   11.5863    9.6815   19.4539 C   0  0  0  0  0  0  0  0  0  0  0  0
   12.9648    4.1543   20.9205 C   0  0  0  0  0  0  0  0  0  0  0  0
    8.2089    3.6265   20.8929 C   0  0  0  0  0  0  0  0  0  0  0  0
    7.3827    2.5724   20.5432 C   0  0  0  0  0  0  0  0  0  0  0  0
   11.1529    7.2750   20.8025 C   0  0  0  0  0  0  0  0  0  0  0  0
   10.2573    8.3215   20.9827 C   0  0  0  0  0  0  0  0  0  0  0  0
   11.1606    5.9378   21.2366 N   0  0  0  0  0  0  0  0  0  0  0  0
    9.8932   11.6736   19.0677 O   0  0  0  0  0  0  0  0  0  0  0  0
    6.4470    4.5850   22.2321 C   0  0  0  0  0  0  0  0  0  0  0  0
    8.4619    6.9895   22.2968 C   0  0  0  0  0  0  0  0  0  0  0  0
   12.2747    7.5102   20.0420 C   0  0  0  0  0  0  0  0  0  0  0  0
   14.2544    6.2142   19.4191 C   0  0  0  0  0  0  0  0  0  0  0  0
   13.0695    6.3705   20.0375 N   0  0  0  0  0  0  0  0  0  0  0  0
    9.1913    8.0876   21.8361 N   0  0  0  0  0  0  0  0  0  0  0  0
   10.4739    9.4813   20.2889 C   0  0  0  0  0  0  0  0  0  0  0  0
    7.5551    7.1270   23.1200 O   0  0  0  0  0  0  0  0  0  0  0  0
  1 11  4  0
  1 21  4  0
  2  4  1  0
  2  8  1  0
  2 11  1  0
  3 10  4  0
  3 14  4  0
  4  5  1  0
  4 18  2  0
  6 12  1  0
  6 17  4  0
  6 23  4  0
  7  9  1  0
  7 13  4  0
  7 19  4  0
  9 20  1  0
 10 19  4  0
 11 25  4  0
 13 14  4  0
 15 16  4  0
 15 17  4  0
 15 21  4  0
 16 24  1  0
 16 25  4  0
 20 24  1  0
 20 26  2  0
 21 23  4  0
 22 23  1  0
M  END
$$$$

 Created by Python create_sdf_string function

 26 28  0  0  0  0  0  0  0  0999 V2000
   12.4616    8.6700   19.4180 N   0  0  0  0  0  0  0  0  0  0  0  0
   11.8329   10.8148   18.6769 N   0  0  0  0  0  0  0  0  0  0  0  0
    6.1021    2.5564   21.0678 C   0  0  0  0  0  0  0  0  0  0  0  0
   10.9097   11.8051   18.4804 C   0  0  0  0  0  0  0  0  0  0  0  0
   11.2280   12.9135   17.5669 C   0  0  0  0  0  0  0  0  0  0  0  0
   12.3782    5.4231   20.7777 C   0  0  0  0  0  0  0  0  0  0  0  0
    7.7365    4.6508   21.6987 C   0  0  0  0  0  0  0  0  0  0  0  0
   13.0186   11.0102   18.0020 C   0  0  0  0  0  0  0  0  0  0  0  0
    8.6628    5.7088   21.8871 N   0  0  0  0  0  0  0  0  0  0  0  0
    5.6516    3.5258   21.9140 C   0  0  0  0  0  0  0  0  0  0  0  0
   11.5863    9.6815   19.4539 C   0  0  0  0  0  0  0  0  0  0  0  0
   12.9648    4.1543   20.9205 C   0  0  0  0  0  0  0  0  0  0  0  0
    8.2089    3.6265   20.8929 C   0  0  0  0  0  0  0  0  0  0  0  0
    7.3827    2.5724   20.5432 C   0  0  0  0  0  0  0  0  0  0  0  0
   11.1529    7.2750   20.8025 C   0  0  0  0  0  0  0  0  0  0  0  0
   10.2573    8.3215   20.9827 C   0  0  0  0  0  0  0  0  0  0  0  0
   11.1606    5.9378   21.2366 N   0  0  0  0  0  0  0  0  0  0  0  0
    9.8932   11.6736   19.0677 O   0  0  0  0  0  0  0  0  0  0  0  0
    6.4470    4.5850   22.2321 C   0  0  0  0  0  0  0  0  0  0  0  0
    8.4619    6.9895   22.2968 C   0  0  0  0  0  0  0  0  0  0  0  0
   12.2747    7.5102   20.0420 C   0  0  0  0  0  0  0  0  0  0  0  0
   14.2544    6.2142   19.4191 C   0  0  0  0  0  0  0  0  0  0  0  0
   13.0695    6.3705   20.0375 N   0  0  0  0  0  0  0  0  0  0  0  0
    9.1913    8.0876   21.8361 N   0  0  0  0  0  0  0  0  0  0  0  0
   10.4739    9.4813   20.2889 C   0  0  0  0  0  0  0  0  0  0  0  0
    7.5551    7.1270   23.1200 O   0  0  0  0  0  0  0  0  0  0  0  0
  1 11  4  0
  1 21  4  0
  2  4  1  0
  2  8  1  0
  2 11  1  0
  3 10  4  0
  3 14  4  0
  4  5  1  0
  4 18  2  0
  6 12  1  0
  6 17  4  0
  6 23  4  0
  7  9  1  0
  7 13  4  0
  7 19  4  0
  9 20  1  0
 10 19  4  0
 11 25  4  0
 13 14  4  0
 15 16  4  0
 15 17  4  0
 15 21  4  0
 16 24  1  0
 16 25  4  0
 20 24  1  0
 20 26  2  0
 21 23  4  0
 22 23  1  0
M  END
$$$$

 Created by Python create_sdf_string function

 26 28  0  0  0  0  0  0  0  0999 V2000
   12.4616    8.6700   19.4180 N   0  0  0  0  0  0  0  0  0  0  0  0
   11.8329   10.8148   18.6769 N   0  0  0  0  0  0  0  0  0  0  0  0
    6.1021    2.5564   21.0678 C   0  0  0  0  0  0  0  0  0  0  0  0
   10.9097   11.8051   18.4804 C   0  0  0  0  0  0  0  0  0  0  0  0
   11.2280   12.9135   17.5669 C   0  0  0  0  0  0  0  0  0  0  0  0
   12.3782    5.4231   20.7777 C   0  0  0  0  0  0  0  0  0  0  0  0
    7.7365    4.6508   21.6987 C   0  0  0  0  0  0  0  0  0  0  0  0
   13.0186   11.0102   18.0020 C   0  0  0  0  0  0  0  0  0  0  0  0
    8.6628    5.7088   21.8871 N   0  0  0  0  0  0  0  0  0  0  0  0
    5.6516    3.5258   21.9140 C   0  0  0  0  0  0  0  0  0  0  0  0
   11.5863    9.6815   19.4539 C   0  0  0  0  0  0  0  0  0  0  0  0
   12.9648    4.1543   20.9205 C   0  0  0  0  0  0  0  0  0  0  0  0
    8.2089    3.6265   20.8929 C   0  0  0  0  0  0  0  0  0  0  0  0
    7.3827    2.5724   20.5432 C   0  0  0  0  0  0  0  0  0  0  0  0
   11.1529    7.2750   20.8025 C   0  0  0  0  0  0  0  0  0  0  0  0
   10.2573    8.3215   20.9827 C   0  0  0  0  0  0  0  0  0  0  0  0
   11.1606    5.9378   21.2366 N   0  0  0  0  0  0  0  0  0  0  0  0
    9.8932   11.6736   19.0677 O   0  0  0  0  0  0  0  0  0  0  0  0
    6.4470    4.5850   22.2321 C   0  0  0  0  0  0  0  0  0  0  0  0
    8.4619    6.9895   22.2968 C   0  0  0  0  0  0  0  0  0  0  0  0
   12.2747    7.5102   20.0420 C   0  0  0  0  0  0  0  0  0  0  0  0
   14.2544    6.2142   19.4191 C   0  0  0  0  0  0  0  0  0  0  0  0
   13.0695    6.3705   20.0375 N   0  0  0  0  0  0  0  0  0  0  0  0
    9.1913    8.0876   21.8361 N   0  0  0  0  0  0  0  0  0  0  0  0
   10.4739    9.4813   20.2889 C   0  0  0  0  0  0  0  0  0  0  0  0
    7.5551    7.1270   23.1200 O   0  0  0  0  0  0  0  0  0  0  0  0
  1 11  4  0
  1 21  4  0
  2  4  1  0
  2  8  1  0
  2 11  1  0
  3 10  4  0
  3 14  4  0
  4  5  1  0
  4 18  2  0
  6 12  1  0
  6 17  4  0
  6 23  4  0
  7  9  1  0
  7 13  4  0
  7 19  4  0
  9 20  1  0
 10 19  4  0
 11 25  4  0
 13 14  4  0
 15 16  4  0
 15 17  4  0
 15 21  4  0
 16 24  1  0
 16 25  4  0
 20 24  1  0
 20 26  2  0
 21 23  4  0
 22 23  1  0
M  END
$$$$

 Created by Python create_sdf_string function

 26 28  0  0  0  0  0  0  0  0999 V2000
   12.4616    8.6700   19.4180 N   0  0  0  0  0  0  0  0  0  0  0  0
   11.8329   10.8148   18.6769 N   0  0  0  0  0  0  0  0  0  0  0  0
    6.1021    2.5564   21.0678 C   0  0  0  0  0  0  0  0  0  0  0  0
   10.9097   11.8051   18.4804 C   0  0  0  0  0  0  0  0  0  0  0  0
   11.2280   12.9135   17.5669 C   0  0  0  0  0  0  0  0  0  0  0  0
   12.3782    5.4231   20.7777 C   0  0  0  0  0  0  0  0  0  0  0  0
    7.7365    4.6508   21.6987 C   0  0  0  0  0  0  0  0  0  0  0  0
   13.0186   11.0102   18.0020 C   0  0  0  0  0  0  0  0  0  0  0  0
    8.6628    5.7088   21.8871 N   0  0  0  0  0  0  0  0  0  0  0  0
    5.6516    3.5258   21.9140 C   0  0  0  0  0  0  0  0  0  0  0  0
   11.5863    9.6815   19.4539 C   0  0  0  0  0  0  0  0  0  0  0  0
   12.9648    4.1543   20.9205 C   0  0  0  0  0  0  0  0  0  0  0  0
    8.2089    3.6265   20.8929 C   0  0  0  0  0  0  0  0  0  0  0  0
    7.3827    2.5724   20.5432 C   0  0  0  0  0  0  0  0  0  0  0  0
   11.1529    7.2750   20.8025 C   0  0  0  0  0  0  0  0  0  0  0  0
   10.2573    8.3215   20.9827 C   0  0  0  0  0  0  0  0  0  0  0  0
   11.1606    5.9378   21.2366 N   0  0  0  0  0  0  0  0  0  0  0  0
    9.8932   11.6736   19.0677 O   0  0  0  0  0  0  0  0  0  0  0  0
    6.4470    4.5850   22.2321 C   0  0  0  0  0  0  0  0  0  0  0  0
    8.4619    6.9895   22.2968 C   0  0  0  0  0  0  0  0  0  0  0  0
   12.2747    7.5102   20.0420 C   0  0  0  0  0  0  0  0  0  0  0  0
   14.2544    6.2142   19.4191 C   0  0  0  0  0  0  0  0  0  0  0  0
   13.0695    6.3705   20.0375 N   0  0  0  0  0  0  0  0  0  0  0  0
    9.1913    8.0876   21.8361 N   0  0  0  0  0  0  0  0  0  0  0  0
   10.4739    9.4813   20.2889 C   0  0  0  0  0  0  0  0  0  0  0  0
    7.5551    7.1270   23.1200 O   0  0  0  0  0  0  0  0  0  0  0  0
  1 11  4  0
  1 21  4  0
  2  4  1  0
  2  8  1  0
  2 11  1  0
  3 10  4  0
  3 14  4  0
  4  5  1  0
  4 18  2  0
  6 12  1  0
  6 17  4  0
  6 23  4  0
  7  9  1  0
  7 13  4  0
  7 19  4  0
  9 20  1  0
 10 19  4  0
 11 25  4  0
 13 14  4  0
 15 16  4  0
 15 17  4  0
 15 21  4  0
 16 24  1  0
 16 25  4  0
 20 24  1  0
 20 26  2  0
 21 23  4  0
 22 23  1  0
M  END
$$$$

 Created by Python create_sdf_string function

 26 28  0  0  0  0  0  0  0  0999 V2000
   12.4616    8.6700   19.4180 N   0  0  0  0  0  0  0  0  0  0  0  0
   11.8329   10.8148   18.6769 N   0  0  0  0  0  0  0  0  0  0  0  0
    6.1021    2.5564   21.0678 C   0  0  0  0  0  0  0  0  0  0  0  0
   10.9097   11.8051   18.4804 C   0  0  0  0  0  0  0  0  0  0  0  0
   11.2280   12.9135   17.5669 C   0  0  0  0  0  0  0  0  0  0  0  0
   12.3782    5.4231   20.7777 C   0  0  0  0  0  0  0  0  0  0  0  0
    7.7365    4.6508   21.6987 C   0  0  0  0  0  0  0  0  0  0  0  0
   13.0186   11.0102   18.0020 C   0  0  0  0  0  0  0  0  0  0  0  0
    8.6628    5.7088   21.8871 N   0  0  0  0  0  0  0  0  0  0  0  0
    5.6516    3.5258   21.9140 C   0  0  0  0  0  0  0  0  0  0  0  0
   11.5863    9.6815   19.4539 C   0  0  0  0  0  0  0  0  0  0  0  0
   12.9648    4.1543   20.9205 C   0  0  0  0  0  0  0  0  0  0  0  0
    8.2089    3.6265   20.8929 C   0  0  0  0  0  0  0  0  0  0  0  0
    7.3827    2.5724   20.5432 C   0  0  0  0  0  0  0  0  0  0  0  0
   11.1529    7.2750   20.8025 C   0  0  0  0  0  0  0  0  0  0  0  0
   10.2573    8.3215   20.9827 C   0  0  0  0  0  0  0  0  0  0  0  0
   11.1606    5.9378   21.2366 N   0  0  0  0  0  0  0  0  0  0  0  0
    9.8932   11.6736   19.0677 O   0  0  0  0  0  0  0  0  0  0  0  0
    6.4470    4.5850   22.2321 C   0  0  0  0  0  0  0  0  0  0  0  0
    8.4619    6.9895   22.2968 C   0  0  0  0  0  0  0  0  0  0  0  0
   12.2747    7.5102   20.0420 C   0  0  0  0  0  0  0  0  0  0  0  0
   14.2544    6.2142   19.4191 C   0  0  0  0  0  0  0  0  0  0  0  0
   13.0695    6.3705   20.0375 N   0  0  0  0  0  0  0  0  0  0  0  0
    9.1913    8.0876   21.8361 N   0  0  0  0  0  0  0  0  0  0  0  0
   10.4739    9.4813   20.2889 C   0  0  0  0  0  0  0  0  0  0  0  0
    7.5551    7.1270   23.1200 O   0  0  0  0  0  0  0  0  0  0  0  0
  1 11  4  0
  1 21  4  0
  2  4  1  0
  2  8  1  0
  2 11  1  0
  3 10  4  0
  3 14  4  0
  4  5  1  0
  4 18  2  0
  6 12  1  0
  6 17  4  0
  6 23  4  0
  7  9  1  0
  7 13  4  0
  7 19  4  0
  9 20  1  0
 10 19  4  0
 11 25  4  0
 13 14  4  0
 15 16  4  0
 15 17  4  0
 15 21  4  0
 16 24  1  0
 16 25  4  0
 20 24  1  0
 20 26  2  0
 21 23  4  0
 22 23  1  0
M  END
$$$$

 Created by Python create_sdf_string function

 26 28  0  0  0  0  0  0  0  0999 V2000
   12.4616    8.6700   19.4180 N   0  0  0  0  0  0  0  0  0  0  0  0
   11.8329   10.8148   18.6769 N   0  0  0  0  0  0  0  0  0  0  0  0
    6.1021    2.5564   21.0678 C   0  0  0  0  0  0  0  0  0  0  0  0
   10.9097   11.8051   18.4804 C   0  0  0  0  0  0  0  0  0  0  0  0
   11.2280   12.9135   17.5669 C   0  0  0  0  0  0  0  0  0  0  0  0
   12.3782    5.4231   20.7777 C   0  0  0  0  0  0  0  0  0  0  0  0
    7.7365    4.6508   21.6987 C   0  0  0  0  0  0  0  0  0  0  0  0
   13.0186   11.0102   18.0020 C   0  0  0  0  0  0  0  0  0  0  0  0
    8.6628    5.7088   21.8871 N   0  0  0  0  0  0  0  0  0  0  0  0
    5.6516    3.5258   21.9140 C   0  0  0  0  0  0  0  0  0  0  0  0
   11.5863    9.6815   19.4539 C   0  0  0  0  0  0  0  0  0  0  0  0
   12.9648    4.1543   20.9205 C   0  0  0  0  0  0  0  0  0  0  0  0
    8.2089    3.6265   20.8929 C   0  0  0  0  0  0  0  0  0  0  0  0
    7.3827    2.5724   20.5432 C   0  0  0  0  0  0  0  0  0  0  0  0
   11.1529    7.2750   20.8025 C   0  0  0  0  0  0  0  0  0  0  0  0
   10.2573    8.3215   20.9827 C   0  0  0  0  0  0  0  0  0  0  0  0
   11.1606    5.9378   21.2366 N   0  0  0  0  0  0  0  0  0  0  0  0
    9.8932   11.6736   19.0677 O   0  0  0  0  0  0  0  0  0  0  0  0
    6.4470    4.5850   22.2321 C   0  0  0  0  0  0  0  0  0  0  0  0
    8.4619    6.9895   22.2968 C   0  0  0  0  0  0  0  0  0  0  0  0
   12.2747    7.5102   20.0420 C   0  0  0  0  0  0  0  0  0  0  0  0
   14.2544    6.2142   19.4191 C   0  0  0  0  0  0  0  0  0  0  0  0
   13.0695    6.3705   20.0375 N   0  0  0  0  0  0  0  0  0  0  0  0
    9.1913    8.0876   21.8361 N   0  0  0  0  0  0  0  0  0  0  0  0
   10.4739    9.4813   20.2889 C   0  0  0  0  0  0  0  0  0  0  0  0
    7.5551    7.1270   23.1200 O   0  0  0  0  0  0  0  0  0  0  0  0
  1 11  4  0
  1 21  4  0
  2  4  1  0
  2  8  1  0
  2 11  1  0
  3 10  4  0
  3 14  4  0
  4  5  1  0
  4 18  2  0
  6 12  1  0
  6 17  4  0
  6 23  4  0
  7  9  1  0
  7 13  4  0
  7 19  4  0
  9 20  1  0
 10 19  4  0
 11 25  4  0
 13 14  4  0
 15 16  4  0
 15 17  4  0
 15 21  4  0
 16 24  1  0
 16 25  4  0
 20 24  1  0
 20 26  2  0
 21 23  4  0
 22 23  1  0
M  END
$$$$

 Created by Python create_sdf_string function

 26 28  0  0  0  0  0  0  0  0999 V2000
   12.4616    8.6700   19.4180 N   0  0  0  0  0  0  0  0  0  0  0  0
   11.8329   10.8148   18.6769 N   0  0  0  0  0  0  0  0  0  0  0  0
    6.1021    2.5564   21.0678 C   0  0  0  0  0  0  0  0  0  0  0  0
   10.9097   11.8051   18.4804 C   0  0  0  0  0  0  0  0  0  0  0  0
   11.2280   12.9135   17.5669 C   0  0  0  0  0  0  0  0  0  0  0  0
   12.3782    5.4231   20.7777 C   0  0  0  0  0  0  0  0  0  0  0  0
    7.7365    4.6508   21.6987 C   0  0  0  0  0  0  0  0  0  0  0  0
   13.0186   11.0102   18.0020 C   0  0  0  0  0  0  0  0  0  0  0  0
    8.6628    5.7088   21.8871 N   0  0  0  0  0  0  0  0  0  0  0  0
    5.6516    3.5258   21.9140 C   0  0  0  0  0  0  0  0  0  0  0  0
   11.5863    9.6815   19.4539 C   0  0  0  0  0  0  0  0  0  0  0  0
   12.9648    4.1543   20.9205 C   0  0  0  0  0  0  0  0  0  0  0  0
    8.2089    3.6265   20.8929 C   0  0  0  0  0  0  0  0  0  0  0  0
    7.3827    2.5724   20.5432 C   0  0  0  0  0  0  0  0  0  0  0  0
   11.1529    7.2750   20.8025 C   0  0  0  0  0  0  0  0  0  0  0  0
   10.2573    8.3215   20.9827 C   0  0  0  0  0  0  0  0  0  0  0  0
   11.1606    5.9378   21.2366 N   0  0  0  0  0  0  0  0  0  0  0  0
    9.8932   11.6736   19.0677 O   0  0  0  0  0  0  0  0  0  0  0  0
    6.4470    4.5850   22.2321 C   0  0  0  0  0  0  0  0  0  0  0  0
    8.4619    6.9895   22.2968 C   0  0  0  0  0  0  0  0  0  0  0  0
   12.2747    7.5102   20.0420 C   0  0  0  0  0  0  0  0  0  0  0  0
   14.2544    6.2142   19.4191 C   0  0  0  0  0  0  0  0  0  0  0  0
   13.0695    6.3705   20.0375 N   0  0  0  0  0  0  0  0  0  0  0  0
    9.1913    8.0876   21.8361 N   0  0  0  0  0  0  0  0  0  0  0  0
   10.4739    9.4813   20.2889 C   0  0  0  0  0  0  0  0  0  0  0  0
    7.5551    7.1270   23.1200 O   0  0  0  0  0  0  0  0  0  0  0  0
  1 11  4  0
  1 21  4  0
  2  4  1  0
  2  8  1  0
  2 11  1  0
  3 10  4  0
  3 14  4  0
  4  5  1  0
  4 18  2  0
  6 12  1  0
  6 17  4  0
  6 23  4  0
  7  9  1  0
  7 13  4  0
  7 19  4  0
  9 20  1  0
 10 19  4  0
 11 25  4  0
 13 14  4  0
 15 16  4  0
 15 17  4  0
 15 21  4  0
 16 24  1  0
 16 25  4  0
 20 24  1  0
 20 26  2  0
 21 23  4  0
 22 23  1  0
M  END
$$$$

 Created by Python create_sdf_string function

 26 28  0  0  0  0  0  0  0  0999 V2000
   12.4616    8.6700   19.4180 N   0  0  0  0  0  0  0  0  0  0  0  0
   11.8329   10.8148   18.6769 N   0  0  0  0  0  0  0  0  0  0  0  0
    6.1021    2.5564   21.0678 C   0  0  0  0  0  0  0  0  0  0  0  0
   10.9097   11.8051   18.4804 C   0  0  0  0  0  0  0  0  0  0  0  0
   11.2280   12.9135   17.5669 C   0  0  0  0  0  0  0  0  0  0  0  0
   12.3782    5.4231   20.7777 C   0  0  0  0  0  0  0  0  0  0  0  0
    7.7365    4.6508   21.6987 C   0  0  0  0  0  0  0  0  0  0  0  0
   13.0186   11.0102   18.0020 C   0  0  0  0  0  0  0  0  0  0  0  0
    8.6628    5.7088   21.8871 N   0  0  0  0  0  0  0  0  0  0  0  0
    5.6516    3.5258   21.9140 C   0  0  0  0  0  0  0  0  0  0  0  0
   11.5863    9.6815   19.4539 C   0  0  0  0  0  0  0  0  0  0  0  0
   12.9648    4.1543   20.9205 C   0  0  0  0  0  0  0  0  0  0  0  0
    8.2089    3.6265   20.8929 C   0  0  0  0  0  0  0  0  0  0  0  0
    7.3827    2.5724   20.5432 C   0  0  0  0  0  0  0  0  0  0  0  0
   11.1529    7.2750   20.8025 C   0  0  0  0  0  0  0  0  0  0  0  0
   10.2573    8.3215   20.9827 C   0  0  0  0  0  0  0  0  0  0  0  0
   11.1606    5.9378   21.2366 N   0  0  0  0  0  0  0  0  0  0  0  0
    9.8932   11.6736   19.0677 O   0  0  0  0  0  0  0  0  0  0  0  0
    6.4470    4.5850   22.2321 C   0  0  0  0  0  0  0  0  0  0  0  0
    8.4619    6.9895   22.2968 C   0  0  0  0  0  0  0  0  0  0  0  0
   12.2747    7.5102   20.0420 C   0  0  0  0  0  0  0  0  0  0  0  0
   14.2544    6.2142   19.4191 C   0  0  0  0  0  0  0  0  0  0  0  0
   13.0695    6.3705   20.0375 N   0  0  0  0  0  0  0  0  0  0  0  0
    9.1913    8.0876   21.8361 N   0  0  0  0  0  0  0  0  0  0  0  0
   10.4739    9.4813   20.2889 C   0  0  0  0  0  0  0  0  0  0  0  0
    7.5551    7.1270   23.1200 O   0  0  0  0  0  0  0  0  0  0  0  0
  1 11  4  0
  1 21  4  0
  2  4  1  0
  2  8  1  0
  2 11  1  0
  3 10  4  0
  3 14  4  0
  4  5  1  0
  4 18  2  0
  6 12  1  0
  6 17  4  0
  6 23  4  0
  7  9  1  0
  7 13  4  0
  7 19  4  0
  9 20  1  0
 10 19  4  0
 11 25  4  0
 13 14  4  0
 15 16  4  0
 15 17  4  0
 15 21  4  0
 16 24  1  0
 16 25  4  0
 20 24  1  0
 20 26  2  0
 21 23  4  0
 22 23  1  0
M  END
$$$$

 Created by Python create_sdf_string function

 26 28  0  0  0  0  0  0  0  0999 V2000
   12.4616    8.6700   19.4180 N   0  0  0  0  0  0  0  0  0  0  0  0
   11.8329   10.8148   18.6769 N   0  0  0  0  0  0  0  0  0  0  0  0
    6.1021    2.5564   21.0678 C   0  0  0  0  0  0  0  0  0  0  0  0
   10.9097   11.8051   18.4804 C   0  0  0  0  0  0  0  0  0  0  0  0
   11.2280   12.9135   17.5669 C   0  0  0  0  0  0  0  0  0  0  0  0
   12.3782    5.4231   20.7777 C   0  0  0  0  0  0  0  0  0  0  0  0
    7.7365    4.6508   21.6987 C   0  0  0  0  0  0  0  0  0  0  0  0
   13.0186   11.0102   18.0020 C   0  0  0  0  0  0  0  0  0  0  0  0
    8.6628    5.7088   21.8871 N   0  0  0  0  0  0  0  0  0  0  0  0
    5.6516    3.5258   21.9140 C   0  0  0  0  0  0  0  0  0  0  0  0
   11.5863    9.6815   19.4539 C   0  0  0  0  0  0  0  0  0  0  0  0
   12.9648    4.1543   20.9205 C   0  0  0  0  0  0  0  0  0  0  0  0
    8.2089    3.6265   20.8929 C   0  0  0  0  0  0  0  0  0  0  0  0
    7.3827    2.5724   20.5432 C   0  0  0  0  0  0  0  0  0  0  0  0
   11.1529    7.2750   20.8025 C   0  0  0  0  0  0  0  0  0  0  0  0
   10.2573    8.3215   20.9827 C   0  0  0  0  0  0  0  0  0  0  0  0
   11.1606    5.9378   21.2366 N   0  0  0  0  0  0  0  0  0  0  0  0
    9.8932   11.6736   19.0677 O   0  0  0  0  0  0  0  0  0  0  0  0
    6.4470    4.5850   22.2321 C   0  0  0  0  0  0  0  0  0  0  0  0
    8.4619    6.9895   22.2968 C   0  0  0  0  0  0  0  0  0  0  0  0
   12.2747    7.5102   20.0420 C   0  0  0  0  0  0  0  0  0  0  0  0
   14.2544    6.2142   19.4191 C   0  0  0  0  0  0  0  0  0  0  0  0
   13.0695    6.3705   20.0375 N   0  0  0  0  0  0  0  0  0  0  0  0
    9.1913    8.0876   21.8361 N   0  0  0  0  0  0  0  0  0  0  0  0
   10.4739    9.4813   20.2889 C   0  0  0  0  0  0  0  0  0  0  0  0
    7.5551    7.1270   23.1200 O   0  0  0  0  0  0  0  0  0  0  0  0
  1 11  4  0
  1 21  4  0
  2  4  1  0
  2  8  1  0
  2 11  1  0
  3 10  4  0
  3 14  4  0
  4  5  1  0
  4 18  2  0
  6 12  1  0
  6 17  4  0
  6 23  4  0
  7  9  1  0
  7 13  4  0
  7 19  4  0
  9 20  1  0
 10 19  4  0
 11 25  4  0
 13 14  4  0
 15 16  4  0
 15 17  4  0
 15 21  4  0
 16 24  1  0
 16 25  4  0
 20 24  1  0
 20 26  2  0
 21 23  4  0
 22 23  1  0
M  END
$$$$

 Created by Python create_sdf_string function

 26 28  0  0  0  0  0  0  0  0999 V2000
   12.4616    8.6700   19.4180 N   0  0  0  0  0  0  0  0  0  0  0  0
   11.8329   10.8148   18.6769 N   0  0  0  0  0  0  0  0  0  0  0  0
    6.1021    2.5564   21.0678 C   0  0  0  0  0  0  0  0  0  0  0  0
   10.9097   11.8051   18.4804 C   0  0  0  0  0  0  0  0  0  0  0  0
   11.2280   12.9135   17.5669 C   0  0  0  0  0  0  0  0  0  0  0  0
   12.3782    5.4231   20.7777 C   0  0  0  0  0  0  0  0  0  0  0  0
    7.7365    4.6508   21.6987 C   0  0  0  0  0  0  0  0  0  0  0  0
   13.0186   11.0102   18.0020 C   0  0  0  0  0  0  0  0  0  0  0  0
    8.6628    5.7088   21.8871 N   0  0  0  0  0  0  0  0  0  0  0  0
    5.6516    3.5258   21.9140 C   0  0  0  0  0  0  0  0  0  0  0  0
   11.5863    9.6815   19.4539 C   0  0  0  0  0  0  0  0  0  0  0  0
   12.9648    4.1543   20.9205 C   0  0  0  0  0  0  0  0  0  0  0  0
    8.2089    3.6265   20.8929 C   0  0  0  0  0  0  0  0  0  0  0  0
    7.3827    2.5724   20.5432 C   0  0  0  0  0  0  0  0  0  0  0  0
   11.1529    7.2750   20.8025 C   0  0  0  0  0  0  0  0  0  0  0  0
   10.2573    8.3215   20.9827 C   0  0  0  0  0  0  0  0  0  0  0  0
   11.1606    5.9378   21.2366 N   0  0  0  0  0  0  0  0  0  0  0  0
    9.8932   11.6736   19.0677 O   0  0  0  0  0  0  0  0  0  0  0  0
    6.4470    4.5850   22.2321 C   0  0  0  0  0  0  0  0  0  0  0  0
    8.4619    6.9895   22.2968 C   0  0  0  0  0  0  0  0  0  0  0  0
   12.2747    7.5102   20.0420 C   0  0  0  0  0  0  0  0  0  0  0  0
   14.2544    6.2142   19.4191 C   0  0  0  0  0  0  0  0  0  0  0  0
   13.0695    6.3705   20.0375 N   0  0  0  0  0  0  0  0  0  0  0  0
    9.1913    8.0876   21.8361 N   0  0  0  0  0  0  0  0  0  0  0  0
   10.4739    9.4813   20.2889 C   0  0  0  0  0  0  0  0  0  0  0  0
    7.5551    7.1270   23.1200 O   0  0  0  0  0  0  0  0  0  0  0  0
  1 11  4  0
  1 21  4  0
  2  4  1  0
  2  8  1  0
  2 11  1  0
  3 10  4  0
  3 14  4  0
  4  5  1  0
  4 18  2  0
  6 12  1  0
  6 17  4  0
  6 23  4  0
  7  9  1  0
  7 13  4  0
  7 19  4  0
  9 20  1  0
 10 19  4  0
 11 25  4  0
 13 14  4  0
 15 16  4  0
 15 17  4  0
 15 21  4  0
 16 24  1  0
 16 25  4  0
 20 24  1  0
 20 26  2  0
 21 23  4  0
 22 23  1  0
M  END
$$$$

 Created by Python create_sdf_string function

 26 28  0  0  0  0  0  0  0  0999 V2000
   12.4616    8.6700   19.4180 N   0  0  0  0  0  0  0  0  0  0  0  0
   11.8329   10.8148   18.6769 N   0  0  0  0  0  0  0  0  0  0  0  0
    6.1021    2.5564   21.0678 C   0  0  0  0  0  0  0  0  0  0  0  0
   10.9097   11.8051   18.4804 C   0  0  0  0  0  0  0  0  0  0  0  0
   11.2280   12.9135   17.5669 C   0  0  0  0  0  0  0  0  0  0  0  0
   12.3782    5.4231   20.7777 C   0  0  0  0  0  0  0  0  0  0  0  0
    7.7365    4.6508   21.6987 C   0  0  0  0  0  0  0  0  0  0  0  0
   13.0186   11.0102   18.0020 C   0  0  0  0  0  0  0  0  0  0  0  0
    8.6628    5.7088   21.8871 N   0  0  0  0  0  0  0  0  0  0  0  0
    5.6516    3.5258   21.9140 C   0  0  0  0  0  0  0  0  0  0  0  0
   11.5863    9.6815   19.4539 C   0  0  0  0  0  0  0  0  0  0  0  0
   12.9648    4.1543   20.9205 C   0  0  0  0  0  0  0  0  0  0  0  0
    8.2089    3.6265   20.8929 C   0  0  0  0  0  0  0  0  0  0  0  0
    7.3827    2.5724   20.5432 C   0  0  0  0  0  0  0  0  0  0  0  0
   11.1529    7.2750   20.8025 C   0  0  0  0  0  0  0  0  0  0  0  0
   10.2573    8.3215   20.9827 C   0  0  0  0  0  0  0  0  0  0  0  0
   11.1606    5.9378   21.2366 N   0  0  0  0  0  0  0  0  0  0  0  0
    9.8932   11.6736   19.0677 O   0  0  0  0  0  0  0  0  0  0  0  0
    6.4470    4.5850   22.2321 C   0  0  0  0  0  0  0  0  0  0  0  0
    8.4619    6.9895   22.2968 C   0  0  0  0  0  0  0  0  0  0  0  0
   12.2747    7.5102   20.0420 C   0  0  0  0  0  0  0  0  0  0  0  0
   14.2544    6.2142   19.4191 C   0  0  0  0  0  0  0  0  0  0  0  0
   13.0695    6.3705   20.0375 N   0  0  0  0  0  0  0  0  0  0  0  0
    9.1913    8.0876   21.8361 N   0  0  0  0  0  0  0  0  0  0  0  0
   10.4739    9.4813   20.2889 C   0  0  0  0  0  0  0  0  0  0  0  0
    7.5551    7.1270   23.1200 O   0  0  0  0  0  0  0  0  0  0  0  0
  1 11  4  0
  1 21  4  0
  2  4  1  0
  2  8  1  0
  2 11  1  0
  3 10  4  0
  3 14  4  0
  4  5  1  0
  4 18  2  0
  6 12  1  0
  6 17  4  0
  6 23  4  0
  7  9  1  0
  7 13  4  0
  7 19  4  0
  9 20  1  0
 10 19  4  0
 11 25  4  0
 13 14  4  0
 15 16  4  0
 15 17  4  0
 15 21  4  0
 16 24  1  0
 16 25  4  0
 20 24  1  0
 20 26  2  0
 21 23  4  0
 22 23  1  0
M  END
$$$$

 Created by Python create_sdf_string function

 26 28  0  0  0  0  0  0  0  0999 V2000
   12.4616    8.6700   19.4180 N   0  0  0  0  0  0  0  0  0  0  0  0
   11.8329   10.8148   18.6769 N   0  0  0  0  0  0  0  0  0  0  0  0
    6.1021    2.5564   21.0678 C   0  0  0  0  0  0  0  0  0  0  0  0
   10.9097   11.8051   18.4804 C   0  0  0  0  0  0  0  0  0  0  0  0
   11.2280   12.9135   17.5669 C   0  0  0  0  0  0  0  0  0  0  0  0
   12.3782    5.4231   20.7777 C   0  0  0  0  0  0  0  0  0  0  0  0
    7.7365    4.6508   21.6987 C   0  0  0  0  0  0  0  0  0  0  0  0
   13.0186   11.0102   18.0020 C   0  0  0  0  0  0  0  0  0  0  0  0
    8.6628    5.7088   21.8871 N   0  0  0  0  0  0  0  0  0  0  0  0
    5.6516    3.5258   21.9140 C   0  0  0  0  0  0  0  0  0  0  0  0
   11.5863    9.6815   19.4539 C   0  0  0  0  0  0  0  0  0  0  0  0
   12.9648    4.1543   20.9205 C   0  0  0  0  0  0  0  0  0  0  0  0
    8.2089    3.6265   20.8929 C   0  0  0  0  0  0  0  0  0  0  0  0
    7.3827    2.5724   20.5432 C   0  0  0  0  0  0  0  0  0  0  0  0
   11.1529    7.2750   20.8025 C   0  0  0  0  0  0  0  0  0  0  0  0
   10.2573    8.3215   20.9827 C   0  0  0  0  0  0  0  0  0  0  0  0
   11.1606    5.9378   21.2366 N   0  0  0  0  0  0  0  0  0  0  0  0
    9.8932   11.6736   19.0677 O   0  0  0  0  0  0  0  0  0  0  0  0
    6.4470    4.5850   22.2321 C   0  0  0  0  0  0  0  0  0  0  0  0
    8.4619    6.9895   22.2968 C   0  0  0  0  0  0  0  0  0  0  0  0
   12.2747    7.5102   20.0420 C   0  0  0  0  0  0  0  0  0  0  0  0
   14.2544    6.2142   19.4191 C   0  0  0  0  0  0  0  0  0  0  0  0
   13.0695    6.3705   20.0375 N   0  0  0  0  0  0  0  0  0  0  0  0
    9.1913    8.0876   21.8361 N   0  0  0  0  0  0  0  0  0  0  0  0
   10.4739    9.4813   20.2889 C   0  0  0  0  0  0  0  0  0  0  0  0
    7.5551    7.1270   23.1200 O   0  0  0  0  0  0  0  0  0  0  0  0
  1 11  4  0
  1 21  4  0
  2  4  1  0
  2  8  1  0
  2 11  1  0
  3 10  4  0
  3 14  4  0
  4  5  1  0
  4 18  2  0
  6 12  1  0
  6 17  4  0
  6 23  4  0
  7  9  1  0
  7 13  4  0
  7 19  4  0
  9 20  1  0
 10 19  4  0
 11 25  4  0
 13 14  4  0
 15 16  4  0
 15 17  4  0
 15 21  4  0
 16 24  1  0
 16 25  4  0
 20 24  1  0
 20 26  2  0
 21 23  4  0
 22 23  1  0
M  END
$$$$

 Created by Python create_sdf_string function

 26 28  0  0  0  0  0  0  0  0999 V2000
   12.4616    8.6700   19.4180 N   0  0  0  0  0  0  0  0  0  0  0  0
   11.8329   10.8148   18.6769 N   0  0  0  0  0  0  0  0  0  0  0  0
    6.1021    2.5564   21.0678 C   0  0  0  0  0  0  0  0  0  0  0  0
   10.9097   11.8051   18.4804 C   0  0  0  0  0  0  0  0  0  0  0  0
   11.2280   12.9135   17.5669 C   0  0  0  0  0  0  0  0  0  0  0  0
   12.3782    5.4231   20.7777 C   0  0  0  0  0  0  0  0  0  0  0  0
    7.7365    4.6508   21.6987 C   0  0  0  0  0  0  0  0  0  0  0  0
   13.0186   11.0102   18.0020 C   0  0  0  0  0  0  0  0  0  0  0  0
    8.6628    5.7088   21.8871 N   0  0  0  0  0  0  0  0  0  0  0  0
    5.6516    3.5258   21.9140 C   0  0  0  0  0  0  0  0  0  0  0  0
   11.5863    9.6815   19.4539 C   0  0  0  0  0  0  0  0  0  0  0  0
   12.9648    4.1543   20.9205 C   0  0  0  0  0  0  0  0  0  0  0  0
    8.2089    3.6265   20.8929 C   0  0  0  0  0  0  0  0  0  0  0  0
    7.3827    2.5724   20.5432 C   0  0  0  0  0  0  0  0  0  0  0  0
   11.1529    7.2750   20.8025 C   0  0  0  0  0  0  0  0  0  0  0  0
   10.2573    8.3215   20.9827 C   0  0  0  0  0  0  0  0  0  0  0  0
   11.1606    5.9378   21.2366 N   0  0  0  0  0  0  0  0  0  0  0  0
    9.8932   11.6736   19.0677 O   0  0  0  0  0  0  0  0  0  0  0  0
    6.4470    4.5850   22.2321 C   0  0  0  0  0  0  0  0  0  0  0  0
    8.4619    6.9895   22.2968 C   0  0  0  0  0  0  0  0  0  0  0  0
   12.2747    7.5102   20.0420 C   0  0  0  0  0  0  0  0  0  0  0  0
   14.2544    6.2142   19.4191 C   0  0  0  0  0  0  0  0  0  0  0  0
   13.0695    6.3705   20.0375 N   0  0  0  0  0  0  0  0  0  0  0  0
    9.1913    8.0876   21.8361 N   0  0  0  0  0  0  0  0  0  0  0  0
   10.4739    9.4813   20.2889 C   0  0  0  0  0  0  0  0  0  0  0  0
    7.5551    7.1270   23.1200 O   0  0  0  0  0  0  0  0  0  0  0  0
  1 11  4  0
  1 21  4  0
  2  4  1  0
  2  8  1  0
  2 11  1  0
  3 10  4  0
  3 14  4  0
  4  5  1  0
  4 18  2  0
  6 12  1  0
  6 17  4  0
  6 23  4  0
  7  9  1  0
  7 13  4  0
  7 19  4  0
  9 20  1  0
 10 19  4  0
 11 25  4  0
 13 14  4  0
 15 16  4  0
 15 17  4  0
 15 21  4  0
 16 24  1  0
 16 25  4  0
 20 24  1  0
 20 26  2  0
 21 23  4  0
 22 23  1  0
M  END
$$$$

 Created by Python create_sdf_string function

 26 28  0  0  0  0  0  0  0  0999 V2000
   12.4616    8.6700   19.4180 N   0  0  0  0  0  0  0  0  0  0  0  0
   11.8329   10.8148   18.6769 N   0  0  0  0  0  0  0  0  0  0  0  0
    6.1021    2.5564   21.0678 C   0  0  0  0  0  0  0  0  0  0  0  0
   10.9097   11.8051   18.4804 C   0  0  0  0  0  0  0  0  0  0  0  0
   11.2280   12.9135   17.5669 C   0  0  0  0  0  0  0  0  0  0  0  0
   12.3782    5.4231   20.7777 C   0  0  0  0  0  0  0  0  0  0  0  0
    7.7365    4.6508   21.6987 C   0  0  0  0  0  0  0  0  0  0  0  0
   13.0186   11.0102   18.0020 C   0  0  0  0  0  0  0  0  0  0  0  0
    8.6628    5.7088   21.8871 N   0  0  0  0  0  0  0  0  0  0  0  0
    5.6516    3.5258   21.9140 C   0  0  0  0  0  0  0  0  0  0  0  0
   11.5863    9.6815   19.4539 C   0  0  0  0  0  0  0  0  0  0  0  0
   12.9648    4.1543   20.9205 C   0  0  0  0  0  0  0  0  0  0  0  0
    8.2089    3.6265   20.8929 C   0  0  0  0  0  0  0  0  0  0  0  0
    7.3827    2.5724   20.5432 C   0  0  0  0  0  0  0  0  0  0  0  0
   11.1529    7.2750   20.8025 C   0  0  0  0  0  0  0  0  0  0  0  0
   10.2573    8.3215   20.9827 C   0  0  0  0  0  0  0  0  0  0  0  0
   11.1606    5.9378   21.2366 N   0  0  0  0  0  0  0  0  0  0  0  0
    9.8932   11.6736   19.0677 O   0  0  0  0  0  0  0  0  0  0  0  0
    6.4470    4.5850   22.2321 C   0  0  0  0  0  0  0  0  0  0  0  0
    8.4619    6.9895   22.2968 C   0  0  0  0  0  0  0  0  0  0  0  0
   12.2747    7.5102   20.0420 C   0  0  0  0  0  0  0  0  0  0  0  0
   14.2544    6.2142   19.4191 C   0  0  0  0  0  0  0  0  0  0  0  0
   13.0695    6.3705   20.0375 N   0  0  0  0  0  0  0  0  0  0  0  0
    9.1913    8.0876   21.8361 N   0  0  0  0  0  0  0  0  0  0  0  0
   10.4739    9.4813   20.2889 C   0  0  0  0  0  0  0  0  0  0  0  0
    7.5551    7.1270   23.1200 O   0  0  0  0  0  0  0  0  0  0  0  0
  1 11  4  0
  1 21  4  0
  2  4  1  0
  2  8  1  0
  2 11  1  0
  3 10  4  0
  3 14  4  0
  4  5  1  0
  4 18  2  0
  6 12  1  0
  6 17  4  0
  6 23  4  0
  7  9  1  0
  7 13  4  0
  7 19  4  0
  9 20  1  0
 10 19  4  0
 11 25  4  0
 13 14  4  0
 15 16  4  0
 15 17  4  0
 15 21  4  0
 16 24  1  0
 16 25  4  0
 20 24  1  0
 20 26  2  0
 21 23  4  0
 22 23  1  0
M  END
$$$$

 Created by Python create_sdf_string function

 26 28  0  0  0  0  0  0  0  0999 V2000
   12.4616    8.6700   19.4180 N   0  0  0  0  0  0  0  0  0  0  0  0
   11.8329   10.8148   18.6769 N   0  0  0  0  0  0  0  0  0  0  0  0
    6.1021    2.5564   21.0678 C   0  0  0  0  0  0  0  0  0  0  0  0
   10.9097   11.8051   18.4804 C   0  0  0  0  0  0  0  0  0  0  0  0
   11.2280   12.9135   17.5669 C   0  0  0  0  0  0  0  0  0  0  0  0
   12.3782    5.4231   20.7777 C   0  0  0  0  0  0  0  0  0  0  0  0
    7.7365    4.6508   21.6987 C   0  0  0  0  0  0  0  0  0  0  0  0
   13.0186   11.0102   18.0020 C   0  0  0  0  0  0  0  0  0  0  0  0
    8.6628    5.7088   21.8871 N   0  0  0  0  0  0  0  0  0  0  0  0
    5.6516    3.5258   21.9140 C   0  0  0  0  0  0  0  0  0  0  0  0
   11.5863    9.6815   19.4539 C   0  0  0  0  0  0  0  0  0  0  0  0
   12.9648    4.1543   20.9205 C   0  0  0  0  0  0  0  0  0  0  0  0
    8.2089    3.6265   20.8929 C   0  0  0  0  0  0  0  0  0  0  0  0
    7.3827    2.5724   20.5432 C   0  0  0  0  0  0  0  0  0  0  0  0
   11.1529    7.2750   20.8025 C   0  0  0  0  0  0  0  0  0  0  0  0
   10.2573    8.3215   20.9827 C   0  0  0  0  0  0  0  0  0  0  0  0
   11.1606    5.9378   21.2366 N   0  0  0  0  0  0  0  0  0  0  0  0
    9.8932   11.6736   19.0677 O   0  0  0  0  0  0  0  0  0  0  0  0
    6.4470    4.5850   22.2321 C   0  0  0  0  0  0  0  0  0  0  0  0
    8.4619    6.9895   22.2968 C   0  0  0  0  0  0  0  0  0  0  0  0
   12.2747    7.5102   20.0420 C   0  0  0  0  0  0  0  0  0  0  0  0
   14.2544    6.2142   19.4191 C   0  0  0  0  0  0  0  0  0  0  0  0
   13.0695    6.3705   20.0375 N   0  0  0  0  0  0  0  0  0  0  0  0
    9.1913    8.0876   21.8361 N   0  0  0  0  0  0  0  0  0  0  0  0
   10.4739    9.4813   20.2889 C   0  0  0  0  0  0  0  0  0  0  0  0
    7.5551    7.1270   23.1200 O   0  0  0  0  0  0  0  0  0  0  0  0
  1 11  4  0
  1 21  4  0
  2  4  1  0
  2  8  1  0
  2 11  1  0
  3 10  4  0
  3 14  4  0
  4  5  1  0
  4 18  2  0
  6 12  1  0
  6 17  4  0
  6 23  4  0
  7  9  1  0
  7 13  4  0
  7 19  4  0
  9 20  1  0
 10 19  4  0
 11 25  4  0
 13 14  4  0
 15 16  4  0
 15 17  4  0
 15 21  4  0
 16 24  1  0
 16 25  4  0
 20 24  1  0
 20 26  2  0
 21 23  4  0
 22 23  1  0
M  END
$$$$

 Created by Python create_sdf_string function

 26 28  0  0  0  0  0  0  0  0999 V2000
   12.4616    8.6700   19.4180 N   0  0  0  0  0  0  0  0  0  0  0  0
   11.8329   10.8148   18.6769 N   0  0  0  0  0  0  0  0  0  0  0  0
    6.1021    2.5564   21.0678 C   0  0  0  0  0  0  0  0  0  0  0  0
   10.9097   11.8051   18.4804 C   0  0  0  0  0  0  0  0  0  0  0  0
   11.2280   12.9135   17.5669 C   0  0  0  0  0  0  0  0  0  0  0  0
   12.3782    5.4231   20.7777 C   0  0  0  0  0  0  0  0  0  0  0  0
    7.7365    4.6508   21.6987 C   0  0  0  0  0  0  0  0  0  0  0  0
   13.0186   11.0102   18.0020 C   0  0  0  0  0  0  0  0  0  0  0  0
    8.6628    5.7088   21.8871 N   0  0  0  0  0  0  0  0  0  0  0  0
    5.6516    3.5258   21.9140 C   0  0  0  0  0  0  0  0  0  0  0  0
   11.5863    9.6815   19.4539 C   0  0  0  0  0  0  0  0  0  0  0  0
   12.9648    4.1543   20.9205 C   0  0  0  0  0  0  0  0  0  0  0  0
    8.2089    3.6265   20.8929 C   0  0  0  0  0  0  0  0  0  0  0  0
    7.3827    2.5724   20.5432 C   0  0  0  0  0  0  0  0  0  0  0  0
   11.1529    7.2750   20.8025 C   0  0  0  0  0  0  0  0  0  0  0  0
   10.2573    8.3215   20.9827 C   0  0  0  0  0  0  0  0  0  0  0  0
   11.1606    5.9378   21.2366 N   0  0  0  0  0  0  0  0  0  0  0  0
    9.8932   11.6736   19.0677 O   0  0  0  0  0  0  0  0  0  0  0  0
    6.4470    4.5850   22.2321 C   0  0  0  0  0  0  0  0  0  0  0  0
    8.4619    6.9895   22.2968 C   0  0  0  0  0  0  0  0  0  0  0  0
   12.2747    7.5102   20.0420 C   0  0  0  0  0  0  0  0  0  0  0  0
   14.2544    6.2142   19.4191 C   0  0  0  0  0  0  0  0  0  0  0  0
   13.0695    6.3705   20.0375 N   0  0  0  0  0  0  0  0  0  0  0  0
    9.1913    8.0876   21.8361 N   0  0  0  0  0  0  0  0  0  0  0  0
   10.4739    9.4813   20.2889 C   0  0  0  0  0  0  0  0  0  0  0  0
    7.5551    7.1270   23.1200 O   0  0  0  0  0  0  0  0  0  0  0  0
  1 11  4  0
  1 21  4  0
  2  4  1  0
  2  8  1  0
  2 11  1  0
  3 10  4  0
  3 14  4  0
  4  5  1  0
  4 18  2  0
  6 12  1  0
  6 17  4  0
  6 23  4  0
  7  9  1  0
  7 13  4  0
  7 19  4  0
  9 20  1  0
 10 19  4  0
 11 25  4  0
 13 14  4  0
 15 16  4  0
 15 17  4  0
 15 21  4  0
 16 24  1  0
 16 25  4  0
 20 24  1  0
 20 26  2  0
 21 23  4  0
 22 23  1  0
M  END
$$$$

 Created by Python create_sdf_string function

 26 28  0  0  0  0  0  0  0  0999 V2000
   12.4616    8.6700   19.4180 N   0  0  0  0  0  0  0  0  0  0  0  0
   11.8329   10.8148   18.6769 N   0  0  0  0  0  0  0  0  0  0  0  0
    6.1021    2.5564   21.0678 C   0  0  0  0  0  0  0  0  0  0  0  0
   10.9097   11.8051   18.4804 C   0  0  0  0  0  0  0  0  0  0  0  0
   11.2280   12.9135   17.5669 C   0  0  0  0  0  0  0  0  0  0  0  0
   12.3782    5.4231   20.7777 C   0  0  0  0  0  0  0  0  0  0  0  0
    7.7365    4.6508   21.6987 C   0  0  0  0  0  0  0  0  0  0  0  0
   13.0186   11.0102   18.0020 C   0  0  0  0  0  0  0  0  0  0  0  0
    8.6628    5.7088   21.8871 N   0  0  0  0  0  0  0  0  0  0  0  0
    5.6516    3.5258   21.9140 C   0  0  0  0  0  0  0  0  0  0  0  0
   11.5863    9.6815   19.4539 C   0  0  0  0  0  0  0  0  0  0  0  0
   12.9648    4.1543   20.9205 C   0  0  0  0  0  0  0  0  0  0  0  0
    8.2089    3.6265   20.8929 C   0  0  0  0  0  0  0  0  0  0  0  0
    7.3827    2.5724   20.5432 C   0  0  0  0  0  0  0  0  0  0  0  0
   11.1529    7.2750   20.8025 C   0  0  0  0  0  0  0  0  0  0  0  0
   10.2573    8.3215   20.9827 C   0  0  0  0  0  0  0  0  0  0  0  0
   11.1606    5.9378   21.2366 N   0  0  0  0  0  0  0  0  0  0  0  0
    9.8932   11.6736   19.0677 O   0  0  0  0  0  0  0  0  0  0  0  0
    6.4470    4.5850   22.2321 C   0  0  0  0  0  0  0  0  0  0  0  0
    8.4619    6.9895   22.2968 C   0  0  0  0  0  0  0  0  0  0  0  0
   12.2747    7.5102   20.0420 C   0  0  0  0  0  0  0  0  0  0  0  0
   14.2544    6.2142   19.4191 C   0  0  0  0  0  0  0  0  0  0  0  0
   13.0695    6.3705   20.0375 N   0  0  0  0  0  0  0  0  0  0  0  0
    9.1913    8.0876   21.8361 N   0  0  0  0  0  0  0  0  0  0  0  0
   10.4739    9.4813   20.2889 C   0  0  0  0  0  0  0  0  0  0  0  0
    7.5551    7.1270   23.1200 O   0  0  0  0  0  0  0  0  0  0  0  0
  1 11  4  0
  1 21  4  0
  2  4  1  0
  2  8  1  0
  2 11  1  0
  3 10  4  0
  3 14  4  0
  4  5  1  0
  4 18  2  0
  6 12  1  0
  6 17  4  0
  6 23  4  0
  7  9  1  0
  7 13  4  0
  7 19  4  0
  9 20  1  0
 10 19  4  0
 11 25  4  0
 13 14  4  0
 15 16  4  0
 15 17  4  0
 15 21  4  0
 16 24  1  0
 16 25  4  0
 20 24  1  0
 20 26  2  0
 21 23  4  0
 22 23  1  0
M  END
$$$$

 Created by Python create_sdf_string function

 26 28  0  0  0  0  0  0  0  0999 V2000
   12.4616    8.6700   19.4180 N   0  0  0  0  0  0  0  0  0  0  0  0
   11.8329   10.8148   18.6769 N   0  0  0  0  0  0  0  0  0  0  0  0
    6.1021    2.5564   21.0678 C   0  0  0  0  0  0  0  0  0  0  0  0
   10.9097   11.8051   18.4804 C   0  0  0  0  0  0  0  0  0  0  0  0
   11.2280   12.9135   17.5669 C   0  0  0  0  0  0  0  0  0  0  0  0
   12.3782    5.4231   20.7777 C   0  0  0  0  0  0  0  0  0  0  0  0
    7.7365    4.6508   21.6987 C   0  0  0  0  0  0  0  0  0  0  0  0
   13.0186   11.0102   18.0020 C   0  0  0  0  0  0  0  0  0  0  0  0
    8.6628    5.7088   21.8871 N   0  0  0  0  0  0  0  0  0  0  0  0
    5.6516    3.5258   21.9140 C   0  0  0  0  0  0  0  0  0  0  0  0
   11.5863    9.6815   19.4539 C   0  0  0  0  0  0  0  0  0  0  0  0
   12.9648    4.1543   20.9205 C   0  0  0  0  0  0  0  0  0  0  0  0
    8.2089    3.6265   20.8929 C   0  0  0  0  0  0  0  0  0  0  0  0
    7.3827    2.5724   20.5432 C   0  0  0  0  0  0  0  0  0  0  0  0
   11.1529    7.2750   20.8025 C   0  0  0  0  0  0  0  0  0  0  0  0
   10.2573    8.3215   20.9827 C   0  0  0  0  0  0  0  0  0  0  0  0
   11.1606    5.9378   21.2366 N   0  0  0  0  0  0  0  0  0  0  0  0
    9.8932   11.6736   19.0677 O   0  0  0  0  0  0  0  0  0  0  0  0
    6.4470    4.5850   22.2321 C   0  0  0  0  0  0  0  0  0  0  0  0
    8.4619    6.9895   22.2968 C   0  0  0  0  0  0  0  0  0  0  0  0
   12.2747    7.5102   20.0420 C   0  0  0  0  0  0  0  0  0  0  0  0
   14.2544    6.2142   19.4191 C   0  0  0  0  0  0  0  0  0  0  0  0
   13.0695    6.3705   20.0375 N   0  0  0  0  0  0  0  0  0  0  0  0
    9.1913    8.0876   21.8361 N   0  0  0  0  0  0  0  0  0  0  0  0
   10.4739    9.4813   20.2889 C   0  0  0  0  0  0  0  0  0  0  0  0
    7.5551    7.1270   23.1200 O   0  0  0  0  0  0  0  0  0  0  0  0
  1 11  4  0
  1 21  4  0
  2  4  1  0
  2  8  1  0
  2 11  1  0
  3 10  4  0
  3 14  4  0
  4  5  1  0
  4 18  2  0
  6 12  1  0
  6 17  4  0
  6 23  4  0
  7  9  1  0
  7 13  4  0
  7 19  4  0
  9 20  1  0
 10 19  4  0
 11 25  4  0
 13 14  4  0
 15 16  4  0
 15 17  4  0
 15 21  4  0
 16 24  1  0
 16 25  4  0
 20 24  1  0
 20 26  2  0
 21 23  4  0
 22 23  1  0
M  END
$$$$

 Created by Python create_sdf_string function

 26 28  0  0  0  0  0  0  0  0999 V2000
   12.4616    8.6700   19.4180 N   0  0  0  0  0  0  0  0  0  0  0  0
   11.8329   10.8148   18.6769 N   0  0  0  0  0  0  0  0  0  0  0  0
    6.1021    2.5564   21.0678 C   0  0  0  0  0  0  0  0  0  0  0  0
   10.9097   11.8051   18.4804 C   0  0  0  0  0  0  0  0  0  0  0  0
   11.2280   12.9135   17.5669 C   0  0  0  0  0  0  0  0  0  0  0  0
   12.3782    5.4231   20.7777 C   0  0  0  0  0  0  0  0  0  0  0  0
    7.7365    4.6508   21.6987 C   0  0  0  0  0  0  0  0  0  0  0  0
   13.0186   11.0102   18.0020 C   0  0  0  0  0  0  0  0  0  0  0  0
    8.6628    5.7088   21.8871 N   0  0  0  0  0  0  0  0  0  0  0  0
    5.6516    3.5258   21.9140 C   0  0  0  0  0  0  0  0  0  0  0  0
   11.5863    9.6815   19.4539 C   0  0  0  0  0  0  0  0  0  0  0  0
   12.9648    4.1543   20.9205 C   0  0  0  0  0  0  0  0  0  0  0  0
    8.2089    3.6265   20.8929 C   0  0  0  0  0  0  0  0  0  0  0  0
    7.3827    2.5724   20.5432 C   0  0  0  0  0  0  0  0  0  0  0  0
   11.1529    7.2750   20.8025 C   0  0  0  0  0  0  0  0  0  0  0  0
   10.2573    8.3215   20.9827 C   0  0  0  0  0  0  0  0  0  0  0  0
   11.1606    5.9378   21.2366 N   0  0  0  0  0  0  0  0  0  0  0  0
    9.8932   11.6736   19.0677 O   0  0  0  0  0  0  0  0  0  0  0  0
    6.4470    4.5850   22.2321 C   0  0  0  0  0  0  0  0  0  0  0  0
    8.4619    6.9895   22.2968 C   0  0  0  0  0  0  0  0  0  0  0  0
   12.2747    7.5102   20.0420 C   0  0  0  0  0  0  0  0  0  0  0  0
   14.2544    6.2142   19.4191 C   0  0  0  0  0  0  0  0  0  0  0  0
   13.0695    6.3705   20.0375 N   0  0  0  0  0  0  0  0  0  0  0  0
    9.1913    8.0876   21.8361 N   0  0  0  0  0  0  0  0  0  0  0  0
   10.4739    9.4813   20.2889 C   0  0  0  0  0  0  0  0  0  0  0  0
    7.5551    7.1270   23.1200 O   0  0  0  0  0  0  0  0  0  0  0  0
  1 11  4  0
  1 21  4  0
  2  4  1  0
  2  8  1  0
  2 11  1  0
  3 10  4  0
  3 14  4  0
  4  5  1  0
  4 18  2  0
  6 12  1  0
  6 17  4  0
  6 23  4  0
  7  9  1  0
  7 13  4  0
  7 19  4  0
  9 20  1  0
 10 19  4  0
 11 25  4  0
 13 14  4  0
 15 16  4  0
 15 17  4  0
 15 21  4  0
 16 24  1  0
 16 25  4  0
 20 24  1  0
 20 26  2  0
 21 23  4  0
 22 23  1  0
M  END
$$$$

 Created by Python create_sdf_string function

 26 28  0  0  0  0  0  0  0  0999 V2000
   12.4616    8.6700   19.4180 N   0  0  0  0  0  0  0  0  0  0  0  0
   11.8329   10.8148   18.6769 N   0  0  0  0  0  0  0  0  0  0  0  0
    6.1021    2.5564   21.0678 C   0  0  0  0  0  0  0  0  0  0  0  0
   10.9097   11.8051   18.4804 C   0  0  0  0  0  0  0  0  0  0  0  0
   11.2280   12.9135   17.5669 C   0  0  0  0  0  0  0  0  0  0  0  0
   12.3782    5.4231   20.7777 C   0  0  0  0  0  0  0  0  0  0  0  0
    7.7365    4.6508   21.6987 C   0  0  0  0  0  0  0  0  0  0  0  0
   13.0186   11.0102   18.0020 C   0  0  0  0  0  0  0  0  0  0  0  0
    8.6628    5.7088   21.8871 N   0  0  0  0  0  0  0  0  0  0  0  0
    5.6516    3.5258   21.9140 C   0  0  0  0  0  0  0  0  0  0  0  0
   11.5863    9.6815   19.4539 C   0  0  0  0  0  0  0  0  0  0  0  0
   12.9648    4.1543   20.9205 C   0  0  0  0  0  0  0  0  0  0  0  0
    8.2089    3.6265   20.8929 C   0  0  0  0  0  0  0  0  0  0  0  0
    7.3827    2.5724   20.5432 C   0  0  0  0  0  0  0  0  0  0  0  0
   11.1529    7.2750   20.8025 C   0  0  0  0  0  0  0  0  0  0  0  0
   10.2573    8.3215   20.9827 C   0  0  0  0  0  0  0  0  0  0  0  0
   11.1606    5.9378   21.2366 N   0  0  0  0  0  0  0  0  0  0  0  0
    9.8932   11.6736   19.0677 O   0  0  0  0  0  0  0  0  0  0  0  0
    6.4470    4.5850   22.2321 C   0  0  0  0  0  0  0  0  0  0  0  0
    8.4619    6.9895   22.2968 C   0  0  0  0  0  0  0  0  0  0  0  0
   12.2747    7.5102   20.0420 C   0  0  0  0  0  0  0  0  0  0  0  0
   14.2544    6.2142   19.4191 C   0  0  0  0  0  0  0  0  0  0  0  0
   13.0695    6.3705   20.0375 N   0  0  0  0  0  0  0  0  0  0  0  0
    9.1913    8.0876   21.8361 N   0  0  0  0  0  0  0  0  0  0  0  0
   10.4739    9.4813   20.2889 C   0  0  0  0  0  0  0  0  0  0  0  0
    7.5551    7.1270   23.1200 O   0  0  0  0  0  0  0  0  0  0  0  0
  1 11  4  0
  1 21  4  0
  2  4  1  0
  2  8  1  0
  2 11  1  0
  3 10  4  0
  3 14  4  0
  4  5  1  0
  4 18  2  0
  6 12  1  0
  6 17  4  0
  6 23  4  0
  7  9  1  0
  7 13  4  0
  7 19  4  0
  9 20  1  0
 10 19  4  0
 11 25  4  0
 13 14  4  0
 15 16  4  0
 15 17  4  0
 15 21  4  0
 16 24  1  0
 16 25  4  0
 20 24  1  0
 20 26  2  0
 21 23  4  0
 22 23  1  0
M  END
$$$$

 Created by Python create_sdf_string function

 26 28  0  0  0  0  0  0  0  0999 V2000
   12.4616    8.6700   19.4180 N   0  0  0  0  0  0  0  0  0  0  0  0
   11.8329   10.8148   18.6769 N   0  0  0  0  0  0  0  0  0  0  0  0
    6.1021    2.5564   21.0678 C   0  0  0  0  0  0  0  0  0  0  0  0
   10.9097   11.8051   18.4804 C   0  0  0  0  0  0  0  0  0  0  0  0
   11.2280   12.9135   17.5669 C   0  0  0  0  0  0  0  0  0  0  0  0
   12.3782    5.4231   20.7777 C   0  0  0  0  0  0  0  0  0  0  0  0
    7.7365    4.6508   21.6987 C   0  0  0  0  0  0  0  0  0  0  0  0
   13.0186   11.0102   18.0020 C   0  0  0  0  0  0  0  0  0  0  0  0
    8.6628    5.7088   21.8871 N   0  0  0  0  0  0  0  0  0  0  0  0
    5.6516    3.5258   21.9140 C   0  0  0  0  0  0  0  0  0  0  0  0
   11.5863    9.6815   19.4539 C   0  0  0  0  0  0  0  0  0  0  0  0
   12.9648    4.1543   20.9205 C   0  0  0  0  0  0  0  0  0  0  0  0
    8.2089    3.6265   20.8929 C   0  0  0  0  0  0  0  0  0  0  0  0
    7.3827    2.5724   20.5432 C   0  0  0  0  0  0  0  0  0  0  0  0
   11.1529    7.2750   20.8025 C   0  0  0  0  0  0  0  0  0  0  0  0
   10.2573    8.3215   20.9827 C   0  0  0  0  0  0  0  0  0  0  0  0
   11.1606    5.9378   21.2366 N   0  0  0  0  0  0  0  0  0  0  0  0
    9.8932   11.6736   19.0677 O   0  0  0  0  0  0  0  0  0  0  0  0
    6.4470    4.5850   22.2321 C   0  0  0  0  0  0  0  0  0  0  0  0
    8.4619    6.9895   22.2968 C   0  0  0  0  0  0  0  0  0  0  0  0
   12.2747    7.5102   20.0420 C   0  0  0  0  0  0  0  0  0  0  0  0
   14.2544    6.2142   19.4191 C   0  0  0  0  0  0  0  0  0  0  0  0
   13.0695    6.3705   20.0375 N   0  0  0  0  0  0  0  0  0  0  0  0
    9.1913    8.0876   21.8361 N   0  0  0  0  0  0  0  0  0  0  0  0
   10.4739    9.4813   20.2889 C   0  0  0  0  0  0  0  0  0  0  0  0
    7.5551    7.1270   23.1200 O   0  0  0  0  0  0  0  0  0  0  0  0
  1 11  4  0
  1 21  4  0
  2  4  1  0
  2  8  1  0
  2 11  1  0
  3 10  4  0
  3 14  4  0
  4  5  1  0
  4 18  2  0
  6 12  1  0
  6 17  4  0
  6 23  4  0
  7  9  1  0
  7 13  4  0
  7 19  4  0
  9 20  1  0
 10 19  4  0
 11 25  4  0
 13 14  4  0
 15 16  4  0
 15 17  4  0
 15 21  4  0
 16 24  1  0
 16 25  4  0
 20 24  1  0
 20 26  2  0
 21 23  4  0
 22 23  1  0
M  END
$$$$

 Created by Python create_sdf_string function

 26 28  0  0  0  0  0  0  0  0999 V2000
   12.4616    8.6700   19.4180 N   0  0  0  0  0  0  0  0  0  0  0  0
   11.8329   10.8148   18.6769 N   0  0  0  0  0  0  0  0  0  0  0  0
    6.1021    2.5564   21.0678 C   0  0  0  0  0  0  0  0  0  0  0  0
   10.9097   11.8051   18.4804 C   0  0  0  0  0  0  0  0  0  0  0  0
   11.2280   12.9135   17.5669 C   0  0  0  0  0  0  0  0  0  0  0  0
   12.3782    5.4231   20.7777 C   0  0  0  0  0  0  0  0  0  0  0  0
    7.7365    4.6508   21.6987 C   0  0  0  0  0  0  0  0  0  0  0  0
   13.0186   11.0102   18.0020 C   0  0  0  0  0  0  0  0  0  0  0  0
    8.6628    5.7088   21.8871 N   0  0  0  0  0  0  0  0  0  0  0  0
    5.6516    3.5258   21.9140 C   0  0  0  0  0  0  0  0  0  0  0  0
   11.5863    9.6815   19.4539 C   0  0  0  0  0  0  0  0  0  0  0  0
   12.9648    4.1543   20.9205 C   0  0  0  0  0  0  0  0  0  0  0  0
    8.2089    3.6265   20.8929 C   0  0  0  0  0  0  0  0  0  0  0  0
    7.3827    2.5724   20.5432 C   0  0  0  0  0  0  0  0  0  0  0  0
   11.1529    7.2750   20.8025 C   0  0  0  0  0  0  0  0  0  0  0  0
   10.2573    8.3215   20.9827 C   0  0  0  0  0  0  0  0  0  0  0  0
   11.1606    5.9378   21.2366 N   0  0  0  0  0  0  0  0  0  0  0  0
    9.8932   11.6736   19.0677 O   0  0  0  0  0  0  0  0  0  0  0  0
    6.4470    4.5850   22.2321 C   0  0  0  0  0  0  0  0  0  0  0  0
    8.4619    6.9895   22.2968 C   0  0  0  0  0  0  0  0  0  0  0  0
   12.2747    7.5102   20.0420 C   0  0  0  0  0  0  0  0  0  0  0  0
   14.2544    6.2142   19.4191 C   0  0  0  0  0  0  0  0  0  0  0  0
   13.0695    6.3705   20.0375 N   0  0  0  0  0  0  0  0  0  0  0  0
    9.1913    8.0876   21.8361 N   0  0  0  0  0  0  0  0  0  0  0  0
   10.4739    9.4813   20.2889 C   0  0  0  0  0  0  0  0  0  0  0  0
    7.5551    7.1270   23.1200 O   0  0  0  0  0  0  0  0  0  0  0  0
  1 11  4  0
  1 21  4  0
  2  4  1  0
  2  8  1  0
  2 11  1  0
  3 10  4  0
  3 14  4  0
  4  5  1  0
  4 18  2  0
  6 12  1  0
  6 17  4  0
  6 23  4  0
  7  9  1  0
  7 13  4  0
  7 19  4  0
  9 20  1  0
 10 19  4  0
 11 25  4  0
 13 14  4  0
 15 16  4  0
 15 17  4  0
 15 21  4  0
 16 24  1  0
 16 25  4  0
 20 24  1  0
 20 26  2  0
 21 23  4  0
 22 23  1  0
M  END
$$$$

 Created by Python create_sdf_string function

 26 28  0  0  0  0  0  0  0  0999 V2000
   12.4616    8.6700   19.4180 N   0  0  0  0  0  0  0  0  0  0  0  0
   11.8329   10.8148   18.6769 N   0  0  0  0  0  0  0  0  0  0  0  0
    6.1021    2.5564   21.0678 C   0  0  0  0  0  0  0  0  0  0  0  0
   10.9097   11.8051   18.4804 C   0  0  0  0  0  0  0  0  0  0  0  0
   11.2280   12.9135   17.5669 C   0  0  0  0  0  0  0  0  0  0  0  0
   12.3782    5.4231   20.7777 C   0  0  0  0  0  0  0  0  0  0  0  0
    7.7365    4.6508   21.6987 C   0  0  0  0  0  0  0  0  0  0  0  0
   13.0186   11.0102   18.0020 C   0  0  0  0  0  0  0  0  0  0  0  0
    8.6628    5.7088   21.8871 N   0  0  0  0  0  0  0  0  0  0  0  0
    5.6516    3.5258   21.9140 C   0  0  0  0  0  0  0  0  0  0  0  0
   11.5863    9.6815   19.4539 C   0  0  0  0  0  0  0  0  0  0  0  0
   12.9648    4.1543   20.9205 C   0  0  0  0  0  0  0  0  0  0  0  0
    8.2089    3.6265   20.8929 C   0  0  0  0  0  0  0  0  0  0  0  0
    7.3827    2.5724   20.5432 C   0  0  0  0  0  0  0  0  0  0  0  0
   11.1529    7.2750   20.8025 C   0  0  0  0  0  0  0  0  0  0  0  0
   10.2573    8.3215   20.9827 C   0  0  0  0  0  0  0  0  0  0  0  0
   11.1606    5.9378   21.2366 N   0  0  0  0  0  0  0  0  0  0  0  0
    9.8932   11.6736   19.0677 O   0  0  0  0  0  0  0  0  0  0  0  0
    6.4470    4.5850   22.2321 C   0  0  0  0  0  0  0  0  0  0  0  0
    8.4619    6.9895   22.2968 C   0  0  0  0  0  0  0  0  0  0  0  0
   12.2747    7.5102   20.0420 C   0  0  0  0  0  0  0  0  0  0  0  0
   14.2544    6.2142   19.4191 C   0  0  0  0  0  0  0  0  0  0  0  0
   13.0695    6.3705   20.0375 N   0  0  0  0  0  0  0  0  0  0  0  0
    9.1913    8.0876   21.8361 N   0  0  0  0  0  0  0  0  0  0  0  0
   10.4739    9.4813   20.2889 C   0  0  0  0  0  0  0  0  0  0  0  0
    7.5551    7.1270   23.1200 O   0  0  0  0  0  0  0  0  0  0  0  0
  1 11  4  0
  1 21  4  0
  2  4  1  0
  2  8  1  0
  2 11  1  0
  3 10  4  0
  3 14  4  0
  4  5  1  0
  4 18  2  0
  6 12  1  0
  6 17  4  0
  6 23  4  0
  7  9  1  0
  7 13  4  0
  7 19  4  0
  9 20  1  0
 10 19  4  0
 11 25  4  0
 13 14  4  0
 15 16  4  0
 15 17  4  0
 15 21  4  0
 16 24  1  0
 16 25  4  0
 20 24  1  0
 20 26  2  0
 21 23  4  0
 22 23  1  0
M  END
$$$$

 Created by Python create_sdf_string function

 26 28  0  0  0  0  0  0  0  0999 V2000
   12.4616    8.6700   19.4180 N   0  0  0  0  0  0  0  0  0  0  0  0
   11.8329   10.8148   18.6769 N   0  0  0  0  0  0  0  0  0  0  0  0
    6.1021    2.5564   21.0678 C   0  0  0  0  0  0  0  0  0  0  0  0
   10.9097   11.8051   18.4804 C   0  0  0  0  0  0  0  0  0  0  0  0
   11.2280   12.9135   17.5669 C   0  0  0  0  0  0  0  0  0  0  0  0
   12.3782    5.4231   20.7777 C   0  0  0  0  0  0  0  0  0  0  0  0
    7.7365    4.6508   21.6987 C   0  0  0  0  0  0  0  0  0  0  0  0
   13.0186   11.0102   18.0020 C   0  0  0  0  0  0  0  0  0  0  0  0
    8.6628    5.7088   21.8871 N   0  0  0  0  0  0  0  0  0  0  0  0
    5.6516    3.5258   21.9140 C   0  0  0  0  0  0  0  0  0  0  0  0
   11.5863    9.6815   19.4539 C   0  0  0  0  0  0  0  0  0  0  0  0
   12.9648    4.1543   20.9205 C   0  0  0  0  0  0  0  0  0  0  0  0
    8.2089    3.6265   20.8929 C   0  0  0  0  0  0  0  0  0  0  0  0
    7.3827    2.5724   20.5432 C   0  0  0  0  0  0  0  0  0  0  0  0
   11.1529    7.2750   20.8025 C   0  0  0  0  0  0  0  0  0  0  0  0
   10.2573    8.3215   20.9827 C   0  0  0  0  0  0  0  0  0  0  0  0
   11.1606    5.9378   21.2366 N   0  0  0  0  0  0  0  0  0  0  0  0
    9.8932   11.6736   19.0677 O   0  0  0  0  0  0  0  0  0  0  0  0
    6.4470    4.5850   22.2321 C   0  0  0  0  0  0  0  0  0  0  0  0
    8.4619    6.9895   22.2968 C   0  0  0  0  0  0  0  0  0  0  0  0
   12.2747    7.5102   20.0420 C   0  0  0  0  0  0  0  0  0  0  0  0
   14.2544    6.2142   19.4191 C   0  0  0  0  0  0  0  0  0  0  0  0
   13.0695    6.3705   20.0375 N   0  0  0  0  0  0  0  0  0  0  0  0
    9.1913    8.0876   21.8361 N   0  0  0  0  0  0  0  0  0  0  0  0
   10.4739    9.4813   20.2889 C   0  0  0  0  0  0  0  0  0  0  0  0
    7.5551    7.1270   23.1200 O   0  0  0  0  0  0  0  0  0  0  0  0
  1 11  4  0
  1 21  4  0
  2  4  1  0
  2  8  1  0
  2 11  1  0
  3 10  4  0
  3 14  4  0
  4  5  1  0
  4 18  2  0
  6 12  1  0
  6 17  4  0
  6 23  4  0
  7  9  1  0
  7 13  4  0
  7 19  4  0
  9 20  1  0
 10 19  4  0
 11 25  4  0
 13 14  4  0
 15 16  4  0
 15 17  4  0
 15 21  4  0
 16 24  1  0
 16 25  4  0
 20 24  1  0
 20 26  2  0
 21 23  4  0
 22 23  1  0
M  END
$$$$

 Created by Python create_sdf_string function

 26 28  0  0  0  0  0  0  0  0999 V2000
   12.4616    8.6700   19.4180 N   0  0  0  0  0  0  0  0  0  0  0  0
   11.8329   10.8148   18.6769 N   0  0  0  0  0  0  0  0  0  0  0  0
    6.1021    2.5564   21.0678 C   0  0  0  0  0  0  0  0  0  0  0  0
   10.9097   11.8051   18.4804 C   0  0  0  0  0  0  0  0  0  0  0  0
   11.2280   12.9135   17.5669 C   0  0  0  0  0  0  0  0  0  0  0  0
   12.3782    5.4231   20.7777 C   0  0  0  0  0  0  0  0  0  0  0  0
    7.7365    4.6508   21.6987 C   0  0  0  0  0  0  0  0  0  0  0  0
   13.0186   11.0102   18.0020 C   0  0  0  0  0  0  0  0  0  0  0  0
    8.6628    5.7088   21.8871 N   0  0  0  0  0  0  0  0  0  0  0  0
    5.6516    3.5258   21.9140 C   0  0  0  0  0  0  0  0  0  0  0  0
   11.5863    9.6815   19.4539 C   0  0  0  0  0  0  0  0  0  0  0  0
   12.9648    4.1543   20.9205 C   0  0  0  0  0  0  0  0  0  0  0  0
    8.2089    3.6265   20.8929 C   0  0  0  0  0  0  0  0  0  0  0  0
    7.3827    2.5724   20.5432 C   0  0  0  0  0  0  0  0  0  0  0  0
   11.1529    7.2750   20.8025 C   0  0  0  0  0  0  0  0  0  0  0  0
   10.2573    8.3215   20.9827 C   0  0  0  0  0  0  0  0  0  0  0  0
   11.1606    5.9378   21.2366 N   0  0  0  0  0  0  0  0  0  0  0  0
    9.8932   11.6736   19.0677 O   0  0  0  0  0  0  0  0  0  0  0  0
    6.4470    4.5850   22.2321 C   0  0  0  0  0  0  0  0  0  0  0  0
    8.4619    6.9895   22.2968 C   0  0  0  0  0  0  0  0  0  0  0  0
   12.2747    7.5102   20.0420 C   0  0  0  0  0  0  0  0  0  0  0  0
   14.2544    6.2142   19.4191 C   0  0  0  0  0  0  0  0  0  0  0  0
   13.0695    6.3705   20.0375 N   0  0  0  0  0  0  0  0  0  0  0  0
    9.1913    8.0876   21.8361 N   0  0  0  0  0  0  0  0  0  0  0  0
   10.4739    9.4813   20.2889 C   0  0  0  0  0  0  0  0  0  0  0  0
    7.5551    7.1270   23.1200 O   0  0  0  0  0  0  0  0  0  0  0  0
  1 11  4  0
  1 21  4  0
  2  4  1  0
  2  8  1  0
  2 11  1  0
  3 10  4  0
  3 14  4  0
  4  5  1  0
  4 18  2  0
  6 12  1  0
  6 17  4  0
  6 23  4  0
  7  9  1  0
  7 13  4  0
  7 19  4  0
  9 20  1  0
 10 19  4  0
 11 25  4  0
 13 14  4  0
 15 16  4  0
 15 17  4  0
 15 21  4  0
 16 24  1  0
 16 25  4  0
 20 24  1  0
 20 26  2  0
 21 23  4  0
 22 23  1  0
M  END
$$$$

 Created by Python create_sdf_string function

 26 28  0  0  0  0  0  0  0  0999 V2000
   12.4616    8.6700   19.4180 N   0  0  0  0  0  0  0  0  0  0  0  0
   11.8329   10.8148   18.6769 N   0  0  0  0  0  0  0  0  0  0  0  0
    6.1021    2.5564   21.0678 C   0  0  0  0  0  0  0  0  0  0  0  0
   10.9097   11.8051   18.4804 C   0  0  0  0  0  0  0  0  0  0  0  0
   11.2280   12.9135   17.5669 C   0  0  0  0  0  0  0  0  0  0  0  0
   12.3782    5.4231   20.7777 C   0  0  0  0  0  0  0  0  0  0  0  0
    7.7365    4.6508   21.6987 C   0  0  0  0  0  0  0  0  0  0  0  0
   13.0186   11.0102   18.0020 C   0  0  0  0  0  0  0  0  0  0  0  0
    8.6628    5.7088   21.8871 N   0  0  0  0  0  0  0  0  0  0  0  0
    5.6516    3.5258   21.9140 C   0  0  0  0  0  0  0  0  0  0  0  0
   11.5863    9.6815   19.4539 C   0  0  0  0  0  0  0  0  0  0  0  0
   12.9648    4.1543   20.9205 C   0  0  0  0  0  0  0  0  0  0  0  0
    8.2089    3.6265   20.8929 C   0  0  0  0  0  0  0  0  0  0  0  0
    7.3827    2.5724   20.5432 C   0  0  0  0  0  0  0  0  0  0  0  0
   11.1529    7.2750   20.8025 C   0  0  0  0  0  0  0  0  0  0  0  0
   10.2573    8.3215   20.9827 C   0  0  0  0  0  0  0  0  0  0  0  0
   11.1606    5.9378   21.2366 N   0  0  0  0  0  0  0  0  0  0  0  0
    9.8932   11.6736   19.0677 O   0  0  0  0  0  0  0  0  0  0  0  0
    6.4470    4.5850   22.2321 C   0  0  0  0  0  0  0  0  0  0  0  0
    8.4619    6.9895   22.2968 C   0  0  0  0  0  0  0  0  0  0  0  0
   12.2747    7.5102   20.0420 C   0  0  0  0  0  0  0  0  0  0  0  0
   14.2544    6.2142   19.4191 C   0  0  0  0  0  0  0  0  0  0  0  0
   13.0695    6.3705   20.0375 N   0  0  0  0  0  0  0  0  0  0  0  0
    9.1913    8.0876   21.8361 N   0  0  0  0  0  0  0  0  0  0  0  0
   10.4739    9.4813   20.2889 C   0  0  0  0  0  0  0  0  0  0  0  0
    7.5551    7.1270   23.1200 O   0  0  0  0  0  0  0  0  0  0  0  0
  1 11  4  0
  1 21  4  0
  2  4  1  0
  2  8  1  0
  2 11  1  0
  3 10  4  0
  3 14  4  0
  4  5  1  0
  4 18  2  0
  6 12  1  0
  6 17  4  0
  6 23  4  0
  7  9  1  0
  7 13  4  0
  7 19  4  0
  9 20  1  0
 10 19  4  0
 11 25  4  0
 13 14  4  0
 15 16  4  0
 15 17  4  0
 15 21  4  0
 16 24  1  0
 16 25  4  0
 20 24  1  0
 20 26  2  0
 21 23  4  0
 22 23  1  0
M  END
$$$$

 Created by Python create_sdf_string function

 26 28  0  0  0  0  0  0  0  0999 V2000
   12.4616    8.6700   19.4180 N   0  0  0  0  0  0  0  0  0  0  0  0
   11.8329   10.8148   18.6769 N   0  0  0  0  0  0  0  0  0  0  0  0
    6.1021    2.5564   21.0678 C   0  0  0  0  0  0  0  0  0  0  0  0
   10.9097   11.8051   18.4804 C   0  0  0  0  0  0  0  0  0  0  0  0
   11.2280   12.9135   17.5669 C   0  0  0  0  0  0  0  0  0  0  0  0
   12.3782    5.4231   20.7777 C   0  0  0  0  0  0  0  0  0  0  0  0
    7.7365    4.6508   21.6987 C   0  0  0  0  0  0  0  0  0  0  0  0
   13.0186   11.0102   18.0020 C   0  0  0  0  0  0  0  0  0  0  0  0
    8.6628    5.7088   21.8871 N   0  0  0  0  0  0  0  0  0  0  0  0
    5.6516    3.5258   21.9140 C   0  0  0  0  0  0  0  0  0  0  0  0
   11.5863    9.6815   19.4539 C   0  0  0  0  0  0  0  0  0  0  0  0
   12.9648    4.1543   20.9205 C   0  0  0  0  0  0  0  0  0  0  0  0
    8.2089    3.6265   20.8929 C   0  0  0  0  0  0  0  0  0  0  0  0
    7.3827    2.5724   20.5432 C   0  0  0  0  0  0  0  0  0  0  0  0
   11.1529    7.2750   20.8025 C   0  0  0  0  0  0  0  0  0  0  0  0
   10.2573    8.3215   20.9827 C   0  0  0  0  0  0  0  0  0  0  0  0
   11.1606    5.9378   21.2366 N   0  0  0  0  0  0  0  0  0  0  0  0
    9.8932   11.6736   19.0677 O   0  0  0  0  0  0  0  0  0  0  0  0
    6.4470    4.5850   22.2321 C   0  0  0  0  0  0  0  0  0  0  0  0
    8.4619    6.9895   22.2968 C   0  0  0  0  0  0  0  0  0  0  0  0
   12.2747    7.5102   20.0420 C   0  0  0  0  0  0  0  0  0  0  0  0
   14.2544    6.2142   19.4191 C   0  0  0  0  0  0  0  0  0  0  0  0
   13.0695    6.3705   20.0375 N   0  0  0  0  0  0  0  0  0  0  0  0
    9.1913    8.0876   21.8361 N   0  0  0  0  0  0  0  0  0  0  0  0
   10.4739    9.4813   20.2889 C   0  0  0  0  0  0  0  0  0  0  0  0
    7.5551    7.1270   23.1200 O   0  0  0  0  0  0  0  0  0  0  0  0
  1 11  4  0
  1 21  4  0
  2  4  1  0
  2  8  1  0
  2 11  1  0
  3 10  4  0
  3 14  4  0
  4  5  1  0
  4 18  2  0
  6 12  1  0
  6 17  4  0
  6 23  4  0
  7  9  1  0
  7 13  4  0
  7 19  4  0
  9 20  1  0
 10 19  4  0
 11 25  4  0
 13 14  4  0
 15 16  4  0
 15 17  4  0
 15 21  4  0
 16 24  1  0
 16 25  4  0
 20 24  1  0
 20 26  2  0
 21 23  4  0
 22 23  1  0
M  END
$$$$

 Created by Python create_sdf_string function

 26 28  0  0  0  0  0  0  0  0999 V2000
   12.4616    8.6700   19.4180 N   0  0  0  0  0  0  0  0  0  0  0  0
   11.8329   10.8148   18.6769 N   0  0  0  0  0  0  0  0  0  0  0  0
    6.1021    2.5564   21.0678 C   0  0  0  0  0  0  0  0  0  0  0  0
   10.9097   11.8051   18.4804 C   0  0  0  0  0  0  0  0  0  0  0  0
   11.2280   12.9135   17.5669 C   0  0  0  0  0  0  0  0  0  0  0  0
   12.3782    5.4231   20.7777 C   0  0  0  0  0  0  0  0  0  0  0  0
    7.7365    4.6508   21.6987 C   0  0  0  0  0  0  0  0  0  0  0  0
   13.0186   11.0102   18.0020 C   0  0  0  0  0  0  0  0  0  0  0  0
    8.6628    5.7088   21.8871 N   0  0  0  0  0  0  0  0  0  0  0  0
    5.6516    3.5258   21.9140 C   0  0  0  0  0  0  0  0  0  0  0  0
   11.5863    9.6815   19.4539 C   0  0  0  0  0  0  0  0  0  0  0  0
   12.9648    4.1543   20.9205 C   0  0  0  0  0  0  0  0  0  0  0  0
    8.2089    3.6265   20.8929 C   0  0  0  0  0  0  0  0  0  0  0  0
    7.3827    2.5724   20.5432 C   0  0  0  0  0  0  0  0  0  0  0  0
   11.1529    7.2750   20.8025 C   0  0  0  0  0  0  0  0  0  0  0  0
   10.2573    8.3215   20.9827 C   0  0  0  0  0  0  0  0  0  0  0  0
   11.1606    5.9378   21.2366 N   0  0  0  0  0  0  0  0  0  0  0  0
    9.8932   11.6736   19.0677 O   0  0  0  0  0  0  0  0  0  0  0  0
    6.4470    4.5850   22.2321 C   0  0  0  0  0  0  0  0  0  0  0  0
    8.4619    6.9895   22.2968 C   0  0  0  0  0  0  0  0  0  0  0  0
   12.2747    7.5102   20.0420 C   0  0  0  0  0  0  0  0  0  0  0  0
   14.2544    6.2142   19.4191 C   0  0  0  0  0  0  0  0  0  0  0  0
   13.0695    6.3705   20.0375 N   0  0  0  0  0  0  0  0  0  0  0  0
    9.1913    8.0876   21.8361 N   0  0  0  0  0  0  0  0  0  0  0  0
   10.4739    9.4813   20.2889 C   0  0  0  0  0  0  0  0  0  0  0  0
    7.5551    7.1270   23.1200 O   0  0  0  0  0  0  0  0  0  0  0  0
  1 11  4  0
  1 21  4  0
  2  4  1  0
  2  8  1  0
  2 11  1  0
  3 10  4  0
  3 14  4  0
  4  5  1  0
  4 18  2  0
  6 12  1  0
  6 17  4  0
  6 23  4  0
  7  9  1  0
  7 13  4  0
  7 19  4  0
  9 20  1  0
 10 19  4  0
 11 25  4  0
 13 14  4  0
 15 16  4  0
 15 17  4  0
 15 21  4  0
 16 24  1  0
 16 25  4  0
 20 24  1  0
 20 26  2  0
 21 23  4  0
 22 23  1  0
M  END
$$$$

 Created by Python create_sdf_string function

 26 28  0  0  0  0  0  0  0  0999 V2000
   12.4616    8.6700   19.4180 N   0  0  0  0  0  0  0  0  0  0  0  0
   11.8329   10.8148   18.6769 N   0  0  0  0  0  0  0  0  0  0  0  0
    6.1021    2.5564   21.0678 C   0  0  0  0  0  0  0  0  0  0  0  0
   10.9097   11.8051   18.4804 C   0  0  0  0  0  0  0  0  0  0  0  0
   11.2280   12.9135   17.5669 C   0  0  0  0  0  0  0  0  0  0  0  0
   12.3782    5.4231   20.7777 C   0  0  0  0  0  0  0  0  0  0  0  0
    7.7365    4.6508   21.6987 C   0  0  0  0  0  0  0  0  0  0  0  0
   13.0186   11.0102   18.0020 C   0  0  0  0  0  0  0  0  0  0  0  0
    8.6628    5.7088   21.8871 N   0  0  0  0  0  0  0  0  0  0  0  0
    5.6516    3.5258   21.9140 C   0  0  0  0  0  0  0  0  0  0  0  0
   11.5863    9.6815   19.4539 C   0  0  0  0  0  0  0  0  0  0  0  0
   12.9648    4.1543   20.9205 C   0  0  0  0  0  0  0  0  0  0  0  0
    8.2089    3.6265   20.8929 C   0  0  0  0  0  0  0  0  0  0  0  0
    7.3827    2.5724   20.5432 C   0  0  0  0  0  0  0  0  0  0  0  0
   11.1529    7.2750   20.8025 C   0  0  0  0  0  0  0  0  0  0  0  0
   10.2573    8.3215   20.9827 C   0  0  0  0  0  0  0  0  0  0  0  0
   11.1606    5.9378   21.2366 N   0  0  0  0  0  0  0  0  0  0  0  0
    9.8932   11.6736   19.0677 O   0  0  0  0  0  0  0  0  0  0  0  0
    6.4470    4.5850   22.2321 C   0  0  0  0  0  0  0  0  0  0  0  0
    8.4619    6.9895   22.2968 C   0  0  0  0  0  0  0  0  0  0  0  0
   12.2747    7.5102   20.0420 C   0  0  0  0  0  0  0  0  0  0  0  0
   14.2544    6.2142   19.4191 C   0  0  0  0  0  0  0  0  0  0  0  0
   13.0695    6.3705   20.0375 N   0  0  0  0  0  0  0  0  0  0  0  0
    9.1913    8.0876   21.8361 N   0  0  0  0  0  0  0  0  0  0  0  0
   10.4739    9.4813   20.2889 C   0  0  0  0  0  0  0  0  0  0  0  0
    7.5551    7.1270   23.1200 O   0  0  0  0  0  0  0  0  0  0  0  0
  1 11  4  0
  1 21  4  0
  2  4  1  0
  2  8  1  0
  2 11  1  0
  3 10  4  0
  3 14  4  0
  4  5  1  0
  4 18  2  0
  6 12  1  0
  6 17  4  0
  6 23  4  0
  7  9  1  0
  7 13  4  0
  7 19  4  0
  9 20  1  0
 10 19  4  0
 11 25  4  0
 13 14  4  0
 15 16  4  0
 15 17  4  0
 15 21  4  0
 16 24  1  0
 16 25  4  0
 20 24  1  0
 20 26  2  0
 21 23  4  0
 22 23  1  0
M  END
$$$$

 Created by Python create_sdf_string function

 26 28  0  0  0  0  0  0  0  0999 V2000
   12.4616    8.6700   19.4180 N   0  0  0  0  0  0  0  0  0  0  0  0
   11.8329   10.8148   18.6769 N   0  0  0  0  0  0  0  0  0  0  0  0
    6.1021    2.5564   21.0678 C   0  0  0  0  0  0  0  0  0  0  0  0
   10.9097   11.8051   18.4804 C   0  0  0  0  0  0  0  0  0  0  0  0
   11.2280   12.9135   17.5669 C   0  0  0  0  0  0  0  0  0  0  0  0
   12.3782    5.4231   20.7777 C   0  0  0  0  0  0  0  0  0  0  0  0
    7.7365    4.6508   21.6987 C   0  0  0  0  0  0  0  0  0  0  0  0
   13.0186   11.0102   18.0020 C   0  0  0  0  0  0  0  0  0  0  0  0
    8.6628    5.7088   21.8871 N   0  0  0  0  0  0  0  0  0  0  0  0
    5.6516    3.5258   21.9140 C   0  0  0  0  0  0  0  0  0  0  0  0
   11.5863    9.6815   19.4539 C   0  0  0  0  0  0  0  0  0  0  0  0
   12.9648    4.1543   20.9205 C   0  0  0  0  0  0  0  0  0  0  0  0
    8.2089    3.6265   20.8929 C   0  0  0  0  0  0  0  0  0  0  0  0
    7.3827    2.5724   20.5432 C   0  0  0  0  0  0  0  0  0  0  0  0
   11.1529    7.2750   20.8025 C   0  0  0  0  0  0  0  0  0  0  0  0
   10.2573    8.3215   20.9827 C   0  0  0  0  0  0  0  0  0  0  0  0
   11.1606    5.9378   21.2366 N   0  0  0  0  0  0  0  0  0  0  0  0
    9.8932   11.6736   19.0677 O   0  0  0  0  0  0  0  0  0  0  0  0
    6.4470    4.5850   22.2321 C   0  0  0  0  0  0  0  0  0  0  0  0
    8.4619    6.9895   22.2968 C   0  0  0  0  0  0  0  0  0  0  0  0
   12.2747    7.5102   20.0420 C   0  0  0  0  0  0  0  0  0  0  0  0
   14.2544    6.2142   19.4191 C   0  0  0  0  0  0  0  0  0  0  0  0
   13.0695    6.3705   20.0375 N   0  0  0  0  0  0  0  0  0  0  0  0
    9.1913    8.0876   21.8361 N   0  0  0  0  0  0  0  0  0  0  0  0
   10.4739    9.4813   20.2889 C   0  0  0  0  0  0  0  0  0  0  0  0
    7.5551    7.1270   23.1200 O   0  0  0  0  0  0  0  0  0  0  0  0
  1 11  4  0
  1 21  4  0
  2  4  1  0
  2  8  1  0
  2 11  1  0
  3 10  4  0
  3 14  4  0
  4  5  1  0
  4 18  2  0
  6 12  1  0
  6 17  4  0
  6 23  4  0
  7  9  1  0
  7 13  4  0
  7 19  4  0
  9 20  1  0
 10 19  4  0
 11 25  4  0
 13 14  4  0
 15 16  4  0
 15 17  4  0
 15 21  4  0
 16 24  1  0
 16 25  4  0
 20 24  1  0
 20 26  2  0
 21 23  4  0
 22 23  1  0
M  END
$$$$

 Created by Python create_sdf_string function

 26 28  0  0  0  0  0  0  0  0999 V2000
   12.4616    8.6700   19.4180 N   0  0  0  0  0  0  0  0  0  0  0  0
   11.8329   10.8148   18.6769 N   0  0  0  0  0  0  0  0  0  0  0  0
    6.1021    2.5564   21.0678 C   0  0  0  0  0  0  0  0  0  0  0  0
   10.9097   11.8051   18.4804 C   0  0  0  0  0  0  0  0  0  0  0  0
   11.2280   12.9135   17.5669 C   0  0  0  0  0  0  0  0  0  0  0  0
   12.3782    5.4231   20.7777 C   0  0  0  0  0  0  0  0  0  0  0  0
    7.7365    4.6508   21.6987 C   0  0  0  0  0  0  0  0  0  0  0  0
   13.0186   11.0102   18.0020 C   0  0  0  0  0  0  0  0  0  0  0  0
    8.6628    5.7088   21.8871 N   0  0  0  0  0  0  0  0  0  0  0  0
    5.6516    3.5258   21.9140 C   0  0  0  0  0  0  0  0  0  0  0  0
   11.5863    9.6815   19.4539 C   0  0  0  0  0  0  0  0  0  0  0  0
   12.9648    4.1543   20.9205 C   0  0  0  0  0  0  0  0  0  0  0  0
    8.2089    3.6265   20.8929 C   0  0  0  0  0  0  0  0  0  0  0  0
    7.3827    2.5724   20.5432 C   0  0  0  0  0  0  0  0  0  0  0  0
   11.1529    7.2750   20.8025 C   0  0  0  0  0  0  0  0  0  0  0  0
   10.2573    8.3215   20.9827 C   0  0  0  0  0  0  0  0  0  0  0  0
   11.1606    5.9378   21.2366 N   0  0  0  0  0  0  0  0  0  0  0  0
    9.8932   11.6736   19.0677 O   0  0  0  0  0  0  0  0  0  0  0  0
    6.4470    4.5850   22.2321 C   0  0  0  0  0  0  0  0  0  0  0  0
    8.4619    6.9895   22.2968 C   0  0  0  0  0  0  0  0  0  0  0  0
   12.2747    7.5102   20.0420 C   0  0  0  0  0  0  0  0  0  0  0  0
   14.2544    6.2142   19.4191 C   0  0  0  0  0  0  0  0  0  0  0  0
   13.0695    6.3705   20.0375 N   0  0  0  0  0  0  0  0  0  0  0  0
    9.1913    8.0876   21.8361 N   0  0  0  0  0  0  0  0  0  0  0  0
   10.4739    9.4813   20.2889 C   0  0  0  0  0  0  0  0  0  0  0  0
    7.5551    7.1270   23.1200 O   0  0  0  0  0  0  0  0  0  0  0  0
  1 11  4  0
  1 21  4  0
  2  4  1  0
  2  8  1  0
  2 11  1  0
  3 10  4  0
  3 14  4  0
  4  5  1  0
  4 18  2  0
  6 12  1  0
  6 17  4  0
  6 23  4  0
  7  9  1  0
  7 13  4  0
  7 19  4  0
  9 20  1  0
 10 19  4  0
 11 25  4  0
 13 14  4  0
 15 16  4  0
 15 17  4  0
 15 21  4  0
 16 24  1  0
 16 25  4  0
 20 24  1  0
 20 26  2  0
 21 23  4  0
 22 23  1  0
M  END
$$$$

 Created by Python create_sdf_string function

 26 28  0  0  0  0  0  0  0  0999 V2000
   12.4616    8.6700   19.4180 N   0  0  0  0  0  0  0  0  0  0  0  0
   11.8329   10.8148   18.6769 N   0  0  0  0  0  0  0  0  0  0  0  0
    6.1021    2.5564   21.0678 C   0  0  0  0  0  0  0  0  0  0  0  0
   10.9097   11.8051   18.4804 C   0  0  0  0  0  0  0  0  0  0  0  0
   11.2280   12.9135   17.5669 C   0  0  0  0  0  0  0  0  0  0  0  0
   12.3782    5.4231   20.7777 C   0  0  0  0  0  0  0  0  0  0  0  0
    7.7365    4.6508   21.6987 C   0  0  0  0  0  0  0  0  0  0  0  0
   13.0186   11.0102   18.0020 C   0  0  0  0  0  0  0  0  0  0  0  0
    8.6628    5.7088   21.8871 N   0  0  0  0  0  0  0  0  0  0  0  0
    5.6516    3.5258   21.9140 C   0  0  0  0  0  0  0  0  0  0  0  0
   11.5863    9.6815   19.4539 C   0  0  0  0  0  0  0  0  0  0  0  0
   12.9648    4.1543   20.9205 C   0  0  0  0  0  0  0  0  0  0  0  0
    8.2089    3.6265   20.8929 C   0  0  0  0  0  0  0  0  0  0  0  0
    7.3827    2.5724   20.5432 C   0  0  0  0  0  0  0  0  0  0  0  0
   11.1529    7.2750   20.8025 C   0  0  0  0  0  0  0  0  0  0  0  0
   10.2573    8.3215   20.9827 C   0  0  0  0  0  0  0  0  0  0  0  0
   11.1606    5.9378   21.2366 N   0  0  0  0  0  0  0  0  0  0  0  0
    9.8932   11.6736   19.0677 O   0  0  0  0  0  0  0  0  0  0  0  0
    6.4470    4.5850   22.2321 C   0  0  0  0  0  0  0  0  0  0  0  0
    8.4619    6.9895   22.2968 C   0  0  0  0  0  0  0  0  0  0  0  0
   12.2747    7.5102   20.0420 C   0  0  0  0  0  0  0  0  0  0  0  0
   14.2544    6.2142   19.4191 C   0  0  0  0  0  0  0  0  0  0  0  0
   13.0695    6.3705   20.0375 N   0  0  0  0  0  0  0  0  0  0  0  0
    9.1913    8.0876   21.8361 N   0  0  0  0  0  0  0  0  0  0  0  0
   10.4739    9.4813   20.2889 C   0  0  0  0  0  0  0  0  0  0  0  0
    7.5551    7.1270   23.1200 O   0  0  0  0  0  0  0  0  0  0  0  0
  1 11  4  0
  1 21  4  0
  2  4  1  0
  2  8  1  0
  2 11  1  0
  3 10  4  0
  3 14  4  0
  4  5  1  0
  4 18  2  0
  6 12  1  0
  6 17  4  0
  6 23  4  0
  7  9  1  0
  7 13  4  0
  7 19  4  0
  9 20  1  0
 10 19  4  0
 11 25  4  0
 13 14  4  0
 15 16  4  0
 15 17  4  0
 15 21  4  0
 16 24  1  0
 16 25  4  0
 20 24  1  0
 20 26  2  0
 21 23  4  0
 22 23  1  0
M  END
$$$$

 Created by Python create_sdf_string function

 26 28  0  0  0  0  0  0  0  0999 V2000
   12.4616    8.6700   19.4180 N   0  0  0  0  0  0  0  0  0  0  0  0
   11.8329   10.8148   18.6769 N   0  0  0  0  0  0  0  0  0  0  0  0
    6.1021    2.5564   21.0678 C   0  0  0  0  0  0  0  0  0  0  0  0
   10.9097   11.8051   18.4804 C   0  0  0  0  0  0  0  0  0  0  0  0
   11.2280   12.9135   17.5669 C   0  0  0  0  0  0  0  0  0  0  0  0
   12.3782    5.4231   20.7777 C   0  0  0  0  0  0  0  0  0  0  0  0
    7.7365    4.6508   21.6987 C   0  0  0  0  0  0  0  0  0  0  0  0
   13.0186   11.0102   18.0020 C   0  0  0  0  0  0  0  0  0  0  0  0
    8.6628    5.7088   21.8871 N   0  0  0  0  0  0  0  0  0  0  0  0
    5.6516    3.5258   21.9140 C   0  0  0  0  0  0  0  0  0  0  0  0
   11.5863    9.6815   19.4539 C   0  0  0  0  0  0  0  0  0  0  0  0
   12.9648    4.1543   20.9205 C   0  0  0  0  0  0  0  0  0  0  0  0
    8.2089    3.6265   20.8929 C   0  0  0  0  0  0  0  0  0  0  0  0
    7.3827    2.5724   20.5432 C   0  0  0  0  0  0  0  0  0  0  0  0
   11.1529    7.2750   20.8025 C   0  0  0  0  0  0  0  0  0  0  0  0
   10.2573    8.3215   20.9827 C   0  0  0  0  0  0  0  0  0  0  0  0
   11.1606    5.9378   21.2366 N   0  0  0  0  0  0  0  0  0  0  0  0
    9.8932   11.6736   19.0677 O   0  0  0  0  0  0  0  0  0  0  0  0
    6.4470    4.5850   22.2321 C   0  0  0  0  0  0  0  0  0  0  0  0
    8.4619    6.9895   22.2968 C   0  0  0  0  0  0  0  0  0  0  0  0
   12.2747    7.5102   20.0420 C   0  0  0  0  0  0  0  0  0  0  0  0
   14.2544    6.2142   19.4191 C   0  0  0  0  0  0  0  0  0  0  0  0
   13.0695    6.3705   20.0375 N   0  0  0  0  0  0  0  0  0  0  0  0
    9.1913    8.0876   21.8361 N   0  0  0  0  0  0  0  0  0  0  0  0
   10.4739    9.4813   20.2889 C   0  0  0  0  0  0  0  0  0  0  0  0
    7.5551    7.1270   23.1200 O   0  0  0  0  0  0  0  0  0  0  0  0
  1 11  4  0
  1 21  4  0
  2  4  1  0
  2  8  1  0
  2 11  1  0
  3 10  4  0
  3 14  4  0
  4  5  1  0
  4 18  2  0
  6 12  1  0
  6 17  4  0
  6 23  4  0
  7  9  1  0
  7 13  4  0
  7 19  4  0
  9 20  1  0
 10 19  4  0
 11 25  4  0
 13 14  4  0
 15 16  4  0
 15 17  4  0
 15 21  4  0
 16 24  1  0
 16 25  4  0
 20 24  1  0
 20 26  2  0
 21 23  4  0
 22 23  1  0
M  END
$$$$

 Created by Python create_sdf_string function

 26 28  0  0  0  0  0  0  0  0999 V2000
   12.4616    8.6700   19.4180 N   0  0  0  0  0  0  0  0  0  0  0  0
   11.8329   10.8148   18.6769 N   0  0  0  0  0  0  0  0  0  0  0  0
    6.1021    2.5564   21.0678 C   0  0  0  0  0  0  0  0  0  0  0  0
   10.9097   11.8051   18.4804 C   0  0  0  0  0  0  0  0  0  0  0  0
   11.2280   12.9135   17.5669 C   0  0  0  0  0  0  0  0  0  0  0  0
   12.3782    5.4231   20.7777 C   0  0  0  0  0  0  0  0  0  0  0  0
    7.7365    4.6508   21.6987 C   0  0  0  0  0  0  0  0  0  0  0  0
   13.0186   11.0102   18.0020 C   0  0  0  0  0  0  0  0  0  0  0  0
    8.6628    5.7088   21.8871 N   0  0  0  0  0  0  0  0  0  0  0  0
    5.6516    3.5258   21.9140 C   0  0  0  0  0  0  0  0  0  0  0  0
   11.5863    9.6815   19.4539 C   0  0  0  0  0  0  0  0  0  0  0  0
   12.9648    4.1543   20.9205 C   0  0  0  0  0  0  0  0  0  0  0  0
    8.2089    3.6265   20.8929 C   0  0  0  0  0  0  0  0  0  0  0  0
    7.3827    2.5724   20.5432 C   0  0  0  0  0  0  0  0  0  0  0  0
   11.1529    7.2750   20.8025 C   0  0  0  0  0  0  0  0  0  0  0  0
   10.2573    8.3215   20.9827 C   0  0  0  0  0  0  0  0  0  0  0  0
   11.1606    5.9378   21.2366 N   0  0  0  0  0  0  0  0  0  0  0  0
    9.8932   11.6736   19.0677 O   0  0  0  0  0  0  0  0  0  0  0  0
    6.4470    4.5850   22.2321 C   0  0  0  0  0  0  0  0  0  0  0  0
    8.4619    6.9895   22.2968 C   0  0  0  0  0  0  0  0  0  0  0  0
   12.2747    7.5102   20.0420 C   0  0  0  0  0  0  0  0  0  0  0  0
   14.2544    6.2142   19.4191 C   0  0  0  0  0  0  0  0  0  0  0  0
   13.0695    6.3705   20.0375 N   0  0  0  0  0  0  0  0  0  0  0  0
    9.1913    8.0876   21.8361 N   0  0  0  0  0  0  0  0  0  0  0  0
   10.4739    9.4813   20.2889 C   0  0  0  0  0  0  0  0  0  0  0  0
    7.5551    7.1270   23.1200 O   0  0  0  0  0  0  0  0  0  0  0  0
  1 11  4  0
  1 21  4  0
  2  4  1  0
  2  8  1  0
  2 11  1  0
  3 10  4  0
  3 14  4  0
  4  5  1  0
  4 18  2  0
  6 12  1  0
  6 17  4  0
  6 23  4  0
  7  9  1  0
  7 13  4  0
  7 19  4  0
  9 20  1  0
 10 19  4  0
 11 25  4  0
 13 14  4  0
 15 16  4  0
 15 17  4  0
 15 21  4  0
 16 24  1  0
 16 25  4  0
 20 24  1  0
 20 26  2  0
 21 23  4  0
 22 23  1  0
M  END
$$$$

 Created by Python create_sdf_string function

 26 28  0  0  0  0  0  0  0  0999 V2000
   12.4616    8.6700   19.4180 N   0  0  0  0  0  0  0  0  0  0  0  0
   11.8329   10.8148   18.6769 N   0  0  0  0  0  0  0  0  0  0  0  0
    6.1021    2.5564   21.0678 C   0  0  0  0  0  0  0  0  0  0  0  0
   10.9097   11.8051   18.4804 C   0  0  0  0  0  0  0  0  0  0  0  0
   11.2280   12.9135   17.5669 C   0  0  0  0  0  0  0  0  0  0  0  0
   12.3782    5.4231   20.7777 C   0  0  0  0  0  0  0  0  0  0  0  0
    7.7365    4.6508   21.6987 C   0  0  0  0  0  0  0  0  0  0  0  0
   13.0186   11.0102   18.0020 C   0  0  0  0  0  0  0  0  0  0  0  0
    8.6628    5.7088   21.8871 N   0  0  0  0  0  0  0  0  0  0  0  0
    5.6516    3.5258   21.9140 C   0  0  0  0  0  0  0  0  0  0  0  0
   11.5863    9.6815   19.4539 C   0  0  0  0  0  0  0  0  0  0  0  0
   12.9648    4.1543   20.9205 C   0  0  0  0  0  0  0  0  0  0  0  0
    8.2089    3.6265   20.8929 C   0  0  0  0  0  0  0  0  0  0  0  0
    7.3827    2.5724   20.5432 C   0  0  0  0  0  0  0  0  0  0  0  0
   11.1529    7.2750   20.8025 C   0  0  0  0  0  0  0  0  0  0  0  0
   10.2573    8.3215   20.9827 C   0  0  0  0  0  0  0  0  0  0  0  0
   11.1606    5.9378   21.2366 N   0  0  0  0  0  0  0  0  0  0  0  0
    9.8932   11.6736   19.0677 O   0  0  0  0  0  0  0  0  0  0  0  0
    6.4470    4.5850   22.2321 C   0  0  0  0  0  0  0  0  0  0  0  0
    8.4619    6.9895   22.2968 C   0  0  0  0  0  0  0  0  0  0  0  0
   12.2747    7.5102   20.0420 C   0  0  0  0  0  0  0  0  0  0  0  0
   14.2544    6.2142   19.4191 C   0  0  0  0  0  0  0  0  0  0  0  0
   13.0695    6.3705   20.0375 N   0  0  0  0  0  0  0  0  0  0  0  0
    9.1913    8.0876   21.8361 N   0  0  0  0  0  0  0  0  0  0  0  0
   10.4739    9.4813   20.2889 C   0  0  0  0  0  0  0  0  0  0  0  0
    7.5551    7.1270   23.1200 O   0  0  0  0  0  0  0  0  0  0  0  0
  1 11  4  0
  1 21  4  0
  2  4  1  0
  2  8  1  0
  2 11  1  0
  3 10  4  0
  3 14  4  0
  4  5  1  0
  4 18  2  0
  6 12  1  0
  6 17  4  0
  6 23  4  0
  7  9  1  0
  7 13  4  0
  7 19  4  0
  9 20  1  0
 10 19  4  0
 11 25  4  0
 13 14  4  0
 15 16  4  0
 15 17  4  0
 15 21  4  0
 16 24  1  0
 16 25  4  0
 20 24  1  0
 20 26  2  0
 21 23  4  0
 22 23  1  0
M  END
$$$$

 Created by Python create_sdf_string function

 26 28  0  0  0  0  0  0  0  0999 V2000
   12.4616    8.6700   19.4180 N   0  0  0  0  0  0  0  0  0  0  0  0
   11.8329   10.8148   18.6769 N   0  0  0  0  0  0  0  0  0  0  0  0
    6.1021    2.5564   21.0678 C   0  0  0  0  0  0  0  0  0  0  0  0
   10.9097   11.8051   18.4804 C   0  0  0  0  0  0  0  0  0  0  0  0
   11.2280   12.9135   17.5669 C   0  0  0  0  0  0  0  0  0  0  0  0
   12.3782    5.4231   20.7777 C   0  0  0  0  0  0  0  0  0  0  0  0
    7.7365    4.6508   21.6987 C   0  0  0  0  0  0  0  0  0  0  0  0
   13.0186   11.0102   18.0020 C   0  0  0  0  0  0  0  0  0  0  0  0
    8.6628    5.7088   21.8871 N   0  0  0  0  0  0  0  0  0  0  0  0
    5.6516    3.5258   21.9140 C   0  0  0  0  0  0  0  0  0  0  0  0
   11.5863    9.6815   19.4539 C   0  0  0  0  0  0  0  0  0  0  0  0
   12.9648    4.1543   20.9205 C   0  0  0  0  0  0  0  0  0  0  0  0
    8.2089    3.6265   20.8929 C   0  0  0  0  0  0  0  0  0  0  0  0
    7.3827    2.5724   20.5432 C   0  0  0  0  0  0  0  0  0  0  0  0
   11.1529    7.2750   20.8025 C   0  0  0  0  0  0  0  0  0  0  0  0
   10.2573    8.3215   20.9827 C   0  0  0  0  0  0  0  0  0  0  0  0
   11.1606    5.9378   21.2366 N   0  0  0  0  0  0  0  0  0  0  0  0
    9.8932   11.6736   19.0677 O   0  0  0  0  0  0  0  0  0  0  0  0
    6.4470    4.5850   22.2321 C   0  0  0  0  0  0  0  0  0  0  0  0
    8.4619    6.9895   22.2968 C   0  0  0  0  0  0  0  0  0  0  0  0
   12.2747    7.5102   20.0420 C   0  0  0  0  0  0  0  0  0  0  0  0
   14.2544    6.2142   19.4191 C   0  0  0  0  0  0  0  0  0  0  0  0
   13.0695    6.3705   20.0375 N   0  0  0  0  0  0  0  0  0  0  0  0
    9.1913    8.0876   21.8361 N   0  0  0  0  0  0  0  0  0  0  0  0
   10.4739    9.4813   20.2889 C   0  0  0  0  0  0  0  0  0  0  0  0
    7.5551    7.1270   23.1200 O   0  0  0  0  0  0  0  0  0  0  0  0
  1 11  4  0
  1 21  4  0
  2  4  1  0
  2  8  1  0
  2 11  1  0
  3 10  4  0
  3 14  4  0
  4  5  1  0
  4 18  2  0
  6 12  1  0
  6 17  4  0
  6 23  4  0
  7  9  1  0
  7 13  4  0
  7 19  4  0
  9 20  1  0
 10 19  4  0
 11 25  4  0
 13 14  4  0
 15 16  4  0
 15 17  4  0
 15 21  4  0
 16 24  1  0
 16 25  4  0
 20 24  1  0
 20 26  2  0
 21 23  4  0
 22 23  1  0
M  END
$$$$

 Created by Python create_sdf_string function

 26 28  0  0  0  0  0  0  0  0999 V2000
   12.4616    8.6700   19.4180 N   0  0  0  0  0  0  0  0  0  0  0  0
   11.8329   10.8148   18.6769 N   0  0  0  0  0  0  0  0  0  0  0  0
    6.1021    2.5564   21.0678 C   0  0  0  0  0  0  0  0  0  0  0  0
   10.9097   11.8051   18.4804 C   0  0  0  0  0  0  0  0  0  0  0  0
   11.2280   12.9135   17.5669 C   0  0  0  0  0  0  0  0  0  0  0  0
   12.3782    5.4231   20.7777 C   0  0  0  0  0  0  0  0  0  0  0  0
    7.7365    4.6508   21.6987 C   0  0  0  0  0  0  0  0  0  0  0  0
   13.0186   11.0102   18.0020 C   0  0  0  0  0  0  0  0  0  0  0  0
    8.6628    5.7088   21.8871 N   0  0  0  0  0  0  0  0  0  0  0  0
    5.6516    3.5258   21.9140 C   0  0  0  0  0  0  0  0  0  0  0  0
   11.5863    9.6815   19.4539 C   0  0  0  0  0  0  0  0  0  0  0  0
   12.9648    4.1543   20.9205 C   0  0  0  0  0  0  0  0  0  0  0  0
    8.2089    3.6265   20.8929 C   0  0  0  0  0  0  0  0  0  0  0  0
    7.3827    2.5724   20.5432 C   0  0  0  0  0  0  0  0  0  0  0  0
   11.1529    7.2750   20.8025 C   0  0  0  0  0  0  0  0  0  0  0  0
   10.2573    8.3215   20.9827 C   0  0  0  0  0  0  0  0  0  0  0  0
   11.1606    5.9378   21.2366 N   0  0  0  0  0  0  0  0  0  0  0  0
    9.8932   11.6736   19.0677 O   0  0  0  0  0  0  0  0  0  0  0  0
    6.4470    4.5850   22.2321 C   0  0  0  0  0  0  0  0  0  0  0  0
    8.4619    6.9895   22.2968 C   0  0  0  0  0  0  0  0  0  0  0  0
   12.2747    7.5102   20.0420 C   0  0  0  0  0  0  0  0  0  0  0  0
   14.2544    6.2142   19.4191 C   0  0  0  0  0  0  0  0  0  0  0  0
   13.0695    6.3705   20.0375 N   0  0  0  0  0  0  0  0  0  0  0  0
    9.1913    8.0876   21.8361 N   0  0  0  0  0  0  0  0  0  0  0  0
   10.4739    9.4813   20.2889 C   0  0  0  0  0  0  0  0  0  0  0  0
    7.5551    7.1270   23.1200 O   0  0  0  0  0  0  0  0  0  0  0  0
  1 11  4  0
  1 21  4  0
  2  4  1  0
  2  8  1  0
  2 11  1  0
  3 10  4  0
  3 14  4  0
  4  5  1  0
  4 18  2  0
  6 12  1  0
  6 17  4  0
  6 23  4  0
  7  9  1  0
  7 13  4  0
  7 19  4  0
  9 20  1  0
 10 19  4  0
 11 25  4  0
 13 14  4  0
 15 16  4  0
 15 17  4  0
 15 21  4  0
 16 24  1  0
 16 25  4  0
 20 24  1  0
 20 26  2  0
 21 23  4  0
 22 23  1  0
M  END
$$$$

 Created by Python create_sdf_string function

 26 28  0  0  0  0  0  0  0  0999 V2000
   12.4616    8.6700   19.4180 N   0  0  0  0  0  0  0  0  0  0  0  0
   11.8329   10.8148   18.6769 N   0  0  0  0  0  0  0  0  0  0  0  0
    6.1021    2.5564   21.0678 C   0  0  0  0  0  0  0  0  0  0  0  0
   10.9097   11.8051   18.4804 C   0  0  0  0  0  0  0  0  0  0  0  0
   11.2280   12.9135   17.5669 C   0  0  0  0  0  0  0  0  0  0  0  0
   12.3782    5.4231   20.7777 C   0  0  0  0  0  0  0  0  0  0  0  0
    7.7365    4.6508   21.6987 C   0  0  0  0  0  0  0  0  0  0  0  0
   13.0186   11.0102   18.0020 C   0  0  0  0  0  0  0  0  0  0  0  0
    8.6628    5.7088   21.8871 N   0  0  0  0  0  0  0  0  0  0  0  0
    5.6516    3.5258   21.9140 C   0  0  0  0  0  0  0  0  0  0  0  0
   11.5863    9.6815   19.4539 C   0  0  0  0  0  0  0  0  0  0  0  0
   12.9648    4.1543   20.9205 C   0  0  0  0  0  0  0  0  0  0  0  0
    8.2089    3.6265   20.8929 C   0  0  0  0  0  0  0  0  0  0  0  0
    7.3827    2.5724   20.5432 C   0  0  0  0  0  0  0  0  0  0  0  0
   11.1529    7.2750   20.8025 C   0  0  0  0  0  0  0  0  0  0  0  0
   10.2573    8.3215   20.9827 C   0  0  0  0  0  0  0  0  0  0  0  0
   11.1606    5.9378   21.2366 N   0  0  0  0  0  0  0  0  0  0  0  0
    9.8932   11.6736   19.0677 O   0  0  0  0  0  0  0  0  0  0  0  0
    6.4470    4.5850   22.2321 C   0  0  0  0  0  0  0  0  0  0  0  0
    8.4619    6.9895   22.2968 C   0  0  0  0  0  0  0  0  0  0  0  0
   12.2747    7.5102   20.0420 C   0  0  0  0  0  0  0  0  0  0  0  0
   14.2544    6.2142   19.4191 C   0  0  0  0  0  0  0  0  0  0  0  0
   13.0695    6.3705   20.0375 N   0  0  0  0  0  0  0  0  0  0  0  0
    9.1913    8.0876   21.8361 N   0  0  0  0  0  0  0  0  0  0  0  0
   10.4739    9.4813   20.2889 C   0  0  0  0  0  0  0  0  0  0  0  0
    7.5551    7.1270   23.1200 O   0  0  0  0  0  0  0  0  0  0  0  0
  1 11  4  0
  1 21  4  0
  2  4  1  0
  2  8  1  0
  2 11  1  0
  3 10  4  0
  3 14  4  0
  4  5  1  0
  4 18  2  0
  6 12  1  0
  6 17  4  0
  6 23  4  0
  7  9  1  0
  7 13  4  0
  7 19  4  0
  9 20  1  0
 10 19  4  0
 11 25  4  0
 13 14  4  0
 15 16  4  0
 15 17  4  0
 15 21  4  0
 16 24  1  0
 16 25  4  0
 20 24  1  0
 20 26  2  0
 21 23  4  0
 22 23  1  0
M  END
$$$$

 Created by Python create_sdf_string function

 26 28  0  0  0  0  0  0  0  0999 V2000
   12.4616    8.6700   19.4180 N   0  0  0  0  0  0  0  0  0  0  0  0
   11.8329   10.8148   18.6769 N   0  0  0  0  0  0  0  0  0  0  0  0
    6.1021    2.5564   21.0678 C   0  0  0  0  0  0  0  0  0  0  0  0
   10.9097   11.8051   18.4804 C   0  0  0  0  0  0  0  0  0  0  0  0
   11.2280   12.9135   17.5669 C   0  0  0  0  0  0  0  0  0  0  0  0
   12.3782    5.4231   20.7777 C   0  0  0  0  0  0  0  0  0  0  0  0
    7.7365    4.6508   21.6987 C   0  0  0  0  0  0  0  0  0  0  0  0
   13.0186   11.0102   18.0020 C   0  0  0  0  0  0  0  0  0  0  0  0
    8.6628    5.7088   21.8871 N   0  0  0  0  0  0  0  0  0  0  0  0
    5.6516    3.5258   21.9140 C   0  0  0  0  0  0  0  0  0  0  0  0
   11.5863    9.6815   19.4539 C   0  0  0  0  0  0  0  0  0  0  0  0
   12.9648    4.1543   20.9205 C   0  0  0  0  0  0  0  0  0  0  0  0
    8.2089    3.6265   20.8929 C   0  0  0  0  0  0  0  0  0  0  0  0
    7.3827    2.5724   20.5432 C   0  0  0  0  0  0  0  0  0  0  0  0
   11.1529    7.2750   20.8025 C   0  0  0  0  0  0  0  0  0  0  0  0
   10.2573    8.3215   20.9827 C   0  0  0  0  0  0  0  0  0  0  0  0
   11.1606    5.9378   21.2366 N   0  0  0  0  0  0  0  0  0  0  0  0
    9.8932   11.6736   19.0677 O   0  0  0  0  0  0  0  0  0  0  0  0
    6.4470    4.5850   22.2321 C   0  0  0  0  0  0  0  0  0  0  0  0
    8.4619    6.9895   22.2968 C   0  0  0  0  0  0  0  0  0  0  0  0
   12.2747    7.5102   20.0420 C   0  0  0  0  0  0  0  0  0  0  0  0
   14.2544    6.2142   19.4191 C   0  0  0  0  0  0  0  0  0  0  0  0
   13.0695    6.3705   20.0375 N   0  0  0  0  0  0  0  0  0  0  0  0
    9.1913    8.0876   21.8361 N   0  0  0  0  0  0  0  0  0  0  0  0
   10.4739    9.4813   20.2889 C   0  0  0  0  0  0  0  0  0  0  0  0
    7.5551    7.1270   23.1200 O   0  0  0  0  0  0  0  0  0  0  0  0
  1 11  4  0
  1 21  4  0
  2  4  1  0
  2  8  1  0
  2 11  1  0
  3 10  4  0
  3 14  4  0
  4  5  1  0
  4 18  2  0
  6 12  1  0
  6 17  4  0
  6 23  4  0
  7  9  1  0
  7 13  4  0
  7 19  4  0
  9 20  1  0
 10 19  4  0
 11 25  4  0
 13 14  4  0
 15 16  4  0
 15 17  4  0
 15 21  4  0
 16 24  1  0
 16 25  4  0
 20 24  1  0
 20 26  2  0
 21 23  4  0
 22 23  1  0
M  END
$$$$

 Created by Python create_sdf_string function

 26 28  0  0  0  0  0  0  0  0999 V2000
   12.4616    8.6700   19.4180 N   0  0  0  0  0  0  0  0  0  0  0  0
   11.8329   10.8148   18.6769 N   0  0  0  0  0  0  0  0  0  0  0  0
    6.1021    2.5564   21.0678 C   0  0  0  0  0  0  0  0  0  0  0  0
   10.9097   11.8051   18.4804 C   0  0  0  0  0  0  0  0  0  0  0  0
   11.2280   12.9135   17.5669 C   0  0  0  0  0  0  0  0  0  0  0  0
   12.3782    5.4231   20.7777 C   0  0  0  0  0  0  0  0  0  0  0  0
    7.7365    4.6508   21.6987 C   0  0  0  0  0  0  0  0  0  0  0  0
   13.0186   11.0102   18.0020 C   0  0  0  0  0  0  0  0  0  0  0  0
    8.6628    5.7088   21.8871 N   0  0  0  0  0  0  0  0  0  0  0  0
    5.6516    3.5258   21.9140 C   0  0  0  0  0  0  0  0  0  0  0  0
   11.5863    9.6815   19.4539 C   0  0  0  0  0  0  0  0  0  0  0  0
   12.9648    4.1543   20.9205 C   0  0  0  0  0  0  0  0  0  0  0  0
    8.2089    3.6265   20.8929 C   0  0  0  0  0  0  0  0  0  0  0  0
    7.3827    2.5724   20.5432 C   0  0  0  0  0  0  0  0  0  0  0  0
   11.1529    7.2750   20.8025 C   0  0  0  0  0  0  0  0  0  0  0  0
   10.2573    8.3215   20.9827 C   0  0  0  0  0  0  0  0  0  0  0  0
   11.1606    5.9378   21.2366 N   0  0  0  0  0  0  0  0  0  0  0  0
    9.8932   11.6736   19.0677 O   0  0  0  0  0  0  0  0  0  0  0  0
    6.4470    4.5850   22.2321 C   0  0  0  0  0  0  0  0  0  0  0  0
    8.4619    6.9895   22.2968 C   0  0  0  0  0  0  0  0  0  0  0  0
   12.2747    7.5102   20.0420 C   0  0  0  0  0  0  0  0  0  0  0  0
   14.2544    6.2142   19.4191 C   0  0  0  0  0  0  0  0  0  0  0  0
   13.0695    6.3705   20.0375 N   0  0  0  0  0  0  0  0  0  0  0  0
    9.1913    8.0876   21.8361 N   0  0  0  0  0  0  0  0  0  0  0  0
   10.4739    9.4813   20.2889 C   0  0  0  0  0  0  0  0  0  0  0  0
    7.5551    7.1270   23.1200 O   0  0  0  0  0  0  0  0  0  0  0  0
  1 11  4  0
  1 21  4  0
  2  4  1  0
  2  8  1  0
  2 11  1  0
  3 10  4  0
  3 14  4  0
  4  5  1  0
  4 18  2  0
  6 12  1  0
  6 17  4  0
  6 23  4  0
  7  9  1  0
  7 13  4  0
  7 19  4  0
  9 20  1  0
 10 19  4  0
 11 25  4  0
 13 14  4  0
 15 16  4  0
 15 17  4  0
 15 21  4  0
 16 24  1  0
 16 25  4  0
 20 24  1  0
 20 26  2  0
 21 23  4  0
 22 23  1  0
M  END
$$$$

 Created by Python create_sdf_string function

 26 28  0  0  0  0  0  0  0  0999 V2000
   12.4616    8.6700   19.4180 N   0  0  0  0  0  0  0  0  0  0  0  0
   11.8329   10.8148   18.6769 N   0  0  0  0  0  0  0  0  0  0  0  0
    6.1021    2.5564   21.0678 C   0  0  0  0  0  0  0  0  0  0  0  0
   10.9097   11.8051   18.4804 C   0  0  0  0  0  0  0  0  0  0  0  0
   11.2280   12.9135   17.5669 C   0  0  0  0  0  0  0  0  0  0  0  0
   12.3782    5.4231   20.7777 C   0  0  0  0  0  0  0  0  0  0  0  0
    7.7365    4.6508   21.6987 C   0  0  0  0  0  0  0  0  0  0  0  0
   13.0186   11.0102   18.0020 C   0  0  0  0  0  0  0  0  0  0  0  0
    8.6628    5.7088   21.8871 N   0  0  0  0  0  0  0  0  0  0  0  0
    5.6516    3.5258   21.9140 C   0  0  0  0  0  0  0  0  0  0  0  0
   11.5863    9.6815   19.4539 C   0  0  0  0  0  0  0  0  0  0  0  0
   12.9648    4.1543   20.9205 C   0  0  0  0  0  0  0  0  0  0  0  0
    8.2089    3.6265   20.8929 C   0  0  0  0  0  0  0  0  0  0  0  0
    7.3827    2.5724   20.5432 C   0  0  0  0  0  0  0  0  0  0  0  0
   11.1529    7.2750   20.8025 C   0  0  0  0  0  0  0  0  0  0  0  0
   10.2573    8.3215   20.9827 C   0  0  0  0  0  0  0  0  0  0  0  0
   11.1606    5.9378   21.2366 N   0  0  0  0  0  0  0  0  0  0  0  0
    9.8932   11.6736   19.0677 O   0  0  0  0  0  0  0  0  0  0  0  0
    6.4470    4.5850   22.2321 C   0  0  0  0  0  0  0  0  0  0  0  0
    8.4619    6.9895   22.2968 C   0  0  0  0  0  0  0  0  0  0  0  0
   12.2747    7.5102   20.0420 C   0  0  0  0  0  0  0  0  0  0  0  0
   14.2544    6.2142   19.4191 C   0  0  0  0  0  0  0  0  0  0  0  0
   13.0695    6.3705   20.0375 N   0  0  0  0  0  0  0  0  0  0  0  0
    9.1913    8.0876   21.8361 N   0  0  0  0  0  0  0  0  0  0  0  0
   10.4739    9.4813   20.2889 C   0  0  0  0  0  0  0  0  0  0  0  0
    7.5551    7.1270   23.1200 O   0  0  0  0  0  0  0  0  0  0  0  0
  1 11  4  0
  1 21  4  0
  2  4  1  0
  2  8  1  0
  2 11  1  0
  3 10  4  0
  3 14  4  0
  4  5  1  0
  4 18  2  0
  6 12  1  0
  6 17  4  0
  6 23  4  0
  7  9  1  0
  7 13  4  0
  7 19  4  0
  9 20  1  0
 10 19  4  0
 11 25  4  0
 13 14  4  0
 15 16  4  0
 15 17  4  0
 15 21  4  0
 16 24  1  0
 16 25  4  0
 20 24  1  0
 20 26  2  0
 21 23  4  0
 22 23  1  0
M  END
$$$$

 Created by Python create_sdf_string function

 26 28  0  0  0  0  0  0  0  0999 V2000
   12.4616    8.6700   19.4180 N   0  0  0  0  0  0  0  0  0  0  0  0
   11.8329   10.8148   18.6769 N   0  0  0  0  0  0  0  0  0  0  0  0
    6.1021    2.5564   21.0678 C   0  0  0  0  0  0  0  0  0  0  0  0
   10.9097   11.8051   18.4804 C   0  0  0  0  0  0  0  0  0  0  0  0
   11.2280   12.9135   17.5669 C   0  0  0  0  0  0  0  0  0  0  0  0
   12.3782    5.4231   20.7777 C   0  0  0  0  0  0  0  0  0  0  0  0
    7.7365    4.6508   21.6987 C   0  0  0  0  0  0  0  0  0  0  0  0
   13.0186   11.0102   18.0020 C   0  0  0  0  0  0  0  0  0  0  0  0
    8.6628    5.7088   21.8871 N   0  0  0  0  0  0  0  0  0  0  0  0
    5.6516    3.5258   21.9140 C   0  0  0  0  0  0  0  0  0  0  0  0
   11.5863    9.6815   19.4539 C   0  0  0  0  0  0  0  0  0  0  0  0
   12.9648    4.1543   20.9205 C   0  0  0  0  0  0  0  0  0  0  0  0
    8.2089    3.6265   20.8929 C   0  0  0  0  0  0  0  0  0  0  0  0
    7.3827    2.5724   20.5432 C   0  0  0  0  0  0  0  0  0  0  0  0
   11.1529    7.2750   20.8025 C   0  0  0  0  0  0  0  0  0  0  0  0
   10.2573    8.3215   20.9827 C   0  0  0  0  0  0  0  0  0  0  0  0
   11.1606    5.9378   21.2366 N   0  0  0  0  0  0  0  0  0  0  0  0
    9.8932   11.6736   19.0677 O   0  0  0  0  0  0  0  0  0  0  0  0
    6.4470    4.5850   22.2321 C   0  0  0  0  0  0  0  0  0  0  0  0
    8.4619    6.9895   22.2968 C   0  0  0  0  0  0  0  0  0  0  0  0
   12.2747    7.5102   20.0420 C   0  0  0  0  0  0  0  0  0  0  0  0
   14.2544    6.2142   19.4191 C   0  0  0  0  0  0  0  0  0  0  0  0
   13.0695    6.3705   20.0375 N   0  0  0  0  0  0  0  0  0  0  0  0
    9.1913    8.0876   21.8361 N   0  0  0  0  0  0  0  0  0  0  0  0
   10.4739    9.4813   20.2889 C   0  0  0  0  0  0  0  0  0  0  0  0
    7.5551    7.1270   23.1200 O   0  0  0  0  0  0  0  0  0  0  0  0
  1 11  4  0
  1 21  4  0
  2  4  1  0
  2  8  1  0
  2 11  1  0
  3 10  4  0
  3 14  4  0
  4  5  1  0
  4 18  2  0
  6 12  1  0
  6 17  4  0
  6 23  4  0
  7  9  1  0
  7 13  4  0
  7 19  4  0
  9 20  1  0
 10 19  4  0
 11 25  4  0
 13 14  4  0
 15 16  4  0
 15 17  4  0
 15 21  4  0
 16 24  1  0
 16 25  4  0
 20 24  1  0
 20 26  2  0
 21 23  4  0
 22 23  1  0
M  END
$$$$

 Created by Python create_sdf_string function

 26 28  0  0  0  0  0  0  0  0999 V2000
   12.4616    8.6700   19.4180 N   0  0  0  0  0  0  0  0  0  0  0  0
   11.8329   10.8148   18.6769 N   0  0  0  0  0  0  0  0  0  0  0  0
    6.1021    2.5564   21.0678 C   0  0  0  0  0  0  0  0  0  0  0  0
   10.9097   11.8051   18.4804 C   0  0  0  0  0  0  0  0  0  0  0  0
   11.2280   12.9135   17.5669 C   0  0  0  0  0  0  0  0  0  0  0  0
   12.3782    5.4231   20.7777 C   0  0  0  0  0  0  0  0  0  0  0  0
    7.7365    4.6508   21.6987 C   0  0  0  0  0  0  0  0  0  0  0  0
   13.0186   11.0102   18.0020 C   0  0  0  0  0  0  0  0  0  0  0  0
    8.6628    5.7088   21.8871 N   0  0  0  0  0  0  0  0  0  0  0  0
    5.6516    3.5258   21.9140 C   0  0  0  0  0  0  0  0  0  0  0  0
   11.5863    9.6815   19.4539 C   0  0  0  0  0  0  0  0  0  0  0  0
   12.9648    4.1543   20.9205 C   0  0  0  0  0  0  0  0  0  0  0  0
    8.2089    3.6265   20.8929 C   0  0  0  0  0  0  0  0  0  0  0  0
    7.3827    2.5724   20.5432 C   0  0  0  0  0  0  0  0  0  0  0  0
   11.1529    7.2750   20.8025 C   0  0  0  0  0  0  0  0  0  0  0  0
   10.2573    8.3215   20.9827 C   0  0  0  0  0  0  0  0  0  0  0  0
   11.1606    5.9378   21.2366 N   0  0  0  0  0  0  0  0  0  0  0  0
    9.8932   11.6736   19.0677 O   0  0  0  0  0  0  0  0  0  0  0  0
    6.4470    4.5850   22.2321 C   0  0  0  0  0  0  0  0  0  0  0  0
    8.4619    6.9895   22.2968 C   0  0  0  0  0  0  0  0  0  0  0  0
   12.2747    7.5102   20.0420 C   0  0  0  0  0  0  0  0  0  0  0  0
   14.2544    6.2142   19.4191 C   0  0  0  0  0  0  0  0  0  0  0  0
   13.0695    6.3705   20.0375 N   0  0  0  0  0  0  0  0  0  0  0  0
    9.1913    8.0876   21.8361 N   0  0  0  0  0  0  0  0  0  0  0  0
   10.4739    9.4813   20.2889 C   0  0  0  0  0  0  0  0  0  0  0  0
    7.5551    7.1270   23.1200 O   0  0  0  0  0  0  0  0  0  0  0  0
  1 11  4  0
  1 21  4  0
  2  4  1  0
  2  8  1  0
  2 11  1  0
  3 10  4  0
  3 14  4  0
  4  5  1  0
  4 18  2  0
  6 12  1  0
  6 17  4  0
  6 23  4  0
  7  9  1  0
  7 13  4  0
  7 19  4  0
  9 20  1  0
 10 19  4  0
 11 25  4  0
 13 14  4  0
 15 16  4  0
 15 17  4  0
 15 21  4  0
 16 24  1  0
 16 25  4  0
 20 24  1  0
 20 26  2  0
 21 23  4  0
 22 23  1  0
M  END
$$$$

 Created by Python create_sdf_string function

 26 28  0  0  0  0  0  0  0  0999 V2000
   12.4616    8.6700   19.4180 N   0  0  0  0  0  0  0  0  0  0  0  0
   11.8329   10.8148   18.6769 N   0  0  0  0  0  0  0  0  0  0  0  0
    6.1021    2.5564   21.0678 C   0  0  0  0  0  0  0  0  0  0  0  0
   10.9097   11.8051   18.4804 C   0  0  0  0  0  0  0  0  0  0  0  0
   11.2280   12.9135   17.5669 C   0  0  0  0  0  0  0  0  0  0  0  0
   12.3782    5.4231   20.7777 C   0  0  0  0  0  0  0  0  0  0  0  0
    7.7365    4.6508   21.6987 C   0  0  0  0  0  0  0  0  0  0  0  0
   13.0186   11.0102   18.0020 C   0  0  0  0  0  0  0  0  0  0  0  0
    8.6628    5.7088   21.8871 N   0  0  0  0  0  0  0  0  0  0  0  0
    5.6516    3.5258   21.9140 C   0  0  0  0  0  0  0  0  0  0  0  0
   11.5863    9.6815   19.4539 C   0  0  0  0  0  0  0  0  0  0  0  0
   12.9648    4.1543   20.9205 C   0  0  0  0  0  0  0  0  0  0  0  0
    8.2089    3.6265   20.8929 C   0  0  0  0  0  0  0  0  0  0  0  0
    7.3827    2.5724   20.5432 C   0  0  0  0  0  0  0  0  0  0  0  0
   11.1529    7.2750   20.8025 C   0  0  0  0  0  0  0  0  0  0  0  0
   10.2573    8.3215   20.9827 C   0  0  0  0  0  0  0  0  0  0  0  0
   11.1606    5.9378   21.2366 N   0  0  0  0  0  0  0  0  0  0  0  0
    9.8932   11.6736   19.0677 O   0  0  0  0  0  0  0  0  0  0  0  0
    6.4470    4.5850   22.2321 C   0  0  0  0  0  0  0  0  0  0  0  0
    8.4619    6.9895   22.2968 C   0  0  0  0  0  0  0  0  0  0  0  0
   12.2747    7.5102   20.0420 C   0  0  0  0  0  0  0  0  0  0  0  0
   14.2544    6.2142   19.4191 C   0  0  0  0  0  0  0  0  0  0  0  0
   13.0695    6.3705   20.0375 N   0  0  0  0  0  0  0  0  0  0  0  0
    9.1913    8.0876   21.8361 N   0  0  0  0  0  0  0  0  0  0  0  0
   10.4739    9.4813   20.2889 C   0  0  0  0  0  0  0  0  0  0  0  0
    7.5551    7.1270   23.1200 O   0  0  0  0  0  0  0  0  0  0  0  0
  1 11  4  0
  1 21  4  0
  2  4  1  0
  2  8  1  0
  2 11  1  0
  3 10  4  0
  3 14  4  0
  4  5  1  0
  4 18  2  0
  6 12  1  0
  6 17  4  0
  6 23  4  0
  7  9  1  0
  7 13  4  0
  7 19  4  0
  9 20  1  0
 10 19  4  0
 11 25  4  0
 13 14  4  0
 15 16  4  0
 15 17  4  0
 15 21  4  0
 16 24  1  0
 16 25  4  0
 20 24  1  0
 20 26  2  0
 21 23  4  0
 22 23  1  0
M  END
$$$$

 Created by Python create_sdf_string function

 26 28  0  0  0  0  0  0  0  0999 V2000
   12.4616    8.6700   19.4180 N   0  0  0  0  0  0  0  0  0  0  0  0
   11.8329   10.8148   18.6769 N   0  0  0  0  0  0  0  0  0  0  0  0
    6.1021    2.5564   21.0678 C   0  0  0  0  0  0  0  0  0  0  0  0
   10.9097   11.8051   18.4804 C   0  0  0  0  0  0  0  0  0  0  0  0
   11.2280   12.9135   17.5669 C   0  0  0  0  0  0  0  0  0  0  0  0
   12.3782    5.4231   20.7777 C   0  0  0  0  0  0  0  0  0  0  0  0
    7.7365    4.6508   21.6987 C   0  0  0  0  0  0  0  0  0  0  0  0
   13.0186   11.0102   18.0020 C   0  0  0  0  0  0  0  0  0  0  0  0
    8.6628    5.7088   21.8871 N   0  0  0  0  0  0  0  0  0  0  0  0
    5.6516    3.5258   21.9140 C   0  0  0  0  0  0  0  0  0  0  0  0
   11.5863    9.6815   19.4539 C   0  0  0  0  0  0  0  0  0  0  0  0
   12.9648    4.1543   20.9205 C   0  0  0  0  0  0  0  0  0  0  0  0
    8.2089    3.6265   20.8929 C   0  0  0  0  0  0  0  0  0  0  0  0
    7.3827    2.5724   20.5432 C   0  0  0  0  0  0  0  0  0  0  0  0
   11.1529    7.2750   20.8025 C   0  0  0  0  0  0  0  0  0  0  0  0
   10.2573    8.3215   20.9827 C   0  0  0  0  0  0  0  0  0  0  0  0
   11.1606    5.9378   21.2366 N   0  0  0  0  0  0  0  0  0  0  0  0
    9.8932   11.6736   19.0677 O   0  0  0  0  0  0  0  0  0  0  0  0
    6.4470    4.5850   22.2321 C   0  0  0  0  0  0  0  0  0  0  0  0
    8.4619    6.9895   22.2968 C   0  0  0  0  0  0  0  0  0  0  0  0
   12.2747    7.5102   20.0420 C   0  0  0  0  0  0  0  0  0  0  0  0
   14.2544    6.2142   19.4191 C   0  0  0  0  0  0  0  0  0  0  0  0
   13.0695    6.3705   20.0375 N   0  0  0  0  0  0  0  0  0  0  0  0
    9.1913    8.0876   21.8361 N   0  0  0  0  0  0  0  0  0  0  0  0
   10.4739    9.4813   20.2889 C   0  0  0  0  0  0  0  0  0  0  0  0
    7.5551    7.1270   23.1200 O   0  0  0  0  0  0  0  0  0  0  0  0
  1 11  4  0
  1 21  4  0
  2  4  1  0
  2  8  1  0
  2 11  1  0
  3 10  4  0
  3 14  4  0
  4  5  1  0
  4 18  2  0
  6 12  1  0
  6 17  4  0
  6 23  4  0
  7  9  1  0
  7 13  4  0
  7 19  4  0
  9 20  1  0
 10 19  4  0
 11 25  4  0
 13 14  4  0
 15 16  4  0
 15 17  4  0
 15 21  4  0
 16 24  1  0
 16 25  4  0
 20 24  1  0
 20 26  2  0
 21 23  4  0
 22 23  1  0
M  END
$$$$

 Created by Python create_sdf_string function

 26 28  0  0  0  0  0  0  0  0999 V2000
   12.4616    8.6700   19.4180 N   0  0  0  0  0  0  0  0  0  0  0  0
   11.8329   10.8148   18.6769 N   0  0  0  0  0  0  0  0  0  0  0  0
    6.1021    2.5564   21.0678 C   0  0  0  0  0  0  0  0  0  0  0  0
   10.9097   11.8051   18.4804 C   0  0  0  0  0  0  0  0  0  0  0  0
   11.2280   12.9135   17.5669 C   0  0  0  0  0  0  0  0  0  0  0  0
   12.3782    5.4231   20.7777 C   0  0  0  0  0  0  0  0  0  0  0  0
    7.7365    4.6508   21.6987 C   0  0  0  0  0  0  0  0  0  0  0  0
   13.0186   11.0102   18.0020 C   0  0  0  0  0  0  0  0  0  0  0  0
    8.6628    5.7088   21.8871 N   0  0  0  0  0  0  0  0  0  0  0  0
    5.6516    3.5258   21.9140 C   0  0  0  0  0  0  0  0  0  0  0  0
   11.5863    9.6815   19.4539 C   0  0  0  0  0  0  0  0  0  0  0  0
   12.9648    4.1543   20.9205 C   0  0  0  0  0  0  0  0  0  0  0  0
    8.2089    3.6265   20.8929 C   0  0  0  0  0  0  0  0  0  0  0  0
    7.3827    2.5724   20.5432 C   0  0  0  0  0  0  0  0  0  0  0  0
   11.1529    7.2750   20.8025 C   0  0  0  0  0  0  0  0  0  0  0  0
   10.2573    8.3215   20.9827 C   0  0  0  0  0  0  0  0  0  0  0  0
   11.1606    5.9378   21.2366 N   0  0  0  0  0  0  0  0  0  0  0  0
    9.8932   11.6736   19.0677 O   0  0  0  0  0  0  0  0  0  0  0  0
    6.4470    4.5850   22.2321 C   0  0  0  0  0  0  0  0  0  0  0  0
    8.4619    6.9895   22.2968 C   0  0  0  0  0  0  0  0  0  0  0  0
   12.2747    7.5102   20.0420 C   0  0  0  0  0  0  0  0  0  0  0  0
   14.2544    6.2142   19.4191 C   0  0  0  0  0  0  0  0  0  0  0  0
   13.0695    6.3705   20.0375 N   0  0  0  0  0  0  0  0  0  0  0  0
    9.1913    8.0876   21.8361 N   0  0  0  0  0  0  0  0  0  0  0  0
   10.4739    9.4813   20.2889 C   0  0  0  0  0  0  0  0  0  0  0  0
    7.5551    7.1270   23.1200 O   0  0  0  0  0  0  0  0  0  0  0  0
  1 11  4  0
  1 21  4  0
  2  4  1  0
  2  8  1  0
  2 11  1  0
  3 10  4  0
  3 14  4  0
  4  5  1  0
  4 18  2  0
  6 12  1  0
  6 17  4  0
  6 23  4  0
  7  9  1  0
  7 13  4  0
  7 19  4  0
  9 20  1  0
 10 19  4  0
 11 25  4  0
 13 14  4  0
 15 16  4  0
 15 17  4  0
 15 21  4  0
 16 24  1  0
 16 25  4  0
 20 24  1  0
 20 26  2  0
 21 23  4  0
 22 23  1  0
M  END
$$$$

 Created by Python create_sdf_string function

 26 28  0  0  0  0  0  0  0  0999 V2000
   12.4616    8.6700   19.4180 N   0  0  0  0  0  0  0  0  0  0  0  0
   11.8329   10.8148   18.6769 N   0  0  0  0  0  0  0  0  0  0  0  0
    6.1021    2.5564   21.0678 C   0  0  0  0  0  0  0  0  0  0  0  0
   10.9097   11.8051   18.4804 C   0  0  0  0  0  0  0  0  0  0  0  0
   11.2280   12.9135   17.5669 C   0  0  0  0  0  0  0  0  0  0  0  0
   12.3782    5.4231   20.7777 C   0  0  0  0  0  0  0  0  0  0  0  0
    7.7365    4.6508   21.6987 C   0  0  0  0  0  0  0  0  0  0  0  0
   13.0186   11.0102   18.0020 C   0  0  0  0  0  0  0  0  0  0  0  0
    8.6628    5.7088   21.8871 N   0  0  0  0  0  0  0  0  0  0  0  0
    5.6516    3.5258   21.9140 C   0  0  0  0  0  0  0  0  0  0  0  0
   11.5863    9.6815   19.4539 C   0  0  0  0  0  0  0  0  0  0  0  0
   12.9648    4.1543   20.9205 C   0  0  0  0  0  0  0  0  0  0  0  0
    8.2089    3.6265   20.8929 C   0  0  0  0  0  0  0  0  0  0  0  0
    7.3827    2.5724   20.5432 C   0  0  0  0  0  0  0  0  0  0  0  0
   11.1529    7.2750   20.8025 C   0  0  0  0  0  0  0  0  0  0  0  0
   10.2573    8.3215   20.9827 C   0  0  0  0  0  0  0  0  0  0  0  0
   11.1606    5.9378   21.2366 N   0  0  0  0  0  0  0  0  0  0  0  0
    9.8932   11.6736   19.0677 O   0  0  0  0  0  0  0  0  0  0  0  0
    6.4470    4.5850   22.2321 C   0  0  0  0  0  0  0  0  0  0  0  0
    8.4619    6.9895   22.2968 C   0  0  0  0  0  0  0  0  0  0  0  0
   12.2747    7.5102   20.0420 C   0  0  0  0  0  0  0  0  0  0  0  0
   14.2544    6.2142   19.4191 C   0  0  0  0  0  0  0  0  0  0  0  0
   13.0695    6.3705   20.0375 N   0  0  0  0  0  0  0  0  0  0  0  0
    9.1913    8.0876   21.8361 N   0  0  0  0  0  0  0  0  0  0  0  0
   10.4739    9.4813   20.2889 C   0  0  0  0  0  0  0  0  0  0  0  0
    7.5551    7.1270   23.1200 O   0  0  0  0  0  0  0  0  0  0  0  0
  1 11  4  0
  1 21  4  0
  2  4  1  0
  2  8  1  0
  2 11  1  0
  3 10  4  0
  3 14  4  0
  4  5  1  0
  4 18  2  0
  6 12  1  0
  6 17  4  0
  6 23  4  0
  7  9  1  0
  7 13  4  0
  7 19  4  0
  9 20  1  0
 10 19  4  0
 11 25  4  0
 13 14  4  0
 15 16  4  0
 15 17  4  0
 15 21  4  0
 16 24  1  0
 16 25  4  0
 20 24  1  0
 20 26  2  0
 21 23  4  0
 22 23  1  0
M  END
$$$$

 Created by Python create_sdf_string function

 26 28  0  0  0  0  0  0  0  0999 V2000
   12.4616    8.6700   19.4180 N   0  0  0  0  0  0  0  0  0  0  0  0
   11.8329   10.8148   18.6769 N   0  0  0  0  0  0  0  0  0  0  0  0
    6.1021    2.5564   21.0678 C   0  0  0  0  0  0  0  0  0  0  0  0
   10.9097   11.8051   18.4804 C   0  0  0  0  0  0  0  0  0  0  0  0
   11.2280   12.9135   17.5669 C   0  0  0  0  0  0  0  0  0  0  0  0
   12.3782    5.4231   20.7777 C   0  0  0  0  0  0  0  0  0  0  0  0
    7.7365    4.6508   21.6987 C   0  0  0  0  0  0  0  0  0  0  0  0
   13.0186   11.0102   18.0020 C   0  0  0  0  0  0  0  0  0  0  0  0
    8.6628    5.7088   21.8871 N   0  0  0  0  0  0  0  0  0  0  0  0
    5.6516    3.5258   21.9140 C   0  0  0  0  0  0  0  0  0  0  0  0
   11.5863    9.6815   19.4539 C   0  0  0  0  0  0  0  0  0  0  0  0
   12.9648    4.1543   20.9205 C   0  0  0  0  0  0  0  0  0  0  0  0
    8.2089    3.6265   20.8929 C   0  0  0  0  0  0  0  0  0  0  0  0
    7.3827    2.5724   20.5432 C   0  0  0  0  0  0  0  0  0  0  0  0
   11.1529    7.2750   20.8025 C   0  0  0  0  0  0  0  0  0  0  0  0
   10.2573    8.3215   20.9827 C   0  0  0  0  0  0  0  0  0  0  0  0
   11.1606    5.9378   21.2366 N   0  0  0  0  0  0  0  0  0  0  0  0
    9.8932   11.6736   19.0677 O   0  0  0  0  0  0  0  0  0  0  0  0
    6.4470    4.5850   22.2321 C   0  0  0  0  0  0  0  0  0  0  0  0
    8.4619    6.9895   22.2968 C   0  0  0  0  0  0  0  0  0  0  0  0
   12.2747    7.5102   20.0420 C   0  0  0  0  0  0  0  0  0  0  0  0
   14.2544    6.2142   19.4191 C   0  0  0  0  0  0  0  0  0  0  0  0
   13.0695    6.3705   20.0375 N   0  0  0  0  0  0  0  0  0  0  0  0
    9.1913    8.0876   21.8361 N   0  0  0  0  0  0  0  0  0  0  0  0
   10.4739    9.4813   20.2889 C   0  0  0  0  0  0  0  0  0  0  0  0
    7.5551    7.1270   23.1200 O   0  0  0  0  0  0  0  0  0  0  0  0
  1 11  4  0
  1 21  4  0
  2  4  1  0
  2  8  1  0
  2 11  1  0
  3 10  4  0
  3 14  4  0
  4  5  1  0
  4 18  2  0
  6 12  1  0
  6 17  4  0
  6 23  4  0
  7  9  1  0
  7 13  4  0
  7 19  4  0
  9 20  1  0
 10 19  4  0
 11 25  4  0
 13 14  4  0
 15 16  4  0
 15 17  4  0
 15 21  4  0
 16 24  1  0
 16 25  4  0
 20 24  1  0
 20 26  2  0
 21 23  4  0
 22 23  1  0
M  END
$$$$

 Created by Python create_sdf_string function

 26 28  0  0  0  0  0  0  0  0999 V2000
   12.4616    8.6700   19.4180 N   0  0  0  0  0  0  0  0  0  0  0  0
   11.8329   10.8148   18.6769 N   0  0  0  0  0  0  0  0  0  0  0  0
    6.1021    2.5564   21.0678 C   0  0  0  0  0  0  0  0  0  0  0  0
   10.9097   11.8051   18.4804 C   0  0  0  0  0  0  0  0  0  0  0  0
   11.2280   12.9135   17.5669 C   0  0  0  0  0  0  0  0  0  0  0  0
   12.3782    5.4231   20.7777 C   0  0  0  0  0  0  0  0  0  0  0  0
    7.7365    4.6508   21.6987 C   0  0  0  0  0  0  0  0  0  0  0  0
   13.0186   11.0102   18.0020 C   0  0  0  0  0  0  0  0  0  0  0  0
    8.6628    5.7088   21.8871 N   0  0  0  0  0  0  0  0  0  0  0  0
    5.6516    3.5258   21.9140 C   0  0  0  0  0  0  0  0  0  0  0  0
   11.5863    9.6815   19.4539 C   0  0  0  0  0  0  0  0  0  0  0  0
   12.9648    4.1543   20.9205 C   0  0  0  0  0  0  0  0  0  0  0  0
    8.2089    3.6265   20.8929 C   0  0  0  0  0  0  0  0  0  0  0  0
    7.3827    2.5724   20.5432 C   0  0  0  0  0  0  0  0  0  0  0  0
   11.1529    7.2750   20.8025 C   0  0  0  0  0  0  0  0  0  0  0  0
   10.2573    8.3215   20.9827 C   0  0  0  0  0  0  0  0  0  0  0  0
   11.1606    5.9378   21.2366 N   0  0  0  0  0  0  0  0  0  0  0  0
    9.8932   11.6736   19.0677 O   0  0  0  0  0  0  0  0  0  0  0  0
    6.4470    4.5850   22.2321 C   0  0  0  0  0  0  0  0  0  0  0  0
    8.4619    6.9895   22.2968 C   0  0  0  0  0  0  0  0  0  0  0  0
   12.2747    7.5102   20.0420 C   0  0  0  0  0  0  0  0  0  0  0  0
   14.2544    6.2142   19.4191 C   0  0  0  0  0  0  0  0  0  0  0  0
   13.0695    6.3705   20.0375 N   0  0  0  0  0  0  0  0  0  0  0  0
    9.1913    8.0876   21.8361 N   0  0  0  0  0  0  0  0  0  0  0  0
   10.4739    9.4813   20.2889 C   0  0  0  0  0  0  0  0  0  0  0  0
    7.5551    7.1270   23.1200 O   0  0  0  0  0  0  0  0  0  0  0  0
  1 11  4  0
  1 21  4  0
  2  4  1  0
  2  8  1  0
  2 11  1  0
  3 10  4  0
  3 14  4  0
  4  5  1  0
  4 18  2  0
  6 12  1  0
  6 17  4  0
  6 23  4  0
  7  9  1  0
  7 13  4  0
  7 19  4  0
  9 20  1  0
 10 19  4  0
 11 25  4  0
 13 14  4  0
 15 16  4  0
 15 17  4  0
 15 21  4  0
 16 24  1  0
 16 25  4  0
 20 24  1  0
 20 26  2  0
 21 23  4  0
 22 23  1  0
M  END
$$$$

 Created by Python create_sdf_string function

 26 28  0  0  0  0  0  0  0  0999 V2000
   12.4616    8.6700   19.4180 N   0  0  0  0  0  0  0  0  0  0  0  0
   11.8329   10.8148   18.6769 N   0  0  0  0  0  0  0  0  0  0  0  0
    6.1021    2.5564   21.0678 C   0  0  0  0  0  0  0  0  0  0  0  0
   10.9097   11.8051   18.4804 C   0  0  0  0  0  0  0  0  0  0  0  0
   11.2280   12.9135   17.5669 C   0  0  0  0  0  0  0  0  0  0  0  0
   12.3782    5.4231   20.7777 C   0  0  0  0  0  0  0  0  0  0  0  0
    7.7365    4.6508   21.6987 C   0  0  0  0  0  0  0  0  0  0  0  0
   13.0186   11.0102   18.0020 C   0  0  0  0  0  0  0  0  0  0  0  0
    8.6628    5.7088   21.8871 N   0  0  0  0  0  0  0  0  0  0  0  0
    5.6516    3.5258   21.9140 C   0  0  0  0  0  0  0  0  0  0  0  0
   11.5863    9.6815   19.4539 C   0  0  0  0  0  0  0  0  0  0  0  0
   12.9648    4.1543   20.9205 C   0  0  0  0  0  0  0  0  0  0  0  0
    8.2089    3.6265   20.8929 C   0  0  0  0  0  0  0  0  0  0  0  0
    7.3827    2.5724   20.5432 C   0  0  0  0  0  0  0  0  0  0  0  0
   11.1529    7.2750   20.8025 C   0  0  0  0  0  0  0  0  0  0  0  0
   10.2573    8.3215   20.9827 C   0  0  0  0  0  0  0  0  0  0  0  0
   11.1606    5.9378   21.2366 N   0  0  0  0  0  0  0  0  0  0  0  0
    9.8932   11.6736   19.0677 O   0  0  0  0  0  0  0  0  0  0  0  0
    6.4470    4.5850   22.2321 C   0  0  0  0  0  0  0  0  0  0  0  0
    8.4619    6.9895   22.2968 C   0  0  0  0  0  0  0  0  0  0  0  0
   12.2747    7.5102   20.0420 C   0  0  0  0  0  0  0  0  0  0  0  0
   14.2544    6.2142   19.4191 C   0  0  0  0  0  0  0  0  0  0  0  0
   13.0695    6.3705   20.0375 N   0  0  0  0  0  0  0  0  0  0  0  0
    9.1913    8.0876   21.8361 N   0  0  0  0  0  0  0  0  0  0  0  0
   10.4739    9.4813   20.2889 C   0  0  0  0  0  0  0  0  0  0  0  0
    7.5551    7.1270   23.1200 O   0  0  0  0  0  0  0  0  0  0  0  0
  1 11  4  0
  1 21  4  0
  2  4  1  0
  2  8  1  0
  2 11  1  0
  3 10  4  0
  3 14  4  0
  4  5  1  0
  4 18  2  0
  6 12  1  0
  6 17  4  0
  6 23  4  0
  7  9  1  0
  7 13  4  0
  7 19  4  0
  9 20  1  0
 10 19  4  0
 11 25  4  0
 13 14  4  0
 15 16  4  0
 15 17  4  0
 15 21  4  0
 16 24  1  0
 16 25  4  0
 20 24  1  0
 20 26  2  0
 21 23  4  0
 22 23  1  0
M  END
$$$$

 Created by Python create_sdf_string function

 26 28  0  0  0  0  0  0  0  0999 V2000
   12.4616    8.6700   19.4180 N   0  0  0  0  0  0  0  0  0  0  0  0
   11.8329   10.8148   18.6769 N   0  0  0  0  0  0  0  0  0  0  0  0
    6.1021    2.5564   21.0678 C   0  0  0  0  0  0  0  0  0  0  0  0
   10.9097   11.8051   18.4804 C   0  0  0  0  0  0  0  0  0  0  0  0
   11.2280   12.9135   17.5669 C   0  0  0  0  0  0  0  0  0  0  0  0
   12.3782    5.4231   20.7777 C   0  0  0  0  0  0  0  0  0  0  0  0
    7.7365    4.6508   21.6987 C   0  0  0  0  0  0  0  0  0  0  0  0
   13.0186   11.0102   18.0020 C   0  0  0  0  0  0  0  0  0  0  0  0
    8.6628    5.7088   21.8871 N   0  0  0  0  0  0  0  0  0  0  0  0
    5.6516    3.5258   21.9140 C   0  0  0  0  0  0  0  0  0  0  0  0
   11.5863    9.6815   19.4539 C   0  0  0  0  0  0  0  0  0  0  0  0
   12.9648    4.1543   20.9205 C   0  0  0  0  0  0  0  0  0  0  0  0
    8.2089    3.6265   20.8929 C   0  0  0  0  0  0  0  0  0  0  0  0
    7.3827    2.5724   20.5432 C   0  0  0  0  0  0  0  0  0  0  0  0
   11.1529    7.2750   20.8025 C   0  0  0  0  0  0  0  0  0  0  0  0
   10.2573    8.3215   20.9827 C   0  0  0  0  0  0  0  0  0  0  0  0
   11.1606    5.9378   21.2366 N   0  0  0  0  0  0  0  0  0  0  0  0
    9.8932   11.6736   19.0677 O   0  0  0  0  0  0  0  0  0  0  0  0
    6.4470    4.5850   22.2321 C   0  0  0  0  0  0  0  0  0  0  0  0
    8.4619    6.9895   22.2968 C   0  0  0  0  0  0  0  0  0  0  0  0
   12.2747    7.5102   20.0420 C   0  0  0  0  0  0  0  0  0  0  0  0
   14.2544    6.2142   19.4191 C   0  0  0  0  0  0  0  0  0  0  0  0
   13.0695    6.3705   20.0375 N   0  0  0  0  0  0  0  0  0  0  0  0
    9.1913    8.0876   21.8361 N   0  0  0  0  0  0  0  0  0  0  0  0
   10.4739    9.4813   20.2889 C   0  0  0  0  0  0  0  0  0  0  0  0
    7.5551    7.1270   23.1200 O   0  0  0  0  0  0  0  0  0  0  0  0
  1 11  4  0
  1 21  4  0
  2  4  1  0
  2  8  1  0
  2 11  1  0
  3 10  4  0
  3 14  4  0
  4  5  1  0
  4 18  2  0
  6 12  1  0
  6 17  4  0
  6 23  4  0
  7  9  1  0
  7 13  4  0
  7 19  4  0
  9 20  1  0
 10 19  4  0
 11 25  4  0
 13 14  4  0
 15 16  4  0
 15 17  4  0
 15 21  4  0
 16 24  1  0
 16 25  4  0
 20 24  1  0
 20 26  2  0
 21 23  4  0
 22 23  1  0
M  END
$$$$

 Created by Python create_sdf_string function

 26 28  0  0  0  0  0  0  0  0999 V2000
   12.4616    8.6700   19.4180 N   0  0  0  0  0  0  0  0  0  0  0  0
   11.8329   10.8148   18.6769 N   0  0  0  0  0  0  0  0  0  0  0  0
    6.1021    2.5564   21.0678 C   0  0  0  0  0  0  0  0  0  0  0  0
   10.9097   11.8051   18.4804 C   0  0  0  0  0  0  0  0  0  0  0  0
   11.2280   12.9135   17.5669 C   0  0  0  0  0  0  0  0  0  0  0  0
   12.3782    5.4231   20.7777 C   0  0  0  0  0  0  0  0  0  0  0  0
    7.7365    4.6508   21.6987 C   0  0  0  0  0  0  0  0  0  0  0  0
   13.0186   11.0102   18.0020 C   0  0  0  0  0  0  0  0  0  0  0  0
    8.6628    5.7088   21.8871 N   0  0  0  0  0  0  0  0  0  0  0  0
    5.6516    3.5258   21.9140 C   0  0  0  0  0  0  0  0  0  0  0  0
   11.5863    9.6815   19.4539 C   0  0  0  0  0  0  0  0  0  0  0  0
   12.9648    4.1543   20.9205 C   0  0  0  0  0  0  0  0  0  0  0  0
    8.2089    3.6265   20.8929 C   0  0  0  0  0  0  0  0  0  0  0  0
    7.3827    2.5724   20.5432 C   0  0  0  0  0  0  0  0  0  0  0  0
   11.1529    7.2750   20.8025 C   0  0  0  0  0  0  0  0  0  0  0  0
   10.2573    8.3215   20.9827 C   0  0  0  0  0  0  0  0  0  0  0  0
   11.1606    5.9378   21.2366 N   0  0  0  0  0  0  0  0  0  0  0  0
    9.8932   11.6736   19.0677 O   0  0  0  0  0  0  0  0  0  0  0  0
    6.4470    4.5850   22.2321 C   0  0  0  0  0  0  0  0  0  0  0  0
    8.4619    6.9895   22.2968 C   0  0  0  0  0  0  0  0  0  0  0  0
   12.2747    7.5102   20.0420 C   0  0  0  0  0  0  0  0  0  0  0  0
   14.2544    6.2142   19.4191 C   0  0  0  0  0  0  0  0  0  0  0  0
   13.0695    6.3705   20.0375 N   0  0  0  0  0  0  0  0  0  0  0  0
    9.1913    8.0876   21.8361 N   0  0  0  0  0  0  0  0  0  0  0  0
   10.4739    9.4813   20.2889 C   0  0  0  0  0  0  0  0  0  0  0  0
    7.5551    7.1270   23.1200 O   0  0  0  0  0  0  0  0  0  0  0  0
  1 11  4  0
  1 21  4  0
  2  4  1  0
  2  8  1  0
  2 11  1  0
  3 10  4  0
  3 14  4  0
  4  5  1  0
  4 18  2  0
  6 12  1  0
  6 17  4  0
  6 23  4  0
  7  9  1  0
  7 13  4  0
  7 19  4  0
  9 20  1  0
 10 19  4  0
 11 25  4  0
 13 14  4  0
 15 16  4  0
 15 17  4  0
 15 21  4  0
 16 24  1  0
 16 25  4  0
 20 24  1  0
 20 26  2  0
 21 23  4  0
 22 23  1  0
M  END
$$$$

 Created by Python create_sdf_string function

 26 28  0  0  0  0  0  0  0  0999 V2000
   12.4616    8.6700   19.4180 N   0  0  0  0  0  0  0  0  0  0  0  0
   11.8329   10.8148   18.6769 N   0  0  0  0  0  0  0  0  0  0  0  0
    6.1021    2.5564   21.0678 C   0  0  0  0  0  0  0  0  0  0  0  0
   10.9097   11.8051   18.4804 C   0  0  0  0  0  0  0  0  0  0  0  0
   11.2280   12.9135   17.5669 C   0  0  0  0  0  0  0  0  0  0  0  0
   12.3782    5.4231   20.7777 C   0  0  0  0  0  0  0  0  0  0  0  0
    7.7365    4.6508   21.6987 C   0  0  0  0  0  0  0  0  0  0  0  0
   13.0186   11.0102   18.0020 C   0  0  0  0  0  0  0  0  0  0  0  0
    8.6628    5.7088   21.8871 N   0  0  0  0  0  0  0  0  0  0  0  0
    5.6516    3.5258   21.9140 C   0  0  0  0  0  0  0  0  0  0  0  0
   11.5863    9.6815   19.4539 C   0  0  0  0  0  0  0  0  0  0  0  0
   12.9648    4.1543   20.9205 C   0  0  0  0  0  0  0  0  0  0  0  0
    8.2089    3.6265   20.8929 C   0  0  0  0  0  0  0  0  0  0  0  0
    7.3827    2.5724   20.5432 C   0  0  0  0  0  0  0  0  0  0  0  0
   11.1529    7.2750   20.8025 C   0  0  0  0  0  0  0  0  0  0  0  0
   10.2573    8.3215   20.9827 C   0  0  0  0  0  0  0  0  0  0  0  0
   11.1606    5.9378   21.2366 N   0  0  0  0  0  0  0  0  0  0  0  0
    9.8932   11.6736   19.0677 O   0  0  0  0  0  0  0  0  0  0  0  0
    6.4470    4.5850   22.2321 C   0  0  0  0  0  0  0  0  0  0  0  0
    8.4619    6.9895   22.2968 C   0  0  0  0  0  0  0  0  0  0  0  0
   12.2747    7.5102   20.0420 C   0  0  0  0  0  0  0  0  0  0  0  0
   14.2544    6.2142   19.4191 C   0  0  0  0  0  0  0  0  0  0  0  0
   13.0695    6.3705   20.0375 N   0  0  0  0  0  0  0  0  0  0  0  0
    9.1913    8.0876   21.8361 N   0  0  0  0  0  0  0  0  0  0  0  0
   10.4739    9.4813   20.2889 C   0  0  0  0  0  0  0  0  0  0  0  0
    7.5551    7.1270   23.1200 O   0  0  0  0  0  0  0  0  0  0  0  0
  1 11  4  0
  1 21  4  0
  2  4  1  0
  2  8  1  0
  2 11  1  0
  3 10  4  0
  3 14  4  0
  4  5  1  0
  4 18  2  0
  6 12  1  0
  6 17  4  0
  6 23  4  0
  7  9  1  0
  7 13  4  0
  7 19  4  0
  9 20  1  0
 10 19  4  0
 11 25  4  0
 13 14  4  0
 15 16  4  0
 15 17  4  0
 15 21  4  0
 16 24  1  0
 16 25  4  0
 20 24  1  0
 20 26  2  0
 21 23  4  0
 22 23  1  0
M  END
$$$$

 Created by Python create_sdf_string function

 26 28  0  0  0  0  0  0  0  0999 V2000
   12.4616    8.6700   19.4180 N   0  0  0  0  0  0  0  0  0  0  0  0
   11.8329   10.8148   18.6769 N   0  0  0  0  0  0  0  0  0  0  0  0
    6.1021    2.5564   21.0678 C   0  0  0  0  0  0  0  0  0  0  0  0
   10.9097   11.8051   18.4804 C   0  0  0  0  0  0  0  0  0  0  0  0
   11.2280   12.9135   17.5669 C   0  0  0  0  0  0  0  0  0  0  0  0
   12.3782    5.4231   20.7777 C   0  0  0  0  0  0  0  0  0  0  0  0
    7.7365    4.6508   21.6987 C   0  0  0  0  0  0  0  0  0  0  0  0
   13.0186   11.0102   18.0020 C   0  0  0  0  0  0  0  0  0  0  0  0
    8.6628    5.7088   21.8871 N   0  0  0  0  0  0  0  0  0  0  0  0
    5.6516    3.5258   21.9140 C   0  0  0  0  0  0  0  0  0  0  0  0
   11.5863    9.6815   19.4539 C   0  0  0  0  0  0  0  0  0  0  0  0
   12.9648    4.1543   20.9205 C   0  0  0  0  0  0  0  0  0  0  0  0
    8.2089    3.6265   20.8929 C   0  0  0  0  0  0  0  0  0  0  0  0
    7.3827    2.5724   20.5432 C   0  0  0  0  0  0  0  0  0  0  0  0
   11.1529    7.2750   20.8025 C   0  0  0  0  0  0  0  0  0  0  0  0
   10.2573    8.3215   20.9827 C   0  0  0  0  0  0  0  0  0  0  0  0
   11.1606    5.9378   21.2366 N   0  0  0  0  0  0  0  0  0  0  0  0
    9.8932   11.6736   19.0677 O   0  0  0  0  0  0  0  0  0  0  0  0
    6.4470    4.5850   22.2321 C   0  0  0  0  0  0  0  0  0  0  0  0
    8.4619    6.9895   22.2968 C   0  0  0  0  0  0  0  0  0  0  0  0
   12.2747    7.5102   20.0420 C   0  0  0  0  0  0  0  0  0  0  0  0
   14.2544    6.2142   19.4191 C   0  0  0  0  0  0  0  0  0  0  0  0
   13.0695    6.3705   20.0375 N   0  0  0  0  0  0  0  0  0  0  0  0
    9.1913    8.0876   21.8361 N   0  0  0  0  0  0  0  0  0  0  0  0
   10.4739    9.4813   20.2889 C   0  0  0  0  0  0  0  0  0  0  0  0
    7.5551    7.1270   23.1200 O   0  0  0  0  0  0  0  0  0  0  0  0
  1 11  4  0
  1 21  4  0
  2  4  1  0
  2  8  1  0
  2 11  1  0
  3 10  4  0
  3 14  4  0
  4  5  1  0
  4 18  2  0
  6 12  1  0
  6 17  4  0
  6 23  4  0
  7  9  1  0
  7 13  4  0
  7 19  4  0
  9 20  1  0
 10 19  4  0
 11 25  4  0
 13 14  4  0
 15 16  4  0
 15 17  4  0
 15 21  4  0
 16 24  1  0
 16 25  4  0
 20 24  1  0
 20 26  2  0
 21 23  4  0
 22 23  1  0
M  END
$$$$

 Created by Python create_sdf_string function

 26 28  0  0  0  0  0  0  0  0999 V2000
   12.4616    8.6700   19.4180 N   0  0  0  0  0  0  0  0  0  0  0  0
   11.8329   10.8148   18.6769 N   0  0  0  0  0  0  0  0  0  0  0  0
    6.1021    2.5564   21.0678 C   0  0  0  0  0  0  0  0  0  0  0  0
   10.9097   11.8051   18.4804 C   0  0  0  0  0  0  0  0  0  0  0  0
   11.2280   12.9135   17.5669 C   0  0  0  0  0  0  0  0  0  0  0  0
   12.3782    5.4231   20.7777 C   0  0  0  0  0  0  0  0  0  0  0  0
    7.7365    4.6508   21.6987 C   0  0  0  0  0  0  0  0  0  0  0  0
   13.0186   11.0102   18.0020 C   0  0  0  0  0  0  0  0  0  0  0  0
    8.6628    5.7088   21.8871 N   0  0  0  0  0  0  0  0  0  0  0  0
    5.6516    3.5258   21.9140 C   0  0  0  0  0  0  0  0  0  0  0  0
   11.5863    9.6815   19.4539 C   0  0  0  0  0  0  0  0  0  0  0  0
   12.9648    4.1543   20.9205 C   0  0  0  0  0  0  0  0  0  0  0  0
    8.2089    3.6265   20.8929 C   0  0  0  0  0  0  0  0  0  0  0  0
    7.3827    2.5724   20.5432 C   0  0  0  0  0  0  0  0  0  0  0  0
   11.1529    7.2750   20.8025 C   0  0  0  0  0  0  0  0  0  0  0  0
   10.2573    8.3215   20.9827 C   0  0  0  0  0  0  0  0  0  0  0  0
   11.1606    5.9378   21.2366 N   0  0  0  0  0  0  0  0  0  0  0  0
    9.8932   11.6736   19.0677 O   0  0  0  0  0  0  0  0  0  0  0  0
    6.4470    4.5850   22.2321 C   0  0  0  0  0  0  0  0  0  0  0  0
    8.4619    6.9895   22.2968 C   0  0  0  0  0  0  0  0  0  0  0  0
   12.2747    7.5102   20.0420 C   0  0  0  0  0  0  0  0  0  0  0  0
   14.2544    6.2142   19.4191 C   0  0  0  0  0  0  0  0  0  0  0  0
   13.0695    6.3705   20.0375 N   0  0  0  0  0  0  0  0  0  0  0  0
    9.1913    8.0876   21.8361 N   0  0  0  0  0  0  0  0  0  0  0  0
   10.4739    9.4813   20.2889 C   0  0  0  0  0  0  0  0  0  0  0  0
    7.5551    7.1270   23.1200 O   0  0  0  0  0  0  0  0  0  0  0  0
  1 11  4  0
  1 21  4  0
  2  4  1  0
  2  8  1  0
  2 11  1  0
  3 10  4  0
  3 14  4  0
  4  5  1  0
  4 18  2  0
  6 12  1  0
  6 17  4  0
  6 23  4  0
  7  9  1  0
  7 13  4  0
  7 19  4  0
  9 20  1  0
 10 19  4  0
 11 25  4  0
 13 14  4  0
 15 16  4  0
 15 17  4  0
 15 21  4  0
 16 24  1  0
 16 25  4  0
 20 24  1  0
 20 26  2  0
 21 23  4  0
 22 23  1  0
M  END
$$$$

 Created by Python create_sdf_string function

 26 28  0  0  0  0  0  0  0  0999 V2000
   12.4616    8.6700   19.4180 N   0  0  0  0  0  0  0  0  0  0  0  0
   11.8329   10.8148   18.6769 N   0  0  0  0  0  0  0  0  0  0  0  0
    6.1021    2.5564   21.0678 C   0  0  0  0  0  0  0  0  0  0  0  0
   10.9097   11.8051   18.4804 C   0  0  0  0  0  0  0  0  0  0  0  0
   11.2280   12.9135   17.5669 C   0  0  0  0  0  0  0  0  0  0  0  0
   12.3782    5.4231   20.7777 C   0  0  0  0  0  0  0  0  0  0  0  0
    7.7365    4.6508   21.6987 C   0  0  0  0  0  0  0  0  0  0  0  0
   13.0186   11.0102   18.0020 C   0  0  0  0  0  0  0  0  0  0  0  0
    8.6628    5.7088   21.8871 N   0  0  0  0  0  0  0  0  0  0  0  0
    5.6516    3.5258   21.9140 C   0  0  0  0  0  0  0  0  0  0  0  0
   11.5863    9.6815   19.4539 C   0  0  0  0  0  0  0  0  0  0  0  0
   12.9648    4.1543   20.9205 C   0  0  0  0  0  0  0  0  0  0  0  0
    8.2089    3.6265   20.8929 C   0  0  0  0  0  0  0  0  0  0  0  0
    7.3827    2.5724   20.5432 C   0  0  0  0  0  0  0  0  0  0  0  0
   11.1529    7.2750   20.8025 C   0  0  0  0  0  0  0  0  0  0  0  0
   10.2573    8.3215   20.9827 C   0  0  0  0  0  0  0  0  0  0  0  0
   11.1606    5.9378   21.2366 N   0  0  0  0  0  0  0  0  0  0  0  0
    9.8932   11.6736   19.0677 O   0  0  0  0  0  0  0  0  0  0  0  0
    6.4470    4.5850   22.2321 C   0  0  0  0  0  0  0  0  0  0  0  0
    8.4619    6.9895   22.2968 C   0  0  0  0  0  0  0  0  0  0  0  0
   12.2747    7.5102   20.0420 C   0  0  0  0  0  0  0  0  0  0  0  0
   14.2544    6.2142   19.4191 C   0  0  0  0  0  0  0  0  0  0  0  0
   13.0695    6.3705   20.0375 N   0  0  0  0  0  0  0  0  0  0  0  0
    9.1913    8.0876   21.8361 N   0  0  0  0  0  0  0  0  0  0  0  0
   10.4739    9.4813   20.2889 C   0  0  0  0  0  0  0  0  0  0  0  0
    7.5551    7.1270   23.1200 O   0  0  0  0  0  0  0  0  0  0  0  0
  1 11  4  0
  1 21  4  0
  2  4  1  0
  2  8  1  0
  2 11  1  0
  3 10  4  0
  3 14  4  0
  4  5  1  0
  4 18  2  0
  6 12  1  0
  6 17  4  0
  6 23  4  0
  7  9  1  0
  7 13  4  0
  7 19  4  0
  9 20  1  0
 10 19  4  0
 11 25  4  0
 13 14  4  0
 15 16  4  0
 15 17  4  0
 15 21  4  0
 16 24  1  0
 16 25  4  0
 20 24  1  0
 20 26  2  0
 21 23  4  0
 22 23  1  0
M  END
$$$$

 Created by Python create_sdf_string function

 26 28  0  0  0  0  0  0  0  0999 V2000
   12.4616    8.6700   19.4180 N   0  0  0  0  0  0  0  0  0  0  0  0
   11.8329   10.8148   18.6769 N   0  0  0  0  0  0  0  0  0  0  0  0
    6.1021    2.5564   21.0678 C   0  0  0  0  0  0  0  0  0  0  0  0
   10.9097   11.8051   18.4804 C   0  0  0  0  0  0  0  0  0  0  0  0
   11.2280   12.9135   17.5669 C   0  0  0  0  0  0  0  0  0  0  0  0
   12.3782    5.4231   20.7777 C   0  0  0  0  0  0  0  0  0  0  0  0
    7.7365    4.6508   21.6987 C   0  0  0  0  0  0  0  0  0  0  0  0
   13.0186   11.0102   18.0020 C   0  0  0  0  0  0  0  0  0  0  0  0
    8.6628    5.7088   21.8871 N   0  0  0  0  0  0  0  0  0  0  0  0
    5.6516    3.5258   21.9140 C   0  0  0  0  0  0  0  0  0  0  0  0
   11.5863    9.6815   19.4539 C   0  0  0  0  0  0  0  0  0  0  0  0
   12.9648    4.1543   20.9205 C   0  0  0  0  0  0  0  0  0  0  0  0
    8.2089    3.6265   20.8929 C   0  0  0  0  0  0  0  0  0  0  0  0
    7.3827    2.5724   20.5432 C   0  0  0  0  0  0  0  0  0  0  0  0
   11.1529    7.2750   20.8025 C   0  0  0  0  0  0  0  0  0  0  0  0
   10.2573    8.3215   20.9827 C   0  0  0  0  0  0  0  0  0  0  0  0
   11.1606    5.9378   21.2366 N   0  0  0  0  0  0  0  0  0  0  0  0
    9.8932   11.6736   19.0677 O   0  0  0  0  0  0  0  0  0  0  0  0
    6.4470    4.5850   22.2321 C   0  0  0  0  0  0  0  0  0  0  0  0
    8.4619    6.9895   22.2968 C   0  0  0  0  0  0  0  0  0  0  0  0
   12.2747    7.5102   20.0420 C   0  0  0  0  0  0  0  0  0  0  0  0
   14.2544    6.2142   19.4191 C   0  0  0  0  0  0  0  0  0  0  0  0
   13.0695    6.3705   20.0375 N   0  0  0  0  0  0  0  0  0  0  0  0
    9.1913    8.0876   21.8361 N   0  0  0  0  0  0  0  0  0  0  0  0
   10.4739    9.4813   20.2889 C   0  0  0  0  0  0  0  0  0  0  0  0
    7.5551    7.1270   23.1200 O   0  0  0  0  0  0  0  0  0  0  0  0
  1 11  4  0
  1 21  4  0
  2  4  1  0
  2  8  1  0
  2 11  1  0
  3 10  4  0
  3 14  4  0
  4  5  1  0
  4 18  2  0
  6 12  1  0
  6 17  4  0
  6 23  4  0
  7  9  1  0
  7 13  4  0
  7 19  4  0
  9 20  1  0
 10 19  4  0
 11 25  4  0
 13 14  4  0
 15 16  4  0
 15 17  4  0
 15 21  4  0
 16 24  1  0
 16 25  4  0
 20 24  1  0
 20 26  2  0
 21 23  4  0
 22 23  1  0
M  END
$$$$

 Created by Python create_sdf_string function

 26 28  0  0  0  0  0  0  0  0999 V2000
   12.4616    8.6700   19.4180 N   0  0  0  0  0  0  0  0  0  0  0  0
   11.8329   10.8148   18.6769 N   0  0  0  0  0  0  0  0  0  0  0  0
    6.1021    2.5564   21.0678 C   0  0  0  0  0  0  0  0  0  0  0  0
   10.9097   11.8051   18.4804 C   0  0  0  0  0  0  0  0  0  0  0  0
   11.2280   12.9135   17.5669 C   0  0  0  0  0  0  0  0  0  0  0  0
   12.3782    5.4231   20.7777 C   0  0  0  0  0  0  0  0  0  0  0  0
    7.7365    4.6508   21.6987 C   0  0  0  0  0  0  0  0  0  0  0  0
   13.0186   11.0102   18.0020 C   0  0  0  0  0  0  0  0  0  0  0  0
    8.6628    5.7088   21.8871 N   0  0  0  0  0  0  0  0  0  0  0  0
    5.6516    3.5258   21.9140 C   0  0  0  0  0  0  0  0  0  0  0  0
   11.5863    9.6815   19.4539 C   0  0  0  0  0  0  0  0  0  0  0  0
   12.9648    4.1543   20.9205 C   0  0  0  0  0  0  0  0  0  0  0  0
    8.2089    3.6265   20.8929 C   0  0  0  0  0  0  0  0  0  0  0  0
    7.3827    2.5724   20.5432 C   0  0  0  0  0  0  0  0  0  0  0  0
   11.1529    7.2750   20.8025 C   0  0  0  0  0  0  0  0  0  0  0  0
   10.2573    8.3215   20.9827 C   0  0  0  0  0  0  0  0  0  0  0  0
   11.1606    5.9378   21.2366 N   0  0  0  0  0  0  0  0  0  0  0  0
    9.8932   11.6736   19.0677 O   0  0  0  0  0  0  0  0  0  0  0  0
    6.4470    4.5850   22.2321 C   0  0  0  0  0  0  0  0  0  0  0  0
    8.4619    6.9895   22.2968 C   0  0  0  0  0  0  0  0  0  0  0  0
   12.2747    7.5102   20.0420 C   0  0  0  0  0  0  0  0  0  0  0  0
   14.2544    6.2142   19.4191 C   0  0  0  0  0  0  0  0  0  0  0  0
   13.0695    6.3705   20.0375 N   0  0  0  0  0  0  0  0  0  0  0  0
    9.1913    8.0876   21.8361 N   0  0  0  0  0  0  0  0  0  0  0  0
   10.4739    9.4813   20.2889 C   0  0  0  0  0  0  0  0  0  0  0  0
    7.5551    7.1270   23.1200 O   0  0  0  0  0  0  0  0  0  0  0  0
  1 11  4  0
  1 21  4  0
  2  4  1  0
  2  8  1  0
  2 11  1  0
  3 10  4  0
  3 14  4  0
  4  5  1  0
  4 18  2  0
  6 12  1  0
  6 17  4  0
  6 23  4  0
  7  9  1  0
  7 13  4  0
  7 19  4  0
  9 20  1  0
 10 19  4  0
 11 25  4  0
 13 14  4  0
 15 16  4  0
 15 17  4  0
 15 21  4  0
 16 24  1  0
 16 25  4  0
 20 24  1  0
 20 26  2  0
 21 23  4  0
 22 23  1  0
M  END
$$$$

 Created by Python create_sdf_string function

 26 28  0  0  0  0  0  0  0  0999 V2000
   12.4616    8.6700   19.4180 N   0  0  0  0  0  0  0  0  0  0  0  0
   11.8329   10.8148   18.6769 N   0  0  0  0  0  0  0  0  0  0  0  0
    6.1021    2.5564   21.0678 C   0  0  0  0  0  0  0  0  0  0  0  0
   10.9097   11.8051   18.4804 C   0  0  0  0  0  0  0  0  0  0  0  0
   11.2280   12.9135   17.5669 C   0  0  0  0  0  0  0  0  0  0  0  0
   12.3782    5.4231   20.7777 C   0  0  0  0  0  0  0  0  0  0  0  0
    7.7365    4.6508   21.6987 C   0  0  0  0  0  0  0  0  0  0  0  0
   13.0186   11.0102   18.0020 C   0  0  0  0  0  0  0  0  0  0  0  0
    8.6628    5.7088   21.8871 N   0  0  0  0  0  0  0  0  0  0  0  0
    5.6516    3.5258   21.9140 C   0  0  0  0  0  0  0  0  0  0  0  0
   11.5863    9.6815   19.4539 C   0  0  0  0  0  0  0  0  0  0  0  0
   12.9648    4.1543   20.9205 C   0  0  0  0  0  0  0  0  0  0  0  0
    8.2089    3.6265   20.8929 C   0  0  0  0  0  0  0  0  0  0  0  0
    7.3827    2.5724   20.5432 C   0  0  0  0  0  0  0  0  0  0  0  0
   11.1529    7.2750   20.8025 C   0  0  0  0  0  0  0  0  0  0  0  0
   10.2573    8.3215   20.9827 C   0  0  0  0  0  0  0  0  0  0  0  0
   11.1606    5.9378   21.2366 N   0  0  0  0  0  0  0  0  0  0  0  0
    9.8932   11.6736   19.0677 O   0  0  0  0  0  0  0  0  0  0  0  0
    6.4470    4.5850   22.2321 C   0  0  0  0  0  0  0  0  0  0  0  0
    8.4619    6.9895   22.2968 C   0  0  0  0  0  0  0  0  0  0  0  0
   12.2747    7.5102   20.0420 C   0  0  0  0  0  0  0  0  0  0  0  0
   14.2544    6.2142   19.4191 C   0  0  0  0  0  0  0  0  0  0  0  0
   13.0695    6.3705   20.0375 N   0  0  0  0  0  0  0  0  0  0  0  0
    9.1913    8.0876   21.8361 N   0  0  0  0  0  0  0  0  0  0  0  0
   10.4739    9.4813   20.2889 C   0  0  0  0  0  0  0  0  0  0  0  0
    7.5551    7.1270   23.1200 O   0  0  0  0  0  0  0  0  0  0  0  0
  1 11  4  0
  1 21  4  0
  2  4  1  0
  2  8  1  0
  2 11  1  0
  3 10  4  0
  3 14  4  0
  4  5  1  0
  4 18  2  0
  6 12  1  0
  6 17  4  0
  6 23  4  0
  7  9  1  0
  7 13  4  0
  7 19  4  0
  9 20  1  0
 10 19  4  0
 11 25  4  0
 13 14  4  0
 15 16  4  0
 15 17  4  0
 15 21  4  0
 16 24  1  0
 16 25  4  0
 20 24  1  0
 20 26  2  0
 21 23  4  0
 22 23  1  0
M  END
$$$$

 Created by Python create_sdf_string function

 26 28  0  0  0  0  0  0  0  0999 V2000
   12.4616    8.6700   19.4180 N   0  0  0  0  0  0  0  0  0  0  0  0
   11.8329   10.8148   18.6769 N   0  0  0  0  0  0  0  0  0  0  0  0
    6.1021    2.5564   21.0678 C   0  0  0  0  0  0  0  0  0  0  0  0
   10.9097   11.8051   18.4804 C   0  0  0  0  0  0  0  0  0  0  0  0
   11.2280   12.9135   17.5669 C   0  0  0  0  0  0  0  0  0  0  0  0
   12.3782    5.4231   20.7777 C   0  0  0  0  0  0  0  0  0  0  0  0
    7.7365    4.6508   21.6987 C   0  0  0  0  0  0  0  0  0  0  0  0
   13.0186   11.0102   18.0020 C   0  0  0  0  0  0  0  0  0  0  0  0
    8.6628    5.7088   21.8871 N   0  0  0  0  0  0  0  0  0  0  0  0
    5.6516    3.5258   21.9140 C   0  0  0  0  0  0  0  0  0  0  0  0
   11.5863    9.6815   19.4539 C   0  0  0  0  0  0  0  0  0  0  0  0
   12.9648    4.1543   20.9205 C   0  0  0  0  0  0  0  0  0  0  0  0
    8.2089    3.6265   20.8929 C   0  0  0  0  0  0  0  0  0  0  0  0
    7.3827    2.5724   20.5432 C   0  0  0  0  0  0  0  0  0  0  0  0
   11.1529    7.2750   20.8025 C   0  0  0  0  0  0  0  0  0  0  0  0
   10.2573    8.3215   20.9827 C   0  0  0  0  0  0  0  0  0  0  0  0
   11.1606    5.9378   21.2366 N   0  0  0  0  0  0  0  0  0  0  0  0
    9.8932   11.6736   19.0677 O   0  0  0  0  0  0  0  0  0  0  0  0
    6.4470    4.5850   22.2321 C   0  0  0  0  0  0  0  0  0  0  0  0
    8.4619    6.9895   22.2968 C   0  0  0  0  0  0  0  0  0  0  0  0
   12.2747    7.5102   20.0420 C   0  0  0  0  0  0  0  0  0  0  0  0
   14.2544    6.2142   19.4191 C   0  0  0  0  0  0  0  0  0  0  0  0
   13.0695    6.3705   20.0375 N   0  0  0  0  0  0  0  0  0  0  0  0
    9.1913    8.0876   21.8361 N   0  0  0  0  0  0  0  0  0  0  0  0
   10.4739    9.4813   20.2889 C   0  0  0  0  0  0  0  0  0  0  0  0
    7.5551    7.1270   23.1200 O   0  0  0  0  0  0  0  0  0  0  0  0
  1 11  4  0
  1 21  4  0
  2  4  1  0
  2  8  1  0
  2 11  1  0
  3 10  4  0
  3 14  4  0
  4  5  1  0
  4 18  2  0
  6 12  1  0
  6 17  4  0
  6 23  4  0
  7  9  1  0
  7 13  4  0
  7 19  4  0
  9 20  1  0
 10 19  4  0
 11 25  4  0
 13 14  4  0
 15 16  4  0
 15 17  4  0
 15 21  4  0
 16 24  1  0
 16 25  4  0
 20 24  1  0
 20 26  2  0
 21 23  4  0
 22 23  1  0
M  END
$$$$

 Created by Python create_sdf_string function

 26 28  0  0  0  0  0  0  0  0999 V2000
   12.4616    8.6700   19.4180 N   0  0  0  0  0  0  0  0  0  0  0  0
   11.8329   10.8148   18.6769 N   0  0  0  0  0  0  0  0  0  0  0  0
    6.1021    2.5564   21.0678 C   0  0  0  0  0  0  0  0  0  0  0  0
   10.9097   11.8051   18.4804 C   0  0  0  0  0  0  0  0  0  0  0  0
   11.2280   12.9135   17.5669 C   0  0  0  0  0  0  0  0  0  0  0  0
   12.3782    5.4231   20.7777 C   0  0  0  0  0  0  0  0  0  0  0  0
    7.7365    4.6508   21.6987 C   0  0  0  0  0  0  0  0  0  0  0  0
   13.0186   11.0102   18.0020 C   0  0  0  0  0  0  0  0  0  0  0  0
    8.6628    5.7088   21.8871 N   0  0  0  0  0  0  0  0  0  0  0  0
    5.6516    3.5258   21.9140 C   0  0  0  0  0  0  0  0  0  0  0  0
   11.5863    9.6815   19.4539 C   0  0  0  0  0  0  0  0  0  0  0  0
   12.9648    4.1543   20.9205 C   0  0  0  0  0  0  0  0  0  0  0  0
    8.2089    3.6265   20.8929 C   0  0  0  0  0  0  0  0  0  0  0  0
    7.3827    2.5724   20.5432 C   0  0  0  0  0  0  0  0  0  0  0  0
   11.1529    7.2750   20.8025 C   0  0  0  0  0  0  0  0  0  0  0  0
   10.2573    8.3215   20.9827 C   0  0  0  0  0  0  0  0  0  0  0  0
   11.1606    5.9378   21.2366 N   0  0  0  0  0  0  0  0  0  0  0  0
    9.8932   11.6736   19.0677 O   0  0  0  0  0  0  0  0  0  0  0  0
    6.4470    4.5850   22.2321 C   0  0  0  0  0  0  0  0  0  0  0  0
    8.4619    6.9895   22.2968 C   0  0  0  0  0  0  0  0  0  0  0  0
   12.2747    7.5102   20.0420 C   0  0  0  0  0  0  0  0  0  0  0  0
   14.2544    6.2142   19.4191 C   0  0  0  0  0  0  0  0  0  0  0  0
   13.0695    6.3705   20.0375 N   0  0  0  0  0  0  0  0  0  0  0  0
    9.1913    8.0876   21.8361 N   0  0  0  0  0  0  0  0  0  0  0  0
   10.4739    9.4813   20.2889 C   0  0  0  0  0  0  0  0  0  0  0  0
    7.5551    7.1270   23.1200 O   0  0  0  0  0  0  0  0  0  0  0  0
  1 11  4  0
  1 21  4  0
  2  4  1  0
  2  8  1  0
  2 11  1  0
  3 10  4  0
  3 14  4  0
  4  5  1  0
  4 18  2  0
  6 12  1  0
  6 17  4  0
  6 23  4  0
  7  9  1  0
  7 13  4  0
  7 19  4  0
  9 20  1  0
 10 19  4  0
 11 25  4  0
 13 14  4  0
 15 16  4  0
 15 17  4  0
 15 21  4  0
 16 24  1  0
 16 25  4  0
 20 24  1  0
 20 26  2  0
 21 23  4  0
 22 23  1  0
M  END
$$$$

 Created by Python create_sdf_string function

 26 28  0  0  0  0  0  0  0  0999 V2000
   12.4616    8.6700   19.4180 N   0  0  0  0  0  0  0  0  0  0  0  0
   11.8329   10.8148   18.6769 N   0  0  0  0  0  0  0  0  0  0  0  0
    6.1021    2.5564   21.0678 C   0  0  0  0  0  0  0  0  0  0  0  0
   10.9097   11.8051   18.4804 C   0  0  0  0  0  0  0  0  0  0  0  0
   11.2280   12.9135   17.5669 C   0  0  0  0  0  0  0  0  0  0  0  0
   12.3782    5.4231   20.7777 C   0  0  0  0  0  0  0  0  0  0  0  0
    7.7365    4.6508   21.6987 C   0  0  0  0  0  0  0  0  0  0  0  0
   13.0186   11.0102   18.0020 C   0  0  0  0  0  0  0  0  0  0  0  0
    8.6628    5.7088   21.8871 N   0  0  0  0  0  0  0  0  0  0  0  0
    5.6516    3.5258   21.9140 C   0  0  0  0  0  0  0  0  0  0  0  0
   11.5863    9.6815   19.4539 C   0  0  0  0  0  0  0  0  0  0  0  0
   12.9648    4.1543   20.9205 C   0  0  0  0  0  0  0  0  0  0  0  0
    8.2089    3.6265   20.8929 C   0  0  0  0  0  0  0  0  0  0  0  0
    7.3827    2.5724   20.5432 C   0  0  0  0  0  0  0  0  0  0  0  0
   11.1529    7.2750   20.8025 C   0  0  0  0  0  0  0  0  0  0  0  0
   10.2573    8.3215   20.9827 C   0  0  0  0  0  0  0  0  0  0  0  0
   11.1606    5.9378   21.2366 N   0  0  0  0  0  0  0  0  0  0  0  0
    9.8932   11.6736   19.0677 O   0  0  0  0  0  0  0  0  0  0  0  0
    6.4470    4.5850   22.2321 C   0  0  0  0  0  0  0  0  0  0  0  0
    8.4619    6.9895   22.2968 C   0  0  0  0  0  0  0  0  0  0  0  0
   12.2747    7.5102   20.0420 C   0  0  0  0  0  0  0  0  0  0  0  0
   14.2544    6.2142   19.4191 C   0  0  0  0  0  0  0  0  0  0  0  0
   13.0695    6.3705   20.0375 N   0  0  0  0  0  0  0  0  0  0  0  0
    9.1913    8.0876   21.8361 N   0  0  0  0  0  0  0  0  0  0  0  0
   10.4739    9.4813   20.2889 C   0  0  0  0  0  0  0  0  0  0  0  0
    7.5551    7.1270   23.1200 O   0  0  0  0  0  0  0  0  0  0  0  0
  1 11  4  0
  1 21  4  0
  2  4  1  0
  2  8  1  0
  2 11  1  0
  3 10  4  0
  3 14  4  0
  4  5  1  0
  4 18  2  0
  6 12  1  0
  6 17  4  0
  6 23  4  0
  7  9  1  0
  7 13  4  0
  7 19  4  0
  9 20  1  0
 10 19  4  0
 11 25  4  0
 13 14  4  0
 15 16  4  0
 15 17  4  0
 15 21  4  0
 16 24  1  0
 16 25  4  0
 20 24  1  0
 20 26  2  0
 21 23  4  0
 22 23  1  0
M  END
$$$$

 Created by Python create_sdf_string function

 26 28  0  0  0  0  0  0  0  0999 V2000
   12.4616    8.6700   19.4180 N   0  0  0  0  0  0  0  0  0  0  0  0
   11.8329   10.8148   18.6769 N   0  0  0  0  0  0  0  0  0  0  0  0
    6.1021    2.5564   21.0678 C   0  0  0  0  0  0  0  0  0  0  0  0
   10.9097   11.8051   18.4804 C   0  0  0  0  0  0  0  0  0  0  0  0
   11.2280   12.9135   17.5669 C   0  0  0  0  0  0  0  0  0  0  0  0
   12.3782    5.4231   20.7777 C   0  0  0  0  0  0  0  0  0  0  0  0
    7.7365    4.6508   21.6987 C   0  0  0  0  0  0  0  0  0  0  0  0
   13.0186   11.0102   18.0020 C   0  0  0  0  0  0  0  0  0  0  0  0
    8.6628    5.7088   21.8871 N   0  0  0  0  0  0  0  0  0  0  0  0
    5.6516    3.5258   21.9140 C   0  0  0  0  0  0  0  0  0  0  0  0
   11.5863    9.6815   19.4539 C   0  0  0  0  0  0  0  0  0  0  0  0
   12.9648    4.1543   20.9205 C   0  0  0  0  0  0  0  0  0  0  0  0
    8.2089    3.6265   20.8929 C   0  0  0  0  0  0  0  0  0  0  0  0
    7.3827    2.5724   20.5432 C   0  0  0  0  0  0  0  0  0  0  0  0
   11.1529    7.2750   20.8025 C   0  0  0  0  0  0  0  0  0  0  0  0
   10.2573    8.3215   20.9827 C   0  0  0  0  0  0  0  0  0  0  0  0
   11.1606    5.9378   21.2366 N   0  0  0  0  0  0  0  0  0  0  0  0
    9.8932   11.6736   19.0677 O   0  0  0  0  0  0  0  0  0  0  0  0
    6.4470    4.5850   22.2321 C   0  0  0  0  0  0  0  0  0  0  0  0
    8.4619    6.9895   22.2968 C   0  0  0  0  0  0  0  0  0  0  0  0
   12.2747    7.5102   20.0420 C   0  0  0  0  0  0  0  0  0  0  0  0
   14.2544    6.2142   19.4191 C   0  0  0  0  0  0  0  0  0  0  0  0
   13.0695    6.3705   20.0375 N   0  0  0  0  0  0  0  0  0  0  0  0
    9.1913    8.0876   21.8361 N   0  0  0  0  0  0  0  0  0  0  0  0
   10.4739    9.4813   20.2889 C   0  0  0  0  0  0  0  0  0  0  0  0
    7.5551    7.1270   23.1200 O   0  0  0  0  0  0  0  0  0  0  0  0
  1 11  4  0
  1 21  4  0
  2  4  1  0
  2  8  1  0
  2 11  1  0
  3 10  4  0
  3 14  4  0
  4  5  1  0
  4 18  2  0
  6 12  1  0
  6 17  4  0
  6 23  4  0
  7  9  1  0
  7 13  4  0
  7 19  4  0
  9 20  1  0
 10 19  4  0
 11 25  4  0
 13 14  4  0
 15 16  4  0
 15 17  4  0
 15 21  4  0
 16 24  1  0
 16 25  4  0
 20 24  1  0
 20 26  2  0
 21 23  4  0
 22 23  1  0
M  END
$$$$

 Created by Python create_sdf_string function

 26 28  0  0  0  0  0  0  0  0999 V2000
   12.4616    8.6700   19.4180 N   0  0  0  0  0  0  0  0  0  0  0  0
   11.8329   10.8148   18.6769 N   0  0  0  0  0  0  0  0  0  0  0  0
    6.1021    2.5564   21.0678 C   0  0  0  0  0  0  0  0  0  0  0  0
   10.9097   11.8051   18.4804 C   0  0  0  0  0  0  0  0  0  0  0  0
   11.2280   12.9135   17.5669 C   0  0  0  0  0  0  0  0  0  0  0  0
   12.3782    5.4231   20.7777 C   0  0  0  0  0  0  0  0  0  0  0  0
    7.7365    4.6508   21.6987 C   0  0  0  0  0  0  0  0  0  0  0  0
   13.0186   11.0102   18.0020 C   0  0  0  0  0  0  0  0  0  0  0  0
    8.6628    5.7088   21.8871 N   0  0  0  0  0  0  0  0  0  0  0  0
    5.6516    3.5258   21.9140 C   0  0  0  0  0  0  0  0  0  0  0  0
   11.5863    9.6815   19.4539 C   0  0  0  0  0  0  0  0  0  0  0  0
   12.9648    4.1543   20.9205 C   0  0  0  0  0  0  0  0  0  0  0  0
    8.2089    3.6265   20.8929 C   0  0  0  0  0  0  0  0  0  0  0  0
    7.3827    2.5724   20.5432 C   0  0  0  0  0  0  0  0  0  0  0  0
   11.1529    7.2750   20.8025 C   0  0  0  0  0  0  0  0  0  0  0  0
   10.2573    8.3215   20.9827 C   0  0  0  0  0  0  0  0  0  0  0  0
   11.1606    5.9378   21.2366 N   0  0  0  0  0  0  0  0  0  0  0  0
    9.8932   11.6736   19.0677 O   0  0  0  0  0  0  0  0  0  0  0  0
    6.4470    4.5850   22.2321 C   0  0  0  0  0  0  0  0  0  0  0  0
    8.4619    6.9895   22.2968 C   0  0  0  0  0  0  0  0  0  0  0  0
   12.2747    7.5102   20.0420 C   0  0  0  0  0  0  0  0  0  0  0  0
   14.2544    6.2142   19.4191 C   0  0  0  0  0  0  0  0  0  0  0  0
   13.0695    6.3705   20.0375 N   0  0  0  0  0  0  0  0  0  0  0  0
    9.1913    8.0876   21.8361 N   0  0  0  0  0  0  0  0  0  0  0  0
   10.4739    9.4813   20.2889 C   0  0  0  0  0  0  0  0  0  0  0  0
    7.5551    7.1270   23.1200 O   0  0  0  0  0  0  0  0  0  0  0  0
  1 11  4  0
  1 21  4  0
  2  4  1  0
  2  8  1  0
  2 11  1  0
  3 10  4  0
  3 14  4  0
  4  5  1  0
  4 18  2  0
  6 12  1  0
  6 17  4  0
  6 23  4  0
  7  9  1  0
  7 13  4  0
  7 19  4  0
  9 20  1  0
 10 19  4  0
 11 25  4  0
 13 14  4  0
 15 16  4  0
 15 17  4  0
 15 21  4  0
 16 24  1  0
 16 25  4  0
 20 24  1  0
 20 26  2  0
 21 23  4  0
 22 23  1  0
M  END
$$$$

 Created by Python create_sdf_string function

 26 28  0  0  0  0  0  0  0  0999 V2000
   12.4616    8.6700   19.4180 N   0  0  0  0  0  0  0  0  0  0  0  0
   11.8329   10.8148   18.6769 N   0  0  0  0  0  0  0  0  0  0  0  0
    6.1021    2.5564   21.0678 C   0  0  0  0  0  0  0  0  0  0  0  0
   10.9097   11.8051   18.4804 C   0  0  0  0  0  0  0  0  0  0  0  0
   11.2280   12.9135   17.5669 C   0  0  0  0  0  0  0  0  0  0  0  0
   12.3782    5.4231   20.7777 C   0  0  0  0  0  0  0  0  0  0  0  0
    7.7365    4.6508   21.6987 C   0  0  0  0  0  0  0  0  0  0  0  0
   13.0186   11.0102   18.0020 C   0  0  0  0  0  0  0  0  0  0  0  0
    8.6628    5.7088   21.8871 N   0  0  0  0  0  0  0  0  0  0  0  0
    5.6516    3.5258   21.9140 C   0  0  0  0  0  0  0  0  0  0  0  0
   11.5863    9.6815   19.4539 C   0  0  0  0  0  0  0  0  0  0  0  0
   12.9648    4.1543   20.9205 C   0  0  0  0  0  0  0  0  0  0  0  0
    8.2089    3.6265   20.8929 C   0  0  0  0  0  0  0  0  0  0  0  0
    7.3827    2.5724   20.5432 C   0  0  0  0  0  0  0  0  0  0  0  0
   11.1529    7.2750   20.8025 C   0  0  0  0  0  0  0  0  0  0  0  0
   10.2573    8.3215   20.9827 C   0  0  0  0  0  0  0  0  0  0  0  0
   11.1606    5.9378   21.2366 N   0  0  0  0  0  0  0  0  0  0  0  0
    9.8932   11.6736   19.0677 O   0  0  0  0  0  0  0  0  0  0  0  0
    6.4470    4.5850   22.2321 C   0  0  0  0  0  0  0  0  0  0  0  0
    8.4619    6.9895   22.2968 C   0  0  0  0  0  0  0  0  0  0  0  0
   12.2747    7.5102   20.0420 C   0  0  0  0  0  0  0  0  0  0  0  0
   14.2544    6.2142   19.4191 C   0  0  0  0  0  0  0  0  0  0  0  0
   13.0695    6.3705   20.0375 N   0  0  0  0  0  0  0  0  0  0  0  0
    9.1913    8.0876   21.8361 N   0  0  0  0  0  0  0  0  0  0  0  0
   10.4739    9.4813   20.2889 C   0  0  0  0  0  0  0  0  0  0  0  0
    7.5551    7.1270   23.1200 O   0  0  0  0  0  0  0  0  0  0  0  0
  1 11  4  0
  1 21  4  0
  2  4  1  0
  2  8  1  0
  2 11  1  0
  3 10  4  0
  3 14  4  0
  4  5  1  0
  4 18  2  0
  6 12  1  0
  6 17  4  0
  6 23  4  0
  7  9  1  0
  7 13  4  0
  7 19  4  0
  9 20  1  0
 10 19  4  0
 11 25  4  0
 13 14  4  0
 15 16  4  0
 15 17  4  0
 15 21  4  0
 16 24  1  0
 16 25  4  0
 20 24  1  0
 20 26  2  0
 21 23  4  0
 22 23  1  0
M  END
$$$$

 Created by Python create_sdf_string function

 26 28  0  0  0  0  0  0  0  0999 V2000
   12.4616    8.6700   19.4180 N   0  0  0  0  0  0  0  0  0  0  0  0
   11.8329   10.8148   18.6769 N   0  0  0  0  0  0  0  0  0  0  0  0
    6.1021    2.5564   21.0678 C   0  0  0  0  0  0  0  0  0  0  0  0
   10.9097   11.8051   18.4804 C   0  0  0  0  0  0  0  0  0  0  0  0
   11.2280   12.9135   17.5669 C   0  0  0  0  0  0  0  0  0  0  0  0
   12.3782    5.4231   20.7777 C   0  0  0  0  0  0  0  0  0  0  0  0
    7.7365    4.6508   21.6987 C   0  0  0  0  0  0  0  0  0  0  0  0
   13.0186   11.0102   18.0020 C   0  0  0  0  0  0  0  0  0  0  0  0
    8.6628    5.7088   21.8871 N   0  0  0  0  0  0  0  0  0  0  0  0
    5.6516    3.5258   21.9140 C   0  0  0  0  0  0  0  0  0  0  0  0
   11.5863    9.6815   19.4539 C   0  0  0  0  0  0  0  0  0  0  0  0
   12.9648    4.1543   20.9205 C   0  0  0  0  0  0  0  0  0  0  0  0
    8.2089    3.6265   20.8929 C   0  0  0  0  0  0  0  0  0  0  0  0
    7.3827    2.5724   20.5432 C   0  0  0  0  0  0  0  0  0  0  0  0
   11.1529    7.2750   20.8025 C   0  0  0  0  0  0  0  0  0  0  0  0
   10.2573    8.3215   20.9827 C   0  0  0  0  0  0  0  0  0  0  0  0
   11.1606    5.9378   21.2366 N   0  0  0  0  0  0  0  0  0  0  0  0
    9.8932   11.6736   19.0677 O   0  0  0  0  0  0  0  0  0  0  0  0
    6.4470    4.5850   22.2321 C   0  0  0  0  0  0  0  0  0  0  0  0
    8.4619    6.9895   22.2968 C   0  0  0  0  0  0  0  0  0  0  0  0
   12.2747    7.5102   20.0420 C   0  0  0  0  0  0  0  0  0  0  0  0
   14.2544    6.2142   19.4191 C   0  0  0  0  0  0  0  0  0  0  0  0
   13.0695    6.3705   20.0375 N   0  0  0  0  0  0  0  0  0  0  0  0
    9.1913    8.0876   21.8361 N   0  0  0  0  0  0  0  0  0  0  0  0
   10.4739    9.4813   20.2889 C   0  0  0  0  0  0  0  0  0  0  0  0
    7.5551    7.1270   23.1200 O   0  0  0  0  0  0  0  0  0  0  0  0
  1 11  4  0
  1 21  4  0
  2  4  1  0
  2  8  1  0
  2 11  1  0
  3 10  4  0
  3 14  4  0
  4  5  1  0
  4 18  2  0
  6 12  1  0
  6 17  4  0
  6 23  4  0
  7  9  1  0
  7 13  4  0
  7 19  4  0
  9 20  1  0
 10 19  4  0
 11 25  4  0
 13 14  4  0
 15 16  4  0
 15 17  4  0
 15 21  4  0
 16 24  1  0
 16 25  4  0
 20 24  1  0
 20 26  2  0
 21 23  4  0
 22 23  1  0
M  END
$$$$

 Created by Python create_sdf_string function

 26 28  0  0  0  0  0  0  0  0999 V2000
   12.4616    8.6700   19.4180 N   0  0  0  0  0  0  0  0  0  0  0  0
   11.8329   10.8148   18.6769 N   0  0  0  0  0  0  0  0  0  0  0  0
    6.1021    2.5564   21.0678 C   0  0  0  0  0  0  0  0  0  0  0  0
   10.9097   11.8051   18.4804 C   0  0  0  0  0  0  0  0  0  0  0  0
   11.2280   12.9135   17.5669 C   0  0  0  0  0  0  0  0  0  0  0  0
   12.3782    5.4231   20.7777 C   0  0  0  0  0  0  0  0  0  0  0  0
    7.7365    4.6508   21.6987 C   0  0  0  0  0  0  0  0  0  0  0  0
   13.0186   11.0102   18.0020 C   0  0  0  0  0  0  0  0  0  0  0  0
    8.6628    5.7088   21.8871 N   0  0  0  0  0  0  0  0  0  0  0  0
    5.6516    3.5258   21.9140 C   0  0  0  0  0  0  0  0  0  0  0  0
   11.5863    9.6815   19.4539 C   0  0  0  0  0  0  0  0  0  0  0  0
   12.9648    4.1543   20.9205 C   0  0  0  0  0  0  0  0  0  0  0  0
    8.2089    3.6265   20.8929 C   0  0  0  0  0  0  0  0  0  0  0  0
    7.3827    2.5724   20.5432 C   0  0  0  0  0  0  0  0  0  0  0  0
   11.1529    7.2750   20.8025 C   0  0  0  0  0  0  0  0  0  0  0  0
   10.2573    8.3215   20.9827 C   0  0  0  0  0  0  0  0  0  0  0  0
   11.1606    5.9378   21.2366 N   0  0  0  0  0  0  0  0  0  0  0  0
    9.8932   11.6736   19.0677 O   0  0  0  0  0  0  0  0  0  0  0  0
    6.4470    4.5850   22.2321 C   0  0  0  0  0  0  0  0  0  0  0  0
    8.4619    6.9895   22.2968 C   0  0  0  0  0  0  0  0  0  0  0  0
   12.2747    7.5102   20.0420 C   0  0  0  0  0  0  0  0  0  0  0  0
   14.2544    6.2142   19.4191 C   0  0  0  0  0  0  0  0  0  0  0  0
   13.0695    6.3705   20.0375 N   0  0  0  0  0  0  0  0  0  0  0  0
    9.1913    8.0876   21.8361 N   0  0  0  0  0  0  0  0  0  0  0  0
   10.4739    9.4813   20.2889 C   0  0  0  0  0  0  0  0  0  0  0  0
    7.5551    7.1270   23.1200 O   0  0  0  0  0  0  0  0  0  0  0  0
  1 11  4  0
  1 21  4  0
  2  4  1  0
  2  8  1  0
  2 11  1  0
  3 10  4  0
  3 14  4  0
  4  5  1  0
  4 18  2  0
  6 12  1  0
  6 17  4  0
  6 23  4  0
  7  9  1  0
  7 13  4  0
  7 19  4  0
  9 20  1  0
 10 19  4  0
 11 25  4  0
 13 14  4  0
 15 16  4  0
 15 17  4  0
 15 21  4  0
 16 24  1  0
 16 25  4  0
 20 24  1  0
 20 26  2  0
 21 23  4  0
 22 23  1  0
M  END
$$$$

 Created by Python create_sdf_string function

 26 28  0  0  0  0  0  0  0  0999 V2000
   12.4616    8.6700   19.4180 N   0  0  0  0  0  0  0  0  0  0  0  0
   11.8329   10.8148   18.6769 N   0  0  0  0  0  0  0  0  0  0  0  0
    6.1021    2.5564   21.0678 C   0  0  0  0  0  0  0  0  0  0  0  0
   10.9097   11.8051   18.4804 C   0  0  0  0  0  0  0  0  0  0  0  0
   11.2280   12.9135   17.5669 C   0  0  0  0  0  0  0  0  0  0  0  0
   12.3782    5.4231   20.7777 C   0  0  0  0  0  0  0  0  0  0  0  0
    7.7365    4.6508   21.6987 C   0  0  0  0  0  0  0  0  0  0  0  0
   13.0186   11.0102   18.0020 C   0  0  0  0  0  0  0  0  0  0  0  0
    8.6628    5.7088   21.8871 N   0  0  0  0  0  0  0  0  0  0  0  0
    5.6516    3.5258   21.9140 C   0  0  0  0  0  0  0  0  0  0  0  0
   11.5863    9.6815   19.4539 C   0  0  0  0  0  0  0  0  0  0  0  0
   12.9648    4.1543   20.9205 C   0  0  0  0  0  0  0  0  0  0  0  0
    8.2089    3.6265   20.8929 C   0  0  0  0  0  0  0  0  0  0  0  0
    7.3827    2.5724   20.5432 C   0  0  0  0  0  0  0  0  0  0  0  0
   11.1529    7.2750   20.8025 C   0  0  0  0  0  0  0  0  0  0  0  0
   10.2573    8.3215   20.9827 C   0  0  0  0  0  0  0  0  0  0  0  0
   11.1606    5.9378   21.2366 N   0  0  0  0  0  0  0  0  0  0  0  0
    9.8932   11.6736   19.0677 O   0  0  0  0  0  0  0  0  0  0  0  0
    6.4470    4.5850   22.2321 C   0  0  0  0  0  0  0  0  0  0  0  0
    8.4619    6.9895   22.2968 C   0  0  0  0  0  0  0  0  0  0  0  0
   12.2747    7.5102   20.0420 C   0  0  0  0  0  0  0  0  0  0  0  0
   14.2544    6.2142   19.4191 C   0  0  0  0  0  0  0  0  0  0  0  0
   13.0695    6.3705   20.0375 N   0  0  0  0  0  0  0  0  0  0  0  0
    9.1913    8.0876   21.8361 N   0  0  0  0  0  0  0  0  0  0  0  0
   10.4739    9.4813   20.2889 C   0  0  0  0  0  0  0  0  0  0  0  0
    7.5551    7.1270   23.1200 O   0  0  0  0  0  0  0  0  0  0  0  0
  1 11  4  0
  1 21  4  0
  2  4  1  0
  2  8  1  0
  2 11  1  0
  3 10  4  0
  3 14  4  0
  4  5  1  0
  4 18  2  0
  6 12  1  0
  6 17  4  0
  6 23  4  0
  7  9  1  0
  7 13  4  0
  7 19  4  0
  9 20  1  0
 10 19  4  0
 11 25  4  0
 13 14  4  0
 15 16  4  0
 15 17  4  0
 15 21  4  0
 16 24  1  0
 16 25  4  0
 20 24  1  0
 20 26  2  0
 21 23  4  0
 22 23  1  0
M  END
$$$$

 Created by Python create_sdf_string function

 26 28  0  0  0  0  0  0  0  0999 V2000
   12.4616    8.6700   19.4180 N   0  0  0  0  0  0  0  0  0  0  0  0
   11.8329   10.8148   18.6769 N   0  0  0  0  0  0  0  0  0  0  0  0
    6.1021    2.5564   21.0678 C   0  0  0  0  0  0  0  0  0  0  0  0
   10.9097   11.8051   18.4804 C   0  0  0  0  0  0  0  0  0  0  0  0
   11.2280   12.9135   17.5669 C   0  0  0  0  0  0  0  0  0  0  0  0
   12.3782    5.4231   20.7777 C   0  0  0  0  0  0  0  0  0  0  0  0
    7.7365    4.6508   21.6987 C   0  0  0  0  0  0  0  0  0  0  0  0
   13.0186   11.0102   18.0020 C   0  0  0  0  0  0  0  0  0  0  0  0
    8.6628    5.7088   21.8871 N   0  0  0  0  0  0  0  0  0  0  0  0
    5.6516    3.5258   21.9140 C   0  0  0  0  0  0  0  0  0  0  0  0
   11.5863    9.6815   19.4539 C   0  0  0  0  0  0  0  0  0  0  0  0
   12.9648    4.1543   20.9205 C   0  0  0  0  0  0  0  0  0  0  0  0
    8.2089    3.6265   20.8929 C   0  0  0  0  0  0  0  0  0  0  0  0
    7.3827    2.5724   20.5432 C   0  0  0  0  0  0  0  0  0  0  0  0
   11.1529    7.2750   20.8025 C   0  0  0  0  0  0  0  0  0  0  0  0
   10.2573    8.3215   20.9827 C   0  0  0  0  0  0  0  0  0  0  0  0
   11.1606    5.9378   21.2366 N   0  0  0  0  0  0  0  0  0  0  0  0
    9.8932   11.6736   19.0677 O   0  0  0  0  0  0  0  0  0  0  0  0
    6.4470    4.5850   22.2321 C   0  0  0  0  0  0  0  0  0  0  0  0
    8.4619    6.9895   22.2968 C   0  0  0  0  0  0  0  0  0  0  0  0
   12.2747    7.5102   20.0420 C   0  0  0  0  0  0  0  0  0  0  0  0
   14.2544    6.2142   19.4191 C   0  0  0  0  0  0  0  0  0  0  0  0
   13.0695    6.3705   20.0375 N   0  0  0  0  0  0  0  0  0  0  0  0
    9.1913    8.0876   21.8361 N   0  0  0  0  0  0  0  0  0  0  0  0
   10.4739    9.4813   20.2889 C   0  0  0  0  0  0  0  0  0  0  0  0
    7.5551    7.1270   23.1200 O   0  0  0  0  0  0  0  0  0  0  0  0
  1 11  4  0
  1 21  4  0
  2  4  1  0
  2  8  1  0
  2 11  1  0
  3 10  4  0
  3 14  4  0
  4  5  1  0
  4 18  2  0
  6 12  1  0
  6 17  4  0
  6 23  4  0
  7  9  1  0
  7 13  4  0
  7 19  4  0
  9 20  1  0
 10 19  4  0
 11 25  4  0
 13 14  4  0
 15 16  4  0
 15 17  4  0
 15 21  4  0
 16 24  1  0
 16 25  4  0
 20 24  1  0
 20 26  2  0
 21 23  4  0
 22 23  1  0
M  END
$$$$

 Created by Python create_sdf_string function

 26 28  0  0  0  0  0  0  0  0999 V2000
   12.4616    8.6700   19.4180 N   0  0  0  0  0  0  0  0  0  0  0  0
   11.8329   10.8148   18.6769 N   0  0  0  0  0  0  0  0  0  0  0  0
    6.1021    2.5564   21.0678 C   0  0  0  0  0  0  0  0  0  0  0  0
   10.9097   11.8051   18.4804 C   0  0  0  0  0  0  0  0  0  0  0  0
   11.2280   12.9135   17.5669 C   0  0  0  0  0  0  0  0  0  0  0  0
   12.3782    5.4231   20.7777 C   0  0  0  0  0  0  0  0  0  0  0  0
    7.7365    4.6508   21.6987 C   0  0  0  0  0  0  0  0  0  0  0  0
   13.0186   11.0102   18.0020 C   0  0  0  0  0  0  0  0  0  0  0  0
    8.6628    5.7088   21.8871 N   0  0  0  0  0  0  0  0  0  0  0  0
    5.6516    3.5258   21.9140 C   0  0  0  0  0  0  0  0  0  0  0  0
   11.5863    9.6815   19.4539 C   0  0  0  0  0  0  0  0  0  0  0  0
   12.9648    4.1543   20.9205 C   0  0  0  0  0  0  0  0  0  0  0  0
    8.2089    3.6265   20.8929 C   0  0  0  0  0  0  0  0  0  0  0  0
    7.3827    2.5724   20.5432 C   0  0  0  0  0  0  0  0  0  0  0  0
   11.1529    7.2750   20.8025 C   0  0  0  0  0  0  0  0  0  0  0  0
   10.2573    8.3215   20.9827 C   0  0  0  0  0  0  0  0  0  0  0  0
   11.1606    5.9378   21.2366 N   0  0  0  0  0  0  0  0  0  0  0  0
    9.8932   11.6736   19.0677 O   0  0  0  0  0  0  0  0  0  0  0  0
    6.4470    4.5850   22.2321 C   0  0  0  0  0  0  0  0  0  0  0  0
    8.4619    6.9895   22.2968 C   0  0  0  0  0  0  0  0  0  0  0  0
   12.2747    7.5102   20.0420 C   0  0  0  0  0  0  0  0  0  0  0  0
   14.2544    6.2142   19.4191 C   0  0  0  0  0  0  0  0  0  0  0  0
   13.0695    6.3705   20.0375 N   0  0  0  0  0  0  0  0  0  0  0  0
    9.1913    8.0876   21.8361 N   0  0  0  0  0  0  0  0  0  0  0  0
   10.4739    9.4813   20.2889 C   0  0  0  0  0  0  0  0  0  0  0  0
    7.5551    7.1270   23.1200 O   0  0  0  0  0  0  0  0  0  0  0  0
  1 11  4  0
  1 21  4  0
  2  4  1  0
  2  8  1  0
  2 11  1  0
  3 10  4  0
  3 14  4  0
  4  5  1  0
  4 18  2  0
  6 12  1  0
  6 17  4  0
  6 23  4  0
  7  9  1  0
  7 13  4  0
  7 19  4  0
  9 20  1  0
 10 19  4  0
 11 25  4  0
 13 14  4  0
 15 16  4  0
 15 17  4  0
 15 21  4  0
 16 24  1  0
 16 25  4  0
 20 24  1  0
 20 26  2  0
 21 23  4  0
 22 23  1  0
M  END
$$$$

 Created by Python create_sdf_string function

 26 28  0  0  0  0  0  0  0  0999 V2000
   12.4616    8.6700   19.4180 N   0  0  0  0  0  0  0  0  0  0  0  0
   11.8329   10.8148   18.6769 N   0  0  0  0  0  0  0  0  0  0  0  0
    6.1021    2.5564   21.0678 C   0  0  0  0  0  0  0  0  0  0  0  0
   10.9097   11.8051   18.4804 C   0  0  0  0  0  0  0  0  0  0  0  0
   11.2280   12.9135   17.5669 C   0  0  0  0  0  0  0  0  0  0  0  0
   12.3782    5.4231   20.7777 C   0  0  0  0  0  0  0  0  0  0  0  0
    7.7365    4.6508   21.6987 C   0  0  0  0  0  0  0  0  0  0  0  0
   13.0186   11.0102   18.0020 C   0  0  0  0  0  0  0  0  0  0  0  0
    8.6628    5.7088   21.8871 N   0  0  0  0  0  0  0  0  0  0  0  0
    5.6516    3.5258   21.9140 C   0  0  0  0  0  0  0  0  0  0  0  0
   11.5863    9.6815   19.4539 C   0  0  0  0  0  0  0  0  0  0  0  0
   12.9648    4.1543   20.9205 C   0  0  0  0  0  0  0  0  0  0  0  0
    8.2089    3.6265   20.8929 C   0  0  0  0  0  0  0  0  0  0  0  0
    7.3827    2.5724   20.5432 C   0  0  0  0  0  0  0  0  0  0  0  0
   11.1529    7.2750   20.8025 C   0  0  0  0  0  0  0  0  0  0  0  0
   10.2573    8.3215   20.9827 C   0  0  0  0  0  0  0  0  0  0  0  0
   11.1606    5.9378   21.2366 N   0  0  0  0  0  0  0  0  0  0  0  0
    9.8932   11.6736   19.0677 O   0  0  0  0  0  0  0  0  0  0  0  0
    6.4470    4.5850   22.2321 C   0  0  0  0  0  0  0  0  0  0  0  0
    8.4619    6.9895   22.2968 C   0  0  0  0  0  0  0  0  0  0  0  0
   12.2747    7.5102   20.0420 C   0  0  0  0  0  0  0  0  0  0  0  0
   14.2544    6.2142   19.4191 C   0  0  0  0  0  0  0  0  0  0  0  0
   13.0695    6.3705   20.0375 N   0  0  0  0  0  0  0  0  0  0  0  0
    9.1913    8.0876   21.8361 N   0  0  0  0  0  0  0  0  0  0  0  0
   10.4739    9.4813   20.2889 C   0  0  0  0  0  0  0  0  0  0  0  0
    7.5551    7.1270   23.1200 O   0  0  0  0  0  0  0  0  0  0  0  0
  1 11  4  0
  1 21  4  0
  2  4  1  0
  2  8  1  0
  2 11  1  0
  3 10  4  0
  3 14  4  0
  4  5  1  0
  4 18  2  0
  6 12  1  0
  6 17  4  0
  6 23  4  0
  7  9  1  0
  7 13  4  0
  7 19  4  0
  9 20  1  0
 10 19  4  0
 11 25  4  0
 13 14  4  0
 15 16  4  0
 15 17  4  0
 15 21  4  0
 16 24  1  0
 16 25  4  0
 20 24  1  0
 20 26  2  0
 21 23  4  0
 22 23  1  0
M  END
$$$$

 Created by Python create_sdf_string function

 26 28  0  0  0  0  0  0  0  0999 V2000
   12.4616    8.6700   19.4180 N   0  0  0  0  0  0  0  0  0  0  0  0
   11.8329   10.8148   18.6769 N   0  0  0  0  0  0  0  0  0  0  0  0
    6.1021    2.5564   21.0678 C   0  0  0  0  0  0  0  0  0  0  0  0
   10.9097   11.8051   18.4804 C   0  0  0  0  0  0  0  0  0  0  0  0
   11.2280   12.9135   17.5669 C   0  0  0  0  0  0  0  0  0  0  0  0
   12.3782    5.4231   20.7777 C   0  0  0  0  0  0  0  0  0  0  0  0
    7.7365    4.6508   21.6987 C   0  0  0  0  0  0  0  0  0  0  0  0
   13.0186   11.0102   18.0020 C   0  0  0  0  0  0  0  0  0  0  0  0
    8.6628    5.7088   21.8871 N   0  0  0  0  0  0  0  0  0  0  0  0
    5.6516    3.5258   21.9140 C   0  0  0  0  0  0  0  0  0  0  0  0
   11.5863    9.6815   19.4539 C   0  0  0  0  0  0  0  0  0  0  0  0
   12.9648    4.1543   20.9205 C   0  0  0  0  0  0  0  0  0  0  0  0
    8.2089    3.6265   20.8929 C   0  0  0  0  0  0  0  0  0  0  0  0
    7.3827    2.5724   20.5432 C   0  0  0  0  0  0  0  0  0  0  0  0
   11.1529    7.2750   20.8025 C   0  0  0  0  0  0  0  0  0  0  0  0
   10.2573    8.3215   20.9827 C   0  0  0  0  0  0  0  0  0  0  0  0
   11.1606    5.9378   21.2366 N   0  0  0  0  0  0  0  0  0  0  0  0
    9.8932   11.6736   19.0677 O   0  0  0  0  0  0  0  0  0  0  0  0
    6.4470    4.5850   22.2321 C   0  0  0  0  0  0  0  0  0  0  0  0
    8.4619    6.9895   22.2968 C   0  0  0  0  0  0  0  0  0  0  0  0
   12.2747    7.5102   20.0420 C   0  0  0  0  0  0  0  0  0  0  0  0
   14.2544    6.2142   19.4191 C   0  0  0  0  0  0  0  0  0  0  0  0
   13.0695    6.3705   20.0375 N   0  0  0  0  0  0  0  0  0  0  0  0
    9.1913    8.0876   21.8361 N   0  0  0  0  0  0  0  0  0  0  0  0
   10.4739    9.4813   20.2889 C   0  0  0  0  0  0  0  0  0  0  0  0
    7.5551    7.1270   23.1200 O   0  0  0  0  0  0  0  0  0  0  0  0
  1 11  4  0
  1 21  4  0
  2  4  1  0
  2  8  1  0
  2 11  1  0
  3 10  4  0
  3 14  4  0
  4  5  1  0
  4 18  2  0
  6 12  1  0
  6 17  4  0
  6 23  4  0
  7  9  1  0
  7 13  4  0
  7 19  4  0
  9 20  1  0
 10 19  4  0
 11 25  4  0
 13 14  4  0
 15 16  4  0
 15 17  4  0
 15 21  4  0
 16 24  1  0
 16 25  4  0
 20 24  1  0
 20 26  2  0
 21 23  4  0
 22 23  1  0
M  END
$$$$

 Created by Python create_sdf_string function

 26 28  0  0  0  0  0  0  0  0999 V2000
   12.4616    8.6700   19.4180 N   0  0  0  0  0  0  0  0  0  0  0  0
   11.8329   10.8148   18.6769 N   0  0  0  0  0  0  0  0  0  0  0  0
    6.1021    2.5564   21.0678 C   0  0  0  0  0  0  0  0  0  0  0  0
   10.9097   11.8051   18.4804 C   0  0  0  0  0  0  0  0  0  0  0  0
   11.2280   12.9135   17.5669 C   0  0  0  0  0  0  0  0  0  0  0  0
   12.3782    5.4231   20.7777 C   0  0  0  0  0  0  0  0  0  0  0  0
    7.7365    4.6508   21.6987 C   0  0  0  0  0  0  0  0  0  0  0  0
   13.0186   11.0102   18.0020 C   0  0  0  0  0  0  0  0  0  0  0  0
    8.6628    5.7088   21.8871 N   0  0  0  0  0  0  0  0  0  0  0  0
    5.6516    3.5258   21.9140 C   0  0  0  0  0  0  0  0  0  0  0  0
   11.5863    9.6815   19.4539 C   0  0  0  0  0  0  0  0  0  0  0  0
   12.9648    4.1543   20.9205 C   0  0  0  0  0  0  0  0  0  0  0  0
    8.2089    3.6265   20.8929 C   0  0  0  0  0  0  0  0  0  0  0  0
    7.3827    2.5724   20.5432 C   0  0  0  0  0  0  0  0  0  0  0  0
   11.1529    7.2750   20.8025 C   0  0  0  0  0  0  0  0  0  0  0  0
   10.2573    8.3215   20.9827 C   0  0  0  0  0  0  0  0  0  0  0  0
   11.1606    5.9378   21.2366 N   0  0  0  0  0  0  0  0  0  0  0  0
    9.8932   11.6736   19.0677 O   0  0  0  0  0  0  0  0  0  0  0  0
    6.4470    4.5850   22.2321 C   0  0  0  0  0  0  0  0  0  0  0  0
    8.4619    6.9895   22.2968 C   0  0  0  0  0  0  0  0  0  0  0  0
   12.2747    7.5102   20.0420 C   0  0  0  0  0  0  0  0  0  0  0  0
   14.2544    6.2142   19.4191 C   0  0  0  0  0  0  0  0  0  0  0  0
   13.0695    6.3705   20.0375 N   0  0  0  0  0  0  0  0  0  0  0  0
    9.1913    8.0876   21.8361 N   0  0  0  0  0  0  0  0  0  0  0  0
   10.4739    9.4813   20.2889 C   0  0  0  0  0  0  0  0  0  0  0  0
    7.5551    7.1270   23.1200 O   0  0  0  0  0  0  0  0  0  0  0  0
  1 11  4  0
  1 21  4  0
  2  4  1  0
  2  8  1  0
  2 11  1  0
  3 10  4  0
  3 14  4  0
  4  5  1  0
  4 18  2  0
  6 12  1  0
  6 17  4  0
  6 23  4  0
  7  9  1  0
  7 13  4  0
  7 19  4  0
  9 20  1  0
 10 19  4  0
 11 25  4  0
 13 14  4  0
 15 16  4  0
 15 17  4  0
 15 21  4  0
 16 24  1  0
 16 25  4  0
 20 24  1  0
 20 26  2  0
 21 23  4  0
 22 23  1  0
M  END
$$$$

 Created by Python create_sdf_string function

 26 28  0  0  0  0  0  0  0  0999 V2000
   12.4616    8.6700   19.4180 N   0  0  0  0  0  0  0  0  0  0  0  0
   11.8329   10.8148   18.6769 N   0  0  0  0  0  0  0  0  0  0  0  0
    6.1021    2.5564   21.0678 C   0  0  0  0  0  0  0  0  0  0  0  0
   10.9097   11.8051   18.4804 C   0  0  0  0  0  0  0  0  0  0  0  0
   11.2280   12.9135   17.5669 C   0  0  0  0  0  0  0  0  0  0  0  0
   12.3782    5.4231   20.7777 C   0  0  0  0  0  0  0  0  0  0  0  0
    7.7365    4.6508   21.6987 C   0  0  0  0  0  0  0  0  0  0  0  0
   13.0186   11.0102   18.0020 C   0  0  0  0  0  0  0  0  0  0  0  0
    8.6628    5.7088   21.8871 N   0  0  0  0  0  0  0  0  0  0  0  0
    5.6516    3.5258   21.9140 C   0  0  0  0  0  0  0  0  0  0  0  0
   11.5863    9.6815   19.4539 C   0  0  0  0  0  0  0  0  0  0  0  0
   12.9648    4.1543   20.9205 C   0  0  0  0  0  0  0  0  0  0  0  0
    8.2089    3.6265   20.8929 C   0  0  0  0  0  0  0  0  0  0  0  0
    7.3827    2.5724   20.5432 C   0  0  0  0  0  0  0  0  0  0  0  0
   11.1529    7.2750   20.8025 C   0  0  0  0  0  0  0  0  0  0  0  0
   10.2573    8.3215   20.9827 C   0  0  0  0  0  0  0  0  0  0  0  0
   11.1606    5.9378   21.2366 N   0  0  0  0  0  0  0  0  0  0  0  0
    9.8932   11.6736   19.0677 O   0  0  0  0  0  0  0  0  0  0  0  0
    6.4470    4.5850   22.2321 C   0  0  0  0  0  0  0  0  0  0  0  0
    8.4619    6.9895   22.2968 C   0  0  0  0  0  0  0  0  0  0  0  0
   12.2747    7.5102   20.0420 C   0  0  0  0  0  0  0  0  0  0  0  0
   14.2544    6.2142   19.4191 C   0  0  0  0  0  0  0  0  0  0  0  0
   13.0695    6.3705   20.0375 N   0  0  0  0  0  0  0  0  0  0  0  0
    9.1913    8.0876   21.8361 N   0  0  0  0  0  0  0  0  0  0  0  0
   10.4739    9.4813   20.2889 C   0  0  0  0  0  0  0  0  0  0  0  0
    7.5551    7.1270   23.1200 O   0  0  0  0  0  0  0  0  0  0  0  0
  1 11  4  0
  1 21  4  0
  2  4  1  0
  2  8  1  0
  2 11  1  0
  3 10  4  0
  3 14  4  0
  4  5  1  0
  4 18  2  0
  6 12  1  0
  6 17  4  0
  6 23  4  0
  7  9  1  0
  7 13  4  0
  7 19  4  0
  9 20  1  0
 10 19  4  0
 11 25  4  0
 13 14  4  0
 15 16  4  0
 15 17  4  0
 15 21  4  0
 16 24  1  0
 16 25  4  0
 20 24  1  0
 20 26  2  0
 21 23  4  0
 22 23  1  0
M  END
$$$$

 Created by Python create_sdf_string function

 26 28  0  0  0  0  0  0  0  0999 V2000
   12.4616    8.6700   19.4180 N   0  0  0  0  0  0  0  0  0  0  0  0
   11.8329   10.8148   18.6769 N   0  0  0  0  0  0  0  0  0  0  0  0
    6.1021    2.5564   21.0678 C   0  0  0  0  0  0  0  0  0  0  0  0
   10.9097   11.8051   18.4804 C   0  0  0  0  0  0  0  0  0  0  0  0
   11.2280   12.9135   17.5669 C   0  0  0  0  0  0  0  0  0  0  0  0
   12.3782    5.4231   20.7777 C   0  0  0  0  0  0  0  0  0  0  0  0
    7.7365    4.6508   21.6987 C   0  0  0  0  0  0  0  0  0  0  0  0
   13.0186   11.0102   18.0020 C   0  0  0  0  0  0  0  0  0  0  0  0
    8.6628    5.7088   21.8871 N   0  0  0  0  0  0  0  0  0  0  0  0
    5.6516    3.5258   21.9140 C   0  0  0  0  0  0  0  0  0  0  0  0
   11.5863    9.6815   19.4539 C   0  0  0  0  0  0  0  0  0  0  0  0
   12.9648    4.1543   20.9205 C   0  0  0  0  0  0  0  0  0  0  0  0
    8.2089    3.6265   20.8929 C   0  0  0  0  0  0  0  0  0  0  0  0
    7.3827    2.5724   20.5432 C   0  0  0  0  0  0  0  0  0  0  0  0
   11.1529    7.2750   20.8025 C   0  0  0  0  0  0  0  0  0  0  0  0
   10.2573    8.3215   20.9827 C   0  0  0  0  0  0  0  0  0  0  0  0
   11.1606    5.9378   21.2366 N   0  0  0  0  0  0  0  0  0  0  0  0
    9.8932   11.6736   19.0677 O   0  0  0  0  0  0  0  0  0  0  0  0
    6.4470    4.5850   22.2321 C   0  0  0  0  0  0  0  0  0  0  0  0
    8.4619    6.9895   22.2968 C   0  0  0  0  0  0  0  0  0  0  0  0
   12.2747    7.5102   20.0420 C   0  0  0  0  0  0  0  0  0  0  0  0
   14.2544    6.2142   19.4191 C   0  0  0  0  0  0  0  0  0  0  0  0
   13.0695    6.3705   20.0375 N   0  0  0  0  0  0  0  0  0  0  0  0
    9.1913    8.0876   21.8361 N   0  0  0  0  0  0  0  0  0  0  0  0
   10.4739    9.4813   20.2889 C   0  0  0  0  0  0  0  0  0  0  0  0
    7.5551    7.1270   23.1200 O   0  0  0  0  0  0  0  0  0  0  0  0
  1 11  4  0
  1 21  4  0
  2  4  1  0
  2  8  1  0
  2 11  1  0
  3 10  4  0
  3 14  4  0
  4  5  1  0
  4 18  2  0
  6 12  1  0
  6 17  4  0
  6 23  4  0
  7  9  1  0
  7 13  4  0
  7 19  4  0
  9 20  1  0
 10 19  4  0
 11 25  4  0
 13 14  4  0
 15 16  4  0
 15 17  4  0
 15 21  4  0
 16 24  1  0
 16 25  4  0
 20 24  1  0
 20 26  2  0
 21 23  4  0
 22 23  1  0
M  END
$$$$

 Created by Python create_sdf_string function

 26 28  0  0  0  0  0  0  0  0999 V2000
   12.4616    8.6700   19.4180 N   0  0  0  0  0  0  0  0  0  0  0  0
   11.8329   10.8148   18.6769 N   0  0  0  0  0  0  0  0  0  0  0  0
    6.1021    2.5564   21.0678 C   0  0  0  0  0  0  0  0  0  0  0  0
   10.9097   11.8051   18.4804 C   0  0  0  0  0  0  0  0  0  0  0  0
   11.2280   12.9135   17.5669 C   0  0  0  0  0  0  0  0  0  0  0  0
   12.3782    5.4231   20.7777 C   0  0  0  0  0  0  0  0  0  0  0  0
    7.7365    4.6508   21.6987 C   0  0  0  0  0  0  0  0  0  0  0  0
   13.0186   11.0102   18.0020 C   0  0  0  0  0  0  0  0  0  0  0  0
    8.6628    5.7088   21.8871 N   0  0  0  0  0  0  0  0  0  0  0  0
    5.6516    3.5258   21.9140 C   0  0  0  0  0  0  0  0  0  0  0  0
   11.5863    9.6815   19.4539 C   0  0  0  0  0  0  0  0  0  0  0  0
   12.9648    4.1543   20.9205 C   0  0  0  0  0  0  0  0  0  0  0  0
    8.2089    3.6265   20.8929 C   0  0  0  0  0  0  0  0  0  0  0  0
    7.3827    2.5724   20.5432 C   0  0  0  0  0  0  0  0  0  0  0  0
   11.1529    7.2750   20.8025 C   0  0  0  0  0  0  0  0  0  0  0  0
   10.2573    8.3215   20.9827 C   0  0  0  0  0  0  0  0  0  0  0  0
   11.1606    5.9378   21.2366 N   0  0  0  0  0  0  0  0  0  0  0  0
    9.8932   11.6736   19.0677 O   0  0  0  0  0  0  0  0  0  0  0  0
    6.4470    4.5850   22.2321 C   0  0  0  0  0  0  0  0  0  0  0  0
    8.4619    6.9895   22.2968 C   0  0  0  0  0  0  0  0  0  0  0  0
   12.2747    7.5102   20.0420 C   0  0  0  0  0  0  0  0  0  0  0  0
   14.2544    6.2142   19.4191 C   0  0  0  0  0  0  0  0  0  0  0  0
   13.0695    6.3705   20.0375 N   0  0  0  0  0  0  0  0  0  0  0  0
    9.1913    8.0876   21.8361 N   0  0  0  0  0  0  0  0  0  0  0  0
   10.4739    9.4813   20.2889 C   0  0  0  0  0  0  0  0  0  0  0  0
    7.5551    7.1270   23.1200 O   0  0  0  0  0  0  0  0  0  0  0  0
  1 11  4  0
  1 21  4  0
  2  4  1  0
  2  8  1  0
  2 11  1  0
  3 10  4  0
  3 14  4  0
  4  5  1  0
  4 18  2  0
  6 12  1  0
  6 17  4  0
  6 23  4  0
  7  9  1  0
  7 13  4  0
  7 19  4  0
  9 20  1  0
 10 19  4  0
 11 25  4  0
 13 14  4  0
 15 16  4  0
 15 17  4  0
 15 21  4  0
 16 24  1  0
 16 25  4  0
 20 24  1  0
 20 26  2  0
 21 23  4  0
 22 23  1  0
M  END
$$$$

 Created by Python create_sdf_string function

 26 28  0  0  0  0  0  0  0  0999 V2000
   12.4616    8.6700   19.4180 N   0  0  0  0  0  0  0  0  0  0  0  0
   11.8329   10.8148   18.6769 N   0  0  0  0  0  0  0  0  0  0  0  0
    6.1021    2.5564   21.0678 C   0  0  0  0  0  0  0  0  0  0  0  0
   10.9097   11.8051   18.4804 C   0  0  0  0  0  0  0  0  0  0  0  0
   11.2280   12.9135   17.5669 C   0  0  0  0  0  0  0  0  0  0  0  0
   12.3782    5.4231   20.7777 C   0  0  0  0  0  0  0  0  0  0  0  0
    7.7365    4.6508   21.6987 C   0  0  0  0  0  0  0  0  0  0  0  0
   13.0186   11.0102   18.0020 C   0  0  0  0  0  0  0  0  0  0  0  0
    8.6628    5.7088   21.8871 N   0  0  0  0  0  0  0  0  0  0  0  0
    5.6516    3.5258   21.9140 C   0  0  0  0  0  0  0  0  0  0  0  0
   11.5863    9.6815   19.4539 C   0  0  0  0  0  0  0  0  0  0  0  0
   12.9648    4.1543   20.9205 C   0  0  0  0  0  0  0  0  0  0  0  0
    8.2089    3.6265   20.8929 C   0  0  0  0  0  0  0  0  0  0  0  0
    7.3827    2.5724   20.5432 C   0  0  0  0  0  0  0  0  0  0  0  0
   11.1529    7.2750   20.8025 C   0  0  0  0  0  0  0  0  0  0  0  0
   10.2573    8.3215   20.9827 C   0  0  0  0  0  0  0  0  0  0  0  0
   11.1606    5.9378   21.2366 N   0  0  0  0  0  0  0  0  0  0  0  0
    9.8932   11.6736   19.0677 O   0  0  0  0  0  0  0  0  0  0  0  0
    6.4470    4.5850   22.2321 C   0  0  0  0  0  0  0  0  0  0  0  0
    8.4619    6.9895   22.2968 C   0  0  0  0  0  0  0  0  0  0  0  0
   12.2747    7.5102   20.0420 C   0  0  0  0  0  0  0  0  0  0  0  0
   14.2544    6.2142   19.4191 C   0  0  0  0  0  0  0  0  0  0  0  0
   13.0695    6.3705   20.0375 N   0  0  0  0  0  0  0  0  0  0  0  0
    9.1913    8.0876   21.8361 N   0  0  0  0  0  0  0  0  0  0  0  0
   10.4739    9.4813   20.2889 C   0  0  0  0  0  0  0  0  0  0  0  0
    7.5551    7.1270   23.1200 O   0  0  0  0  0  0  0  0  0  0  0  0
  1 11  4  0
  1 21  4  0
  2  4  1  0
  2  8  1  0
  2 11  1  0
  3 10  4  0
  3 14  4  0
  4  5  1  0
  4 18  2  0
  6 12  1  0
  6 17  4  0
  6 23  4  0
  7  9  1  0
  7 13  4  0
  7 19  4  0
  9 20  1  0
 10 19  4  0
 11 25  4  0
 13 14  4  0
 15 16  4  0
 15 17  4  0
 15 21  4  0
 16 24  1  0
 16 25  4  0
 20 24  1  0
 20 26  2  0
 21 23  4  0
 22 23  1  0
M  END
$$$$

 Created by Python create_sdf_string function

 26 28  0  0  0  0  0  0  0  0999 V2000
   12.4616    8.6700   19.4180 N   0  0  0  0  0  0  0  0  0  0  0  0
   11.8329   10.8148   18.6769 N   0  0  0  0  0  0  0  0  0  0  0  0
    6.1021    2.5564   21.0678 C   0  0  0  0  0  0  0  0  0  0  0  0
   10.9097   11.8051   18.4804 C   0  0  0  0  0  0  0  0  0  0  0  0
   11.2280   12.9135   17.5669 C   0  0  0  0  0  0  0  0  0  0  0  0
   12.3782    5.4231   20.7777 C   0  0  0  0  0  0  0  0  0  0  0  0
    7.7365    4.6508   21.6987 C   0  0  0  0  0  0  0  0  0  0  0  0
   13.0186   11.0102   18.0020 C   0  0  0  0  0  0  0  0  0  0  0  0
    8.6628    5.7088   21.8871 N   0  0  0  0  0  0  0  0  0  0  0  0
    5.6516    3.5258   21.9140 C   0  0  0  0  0  0  0  0  0  0  0  0
   11.5863    9.6815   19.4539 C   0  0  0  0  0  0  0  0  0  0  0  0
   12.9648    4.1543   20.9205 C   0  0  0  0  0  0  0  0  0  0  0  0
    8.2089    3.6265   20.8929 C   0  0  0  0  0  0  0  0  0  0  0  0
    7.3827    2.5724   20.5432 C   0  0  0  0  0  0  0  0  0  0  0  0
   11.1529    7.2750   20.8025 C   0  0  0  0  0  0  0  0  0  0  0  0
   10.2573    8.3215   20.9827 C   0  0  0  0  0  0  0  0  0  0  0  0
   11.1606    5.9378   21.2366 N   0  0  0  0  0  0  0  0  0  0  0  0
    9.8932   11.6736   19.0677 O   0  0  0  0  0  0  0  0  0  0  0  0
    6.4470    4.5850   22.2321 C   0  0  0  0  0  0  0  0  0  0  0  0
    8.4619    6.9895   22.2968 C   0  0  0  0  0  0  0  0  0  0  0  0
   12.2747    7.5102   20.0420 C   0  0  0  0  0  0  0  0  0  0  0  0
   14.2544    6.2142   19.4191 C   0  0  0  0  0  0  0  0  0  0  0  0
   13.0695    6.3705   20.0375 N   0  0  0  0  0  0  0  0  0  0  0  0
    9.1913    8.0876   21.8361 N   0  0  0  0  0  0  0  0  0  0  0  0
   10.4739    9.4813   20.2889 C   0  0  0  0  0  0  0  0  0  0  0  0
    7.5551    7.1270   23.1200 O   0  0  0  0  0  0  0  0  0  0  0  0
  1 11  4  0
  1 21  4  0
  2  4  1  0
  2  8  1  0
  2 11  1  0
  3 10  4  0
  3 14  4  0
  4  5  1  0
  4 18  2  0
  6 12  1  0
  6 17  4  0
  6 23  4  0
  7  9  1  0
  7 13  4  0
  7 19  4  0
  9 20  1  0
 10 19  4  0
 11 25  4  0
 13 14  4  0
 15 16  4  0
 15 17  4  0
 15 21  4  0
 16 24  1  0
 16 25  4  0
 20 24  1  0
 20 26  2  0
 21 23  4  0
 22 23  1  0
M  END
$$$$

 Created by Python create_sdf_string function

 26 28  0  0  0  0  0  0  0  0999 V2000
   12.4616    8.6700   19.4180 N   0  0  0  0  0  0  0  0  0  0  0  0
   11.8329   10.8148   18.6769 N   0  0  0  0  0  0  0  0  0  0  0  0
    6.1021    2.5564   21.0678 C   0  0  0  0  0  0  0  0  0  0  0  0
   10.9097   11.8051   18.4804 C   0  0  0  0  0  0  0  0  0  0  0  0
   11.2280   12.9135   17.5669 C   0  0  0  0  0  0  0  0  0  0  0  0
   12.3782    5.4231   20.7777 C   0  0  0  0  0  0  0  0  0  0  0  0
    7.7365    4.6508   21.6987 C   0  0  0  0  0  0  0  0  0  0  0  0
   13.0186   11.0102   18.0020 C   0  0  0  0  0  0  0  0  0  0  0  0
    8.6628    5.7088   21.8871 N   0  0  0  0  0  0  0  0  0  0  0  0
    5.6516    3.5258   21.9140 C   0  0  0  0  0  0  0  0  0  0  0  0
   11.5863    9.6815   19.4539 C   0  0  0  0  0  0  0  0  0  0  0  0
   12.9648    4.1543   20.9205 C   0  0  0  0  0  0  0  0  0  0  0  0
    8.2089    3.6265   20.8929 C   0  0  0  0  0  0  0  0  0  0  0  0
    7.3827    2.5724   20.5432 C   0  0  0  0  0  0  0  0  0  0  0  0
   11.1529    7.2750   20.8025 C   0  0  0  0  0  0  0  0  0  0  0  0
   10.2573    8.3215   20.9827 C   0  0  0  0  0  0  0  0  0  0  0  0
   11.1606    5.9378   21.2366 N   0  0  0  0  0  0  0  0  0  0  0  0
    9.8932   11.6736   19.0677 O   0  0  0  0  0  0  0  0  0  0  0  0
    6.4470    4.5850   22.2321 C   0  0  0  0  0  0  0  0  0  0  0  0
    8.4619    6.9895   22.2968 C   0  0  0  0  0  0  0  0  0  0  0  0
   12.2747    7.5102   20.0420 C   0  0  0  0  0  0  0  0  0  0  0  0
   14.2544    6.2142   19.4191 C   0  0  0  0  0  0  0  0  0  0  0  0
   13.0695    6.3705   20.0375 N   0  0  0  0  0  0  0  0  0  0  0  0
    9.1913    8.0876   21.8361 N   0  0  0  0  0  0  0  0  0  0  0  0
   10.4739    9.4813   20.2889 C   0  0  0  0  0  0  0  0  0  0  0  0
    7.5551    7.1270   23.1200 O   0  0  0  0  0  0  0  0  0  0  0  0
  1 11  4  0
  1 21  4  0
  2  4  1  0
  2  8  1  0
  2 11  1  0
  3 10  4  0
  3 14  4  0
  4  5  1  0
  4 18  2  0
  6 12  1  0
  6 17  4  0
  6 23  4  0
  7  9  1  0
  7 13  4  0
  7 19  4  0
  9 20  1  0
 10 19  4  0
 11 25  4  0
 13 14  4  0
 15 16  4  0
 15 17  4  0
 15 21  4  0
 16 24  1  0
 16 25  4  0
 20 24  1  0
 20 26  2  0
 21 23  4  0
 22 23  1  0
M  END
$$$$

 Created by Python create_sdf_string function

 26 28  0  0  0  0  0  0  0  0999 V2000
   12.4616    8.6700   19.4180 N   0  0  0  0  0  0  0  0  0  0  0  0
   11.8329   10.8148   18.6769 N   0  0  0  0  0  0  0  0  0  0  0  0
    6.1021    2.5564   21.0678 C   0  0  0  0  0  0  0  0  0  0  0  0
   10.9097   11.8051   18.4804 C   0  0  0  0  0  0  0  0  0  0  0  0
   11.2280   12.9135   17.5669 C   0  0  0  0  0  0  0  0  0  0  0  0
   12.3782    5.4231   20.7777 C   0  0  0  0  0  0  0  0  0  0  0  0
    7.7365    4.6508   21.6987 C   0  0  0  0  0  0  0  0  0  0  0  0
   13.0186   11.0102   18.0020 C   0  0  0  0  0  0  0  0  0  0  0  0
    8.6628    5.7088   21.8871 N   0  0  0  0  0  0  0  0  0  0  0  0
    5.6516    3.5258   21.9140 C   0  0  0  0  0  0  0  0  0  0  0  0
   11.5863    9.6815   19.4539 C   0  0  0  0  0  0  0  0  0  0  0  0
   12.9648    4.1543   20.9205 C   0  0  0  0  0  0  0  0  0  0  0  0
    8.2089    3.6265   20.8929 C   0  0  0  0  0  0  0  0  0  0  0  0
    7.3827    2.5724   20.5432 C   0  0  0  0  0  0  0  0  0  0  0  0
   11.1529    7.2750   20.8025 C   0  0  0  0  0  0  0  0  0  0  0  0
   10.2573    8.3215   20.9827 C   0  0  0  0  0  0  0  0  0  0  0  0
   11.1606    5.9378   21.2366 N   0  0  0  0  0  0  0  0  0  0  0  0
    9.8932   11.6736   19.0677 O   0  0  0  0  0  0  0  0  0  0  0  0
    6.4470    4.5850   22.2321 C   0  0  0  0  0  0  0  0  0  0  0  0
    8.4619    6.9895   22.2968 C   0  0  0  0  0  0  0  0  0  0  0  0
   12.2747    7.5102   20.0420 C   0  0  0  0  0  0  0  0  0  0  0  0
   14.2544    6.2142   19.4191 C   0  0  0  0  0  0  0  0  0  0  0  0
   13.0695    6.3705   20.0375 N   0  0  0  0  0  0  0  0  0  0  0  0
    9.1913    8.0876   21.8361 N   0  0  0  0  0  0  0  0  0  0  0  0
   10.4739    9.4813   20.2889 C   0  0  0  0  0  0  0  0  0  0  0  0
    7.5551    7.1270   23.1200 O   0  0  0  0  0  0  0  0  0  0  0  0
  1 11  4  0
  1 21  4  0
  2  4  1  0
  2  8  1  0
  2 11  1  0
  3 10  4  0
  3 14  4  0
  4  5  1  0
  4 18  2  0
  6 12  1  0
  6 17  4  0
  6 23  4  0
  7  9  1  0
  7 13  4  0
  7 19  4  0
  9 20  1  0
 10 19  4  0
 11 25  4  0
 13 14  4  0
 15 16  4  0
 15 17  4  0
 15 21  4  0
 16 24  1  0
 16 25  4  0
 20 24  1  0
 20 26  2  0
 21 23  4  0
 22 23  1  0
M  END
$$$$

 Created by Python create_sdf_string function

 26 28  0  0  0  0  0  0  0  0999 V2000
   12.4616    8.6700   19.4180 N   0  0  0  0  0  0  0  0  0  0  0  0
   11.8329   10.8148   18.6769 N   0  0  0  0  0  0  0  0  0  0  0  0
    6.1021    2.5564   21.0678 C   0  0  0  0  0  0  0  0  0  0  0  0
   10.9097   11.8051   18.4804 C   0  0  0  0  0  0  0  0  0  0  0  0
   11.2280   12.9135   17.5669 C   0  0  0  0  0  0  0  0  0  0  0  0
   12.3782    5.4231   20.7777 C   0  0  0  0  0  0  0  0  0  0  0  0
    7.7365    4.6508   21.6987 C   0  0  0  0  0  0  0  0  0  0  0  0
   13.0186   11.0102   18.0020 C   0  0  0  0  0  0  0  0  0  0  0  0
    8.6628    5.7088   21.8871 N   0  0  0  0  0  0  0  0  0  0  0  0
    5.6516    3.5258   21.9140 C   0  0  0  0  0  0  0  0  0  0  0  0
   11.5863    9.6815   19.4539 C   0  0  0  0  0  0  0  0  0  0  0  0
   12.9648    4.1543   20.9205 C   0  0  0  0  0  0  0  0  0  0  0  0
    8.2089    3.6265   20.8929 C   0  0  0  0  0  0  0  0  0  0  0  0
    7.3827    2.5724   20.5432 C   0  0  0  0  0  0  0  0  0  0  0  0
   11.1529    7.2750   20.8025 C   0  0  0  0  0  0  0  0  0  0  0  0
   10.2573    8.3215   20.9827 C   0  0  0  0  0  0  0  0  0  0  0  0
   11.1606    5.9378   21.2366 N   0  0  0  0  0  0  0  0  0  0  0  0
    9.8932   11.6736   19.0677 O   0  0  0  0  0  0  0  0  0  0  0  0
    6.4470    4.5850   22.2321 C   0  0  0  0  0  0  0  0  0  0  0  0
    8.4619    6.9895   22.2968 C   0  0  0  0  0  0  0  0  0  0  0  0
   12.2747    7.5102   20.0420 C   0  0  0  0  0  0  0  0  0  0  0  0
   14.2544    6.2142   19.4191 C   0  0  0  0  0  0  0  0  0  0  0  0
   13.0695    6.3705   20.0375 N   0  0  0  0  0  0  0  0  0  0  0  0
    9.1913    8.0876   21.8361 N   0  0  0  0  0  0  0  0  0  0  0  0
   10.4739    9.4813   20.2889 C   0  0  0  0  0  0  0  0  0  0  0  0
    7.5551    7.1270   23.1200 O   0  0  0  0  0  0  0  0  0  0  0  0
  1 11  4  0
  1 21  4  0
  2  4  1  0
  2  8  1  0
  2 11  1  0
  3 10  4  0
  3 14  4  0
  4  5  1  0
  4 18  2  0
  6 12  1  0
  6 17  4  0
  6 23  4  0
  7  9  1  0
  7 13  4  0
  7 19  4  0
  9 20  1  0
 10 19  4  0
 11 25  4  0
 13 14  4  0
 15 16  4  0
 15 17  4  0
 15 21  4  0
 16 24  1  0
 16 25  4  0
 20 24  1  0
 20 26  2  0
 21 23  4  0
 22 23  1  0
M  END
$$$$

 Created by Python create_sdf_string function

 26 28  0  0  0  0  0  0  0  0999 V2000
   12.4616    8.6700   19.4180 N   0  0  0  0  0  0  0  0  0  0  0  0
   11.8329   10.8148   18.6769 N   0  0  0  0  0  0  0  0  0  0  0  0
    6.1021    2.5564   21.0678 C   0  0  0  0  0  0  0  0  0  0  0  0
   10.9097   11.8051   18.4804 C   0  0  0  0  0  0  0  0  0  0  0  0
   11.2280   12.9135   17.5669 C   0  0  0  0  0  0  0  0  0  0  0  0
   12.3782    5.4231   20.7777 C   0  0  0  0  0  0  0  0  0  0  0  0
    7.7365    4.6508   21.6987 C   0  0  0  0  0  0  0  0  0  0  0  0
   13.0186   11.0102   18.0020 C   0  0  0  0  0  0  0  0  0  0  0  0
    8.6628    5.7088   21.8871 N   0  0  0  0  0  0  0  0  0  0  0  0
    5.6516    3.5258   21.9140 C   0  0  0  0  0  0  0  0  0  0  0  0
   11.5863    9.6815   19.4539 C   0  0  0  0  0  0  0  0  0  0  0  0
   12.9648    4.1543   20.9205 C   0  0  0  0  0  0  0  0  0  0  0  0
    8.2089    3.6265   20.8929 C   0  0  0  0  0  0  0  0  0  0  0  0
    7.3827    2.5724   20.5432 C   0  0  0  0  0  0  0  0  0  0  0  0
   11.1529    7.2750   20.8025 C   0  0  0  0  0  0  0  0  0  0  0  0
   10.2573    8.3215   20.9827 C   0  0  0  0  0  0  0  0  0  0  0  0
   11.1606    5.9378   21.2366 N   0  0  0  0  0  0  0  0  0  0  0  0
    9.8932   11.6736   19.0677 O   0  0  0  0  0  0  0  0  0  0  0  0
    6.4470    4.5850   22.2321 C   0  0  0  0  0  0  0  0  0  0  0  0
    8.4619    6.9895   22.2968 C   0  0  0  0  0  0  0  0  0  0  0  0
   12.2747    7.5102   20.0420 C   0  0  0  0  0  0  0  0  0  0  0  0
   14.2544    6.2142   19.4191 C   0  0  0  0  0  0  0  0  0  0  0  0
   13.0695    6.3705   20.0375 N   0  0  0  0  0  0  0  0  0  0  0  0
    9.1913    8.0876   21.8361 N   0  0  0  0  0  0  0  0  0  0  0  0
   10.4739    9.4813   20.2889 C   0  0  0  0  0  0  0  0  0  0  0  0
    7.5551    7.1270   23.1200 O   0  0  0  0  0  0  0  0  0  0  0  0
  1 11  4  0
  1 21  4  0
  2  4  1  0
  2  8  1  0
  2 11  1  0
  3 10  4  0
  3 14  4  0
  4  5  1  0
  4 18  2  0
  6 12  1  0
  6 17  4  0
  6 23  4  0
  7  9  1  0
  7 13  4  0
  7 19  4  0
  9 20  1  0
 10 19  4  0
 11 25  4  0
 13 14  4  0
 15 16  4  0
 15 17  4  0
 15 21  4  0
 16 24  1  0
 16 25  4  0
 20 24  1  0
 20 26  2  0
 21 23  4  0
 22 23  1  0
M  END
$$$$

 Created by Python create_sdf_string function

 26 28  0  0  0  0  0  0  0  0999 V2000
   12.4616    8.6700   19.4180 N   0  0  0  0  0  0  0  0  0  0  0  0
   11.8329   10.8148   18.6769 N   0  0  0  0  0  0  0  0  0  0  0  0
    6.1021    2.5564   21.0678 C   0  0  0  0  0  0  0  0  0  0  0  0
   10.9097   11.8051   18.4804 C   0  0  0  0  0  0  0  0  0  0  0  0
   11.2280   12.9135   17.5669 C   0  0  0  0  0  0  0  0  0  0  0  0
   12.3782    5.4231   20.7777 C   0  0  0  0  0  0  0  0  0  0  0  0
    7.7365    4.6508   21.6987 C   0  0  0  0  0  0  0  0  0  0  0  0
   13.0186   11.0102   18.0020 C   0  0  0  0  0  0  0  0  0  0  0  0
    8.6628    5.7088   21.8871 N   0  0  0  0  0  0  0  0  0  0  0  0
    5.6516    3.5258   21.9140 C   0  0  0  0  0  0  0  0  0  0  0  0
   11.5863    9.6815   19.4539 C   0  0  0  0  0  0  0  0  0  0  0  0
   12.9648    4.1543   20.9205 C   0  0  0  0  0  0  0  0  0  0  0  0
    8.2089    3.6265   20.8929 C   0  0  0  0  0  0  0  0  0  0  0  0
    7.3827    2.5724   20.5432 C   0  0  0  0  0  0  0  0  0  0  0  0
   11.1529    7.2750   20.8025 C   0  0  0  0  0  0  0  0  0  0  0  0
   10.2573    8.3215   20.9827 C   0  0  0  0  0  0  0  0  0  0  0  0
   11.1606    5.9378   21.2366 N   0  0  0  0  0  0  0  0  0  0  0  0
    9.8932   11.6736   19.0677 O   0  0  0  0  0  0  0  0  0  0  0  0
    6.4470    4.5850   22.2321 C   0  0  0  0  0  0  0  0  0  0  0  0
    8.4619    6.9895   22.2968 C   0  0  0  0  0  0  0  0  0  0  0  0
   12.2747    7.5102   20.0420 C   0  0  0  0  0  0  0  0  0  0  0  0
   14.2544    6.2142   19.4191 C   0  0  0  0  0  0  0  0  0  0  0  0
   13.0695    6.3705   20.0375 N   0  0  0  0  0  0  0  0  0  0  0  0
    9.1913    8.0876   21.8361 N   0  0  0  0  0  0  0  0  0  0  0  0
   10.4739    9.4813   20.2889 C   0  0  0  0  0  0  0  0  0  0  0  0
    7.5551    7.1270   23.1200 O   0  0  0  0  0  0  0  0  0  0  0  0
  1 11  4  0
  1 21  4  0
  2  4  1  0
  2  8  1  0
  2 11  1  0
  3 10  4  0
  3 14  4  0
  4  5  1  0
  4 18  2  0
  6 12  1  0
  6 17  4  0
  6 23  4  0
  7  9  1  0
  7 13  4  0
  7 19  4  0
  9 20  1  0
 10 19  4  0
 11 25  4  0
 13 14  4  0
 15 16  4  0
 15 17  4  0
 15 21  4  0
 16 24  1  0
 16 25  4  0
 20 24  1  0
 20 26  2  0
 21 23  4  0
 22 23  1  0
M  END
$$$$

 Created by Python create_sdf_string function

 26 28  0  0  0  0  0  0  0  0999 V2000
   12.4616    8.6700   19.4180 N   0  0  0  0  0  0  0  0  0  0  0  0
   11.8329   10.8148   18.6769 N   0  0  0  0  0  0  0  0  0  0  0  0
    6.1021    2.5564   21.0678 C   0  0  0  0  0  0  0  0  0  0  0  0
   10.9097   11.8051   18.4804 C   0  0  0  0  0  0  0  0  0  0  0  0
   11.2280   12.9135   17.5669 C   0  0  0  0  0  0  0  0  0  0  0  0
   12.3782    5.4231   20.7777 C   0  0  0  0  0  0  0  0  0  0  0  0
    7.7365    4.6508   21.6987 C   0  0  0  0  0  0  0  0  0  0  0  0
   13.0186   11.0102   18.0020 C   0  0  0  0  0  0  0  0  0  0  0  0
    8.6628    5.7088   21.8871 N   0  0  0  0  0  0  0  0  0  0  0  0
    5.6516    3.5258   21.9140 C   0  0  0  0  0  0  0  0  0  0  0  0
   11.5863    9.6815   19.4539 C   0  0  0  0  0  0  0  0  0  0  0  0
   12.9648    4.1543   20.9205 C   0  0  0  0  0  0  0  0  0  0  0  0
    8.2089    3.6265   20.8929 C   0  0  0  0  0  0  0  0  0  0  0  0
    7.3827    2.5724   20.5432 C   0  0  0  0  0  0  0  0  0  0  0  0
   11.1529    7.2750   20.8025 C   0  0  0  0  0  0  0  0  0  0  0  0
   10.2573    8.3215   20.9827 C   0  0  0  0  0  0  0  0  0  0  0  0
   11.1606    5.9378   21.2366 N   0  0  0  0  0  0  0  0  0  0  0  0
    9.8932   11.6736   19.0677 O   0  0  0  0  0  0  0  0  0  0  0  0
    6.4470    4.5850   22.2321 C   0  0  0  0  0  0  0  0  0  0  0  0
    8.4619    6.9895   22.2968 C   0  0  0  0  0  0  0  0  0  0  0  0
   12.2747    7.5102   20.0420 C   0  0  0  0  0  0  0  0  0  0  0  0
   14.2544    6.2142   19.4191 C   0  0  0  0  0  0  0  0  0  0  0  0
   13.0695    6.3705   20.0375 N   0  0  0  0  0  0  0  0  0  0  0  0
    9.1913    8.0876   21.8361 N   0  0  0  0  0  0  0  0  0  0  0  0
   10.4739    9.4813   20.2889 C   0  0  0  0  0  0  0  0  0  0  0  0
    7.5551    7.1270   23.1200 O   0  0  0  0  0  0  0  0  0  0  0  0
  1 11  4  0
  1 21  4  0
  2  4  1  0
  2  8  1  0
  2 11  1  0
  3 10  4  0
  3 14  4  0
  4  5  1  0
  4 18  2  0
  6 12  1  0
  6 17  4  0
  6 23  4  0
  7  9  1  0
  7 13  4  0
  7 19  4  0
  9 20  1  0
 10 19  4  0
 11 25  4  0
 13 14  4  0
 15 16  4  0
 15 17  4  0
 15 21  4  0
 16 24  1  0
 16 25  4  0
 20 24  1  0
 20 26  2  0
 21 23  4  0
 22 23  1  0
M  END
$$$$

 Created by Python create_sdf_string function

 26 28  0  0  0  0  0  0  0  0999 V2000
   12.4616    8.6700   19.4180 N   0  0  0  0  0  0  0  0  0  0  0  0
   11.8329   10.8148   18.6769 N   0  0  0  0  0  0  0  0  0  0  0  0
    6.1021    2.5564   21.0678 C   0  0  0  0  0  0  0  0  0  0  0  0
   10.9097   11.8051   18.4804 C   0  0  0  0  0  0  0  0  0  0  0  0
   11.2280   12.9135   17.5669 C   0  0  0  0  0  0  0  0  0  0  0  0
   12.3782    5.4231   20.7777 C   0  0  0  0  0  0  0  0  0  0  0  0
    7.7365    4.6508   21.6987 C   0  0  0  0  0  0  0  0  0  0  0  0
   13.0186   11.0102   18.0020 C   0  0  0  0  0  0  0  0  0  0  0  0
    8.6628    5.7088   21.8871 N   0  0  0  0  0  0  0  0  0  0  0  0
    5.6516    3.5258   21.9140 C   0  0  0  0  0  0  0  0  0  0  0  0
   11.5863    9.6815   19.4539 C   0  0  0  0  0  0  0  0  0  0  0  0
   12.9648    4.1543   20.9205 C   0  0  0  0  0  0  0  0  0  0  0  0
    8.2089    3.6265   20.8929 C   0  0  0  0  0  0  0  0  0  0  0  0
    7.3827    2.5724   20.5432 C   0  0  0  0  0  0  0  0  0  0  0  0
   11.1529    7.2750   20.8025 C   0  0  0  0  0  0  0  0  0  0  0  0
   10.2573    8.3215   20.9827 C   0  0  0  0  0  0  0  0  0  0  0  0
   11.1606    5.9378   21.2366 N   0  0  0  0  0  0  0  0  0  0  0  0
    9.8932   11.6736   19.0677 O   0  0  0  0  0  0  0  0  0  0  0  0
    6.4470    4.5850   22.2321 C   0  0  0  0  0  0  0  0  0  0  0  0
    8.4619    6.9895   22.2968 C   0  0  0  0  0  0  0  0  0  0  0  0
   12.2747    7.5102   20.0420 C   0  0  0  0  0  0  0  0  0  0  0  0
   14.2544    6.2142   19.4191 C   0  0  0  0  0  0  0  0  0  0  0  0
   13.0695    6.3705   20.0375 N   0  0  0  0  0  0  0  0  0  0  0  0
    9.1913    8.0876   21.8361 N   0  0  0  0  0  0  0  0  0  0  0  0
   10.4739    9.4813   20.2889 C   0  0  0  0  0  0  0  0  0  0  0  0
    7.5551    7.1270   23.1200 O   0  0  0  0  0  0  0  0  0  0  0  0
  1 11  4  0
  1 21  4  0
  2  4  1  0
  2  8  1  0
  2 11  1  0
  3 10  4  0
  3 14  4  0
  4  5  1  0
  4 18  2  0
  6 12  1  0
  6 17  4  0
  6 23  4  0
  7  9  1  0
  7 13  4  0
  7 19  4  0
  9 20  1  0
 10 19  4  0
 11 25  4  0
 13 14  4  0
 15 16  4  0
 15 17  4  0
 15 21  4  0
 16 24  1  0
 16 25  4  0
 20 24  1  0
 20 26  2  0
 21 23  4  0
 22 23  1  0
M  END
$$$$

 Created by Python create_sdf_string function

 26 28  0  0  0  0  0  0  0  0999 V2000
   12.4616    8.6700   19.4180 N   0  0  0  0  0  0  0  0  0  0  0  0
   11.8329   10.8148   18.6769 N   0  0  0  0  0  0  0  0  0  0  0  0
    6.1021    2.5564   21.0678 C   0  0  0  0  0  0  0  0  0  0  0  0
   10.9097   11.8051   18.4804 C   0  0  0  0  0  0  0  0  0  0  0  0
   11.2280   12.9135   17.5669 C   0  0  0  0  0  0  0  0  0  0  0  0
   12.3782    5.4231   20.7777 C   0  0  0  0  0  0  0  0  0  0  0  0
    7.7365    4.6508   21.6987 C   0  0  0  0  0  0  0  0  0  0  0  0
   13.0186   11.0102   18.0020 C   0  0  0  0  0  0  0  0  0  0  0  0
    8.6628    5.7088   21.8871 N   0  0  0  0  0  0  0  0  0  0  0  0
    5.6516    3.5258   21.9140 C   0  0  0  0  0  0  0  0  0  0  0  0
   11.5863    9.6815   19.4539 C   0  0  0  0  0  0  0  0  0  0  0  0
   12.9648    4.1543   20.9205 C   0  0  0  0  0  0  0  0  0  0  0  0
    8.2089    3.6265   20.8929 C   0  0  0  0  0  0  0  0  0  0  0  0
    7.3827    2.5724   20.5432 C   0  0  0  0  0  0  0  0  0  0  0  0
   11.1529    7.2750   20.8025 C   0  0  0  0  0  0  0  0  0  0  0  0
   10.2573    8.3215   20.9827 C   0  0  0  0  0  0  0  0  0  0  0  0
   11.1606    5.9378   21.2366 N   0  0  0  0  0  0  0  0  0  0  0  0
    9.8932   11.6736   19.0677 O   0  0  0  0  0  0  0  0  0  0  0  0
    6.4470    4.5850   22.2321 C   0  0  0  0  0  0  0  0  0  0  0  0
    8.4619    6.9895   22.2968 C   0  0  0  0  0  0  0  0  0  0  0  0
   12.2747    7.5102   20.0420 C   0  0  0  0  0  0  0  0  0  0  0  0
   14.2544    6.2142   19.4191 C   0  0  0  0  0  0  0  0  0  0  0  0
   13.0695    6.3705   20.0375 N   0  0  0  0  0  0  0  0  0  0  0  0
    9.1913    8.0876   21.8361 N   0  0  0  0  0  0  0  0  0  0  0  0
   10.4739    9.4813   20.2889 C   0  0  0  0  0  0  0  0  0  0  0  0
    7.5551    7.1270   23.1200 O   0  0  0  0  0  0  0  0  0  0  0  0
  1 11  4  0
  1 21  4  0
  2  4  1  0
  2  8  1  0
  2 11  1  0
  3 10  4  0
  3 14  4  0
  4  5  1  0
  4 18  2  0
  6 12  1  0
  6 17  4  0
  6 23  4  0
  7  9  1  0
  7 13  4  0
  7 19  4  0
  9 20  1  0
 10 19  4  0
 11 25  4  0
 13 14  4  0
 15 16  4  0
 15 17  4  0
 15 21  4  0
 16 24  1  0
 16 25  4  0
 20 24  1  0
 20 26  2  0
 21 23  4  0
 22 23  1  0
M  END
$$$$

 Created by Python create_sdf_string function

 26 28  0  0  0  0  0  0  0  0999 V2000
   12.4616    8.6700   19.4180 N   0  0  0  0  0  0  0  0  0  0  0  0
   11.8329   10.8148   18.6769 N   0  0  0  0  0  0  0  0  0  0  0  0
    6.1021    2.5564   21.0678 C   0  0  0  0  0  0  0  0  0  0  0  0
   10.9097   11.8051   18.4804 C   0  0  0  0  0  0  0  0  0  0  0  0
   11.2280   12.9135   17.5669 C   0  0  0  0  0  0  0  0  0  0  0  0
   12.3782    5.4231   20.7777 C   0  0  0  0  0  0  0  0  0  0  0  0
    7.7365    4.6508   21.6987 C   0  0  0  0  0  0  0  0  0  0  0  0
   13.0186   11.0102   18.0020 C   0  0  0  0  0  0  0  0  0  0  0  0
    8.6628    5.7088   21.8871 N   0  0  0  0  0  0  0  0  0  0  0  0
    5.6516    3.5258   21.9140 C   0  0  0  0  0  0  0  0  0  0  0  0
   11.5863    9.6815   19.4539 C   0  0  0  0  0  0  0  0  0  0  0  0
   12.9648    4.1543   20.9205 C   0  0  0  0  0  0  0  0  0  0  0  0
    8.2089    3.6265   20.8929 C   0  0  0  0  0  0  0  0  0  0  0  0
    7.3827    2.5724   20.5432 C   0  0  0  0  0  0  0  0  0  0  0  0
   11.1529    7.2750   20.8025 C   0  0  0  0  0  0  0  0  0  0  0  0
   10.2573    8.3215   20.9827 C   0  0  0  0  0  0  0  0  0  0  0  0
   11.1606    5.9378   21.2366 N   0  0  0  0  0  0  0  0  0  0  0  0
    9.8932   11.6736   19.0677 O   0  0  0  0  0  0  0  0  0  0  0  0
    6.4470    4.5850   22.2321 C   0  0  0  0  0  0  0  0  0  0  0  0
    8.4619    6.9895   22.2968 C   0  0  0  0  0  0  0  0  0  0  0  0
   12.2747    7.5102   20.0420 C   0  0  0  0  0  0  0  0  0  0  0  0
   14.2544    6.2142   19.4191 C   0  0  0  0  0  0  0  0  0  0  0  0
   13.0695    6.3705   20.0375 N   0  0  0  0  0  0  0  0  0  0  0  0
    9.1913    8.0876   21.8361 N   0  0  0  0  0  0  0  0  0  0  0  0
   10.4739    9.4813   20.2889 C   0  0  0  0  0  0  0  0  0  0  0  0
    7.5551    7.1270   23.1200 O   0  0  0  0  0  0  0  0  0  0  0  0
  1 11  4  0
  1 21  4  0
  2  4  1  0
  2  8  1  0
  2 11  1  0
  3 10  4  0
  3 14  4  0
  4  5  1  0
  4 18  2  0
  6 12  1  0
  6 17  4  0
  6 23  4  0
  7  9  1  0
  7 13  4  0
  7 19  4  0
  9 20  1  0
 10 19  4  0
 11 25  4  0
 13 14  4  0
 15 16  4  0
 15 17  4  0
 15 21  4  0
 16 24  1  0
 16 25  4  0
 20 24  1  0
 20 26  2  0
 21 23  4  0
 22 23  1  0
M  END
$$$$

 Created by Python create_sdf_string function

 26 28  0  0  0  0  0  0  0  0999 V2000
   12.4616    8.6700   19.4180 N   0  0  0  0  0  0  0  0  0  0  0  0
   11.8329   10.8148   18.6769 N   0  0  0  0  0  0  0  0  0  0  0  0
    6.1021    2.5564   21.0678 C   0  0  0  0  0  0  0  0  0  0  0  0
   10.9097   11.8051   18.4804 C   0  0  0  0  0  0  0  0  0  0  0  0
   11.2280   12.9135   17.5669 C   0  0  0  0  0  0  0  0  0  0  0  0
   12.3782    5.4231   20.7777 C   0  0  0  0  0  0  0  0  0  0  0  0
    7.7365    4.6508   21.6987 C   0  0  0  0  0  0  0  0  0  0  0  0
   13.0186   11.0102   18.0020 C   0  0  0  0  0  0  0  0  0  0  0  0
    8.6628    5.7088   21.8871 N   0  0  0  0  0  0  0  0  0  0  0  0
    5.6516    3.5258   21.9140 C   0  0  0  0  0  0  0  0  0  0  0  0
   11.5863    9.6815   19.4539 C   0  0  0  0  0  0  0  0  0  0  0  0
   12.9648    4.1543   20.9205 C   0  0  0  0  0  0  0  0  0  0  0  0
    8.2089    3.6265   20.8929 C   0  0  0  0  0  0  0  0  0  0  0  0
    7.3827    2.5724   20.5432 C   0  0  0  0  0  0  0  0  0  0  0  0
   11.1529    7.2750   20.8025 C   0  0  0  0  0  0  0  0  0  0  0  0
   10.2573    8.3215   20.9827 C   0  0  0  0  0  0  0  0  0  0  0  0
   11.1606    5.9378   21.2366 N   0  0  0  0  0  0  0  0  0  0  0  0
    9.8932   11.6736   19.0677 O   0  0  0  0  0  0  0  0  0  0  0  0
    6.4470    4.5850   22.2321 C   0  0  0  0  0  0  0  0  0  0  0  0
    8.4619    6.9895   22.2968 C   0  0  0  0  0  0  0  0  0  0  0  0
   12.2747    7.5102   20.0420 C   0  0  0  0  0  0  0  0  0  0  0  0
   14.2544    6.2142   19.4191 C   0  0  0  0  0  0  0  0  0  0  0  0
   13.0695    6.3705   20.0375 N   0  0  0  0  0  0  0  0  0  0  0  0
    9.1913    8.0876   21.8361 N   0  0  0  0  0  0  0  0  0  0  0  0
   10.4739    9.4813   20.2889 C   0  0  0  0  0  0  0  0  0  0  0  0
    7.5551    7.1270   23.1200 O   0  0  0  0  0  0  0  0  0  0  0  0
  1 11  4  0
  1 21  4  0
  2  4  1  0
  2  8  1  0
  2 11  1  0
  3 10  4  0
  3 14  4  0
  4  5  1  0
  4 18  2  0
  6 12  1  0
  6 17  4  0
  6 23  4  0
  7  9  1  0
  7 13  4  0
  7 19  4  0
  9 20  1  0
 10 19  4  0
 11 25  4  0
 13 14  4  0
 15 16  4  0
 15 17  4  0
 15 21  4  0
 16 24  1  0
 16 25  4  0
 20 24  1  0
 20 26  2  0
 21 23  4  0
 22 23  1  0
M  END
$$$$

 Created by Python create_sdf_string function

 26 28  0  0  0  0  0  0  0  0999 V2000
   12.4616    8.6700   19.4180 N   0  0  0  0  0  0  0  0  0  0  0  0
   11.8329   10.8148   18.6769 N   0  0  0  0  0  0  0  0  0  0  0  0
    6.1021    2.5564   21.0678 C   0  0  0  0  0  0  0  0  0  0  0  0
   10.9097   11.8051   18.4804 C   0  0  0  0  0  0  0  0  0  0  0  0
   11.2280   12.9135   17.5669 C   0  0  0  0  0  0  0  0  0  0  0  0
   12.3782    5.4231   20.7777 C   0  0  0  0  0  0  0  0  0  0  0  0
    7.7365    4.6508   21.6987 C   0  0  0  0  0  0  0  0  0  0  0  0
   13.0186   11.0102   18.0020 C   0  0  0  0  0  0  0  0  0  0  0  0
    8.6628    5.7088   21.8871 N   0  0  0  0  0  0  0  0  0  0  0  0
    5.6516    3.5258   21.9140 C   0  0  0  0  0  0  0  0  0  0  0  0
   11.5863    9.6815   19.4539 C   0  0  0  0  0  0  0  0  0  0  0  0
   12.9648    4.1543   20.9205 C   0  0  0  0  0  0  0  0  0  0  0  0
    8.2089    3.6265   20.8929 C   0  0  0  0  0  0  0  0  0  0  0  0
    7.3827    2.5724   20.5432 C   0  0  0  0  0  0  0  0  0  0  0  0
   11.1529    7.2750   20.8025 C   0  0  0  0  0  0  0  0  0  0  0  0
   10.2573    8.3215   20.9827 C   0  0  0  0  0  0  0  0  0  0  0  0
   11.1606    5.9378   21.2366 N   0  0  0  0  0  0  0  0  0  0  0  0
    9.8932   11.6736   19.0677 O   0  0  0  0  0  0  0  0  0  0  0  0
    6.4470    4.5850   22.2321 C   0  0  0  0  0  0  0  0  0  0  0  0
    8.4619    6.9895   22.2968 C   0  0  0  0  0  0  0  0  0  0  0  0
   12.2747    7.5102   20.0420 C   0  0  0  0  0  0  0  0  0  0  0  0
   14.2544    6.2142   19.4191 C   0  0  0  0  0  0  0  0  0  0  0  0
   13.0695    6.3705   20.0375 N   0  0  0  0  0  0  0  0  0  0  0  0
    9.1913    8.0876   21.8361 N   0  0  0  0  0  0  0  0  0  0  0  0
   10.4739    9.4813   20.2889 C   0  0  0  0  0  0  0  0  0  0  0  0
    7.5551    7.1270   23.1200 O   0  0  0  0  0  0  0  0  0  0  0  0
  1 11  4  0
  1 21  4  0
  2  4  1  0
  2  8  1  0
  2 11  1  0
  3 10  4  0
  3 14  4  0
  4  5  1  0
  4 18  2  0
  6 12  1  0
  6 17  4  0
  6 23  4  0
  7  9  1  0
  7 13  4  0
  7 19  4  0
  9 20  1  0
 10 19  4  0
 11 25  4  0
 13 14  4  0
 15 16  4  0
 15 17  4  0
 15 21  4  0
 16 24  1  0
 16 25  4  0
 20 24  1  0
 20 26  2  0
 21 23  4  0
 22 23  1  0
M  END
$$$$

 Created by Python create_sdf_string function

 26 28  0  0  0  0  0  0  0  0999 V2000
   12.4616    8.6700   19.4180 N   0  0  0  0  0  0  0  0  0  0  0  0
   11.8329   10.8148   18.6769 N   0  0  0  0  0  0  0  0  0  0  0  0
    6.1021    2.5564   21.0678 C   0  0  0  0  0  0  0  0  0  0  0  0
   10.9097   11.8051   18.4804 C   0  0  0  0  0  0  0  0  0  0  0  0
   11.2280   12.9135   17.5669 C   0  0  0  0  0  0  0  0  0  0  0  0
   12.3782    5.4231   20.7777 C   0  0  0  0  0  0  0  0  0  0  0  0
    7.7365    4.6508   21.6987 C   0  0  0  0  0  0  0  0  0  0  0  0
   13.0186   11.0102   18.0020 C   0  0  0  0  0  0  0  0  0  0  0  0
    8.6628    5.7088   21.8871 N   0  0  0  0  0  0  0  0  0  0  0  0
    5.6516    3.5258   21.9140 C   0  0  0  0  0  0  0  0  0  0  0  0
   11.5863    9.6815   19.4539 C   0  0  0  0  0  0  0  0  0  0  0  0
   12.9648    4.1543   20.9205 C   0  0  0  0  0  0  0  0  0  0  0  0
    8.2089    3.6265   20.8929 C   0  0  0  0  0  0  0  0  0  0  0  0
    7.3827    2.5724   20.5432 C   0  0  0  0  0  0  0  0  0  0  0  0
   11.1529    7.2750   20.8025 C   0  0  0  0  0  0  0  0  0  0  0  0
   10.2573    8.3215   20.9827 C   0  0  0  0  0  0  0  0  0  0  0  0
   11.1606    5.9378   21.2366 N   0  0  0  0  0  0  0  0  0  0  0  0
    9.8932   11.6736   19.0677 O   0  0  0  0  0  0  0  0  0  0  0  0
    6.4470    4.5850   22.2321 C   0  0  0  0  0  0  0  0  0  0  0  0
    8.4619    6.9895   22.2968 C   0  0  0  0  0  0  0  0  0  0  0  0
   12.2747    7.5102   20.0420 C   0  0  0  0  0  0  0  0  0  0  0  0
   14.2544    6.2142   19.4191 C   0  0  0  0  0  0  0  0  0  0  0  0
   13.0695    6.3705   20.0375 N   0  0  0  0  0  0  0  0  0  0  0  0
    9.1913    8.0876   21.8361 N   0  0  0  0  0  0  0  0  0  0  0  0
   10.4739    9.4813   20.2889 C   0  0  0  0  0  0  0  0  0  0  0  0
    7.5551    7.1270   23.1200 O   0  0  0  0  0  0  0  0  0  0  0  0
  1 11  4  0
  1 21  4  0
  2  4  1  0
  2  8  1  0
  2 11  1  0
  3 10  4  0
  3 14  4  0
  4  5  1  0
  4 18  2  0
  6 12  1  0
  6 17  4  0
  6 23  4  0
  7  9  1  0
  7 13  4  0
  7 19  4  0
  9 20  1  0
 10 19  4  0
 11 25  4  0
 13 14  4  0
 15 16  4  0
 15 17  4  0
 15 21  4  0
 16 24  1  0
 16 25  4  0
 20 24  1  0
 20 26  2  0
 21 23  4  0
 22 23  1  0
M  END
$$$$

 Created by Python create_sdf_string function

 26 28  0  0  0  0  0  0  0  0999 V2000
   12.4616    8.6700   19.4180 N   0  0  0  0  0  0  0  0  0  0  0  0
   11.8329   10.8148   18.6769 N   0  0  0  0  0  0  0  0  0  0  0  0
    6.1021    2.5564   21.0678 C   0  0  0  0  0  0  0  0  0  0  0  0
   10.9097   11.8051   18.4804 C   0  0  0  0  0  0  0  0  0  0  0  0
   11.2280   12.9135   17.5669 C   0  0  0  0  0  0  0  0  0  0  0  0
   12.3782    5.4231   20.7777 C   0  0  0  0  0  0  0  0  0  0  0  0
    7.7365    4.6508   21.6987 C   0  0  0  0  0  0  0  0  0  0  0  0
   13.0186   11.0102   18.0020 C   0  0  0  0  0  0  0  0  0  0  0  0
    8.6628    5.7088   21.8871 N   0  0  0  0  0  0  0  0  0  0  0  0
    5.6516    3.5258   21.9140 C   0  0  0  0  0  0  0  0  0  0  0  0
   11.5863    9.6815   19.4539 C   0  0  0  0  0  0  0  0  0  0  0  0
   12.9648    4.1543   20.9205 C   0  0  0  0  0  0  0  0  0  0  0  0
    8.2089    3.6265   20.8929 C   0  0  0  0  0  0  0  0  0  0  0  0
    7.3827    2.5724   20.5432 C   0  0  0  0  0  0  0  0  0  0  0  0
   11.1529    7.2750   20.8025 C   0  0  0  0  0  0  0  0  0  0  0  0
   10.2573    8.3215   20.9827 C   0  0  0  0  0  0  0  0  0  0  0  0
   11.1606    5.9378   21.2366 N   0  0  0  0  0  0  0  0  0  0  0  0
    9.8932   11.6736   19.0677 O   0  0  0  0  0  0  0  0  0  0  0  0
    6.4470    4.5850   22.2321 C   0  0  0  0  0  0  0  0  0  0  0  0
    8.4619    6.9895   22.2968 C   0  0  0  0  0  0  0  0  0  0  0  0
   12.2747    7.5102   20.0420 C   0  0  0  0  0  0  0  0  0  0  0  0
   14.2544    6.2142   19.4191 C   0  0  0  0  0  0  0  0  0  0  0  0
   13.0695    6.3705   20.0375 N   0  0  0  0  0  0  0  0  0  0  0  0
    9.1913    8.0876   21.8361 N   0  0  0  0  0  0  0  0  0  0  0  0
   10.4739    9.4813   20.2889 C   0  0  0  0  0  0  0  0  0  0  0  0
    7.5551    7.1270   23.1200 O   0  0  0  0  0  0  0  0  0  0  0  0
  1 11  4  0
  1 21  4  0
  2  4  1  0
  2  8  1  0
  2 11  1  0
  3 10  4  0
  3 14  4  0
  4  5  1  0
  4 18  2  0
  6 12  1  0
  6 17  4  0
  6 23  4  0
  7  9  1  0
  7 13  4  0
  7 19  4  0
  9 20  1  0
 10 19  4  0
 11 25  4  0
 13 14  4  0
 15 16  4  0
 15 17  4  0
 15 21  4  0
 16 24  1  0
 16 25  4  0
 20 24  1  0
 20 26  2  0
 21 23  4  0
 22 23  1  0
M  END
$$$$

 Created by Python create_sdf_string function

 26 28  0  0  0  0  0  0  0  0999 V2000
   12.4616    8.6700   19.4180 N   0  0  0  0  0  0  0  0  0  0  0  0
   11.8329   10.8148   18.6769 N   0  0  0  0  0  0  0  0  0  0  0  0
    6.1021    2.5564   21.0678 C   0  0  0  0  0  0  0  0  0  0  0  0
   10.9097   11.8051   18.4804 C   0  0  0  0  0  0  0  0  0  0  0  0
   11.2280   12.9135   17.5669 C   0  0  0  0  0  0  0  0  0  0  0  0
   12.3782    5.4231   20.7777 C   0  0  0  0  0  0  0  0  0  0  0  0
    7.7365    4.6508   21.6987 C   0  0  0  0  0  0  0  0  0  0  0  0
   13.0186   11.0102   18.0020 C   0  0  0  0  0  0  0  0  0  0  0  0
    8.6628    5.7088   21.8871 N   0  0  0  0  0  0  0  0  0  0  0  0
    5.6516    3.5258   21.9140 C   0  0  0  0  0  0  0  0  0  0  0  0
   11.5863    9.6815   19.4539 C   0  0  0  0  0  0  0  0  0  0  0  0
   12.9648    4.1543   20.9205 C   0  0  0  0  0  0  0  0  0  0  0  0
    8.2089    3.6265   20.8929 C   0  0  0  0  0  0  0  0  0  0  0  0
    7.3827    2.5724   20.5432 C   0  0  0  0  0  0  0  0  0  0  0  0
   11.1529    7.2750   20.8025 C   0  0  0  0  0  0  0  0  0  0  0  0
   10.2573    8.3215   20.9827 C   0  0  0  0  0  0  0  0  0  0  0  0
   11.1606    5.9378   21.2366 N   0  0  0  0  0  0  0  0  0  0  0  0
    9.8932   11.6736   19.0677 O   0  0  0  0  0  0  0  0  0  0  0  0
    6.4470    4.5850   22.2321 C   0  0  0  0  0  0  0  0  0  0  0  0
    8.4619    6.9895   22.2968 C   0  0  0  0  0  0  0  0  0  0  0  0
   12.2747    7.5102   20.0420 C   0  0  0  0  0  0  0  0  0  0  0  0
   14.2544    6.2142   19.4191 C   0  0  0  0  0  0  0  0  0  0  0  0
   13.0695    6.3705   20.0375 N   0  0  0  0  0  0  0  0  0  0  0  0
    9.1913    8.0876   21.8361 N   0  0  0  0  0  0  0  0  0  0  0  0
   10.4739    9.4813   20.2889 C   0  0  0  0  0  0  0  0  0  0  0  0
    7.5551    7.1270   23.1200 O   0  0  0  0  0  0  0  0  0  0  0  0
  1 11  4  0
  1 21  4  0
  2  4  1  0
  2  8  1  0
  2 11  1  0
  3 10  4  0
  3 14  4  0
  4  5  1  0
  4 18  2  0
  6 12  1  0
  6 17  4  0
  6 23  4  0
  7  9  1  0
  7 13  4  0
  7 19  4  0
  9 20  1  0
 10 19  4  0
 11 25  4  0
 13 14  4  0
 15 16  4  0
 15 17  4  0
 15 21  4  0
 16 24  1  0
 16 25  4  0
 20 24  1  0
 20 26  2  0
 21 23  4  0
 22 23  1  0
M  END
$$$$

 Created by Python create_sdf_string function

 26 28  0  0  0  0  0  0  0  0999 V2000
   12.4616    8.6700   19.4180 N   0  0  0  0  0  0  0  0  0  0  0  0
   11.8329   10.8148   18.6769 N   0  0  0  0  0  0  0  0  0  0  0  0
    6.1021    2.5564   21.0678 C   0  0  0  0  0  0  0  0  0  0  0  0
   10.9097   11.8051   18.4804 C   0  0  0  0  0  0  0  0  0  0  0  0
   11.2280   12.9135   17.5669 C   0  0  0  0  0  0  0  0  0  0  0  0
   12.3782    5.4231   20.7777 C   0  0  0  0  0  0  0  0  0  0  0  0
    7.7365    4.6508   21.6987 C   0  0  0  0  0  0  0  0  0  0  0  0
   13.0186   11.0102   18.0020 C   0  0  0  0  0  0  0  0  0  0  0  0
    8.6628    5.7088   21.8871 N   0  0  0  0  0  0  0  0  0  0  0  0
    5.6516    3.5258   21.9140 C   0  0  0  0  0  0  0  0  0  0  0  0
   11.5863    9.6815   19.4539 C   0  0  0  0  0  0  0  0  0  0  0  0
   12.9648    4.1543   20.9205 C   0  0  0  0  0  0  0  0  0  0  0  0
    8.2089    3.6265   20.8929 C   0  0  0  0  0  0  0  0  0  0  0  0
    7.3827    2.5724   20.5432 C   0  0  0  0  0  0  0  0  0  0  0  0
   11.1529    7.2750   20.8025 C   0  0  0  0  0  0  0  0  0  0  0  0
   10.2573    8.3215   20.9827 C   0  0  0  0  0  0  0  0  0  0  0  0
   11.1606    5.9378   21.2366 N   0  0  0  0  0  0  0  0  0  0  0  0
    9.8932   11.6736   19.0677 O   0  0  0  0  0  0  0  0  0  0  0  0
    6.4470    4.5850   22.2321 C   0  0  0  0  0  0  0  0  0  0  0  0
    8.4619    6.9895   22.2968 C   0  0  0  0  0  0  0  0  0  0  0  0
   12.2747    7.5102   20.0420 C   0  0  0  0  0  0  0  0  0  0  0  0
   14.2544    6.2142   19.4191 C   0  0  0  0  0  0  0  0  0  0  0  0
   13.0695    6.3705   20.0375 N   0  0  0  0  0  0  0  0  0  0  0  0
    9.1913    8.0876   21.8361 N   0  0  0  0  0  0  0  0  0  0  0  0
   10.4739    9.4813   20.2889 C   0  0  0  0  0  0  0  0  0  0  0  0
    7.5551    7.1270   23.1200 O   0  0  0  0  0  0  0  0  0  0  0  0
  1 11  4  0
  1 21  4  0
  2  4  1  0
  2  8  1  0
  2 11  1  0
  3 10  4  0
  3 14  4  0
  4  5  1  0
  4 18  2  0
  6 12  1  0
  6 17  4  0
  6 23  4  0
  7  9  1  0
  7 13  4  0
  7 19  4  0
  9 20  1  0
 10 19  4  0
 11 25  4  0
 13 14  4  0
 15 16  4  0
 15 17  4  0
 15 21  4  0
 16 24  1  0
 16 25  4  0
 20 24  1  0
 20 26  2  0
 21 23  4  0
 22 23  1  0
M  END
$$$$

 Created by Python create_sdf_string function

 26 28  0  0  0  0  0  0  0  0999 V2000
   12.4616    8.6700   19.4180 N   0  0  0  0  0  0  0  0  0  0  0  0
   11.8329   10.8148   18.6769 N   0  0  0  0  0  0  0  0  0  0  0  0
    6.1021    2.5564   21.0678 C   0  0  0  0  0  0  0  0  0  0  0  0
   10.9097   11.8051   18.4804 C   0  0  0  0  0  0  0  0  0  0  0  0
   11.2280   12.9135   17.5669 C   0  0  0  0  0  0  0  0  0  0  0  0
   12.3782    5.4231   20.7777 C   0  0  0  0  0  0  0  0  0  0  0  0
    7.7365    4.6508   21.6987 C   0  0  0  0  0  0  0  0  0  0  0  0
   13.0186   11.0102   18.0020 C   0  0  0  0  0  0  0  0  0  0  0  0
    8.6628    5.7088   21.8871 N   0  0  0  0  0  0  0  0  0  0  0  0
    5.6516    3.5258   21.9140 C   0  0  0  0  0  0  0  0  0  0  0  0
   11.5863    9.6815   19.4539 C   0  0  0  0  0  0  0  0  0  0  0  0
   12.9648    4.1543   20.9205 C   0  0  0  0  0  0  0  0  0  0  0  0
    8.2089    3.6265   20.8929 C   0  0  0  0  0  0  0  0  0  0  0  0
    7.3827    2.5724   20.5432 C   0  0  0  0  0  0  0  0  0  0  0  0
   11.1529    7.2750   20.8025 C   0  0  0  0  0  0  0  0  0  0  0  0
   10.2573    8.3215   20.9827 C   0  0  0  0  0  0  0  0  0  0  0  0
   11.1606    5.9378   21.2366 N   0  0  0  0  0  0  0  0  0  0  0  0
    9.8932   11.6736   19.0677 O   0  0  0  0  0  0  0  0  0  0  0  0
    6.4470    4.5850   22.2321 C   0  0  0  0  0  0  0  0  0  0  0  0
    8.4619    6.9895   22.2968 C   0  0  0  0  0  0  0  0  0  0  0  0
   12.2747    7.5102   20.0420 C   0  0  0  0  0  0  0  0  0  0  0  0
   14.2544    6.2142   19.4191 C   0  0  0  0  0  0  0  0  0  0  0  0
   13.0695    6.3705   20.0375 N   0  0  0  0  0  0  0  0  0  0  0  0
    9.1913    8.0876   21.8361 N   0  0  0  0  0  0  0  0  0  0  0  0
   10.4739    9.4813   20.2889 C   0  0  0  0  0  0  0  0  0  0  0  0
    7.5551    7.1270   23.1200 O   0  0  0  0  0  0  0  0  0  0  0  0
  1 11  4  0
  1 21  4  0
  2  4  1  0
  2  8  1  0
  2 11  1  0
  3 10  4  0
  3 14  4  0
  4  5  1  0
  4 18  2  0
  6 12  1  0
  6 17  4  0
  6 23  4  0
  7  9  1  0
  7 13  4  0
  7 19  4  0
  9 20  1  0
 10 19  4  0
 11 25  4  0
 13 14  4  0
 15 16  4  0
 15 17  4  0
 15 21  4  0
 16 24  1  0
 16 25  4  0
 20 24  1  0
 20 26  2  0
 21 23  4  0
 22 23  1  0
M  END
$$$$

 Created by Python create_sdf_string function

 26 28  0  0  0  0  0  0  0  0999 V2000
   12.4616    8.6700   19.4180 N   0  0  0  0  0  0  0  0  0  0  0  0
   11.8329   10.8148   18.6769 N   0  0  0  0  0  0  0  0  0  0  0  0
    6.1021    2.5564   21.0678 C   0  0  0  0  0  0  0  0  0  0  0  0
   10.9097   11.8051   18.4804 C   0  0  0  0  0  0  0  0  0  0  0  0
   11.2280   12.9135   17.5669 C   0  0  0  0  0  0  0  0  0  0  0  0
   12.3782    5.4231   20.7777 C   0  0  0  0  0  0  0  0  0  0  0  0
    7.7365    4.6508   21.6987 C   0  0  0  0  0  0  0  0  0  0  0  0
   13.0186   11.0102   18.0020 C   0  0  0  0  0  0  0  0  0  0  0  0
    8.6628    5.7088   21.8871 N   0  0  0  0  0  0  0  0  0  0  0  0
    5.6516    3.5258   21.9140 C   0  0  0  0  0  0  0  0  0  0  0  0
   11.5863    9.6815   19.4539 C   0  0  0  0  0  0  0  0  0  0  0  0
   12.9648    4.1543   20.9205 C   0  0  0  0  0  0  0  0  0  0  0  0
    8.2089    3.6265   20.8929 C   0  0  0  0  0  0  0  0  0  0  0  0
    7.3827    2.5724   20.5432 C   0  0  0  0  0  0  0  0  0  0  0  0
   11.1529    7.2750   20.8025 C   0  0  0  0  0  0  0  0  0  0  0  0
   10.2573    8.3215   20.9827 C   0  0  0  0  0  0  0  0  0  0  0  0
   11.1606    5.9378   21.2366 N   0  0  0  0  0  0  0  0  0  0  0  0
    9.8932   11.6736   19.0677 O   0  0  0  0  0  0  0  0  0  0  0  0
    6.4470    4.5850   22.2321 C   0  0  0  0  0  0  0  0  0  0  0  0
    8.4619    6.9895   22.2968 C   0  0  0  0  0  0  0  0  0  0  0  0
   12.2747    7.5102   20.0420 C   0  0  0  0  0  0  0  0  0  0  0  0
   14.2544    6.2142   19.4191 C   0  0  0  0  0  0  0  0  0  0  0  0
   13.0695    6.3705   20.0375 N   0  0  0  0  0  0  0  0  0  0  0  0
    9.1913    8.0876   21.8361 N   0  0  0  0  0  0  0  0  0  0  0  0
   10.4739    9.4813   20.2889 C   0  0  0  0  0  0  0  0  0  0  0  0
    7.5551    7.1270   23.1200 O   0  0  0  0  0  0  0  0  0  0  0  0
  1 11  4  0
  1 21  4  0
  2  4  1  0
  2  8  1  0
  2 11  1  0
  3 10  4  0
  3 14  4  0
  4  5  1  0
  4 18  2  0
  6 12  1  0
  6 17  4  0
  6 23  4  0
  7  9  1  0
  7 13  4  0
  7 19  4  0
  9 20  1  0
 10 19  4  0
 11 25  4  0
 13 14  4  0
 15 16  4  0
 15 17  4  0
 15 21  4  0
 16 24  1  0
 16 25  4  0
 20 24  1  0
 20 26  2  0
 21 23  4  0
 22 23  1  0
M  END
$$$$

 Created by Python create_sdf_string function

 26 28  0  0  0  0  0  0  0  0999 V2000
   12.4616    8.6700   19.4180 N   0  0  0  0  0  0  0  0  0  0  0  0
   11.8329   10.8148   18.6769 N   0  0  0  0  0  0  0  0  0  0  0  0
    6.1021    2.5564   21.0678 C   0  0  0  0  0  0  0  0  0  0  0  0
   10.9097   11.8051   18.4804 C   0  0  0  0  0  0  0  0  0  0  0  0
   11.2280   12.9135   17.5669 C   0  0  0  0  0  0  0  0  0  0  0  0
   12.3782    5.4231   20.7777 C   0  0  0  0  0  0  0  0  0  0  0  0
    7.7365    4.6508   21.6987 C   0  0  0  0  0  0  0  0  0  0  0  0
   13.0186   11.0102   18.0020 C   0  0  0  0  0  0  0  0  0  0  0  0
    8.6628    5.7088   21.8871 N   0  0  0  0  0  0  0  0  0  0  0  0
    5.6516    3.5258   21.9140 C   0  0  0  0  0  0  0  0  0  0  0  0
   11.5863    9.6815   19.4539 C   0  0  0  0  0  0  0  0  0  0  0  0
   12.9648    4.1543   20.9205 C   0  0  0  0  0  0  0  0  0  0  0  0
    8.2089    3.6265   20.8929 C   0  0  0  0  0  0  0  0  0  0  0  0
    7.3827    2.5724   20.5432 C   0  0  0  0  0  0  0  0  0  0  0  0
   11.1529    7.2750   20.8025 C   0  0  0  0  0  0  0  0  0  0  0  0
   10.2573    8.3215   20.9827 C   0  0  0  0  0  0  0  0  0  0  0  0
   11.1606    5.9378   21.2366 N   0  0  0  0  0  0  0  0  0  0  0  0
    9.8932   11.6736   19.0677 O   0  0  0  0  0  0  0  0  0  0  0  0
    6.4470    4.5850   22.2321 C   0  0  0  0  0  0  0  0  0  0  0  0
    8.4619    6.9895   22.2968 C   0  0  0  0  0  0  0  0  0  0  0  0
   12.2747    7.5102   20.0420 C   0  0  0  0  0  0  0  0  0  0  0  0
   14.2544    6.2142   19.4191 C   0  0  0  0  0  0  0  0  0  0  0  0
   13.0695    6.3705   20.0375 N   0  0  0  0  0  0  0  0  0  0  0  0
    9.1913    8.0876   21.8361 N   0  0  0  0  0  0  0  0  0  0  0  0
   10.4739    9.4813   20.2889 C   0  0  0  0  0  0  0  0  0  0  0  0
    7.5551    7.1270   23.1200 O   0  0  0  0  0  0  0  0  0  0  0  0
  1 11  4  0
  1 21  4  0
  2  4  1  0
  2  8  1  0
  2 11  1  0
  3 10  4  0
  3 14  4  0
  4  5  1  0
  4 18  2  0
  6 12  1  0
  6 17  4  0
  6 23  4  0
  7  9  1  0
  7 13  4  0
  7 19  4  0
  9 20  1  0
 10 19  4  0
 11 25  4  0
 13 14  4  0
 15 16  4  0
 15 17  4  0
 15 21  4  0
 16 24  1  0
 16 25  4  0
 20 24  1  0
 20 26  2  0
 21 23  4  0
 22 23  1  0
M  END
$$$$

 Created by Python create_sdf_string function

 26 28  0  0  0  0  0  0  0  0999 V2000
   12.4616    8.6700   19.4180 N   0  0  0  0  0  0  0  0  0  0  0  0
   11.8329   10.8148   18.6769 N   0  0  0  0  0  0  0  0  0  0  0  0
    6.1021    2.5564   21.0678 C   0  0  0  0  0  0  0  0  0  0  0  0
   10.9097   11.8051   18.4804 C   0  0  0  0  0  0  0  0  0  0  0  0
   11.2280   12.9135   17.5669 C   0  0  0  0  0  0  0  0  0  0  0  0
   12.3782    5.4231   20.7777 C   0  0  0  0  0  0  0  0  0  0  0  0
    7.7365    4.6508   21.6987 C   0  0  0  0  0  0  0  0  0  0  0  0
   13.0186   11.0102   18.0020 C   0  0  0  0  0  0  0  0  0  0  0  0
    8.6628    5.7088   21.8871 N   0  0  0  0  0  0  0  0  0  0  0  0
    5.6516    3.5258   21.9140 C   0  0  0  0  0  0  0  0  0  0  0  0
   11.5863    9.6815   19.4539 C   0  0  0  0  0  0  0  0  0  0  0  0
   12.9648    4.1543   20.9205 C   0  0  0  0  0  0  0  0  0  0  0  0
    8.2089    3.6265   20.8929 C   0  0  0  0  0  0  0  0  0  0  0  0
    7.3827    2.5724   20.5432 C   0  0  0  0  0  0  0  0  0  0  0  0
   11.1529    7.2750   20.8025 C   0  0  0  0  0  0  0  0  0  0  0  0
   10.2573    8.3215   20.9827 C   0  0  0  0  0  0  0  0  0  0  0  0
   11.1606    5.9378   21.2366 N   0  0  0  0  0  0  0  0  0  0  0  0
    9.8932   11.6736   19.0677 O   0  0  0  0  0  0  0  0  0  0  0  0
    6.4470    4.5850   22.2321 C   0  0  0  0  0  0  0  0  0  0  0  0
    8.4619    6.9895   22.2968 C   0  0  0  0  0  0  0  0  0  0  0  0
   12.2747    7.5102   20.0420 C   0  0  0  0  0  0  0  0  0  0  0  0
   14.2544    6.2142   19.4191 C   0  0  0  0  0  0  0  0  0  0  0  0
   13.0695    6.3705   20.0375 N   0  0  0  0  0  0  0  0  0  0  0  0
    9.1913    8.0876   21.8361 N   0  0  0  0  0  0  0  0  0  0  0  0
   10.4739    9.4813   20.2889 C   0  0  0  0  0  0  0  0  0  0  0  0
    7.5551    7.1270   23.1200 O   0  0  0  0  0  0  0  0  0  0  0  0
  1 11  4  0
  1 21  4  0
  2  4  1  0
  2  8  1  0
  2 11  1  0
  3 10  4  0
  3 14  4  0
  4  5  1  0
  4 18  2  0
  6 12  1  0
  6 17  4  0
  6 23  4  0
  7  9  1  0
  7 13  4  0
  7 19  4  0
  9 20  1  0
 10 19  4  0
 11 25  4  0
 13 14  4  0
 15 16  4  0
 15 17  4  0
 15 21  4  0
 16 24  1  0
 16 25  4  0
 20 24  1  0
 20 26  2  0
 21 23  4  0
 22 23  1  0
M  END
$$$$

 Created by Python create_sdf_string function

 26 28  0  0  0  0  0  0  0  0999 V2000
   12.4616    8.6700   19.4180 N   0  0  0  0  0  0  0  0  0  0  0  0
   11.8329   10.8148   18.6769 N   0  0  0  0  0  0  0  0  0  0  0  0
    6.1021    2.5564   21.0678 C   0  0  0  0  0  0  0  0  0  0  0  0
   10.9097   11.8051   18.4804 C   0  0  0  0  0  0  0  0  0  0  0  0
   11.2280   12.9135   17.5669 C   0  0  0  0  0  0  0  0  0  0  0  0
   12.3782    5.4231   20.7777 C   0  0  0  0  0  0  0  0  0  0  0  0
    7.7365    4.6508   21.6987 C   0  0  0  0  0  0  0  0  0  0  0  0
   13.0186   11.0102   18.0020 C   0  0  0  0  0  0  0  0  0  0  0  0
    8.6628    5.7088   21.8871 N   0  0  0  0  0  0  0  0  0  0  0  0
    5.6516    3.5258   21.9140 C   0  0  0  0  0  0  0  0  0  0  0  0
   11.5863    9.6815   19.4539 C   0  0  0  0  0  0  0  0  0  0  0  0
   12.9648    4.1543   20.9205 C   0  0  0  0  0  0  0  0  0  0  0  0
    8.2089    3.6265   20.8929 C   0  0  0  0  0  0  0  0  0  0  0  0
    7.3827    2.5724   20.5432 C   0  0  0  0  0  0  0  0  0  0  0  0
   11.1529    7.2750   20.8025 C   0  0  0  0  0  0  0  0  0  0  0  0
   10.2573    8.3215   20.9827 C   0  0  0  0  0  0  0  0  0  0  0  0
   11.1606    5.9378   21.2366 N   0  0  0  0  0  0  0  0  0  0  0  0
    9.8932   11.6736   19.0677 O   0  0  0  0  0  0  0  0  0  0  0  0
    6.4470    4.5850   22.2321 C   0  0  0  0  0  0  0  0  0  0  0  0
    8.4619    6.9895   22.2968 C   0  0  0  0  0  0  0  0  0  0  0  0
   12.2747    7.5102   20.0420 C   0  0  0  0  0  0  0  0  0  0  0  0
   14.2544    6.2142   19.4191 C   0  0  0  0  0  0  0  0  0  0  0  0
   13.0695    6.3705   20.0375 N   0  0  0  0  0  0  0  0  0  0  0  0
    9.1913    8.0876   21.8361 N   0  0  0  0  0  0  0  0  0  0  0  0
   10.4739    9.4813   20.2889 C   0  0  0  0  0  0  0  0  0  0  0  0
    7.5551    7.1270   23.1200 O   0  0  0  0  0  0  0  0  0  0  0  0
  1 11  4  0
  1 21  4  0
  2  4  1  0
  2  8  1  0
  2 11  1  0
  3 10  4  0
  3 14  4  0
  4  5  1  0
  4 18  2  0
  6 12  1  0
  6 17  4  0
  6 23  4  0
  7  9  1  0
  7 13  4  0
  7 19  4  0
  9 20  1  0
 10 19  4  0
 11 25  4  0
 13 14  4  0
 15 16  4  0
 15 17  4  0
 15 21  4  0
 16 24  1  0
 16 25  4  0
 20 24  1  0
 20 26  2  0
 21 23  4  0
 22 23  1  0
M  END
$$$$

 Created by Python create_sdf_string function

 26 28  0  0  0  0  0  0  0  0999 V2000
   12.4616    8.6700   19.4180 N   0  0  0  0  0  0  0  0  0  0  0  0
   11.8329   10.8148   18.6769 N   0  0  0  0  0  0  0  0  0  0  0  0
    6.1021    2.5564   21.0678 C   0  0  0  0  0  0  0  0  0  0  0  0
   10.9097   11.8051   18.4804 C   0  0  0  0  0  0  0  0  0  0  0  0
   11.2280   12.9135   17.5669 C   0  0  0  0  0  0  0  0  0  0  0  0
   12.3782    5.4231   20.7777 C   0  0  0  0  0  0  0  0  0  0  0  0
    7.7365    4.6508   21.6987 C   0  0  0  0  0  0  0  0  0  0  0  0
   13.0186   11.0102   18.0020 C   0  0  0  0  0  0  0  0  0  0  0  0
    8.6628    5.7088   21.8871 N   0  0  0  0  0  0  0  0  0  0  0  0
    5.6516    3.5258   21.9140 C   0  0  0  0  0  0  0  0  0  0  0  0
   11.5863    9.6815   19.4539 C   0  0  0  0  0  0  0  0  0  0  0  0
   12.9648    4.1543   20.9205 C   0  0  0  0  0  0  0  0  0  0  0  0
    8.2089    3.6265   20.8929 C   0  0  0  0  0  0  0  0  0  0  0  0
    7.3827    2.5724   20.5432 C   0  0  0  0  0  0  0  0  0  0  0  0
   11.1529    7.2750   20.8025 C   0  0  0  0  0  0  0  0  0  0  0  0
   10.2573    8.3215   20.9827 C   0  0  0  0  0  0  0  0  0  0  0  0
   11.1606    5.9378   21.2366 N   0  0  0  0  0  0  0  0  0  0  0  0
    9.8932   11.6736   19.0677 O   0  0  0  0  0  0  0  0  0  0  0  0
    6.4470    4.5850   22.2321 C   0  0  0  0  0  0  0  0  0  0  0  0
    8.4619    6.9895   22.2968 C   0  0  0  0  0  0  0  0  0  0  0  0
   12.2747    7.5102   20.0420 C   0  0  0  0  0  0  0  0  0  0  0  0
   14.2544    6.2142   19.4191 C   0  0  0  0  0  0  0  0  0  0  0  0
   13.0695    6.3705   20.0375 N   0  0  0  0  0  0  0  0  0  0  0  0
    9.1913    8.0876   21.8361 N   0  0  0  0  0  0  0  0  0  0  0  0
   10.4739    9.4813   20.2889 C   0  0  0  0  0  0  0  0  0  0  0  0
    7.5551    7.1270   23.1200 O   0  0  0  0  0  0  0  0  0  0  0  0
  1 11  4  0
  1 21  4  0
  2  4  1  0
  2  8  1  0
  2 11  1  0
  3 10  4  0
  3 14  4  0
  4  5  1  0
  4 18  2  0
  6 12  1  0
  6 17  4  0
  6 23  4  0
  7  9  1  0
  7 13  4  0
  7 19  4  0
  9 20  1  0
 10 19  4  0
 11 25  4  0
 13 14  4  0
 15 16  4  0
 15 17  4  0
 15 21  4  0
 16 24  1  0
 16 25  4  0
 20 24  1  0
 20 26  2  0
 21 23  4  0
 22 23  1  0
M  END
$$$$

 Created by Python create_sdf_string function

 26 28  0  0  0  0  0  0  0  0999 V2000
   12.4616    8.6700   19.4180 N   0  0  0  0  0  0  0  0  0  0  0  0
   11.8329   10.8148   18.6769 N   0  0  0  0  0  0  0  0  0  0  0  0
    6.1021    2.5564   21.0678 C   0  0  0  0  0  0  0  0  0  0  0  0
   10.9097   11.8051   18.4804 C   0  0  0  0  0  0  0  0  0  0  0  0
   11.2280   12.9135   17.5669 C   0  0  0  0  0  0  0  0  0  0  0  0
   12.3782    5.4231   20.7777 C   0  0  0  0  0  0  0  0  0  0  0  0
    7.7365    4.6508   21.6987 C   0  0  0  0  0  0  0  0  0  0  0  0
   13.0186   11.0102   18.0020 C   0  0  0  0  0  0  0  0  0  0  0  0
    8.6628    5.7088   21.8871 N   0  0  0  0  0  0  0  0  0  0  0  0
    5.6516    3.5258   21.9140 C   0  0  0  0  0  0  0  0  0  0  0  0
   11.5863    9.6815   19.4539 C   0  0  0  0  0  0  0  0  0  0  0  0
   12.9648    4.1543   20.9205 C   0  0  0  0  0  0  0  0  0  0  0  0
    8.2089    3.6265   20.8929 C   0  0  0  0  0  0  0  0  0  0  0  0
    7.3827    2.5724   20.5432 C   0  0  0  0  0  0  0  0  0  0  0  0
   11.1529    7.2750   20.8025 C   0  0  0  0  0  0  0  0  0  0  0  0
   10.2573    8.3215   20.9827 C   0  0  0  0  0  0  0  0  0  0  0  0
   11.1606    5.9378   21.2366 N   0  0  0  0  0  0  0  0  0  0  0  0
    9.8932   11.6736   19.0677 O   0  0  0  0  0  0  0  0  0  0  0  0
    6.4470    4.5850   22.2321 C   0  0  0  0  0  0  0  0  0  0  0  0
    8.4619    6.9895   22.2968 C   0  0  0  0  0  0  0  0  0  0  0  0
   12.2747    7.5102   20.0420 C   0  0  0  0  0  0  0  0  0  0  0  0
   14.2544    6.2142   19.4191 C   0  0  0  0  0  0  0  0  0  0  0  0
   13.0695    6.3705   20.0375 N   0  0  0  0  0  0  0  0  0  0  0  0
    9.1913    8.0876   21.8361 N   0  0  0  0  0  0  0  0  0  0  0  0
   10.4739    9.4813   20.2889 C   0  0  0  0  0  0  0  0  0  0  0  0
    7.5551    7.1270   23.1200 O   0  0  0  0  0  0  0  0  0  0  0  0
  1 11  4  0
  1 21  4  0
  2  4  1  0
  2  8  1  0
  2 11  1  0
  3 10  4  0
  3 14  4  0
  4  5  1  0
  4 18  2  0
  6 12  1  0
  6 17  4  0
  6 23  4  0
  7  9  1  0
  7 13  4  0
  7 19  4  0
  9 20  1  0
 10 19  4  0
 11 25  4  0
 13 14  4  0
 15 16  4  0
 15 17  4  0
 15 21  4  0
 16 24  1  0
 16 25  4  0
 20 24  1  0
 20 26  2  0
 21 23  4  0
 22 23  1  0
M  END
$$$$

 Created by Python create_sdf_string function

 26 28  0  0  0  0  0  0  0  0999 V2000
   12.4616    8.6700   19.4180 N   0  0  0  0  0  0  0  0  0  0  0  0
   11.8329   10.8148   18.6769 N   0  0  0  0  0  0  0  0  0  0  0  0
    6.1021    2.5564   21.0678 C   0  0  0  0  0  0  0  0  0  0  0  0
   10.9097   11.8051   18.4804 C   0  0  0  0  0  0  0  0  0  0  0  0
   11.2280   12.9135   17.5669 C   0  0  0  0  0  0  0  0  0  0  0  0
   12.3782    5.4231   20.7777 C   0  0  0  0  0  0  0  0  0  0  0  0
    7.7365    4.6508   21.6987 C   0  0  0  0  0  0  0  0  0  0  0  0
   13.0186   11.0102   18.0020 C   0  0  0  0  0  0  0  0  0  0  0  0
    8.6628    5.7088   21.8871 N   0  0  0  0  0  0  0  0  0  0  0  0
    5.6516    3.5258   21.9140 C   0  0  0  0  0  0  0  0  0  0  0  0
   11.5863    9.6815   19.4539 C   0  0  0  0  0  0  0  0  0  0  0  0
   12.9648    4.1543   20.9205 C   0  0  0  0  0  0  0  0  0  0  0  0
    8.2089    3.6265   20.8929 C   0  0  0  0  0  0  0  0  0  0  0  0
    7.3827    2.5724   20.5432 C   0  0  0  0  0  0  0  0  0  0  0  0
   11.1529    7.2750   20.8025 C   0  0  0  0  0  0  0  0  0  0  0  0
   10.2573    8.3215   20.9827 C   0  0  0  0  0  0  0  0  0  0  0  0
   11.1606    5.9378   21.2366 N   0  0  0  0  0  0  0  0  0  0  0  0
    9.8932   11.6736   19.0677 O   0  0  0  0  0  0  0  0  0  0  0  0
    6.4470    4.5850   22.2321 C   0  0  0  0  0  0  0  0  0  0  0  0
    8.4619    6.9895   22.2968 C   0  0  0  0  0  0  0  0  0  0  0  0
   12.2747    7.5102   20.0420 C   0  0  0  0  0  0  0  0  0  0  0  0
   14.2544    6.2142   19.4191 C   0  0  0  0  0  0  0  0  0  0  0  0
   13.0695    6.3705   20.0375 N   0  0  0  0  0  0  0  0  0  0  0  0
    9.1913    8.0876   21.8361 N   0  0  0  0  0  0  0  0  0  0  0  0
   10.4739    9.4813   20.2889 C   0  0  0  0  0  0  0  0  0  0  0  0
    7.5551    7.1270   23.1200 O   0  0  0  0  0  0  0  0  0  0  0  0
  1 11  4  0
  1 21  4  0
  2  4  1  0
  2  8  1  0
  2 11  1  0
  3 10  4  0
  3 14  4  0
  4  5  1  0
  4 18  2  0
  6 12  1  0
  6 17  4  0
  6 23  4  0
  7  9  1  0
  7 13  4  0
  7 19  4  0
  9 20  1  0
 10 19  4  0
 11 25  4  0
 13 14  4  0
 15 16  4  0
 15 17  4  0
 15 21  4  0
 16 24  1  0
 16 25  4  0
 20 24  1  0
 20 26  2  0
 21 23  4  0
 22 23  1  0
M  END
$$$$

 Created by Python create_sdf_string function

 26 28  0  0  0  0  0  0  0  0999 V2000
   12.4616    8.6700   19.4180 N   0  0  0  0  0  0  0  0  0  0  0  0
   11.8329   10.8148   18.6769 N   0  0  0  0  0  0  0  0  0  0  0  0
    6.1021    2.5564   21.0678 C   0  0  0  0  0  0  0  0  0  0  0  0
   10.9097   11.8051   18.4804 C   0  0  0  0  0  0  0  0  0  0  0  0
   11.2280   12.9135   17.5669 C   0  0  0  0  0  0  0  0  0  0  0  0
   12.3782    5.4231   20.7777 C   0  0  0  0  0  0  0  0  0  0  0  0
    7.7365    4.6508   21.6987 C   0  0  0  0  0  0  0  0  0  0  0  0
   13.0186   11.0102   18.0020 C   0  0  0  0  0  0  0  0  0  0  0  0
    8.6628    5.7088   21.8871 N   0  0  0  0  0  0  0  0  0  0  0  0
    5.6516    3.5258   21.9140 C   0  0  0  0  0  0  0  0  0  0  0  0
   11.5863    9.6815   19.4539 C   0  0  0  0  0  0  0  0  0  0  0  0
   12.9648    4.1543   20.9205 C   0  0  0  0  0  0  0  0  0  0  0  0
    8.2089    3.6265   20.8929 C   0  0  0  0  0  0  0  0  0  0  0  0
    7.3827    2.5724   20.5432 C   0  0  0  0  0  0  0  0  0  0  0  0
   11.1529    7.2750   20.8025 C   0  0  0  0  0  0  0  0  0  0  0  0
   10.2573    8.3215   20.9827 C   0  0  0  0  0  0  0  0  0  0  0  0
   11.1606    5.9378   21.2366 N   0  0  0  0  0  0  0  0  0  0  0  0
    9.8932   11.6736   19.0677 O   0  0  0  0  0  0  0  0  0  0  0  0
    6.4470    4.5850   22.2321 C   0  0  0  0  0  0  0  0  0  0  0  0
    8.4619    6.9895   22.2968 C   0  0  0  0  0  0  0  0  0  0  0  0
   12.2747    7.5102   20.0420 C   0  0  0  0  0  0  0  0  0  0  0  0
   14.2544    6.2142   19.4191 C   0  0  0  0  0  0  0  0  0  0  0  0
   13.0695    6.3705   20.0375 N   0  0  0  0  0  0  0  0  0  0  0  0
    9.1913    8.0876   21.8361 N   0  0  0  0  0  0  0  0  0  0  0  0
   10.4739    9.4813   20.2889 C   0  0  0  0  0  0  0  0  0  0  0  0
    7.5551    7.1270   23.1200 O   0  0  0  0  0  0  0  0  0  0  0  0
  1 11  4  0
  1 21  4  0
  2  4  1  0
  2  8  1  0
  2 11  1  0
  3 10  4  0
  3 14  4  0
  4  5  1  0
  4 18  2  0
  6 12  1  0
  6 17  4  0
  6 23  4  0
  7  9  1  0
  7 13  4  0
  7 19  4  0
  9 20  1  0
 10 19  4  0
 11 25  4  0
 13 14  4  0
 15 16  4  0
 15 17  4  0
 15 21  4  0
 16 24  1  0
 16 25  4  0
 20 24  1  0
 20 26  2  0
 21 23  4  0
 22 23  1  0
M  END
$$$$

 Created by Python create_sdf_string function

 26 28  0  0  0  0  0  0  0  0999 V2000
   12.4616    8.6700   19.4180 N   0  0  0  0  0  0  0  0  0  0  0  0
   11.8329   10.8148   18.6769 N   0  0  0  0  0  0  0  0  0  0  0  0
    6.1021    2.5564   21.0678 C   0  0  0  0  0  0  0  0  0  0  0  0
   10.9097   11.8051   18.4804 C   0  0  0  0  0  0  0  0  0  0  0  0
   11.2280   12.9135   17.5669 C   0  0  0  0  0  0  0  0  0  0  0  0
   12.3782    5.4231   20.7777 C   0  0  0  0  0  0  0  0  0  0  0  0
    7.7365    4.6508   21.6987 C   0  0  0  0  0  0  0  0  0  0  0  0
   13.0186   11.0102   18.0020 C   0  0  0  0  0  0  0  0  0  0  0  0
    8.6628    5.7088   21.8871 N   0  0  0  0  0  0  0  0  0  0  0  0
    5.6516    3.5258   21.9140 C   0  0  0  0  0  0  0  0  0  0  0  0
   11.5863    9.6815   19.4539 C   0  0  0  0  0  0  0  0  0  0  0  0
   12.9648    4.1543   20.9205 C   0  0  0  0  0  0  0  0  0  0  0  0
    8.2089    3.6265   20.8929 C   0  0  0  0  0  0  0  0  0  0  0  0
    7.3827    2.5724   20.5432 C   0  0  0  0  0  0  0  0  0  0  0  0
   11.1529    7.2750   20.8025 C   0  0  0  0  0  0  0  0  0  0  0  0
   10.2573    8.3215   20.9827 C   0  0  0  0  0  0  0  0  0  0  0  0
   11.1606    5.9378   21.2366 N   0  0  0  0  0  0  0  0  0  0  0  0
    9.8932   11.6736   19.0677 O   0  0  0  0  0  0  0  0  0  0  0  0
    6.4470    4.5850   22.2321 C   0  0  0  0  0  0  0  0  0  0  0  0
    8.4619    6.9895   22.2968 C   0  0  0  0  0  0  0  0  0  0  0  0
   12.2747    7.5102   20.0420 C   0  0  0  0  0  0  0  0  0  0  0  0
   14.2544    6.2142   19.4191 C   0  0  0  0  0  0  0  0  0  0  0  0
   13.0695    6.3705   20.0375 N   0  0  0  0  0  0  0  0  0  0  0  0
    9.1913    8.0876   21.8361 N   0  0  0  0  0  0  0  0  0  0  0  0
   10.4739    9.4813   20.2889 C   0  0  0  0  0  0  0  0  0  0  0  0
    7.5551    7.1270   23.1200 O   0  0  0  0  0  0  0  0  0  0  0  0
  1 11  4  0
  1 21  4  0
  2  4  1  0
  2  8  1  0
  2 11  1  0
  3 10  4  0
  3 14  4  0
  4  5  1  0
  4 18  2  0
  6 12  1  0
  6 17  4  0
  6 23  4  0
  7  9  1  0
  7 13  4  0
  7 19  4  0
  9 20  1  0
 10 19  4  0
 11 25  4  0
 13 14  4  0
 15 16  4  0
 15 17  4  0
 15 21  4  0
 16 24  1  0
 16 25  4  0
 20 24  1  0
 20 26  2  0
 21 23  4  0
 22 23  1  0
M  END
$$$$

 Created by Python create_sdf_string function

 26 28  0  0  0  0  0  0  0  0999 V2000
   12.4616    8.6700   19.4180 N   0  0  0  0  0  0  0  0  0  0  0  0
   11.8329   10.8148   18.6769 N   0  0  0  0  0  0  0  0  0  0  0  0
    6.1021    2.5564   21.0678 C   0  0  0  0  0  0  0  0  0  0  0  0
   10.9097   11.8051   18.4804 C   0  0  0  0  0  0  0  0  0  0  0  0
   11.2280   12.9135   17.5669 C   0  0  0  0  0  0  0  0  0  0  0  0
   12.3782    5.4231   20.7777 C   0  0  0  0  0  0  0  0  0  0  0  0
    7.7365    4.6508   21.6987 C   0  0  0  0  0  0  0  0  0  0  0  0
   13.0186   11.0102   18.0020 C   0  0  0  0  0  0  0  0  0  0  0  0
    8.6628    5.7088   21.8871 N   0  0  0  0  0  0  0  0  0  0  0  0
    5.6516    3.5258   21.9140 C   0  0  0  0  0  0  0  0  0  0  0  0
   11.5863    9.6815   19.4539 C   0  0  0  0  0  0  0  0  0  0  0  0
   12.9648    4.1543   20.9205 C   0  0  0  0  0  0  0  0  0  0  0  0
    8.2089    3.6265   20.8929 C   0  0  0  0  0  0  0  0  0  0  0  0
    7.3827    2.5724   20.5432 C   0  0  0  0  0  0  0  0  0  0  0  0
   11.1529    7.2750   20.8025 C   0  0  0  0  0  0  0  0  0  0  0  0
   10.2573    8.3215   20.9827 C   0  0  0  0  0  0  0  0  0  0  0  0
   11.1606    5.9378   21.2366 N   0  0  0  0  0  0  0  0  0  0  0  0
    9.8932   11.6736   19.0677 O   0  0  0  0  0  0  0  0  0  0  0  0
    6.4470    4.5850   22.2321 C   0  0  0  0  0  0  0  0  0  0  0  0
    8.4619    6.9895   22.2968 C   0  0  0  0  0  0  0  0  0  0  0  0
   12.2747    7.5102   20.0420 C   0  0  0  0  0  0  0  0  0  0  0  0
   14.2544    6.2142   19.4191 C   0  0  0  0  0  0  0  0  0  0  0  0
   13.0695    6.3705   20.0375 N   0  0  0  0  0  0  0  0  0  0  0  0
    9.1913    8.0876   21.8361 N   0  0  0  0  0  0  0  0  0  0  0  0
   10.4739    9.4813   20.2889 C   0  0  0  0  0  0  0  0  0  0  0  0
    7.5551    7.1270   23.1200 O   0  0  0  0  0  0  0  0  0  0  0  0
  1 11  4  0
  1 21  4  0
  2  4  1  0
  2  8  1  0
  2 11  1  0
  3 10  4  0
  3 14  4  0
  4  5  1  0
  4 18  2  0
  6 12  1  0
  6 17  4  0
  6 23  4  0
  7  9  1  0
  7 13  4  0
  7 19  4  0
  9 20  1  0
 10 19  4  0
 11 25  4  0
 13 14  4  0
 15 16  4  0
 15 17  4  0
 15 21  4  0
 16 24  1  0
 16 25  4  0
 20 24  1  0
 20 26  2  0
 21 23  4  0
 22 23  1  0
M  END
$$$$

 Created by Python create_sdf_string function

 26 28  0  0  0  0  0  0  0  0999 V2000
   12.4616    8.6700   19.4180 N   0  0  0  0  0  0  0  0  0  0  0  0
   11.8329   10.8148   18.6769 N   0  0  0  0  0  0  0  0  0  0  0  0
    6.1021    2.5564   21.0678 C   0  0  0  0  0  0  0  0  0  0  0  0
   10.9097   11.8051   18.4804 C   0  0  0  0  0  0  0  0  0  0  0  0
   11.2280   12.9135   17.5669 C   0  0  0  0  0  0  0  0  0  0  0  0
   12.3782    5.4231   20.7777 C   0  0  0  0  0  0  0  0  0  0  0  0
    7.7365    4.6508   21.6987 C   0  0  0  0  0  0  0  0  0  0  0  0
   13.0186   11.0102   18.0020 C   0  0  0  0  0  0  0  0  0  0  0  0
    8.6628    5.7088   21.8871 N   0  0  0  0  0  0  0  0  0  0  0  0
    5.6516    3.5258   21.9140 C   0  0  0  0  0  0  0  0  0  0  0  0
   11.5863    9.6815   19.4539 C   0  0  0  0  0  0  0  0  0  0  0  0
   12.9648    4.1543   20.9205 C   0  0  0  0  0  0  0  0  0  0  0  0
    8.2089    3.6265   20.8929 C   0  0  0  0  0  0  0  0  0  0  0  0
    7.3827    2.5724   20.5432 C   0  0  0  0  0  0  0  0  0  0  0  0
   11.1529    7.2750   20.8025 C   0  0  0  0  0  0  0  0  0  0  0  0
   10.2573    8.3215   20.9827 C   0  0  0  0  0  0  0  0  0  0  0  0
   11.1606    5.9378   21.2366 N   0  0  0  0  0  0  0  0  0  0  0  0
    9.8932   11.6736   19.0677 O   0  0  0  0  0  0  0  0  0  0  0  0
    6.4470    4.5850   22.2321 C   0  0  0  0  0  0  0  0  0  0  0  0
    8.4619    6.9895   22.2968 C   0  0  0  0  0  0  0  0  0  0  0  0
   12.2747    7.5102   20.0420 C   0  0  0  0  0  0  0  0  0  0  0  0
   14.2544    6.2142   19.4191 C   0  0  0  0  0  0  0  0  0  0  0  0
   13.0695    6.3705   20.0375 N   0  0  0  0  0  0  0  0  0  0  0  0
    9.1913    8.0876   21.8361 N   0  0  0  0  0  0  0  0  0  0  0  0
   10.4739    9.4813   20.2889 C   0  0  0  0  0  0  0  0  0  0  0  0
    7.5551    7.1270   23.1200 O   0  0  0  0  0  0  0  0  0  0  0  0
  1 11  4  0
  1 21  4  0
  2  4  1  0
  2  8  1  0
  2 11  1  0
  3 10  4  0
  3 14  4  0
  4  5  1  0
  4 18  2  0
  6 12  1  0
  6 17  4  0
  6 23  4  0
  7  9  1  0
  7 13  4  0
  7 19  4  0
  9 20  1  0
 10 19  4  0
 11 25  4  0
 13 14  4  0
 15 16  4  0
 15 17  4  0
 15 21  4  0
 16 24  1  0
 16 25  4  0
 20 24  1  0
 20 26  2  0
 21 23  4  0
 22 23  1  0
M  END
$$$$

 Created by Python create_sdf_string function

 26 28  0  0  0  0  0  0  0  0999 V2000
   12.4616    8.6700   19.4180 N   0  0  0  0  0  0  0  0  0  0  0  0
   11.8329   10.8148   18.6769 N   0  0  0  0  0  0  0  0  0  0  0  0
    6.1021    2.5564   21.0678 C   0  0  0  0  0  0  0  0  0  0  0  0
   10.9097   11.8051   18.4804 C   0  0  0  0  0  0  0  0  0  0  0  0
   11.2280   12.9135   17.5669 C   0  0  0  0  0  0  0  0  0  0  0  0
   12.3782    5.4231   20.7777 C   0  0  0  0  0  0  0  0  0  0  0  0
    7.7365    4.6508   21.6987 C   0  0  0  0  0  0  0  0  0  0  0  0
   13.0186   11.0102   18.0020 C   0  0  0  0  0  0  0  0  0  0  0  0
    8.6628    5.7088   21.8871 N   0  0  0  0  0  0  0  0  0  0  0  0
    5.6516    3.5258   21.9140 C   0  0  0  0  0  0  0  0  0  0  0  0
   11.5863    9.6815   19.4539 C   0  0  0  0  0  0  0  0  0  0  0  0
   12.9648    4.1543   20.9205 C   0  0  0  0  0  0  0  0  0  0  0  0
    8.2089    3.6265   20.8929 C   0  0  0  0  0  0  0  0  0  0  0  0
    7.3827    2.5724   20.5432 C   0  0  0  0  0  0  0  0  0  0  0  0
   11.1529    7.2750   20.8025 C   0  0  0  0  0  0  0  0  0  0  0  0
   10.2573    8.3215   20.9827 C   0  0  0  0  0  0  0  0  0  0  0  0
   11.1606    5.9378   21.2366 N   0  0  0  0  0  0  0  0  0  0  0  0
    9.8932   11.6736   19.0677 O   0  0  0  0  0  0  0  0  0  0  0  0
    6.4470    4.5850   22.2321 C   0  0  0  0  0  0  0  0  0  0  0  0
    8.4619    6.9895   22.2968 C   0  0  0  0  0  0  0  0  0  0  0  0
   12.2747    7.5102   20.0420 C   0  0  0  0  0  0  0  0  0  0  0  0
   14.2544    6.2142   19.4191 C   0  0  0  0  0  0  0  0  0  0  0  0
   13.0695    6.3705   20.0375 N   0  0  0  0  0  0  0  0  0  0  0  0
    9.1913    8.0876   21.8361 N   0  0  0  0  0  0  0  0  0  0  0  0
   10.4739    9.4813   20.2889 C   0  0  0  0  0  0  0  0  0  0  0  0
    7.5551    7.1270   23.1200 O   0  0  0  0  0  0  0  0  0  0  0  0
  1 11  4  0
  1 21  4  0
  2  4  1  0
  2  8  1  0
  2 11  1  0
  3 10  4  0
  3 14  4  0
  4  5  1  0
  4 18  2  0
  6 12  1  0
  6 17  4  0
  6 23  4  0
  7  9  1  0
  7 13  4  0
  7 19  4  0
  9 20  1  0
 10 19  4  0
 11 25  4  0
 13 14  4  0
 15 16  4  0
 15 17  4  0
 15 21  4  0
 16 24  1  0
 16 25  4  0
 20 24  1  0
 20 26  2  0
 21 23  4  0
 22 23  1  0
M  END
$$$$

 Created by Python create_sdf_string function

 26 28  0  0  0  0  0  0  0  0999 V2000
   12.4616    8.6700   19.4180 N   0  0  0  0  0  0  0  0  0  0  0  0
   11.8329   10.8148   18.6769 N   0  0  0  0  0  0  0  0  0  0  0  0
    6.1021    2.5564   21.0678 C   0  0  0  0  0  0  0  0  0  0  0  0
   10.9097   11.8051   18.4804 C   0  0  0  0  0  0  0  0  0  0  0  0
   11.2280   12.9135   17.5669 C   0  0  0  0  0  0  0  0  0  0  0  0
   12.3782    5.4231   20.7777 C   0  0  0  0  0  0  0  0  0  0  0  0
    7.7365    4.6508   21.6987 C   0  0  0  0  0  0  0  0  0  0  0  0
   13.0186   11.0102   18.0020 C   0  0  0  0  0  0  0  0  0  0  0  0
    8.6628    5.7088   21.8871 N   0  0  0  0  0  0  0  0  0  0  0  0
    5.6516    3.5258   21.9140 C   0  0  0  0  0  0  0  0  0  0  0  0
   11.5863    9.6815   19.4539 C   0  0  0  0  0  0  0  0  0  0  0  0
   12.9648    4.1543   20.9205 C   0  0  0  0  0  0  0  0  0  0  0  0
    8.2089    3.6265   20.8929 C   0  0  0  0  0  0  0  0  0  0  0  0
    7.3827    2.5724   20.5432 C   0  0  0  0  0  0  0  0  0  0  0  0
   11.1529    7.2750   20.8025 C   0  0  0  0  0  0  0  0  0  0  0  0
   10.2573    8.3215   20.9827 C   0  0  0  0  0  0  0  0  0  0  0  0
   11.1606    5.9378   21.2366 N   0  0  0  0  0  0  0  0  0  0  0  0
    9.8932   11.6736   19.0677 O   0  0  0  0  0  0  0  0  0  0  0  0
    6.4470    4.5850   22.2321 C   0  0  0  0  0  0  0  0  0  0  0  0
    8.4619    6.9895   22.2968 C   0  0  0  0  0  0  0  0  0  0  0  0
   12.2747    7.5102   20.0420 C   0  0  0  0  0  0  0  0  0  0  0  0
   14.2544    6.2142   19.4191 C   0  0  0  0  0  0  0  0  0  0  0  0
   13.0695    6.3705   20.0375 N   0  0  0  0  0  0  0  0  0  0  0  0
    9.1913    8.0876   21.8361 N   0  0  0  0  0  0  0  0  0  0  0  0
   10.4739    9.4813   20.2889 C   0  0  0  0  0  0  0  0  0  0  0  0
    7.5551    7.1270   23.1200 O   0  0  0  0  0  0  0  0  0  0  0  0
  1 11  4  0
  1 21  4  0
  2  4  1  0
  2  8  1  0
  2 11  1  0
  3 10  4  0
  3 14  4  0
  4  5  1  0
  4 18  2  0
  6 12  1  0
  6 17  4  0
  6 23  4  0
  7  9  1  0
  7 13  4  0
  7 19  4  0
  9 20  1  0
 10 19  4  0
 11 25  4  0
 13 14  4  0
 15 16  4  0
 15 17  4  0
 15 21  4  0
 16 24  1  0
 16 25  4  0
 20 24  1  0
 20 26  2  0
 21 23  4  0
 22 23  1  0
M  END
$$$$

 Created by Python create_sdf_string function

 26 28  0  0  0  0  0  0  0  0999 V2000
   12.4616    8.6700   19.4180 N   0  0  0  0  0  0  0  0  0  0  0  0
   11.8329   10.8148   18.6769 N   0  0  0  0  0  0  0  0  0  0  0  0
    6.1021    2.5564   21.0678 C   0  0  0  0  0  0  0  0  0  0  0  0
   10.9097   11.8051   18.4804 C   0  0  0  0  0  0  0  0  0  0  0  0
   11.2280   12.9135   17.5669 C   0  0  0  0  0  0  0  0  0  0  0  0
   12.3782    5.4231   20.7777 C   0  0  0  0  0  0  0  0  0  0  0  0
    7.7365    4.6508   21.6987 C   0  0  0  0  0  0  0  0  0  0  0  0
   13.0186   11.0102   18.0020 C   0  0  0  0  0  0  0  0  0  0  0  0
    8.6628    5.7088   21.8871 N   0  0  0  0  0  0  0  0  0  0  0  0
    5.6516    3.5258   21.9140 C   0  0  0  0  0  0  0  0  0  0  0  0
   11.5863    9.6815   19.4539 C   0  0  0  0  0  0  0  0  0  0  0  0
   12.9648    4.1543   20.9205 C   0  0  0  0  0  0  0  0  0  0  0  0
    8.2089    3.6265   20.8929 C   0  0  0  0  0  0  0  0  0  0  0  0
    7.3827    2.5724   20.5432 C   0  0  0  0  0  0  0  0  0  0  0  0
   11.1529    7.2750   20.8025 C   0  0  0  0  0  0  0  0  0  0  0  0
   10.2573    8.3215   20.9827 C   0  0  0  0  0  0  0  0  0  0  0  0
   11.1606    5.9378   21.2366 N   0  0  0  0  0  0  0  0  0  0  0  0
    9.8932   11.6736   19.0677 O   0  0  0  0  0  0  0  0  0  0  0  0
    6.4470    4.5850   22.2321 C   0  0  0  0  0  0  0  0  0  0  0  0
    8.4619    6.9895   22.2968 C   0  0  0  0  0  0  0  0  0  0  0  0
   12.2747    7.5102   20.0420 C   0  0  0  0  0  0  0  0  0  0  0  0
   14.2544    6.2142   19.4191 C   0  0  0  0  0  0  0  0  0  0  0  0
   13.0695    6.3705   20.0375 N   0  0  0  0  0  0  0  0  0  0  0  0
    9.1913    8.0876   21.8361 N   0  0  0  0  0  0  0  0  0  0  0  0
   10.4739    9.4813   20.2889 C   0  0  0  0  0  0  0  0  0  0  0  0
    7.5551    7.1270   23.1200 O   0  0  0  0  0  0  0  0  0  0  0  0
  1 11  4  0
  1 21  4  0
  2  4  1  0
  2  8  1  0
  2 11  1  0
  3 10  4  0
  3 14  4  0
  4  5  1  0
  4 18  2  0
  6 12  1  0
  6 17  4  0
  6 23  4  0
  7  9  1  0
  7 13  4  0
  7 19  4  0
  9 20  1  0
 10 19  4  0
 11 25  4  0
 13 14  4  0
 15 16  4  0
 15 17  4  0
 15 21  4  0
 16 24  1  0
 16 25  4  0
 20 24  1  0
 20 26  2  0
 21 23  4  0
 22 23  1  0
M  END
$$$$

 Created by Python create_sdf_string function

 26 28  0  0  0  0  0  0  0  0999 V2000
   12.4616    8.6700   19.4180 N   0  0  0  0  0  0  0  0  0  0  0  0
   11.8329   10.8148   18.6769 N   0  0  0  0  0  0  0  0  0  0  0  0
    6.1021    2.5564   21.0678 C   0  0  0  0  0  0  0  0  0  0  0  0
   10.9097   11.8051   18.4804 C   0  0  0  0  0  0  0  0  0  0  0  0
   11.2280   12.9135   17.5669 C   0  0  0  0  0  0  0  0  0  0  0  0
   12.3782    5.4231   20.7777 C   0  0  0  0  0  0  0  0  0  0  0  0
    7.7365    4.6508   21.6987 C   0  0  0  0  0  0  0  0  0  0  0  0
   13.0186   11.0102   18.0020 C   0  0  0  0  0  0  0  0  0  0  0  0
    8.6628    5.7088   21.8871 N   0  0  0  0  0  0  0  0  0  0  0  0
    5.6516    3.5258   21.9140 C   0  0  0  0  0  0  0  0  0  0  0  0
   11.5863    9.6815   19.4539 C   0  0  0  0  0  0  0  0  0  0  0  0
   12.9648    4.1543   20.9205 C   0  0  0  0  0  0  0  0  0  0  0  0
    8.2089    3.6265   20.8929 C   0  0  0  0  0  0  0  0  0  0  0  0
    7.3827    2.5724   20.5432 C   0  0  0  0  0  0  0  0  0  0  0  0
   11.1529    7.2750   20.8025 C   0  0  0  0  0  0  0  0  0  0  0  0
   10.2573    8.3215   20.9827 C   0  0  0  0  0  0  0  0  0  0  0  0
   11.1606    5.9378   21.2366 N   0  0  0  0  0  0  0  0  0  0  0  0
    9.8932   11.6736   19.0677 O   0  0  0  0  0  0  0  0  0  0  0  0
    6.4470    4.5850   22.2321 C   0  0  0  0  0  0  0  0  0  0  0  0
    8.4619    6.9895   22.2968 C   0  0  0  0  0  0  0  0  0  0  0  0
   12.2747    7.5102   20.0420 C   0  0  0  0  0  0  0  0  0  0  0  0
   14.2544    6.2142   19.4191 C   0  0  0  0  0  0  0  0  0  0  0  0
   13.0695    6.3705   20.0375 N   0  0  0  0  0  0  0  0  0  0  0  0
    9.1913    8.0876   21.8361 N   0  0  0  0  0  0  0  0  0  0  0  0
   10.4739    9.4813   20.2889 C   0  0  0  0  0  0  0  0  0  0  0  0
    7.5551    7.1270   23.1200 O   0  0  0  0  0  0  0  0  0  0  0  0
  1 11  4  0
  1 21  4  0
  2  4  1  0
  2  8  1  0
  2 11  1  0
  3 10  4  0
  3 14  4  0
  4  5  1  0
  4 18  2  0
  6 12  1  0
  6 17  4  0
  6 23  4  0
  7  9  1  0
  7 13  4  0
  7 19  4  0
  9 20  1  0
 10 19  4  0
 11 25  4  0
 13 14  4  0
 15 16  4  0
 15 17  4  0
 15 21  4  0
 16 24  1  0
 16 25  4  0
 20 24  1  0
 20 26  2  0
 21 23  4  0
 22 23  1  0
M  END
$$$$

 Created by Python create_sdf_string function

 26 28  0  0  0  0  0  0  0  0999 V2000
   12.4616    8.6700   19.4180 N   0  0  0  0  0  0  0  0  0  0  0  0
   11.8329   10.8148   18.6769 N   0  0  0  0  0  0  0  0  0  0  0  0
    6.1021    2.5564   21.0678 C   0  0  0  0  0  0  0  0  0  0  0  0
   10.9097   11.8051   18.4804 C   0  0  0  0  0  0  0  0  0  0  0  0
   11.2280   12.9135   17.5669 C   0  0  0  0  0  0  0  0  0  0  0  0
   12.3782    5.4231   20.7777 C   0  0  0  0  0  0  0  0  0  0  0  0
    7.7365    4.6508   21.6987 C   0  0  0  0  0  0  0  0  0  0  0  0
   13.0186   11.0102   18.0020 C   0  0  0  0  0  0  0  0  0  0  0  0
    8.6628    5.7088   21.8871 N   0  0  0  0  0  0  0  0  0  0  0  0
    5.6516    3.5258   21.9140 C   0  0  0  0  0  0  0  0  0  0  0  0
   11.5863    9.6815   19.4539 C   0  0  0  0  0  0  0  0  0  0  0  0
   12.9648    4.1543   20.9205 C   0  0  0  0  0  0  0  0  0  0  0  0
    8.2089    3.6265   20.8929 C   0  0  0  0  0  0  0  0  0  0  0  0
    7.3827    2.5724   20.5432 C   0  0  0  0  0  0  0  0  0  0  0  0
   11.1529    7.2750   20.8025 C   0  0  0  0  0  0  0  0  0  0  0  0
   10.2573    8.3215   20.9827 C   0  0  0  0  0  0  0  0  0  0  0  0
   11.1606    5.9378   21.2366 N   0  0  0  0  0  0  0  0  0  0  0  0
    9.8932   11.6736   19.0677 O   0  0  0  0  0  0  0  0  0  0  0  0
    6.4470    4.5850   22.2321 C   0  0  0  0  0  0  0  0  0  0  0  0
    8.4619    6.9895   22.2968 C   0  0  0  0  0  0  0  0  0  0  0  0
   12.2747    7.5102   20.0420 C   0  0  0  0  0  0  0  0  0  0  0  0
   14.2544    6.2142   19.4191 C   0  0  0  0  0  0  0  0  0  0  0  0
   13.0695    6.3705   20.0375 N   0  0  0  0  0  0  0  0  0  0  0  0
    9.1913    8.0876   21.8361 N   0  0  0  0  0  0  0  0  0  0  0  0
   10.4739    9.4813   20.2889 C   0  0  0  0  0  0  0  0  0  0  0  0
    7.5551    7.1270   23.1200 O   0  0  0  0  0  0  0  0  0  0  0  0
  1 11  4  0
  1 21  4  0
  2  4  1  0
  2  8  1  0
  2 11  1  0
  3 10  4  0
  3 14  4  0
  4  5  1  0
  4 18  2  0
  6 12  1  0
  6 17  4  0
  6 23  4  0
  7  9  1  0
  7 13  4  0
  7 19  4  0
  9 20  1  0
 10 19  4  0
 11 25  4  0
 13 14  4  0
 15 16  4  0
 15 17  4  0
 15 21  4  0
 16 24  1  0
 16 25  4  0
 20 24  1  0
 20 26  2  0
 21 23  4  0
 22 23  1  0
M  END
$$$$

 Created by Python create_sdf_string function

 26 28  0  0  0  0  0  0  0  0999 V2000
   12.4616    8.6700   19.4180 N   0  0  0  0  0  0  0  0  0  0  0  0
   11.8329   10.8148   18.6769 N   0  0  0  0  0  0  0  0  0  0  0  0
    6.1021    2.5564   21.0678 C   0  0  0  0  0  0  0  0  0  0  0  0
   10.9097   11.8051   18.4804 C   0  0  0  0  0  0  0  0  0  0  0  0
   11.2280   12.9135   17.5669 C   0  0  0  0  0  0  0  0  0  0  0  0
   12.3782    5.4231   20.7777 C   0  0  0  0  0  0  0  0  0  0  0  0
    7.7365    4.6508   21.6987 C   0  0  0  0  0  0  0  0  0  0  0  0
   13.0186   11.0102   18.0020 C   0  0  0  0  0  0  0  0  0  0  0  0
    8.6628    5.7088   21.8871 N   0  0  0  0  0  0  0  0  0  0  0  0
    5.6516    3.5258   21.9140 C   0  0  0  0  0  0  0  0  0  0  0  0
   11.5863    9.6815   19.4539 C   0  0  0  0  0  0  0  0  0  0  0  0
   12.9648    4.1543   20.9205 C   0  0  0  0  0  0  0  0  0  0  0  0
    8.2089    3.6265   20.8929 C   0  0  0  0  0  0  0  0  0  0  0  0
    7.3827    2.5724   20.5432 C   0  0  0  0  0  0  0  0  0  0  0  0
   11.1529    7.2750   20.8025 C   0  0  0  0  0  0  0  0  0  0  0  0
   10.2573    8.3215   20.9827 C   0  0  0  0  0  0  0  0  0  0  0  0
   11.1606    5.9378   21.2366 N   0  0  0  0  0  0  0  0  0  0  0  0
    9.8932   11.6736   19.0677 O   0  0  0  0  0  0  0  0  0  0  0  0
    6.4470    4.5850   22.2321 C   0  0  0  0  0  0  0  0  0  0  0  0
    8.4619    6.9895   22.2968 C   0  0  0  0  0  0  0  0  0  0  0  0
   12.2747    7.5102   20.0420 C   0  0  0  0  0  0  0  0  0  0  0  0
   14.2544    6.2142   19.4191 C   0  0  0  0  0  0  0  0  0  0  0  0
   13.0695    6.3705   20.0375 N   0  0  0  0  0  0  0  0  0  0  0  0
    9.1913    8.0876   21.8361 N   0  0  0  0  0  0  0  0  0  0  0  0
   10.4739    9.4813   20.2889 C   0  0  0  0  0  0  0  0  0  0  0  0
    7.5551    7.1270   23.1200 O   0  0  0  0  0  0  0  0  0  0  0  0
  1 11  4  0
  1 21  4  0
  2  4  1  0
  2  8  1  0
  2 11  1  0
  3 10  4  0
  3 14  4  0
  4  5  1  0
  4 18  2  0
  6 12  1  0
  6 17  4  0
  6 23  4  0
  7  9  1  0
  7 13  4  0
  7 19  4  0
  9 20  1  0
 10 19  4  0
 11 25  4  0
 13 14  4  0
 15 16  4  0
 15 17  4  0
 15 21  4  0
 16 24  1  0
 16 25  4  0
 20 24  1  0
 20 26  2  0
 21 23  4  0
 22 23  1  0
M  END
$$$$

 Created by Python create_sdf_string function

 26 28  0  0  0  0  0  0  0  0999 V2000
   12.4616    8.6700   19.4180 N   0  0  0  0  0  0  0  0  0  0  0  0
   11.8329   10.8148   18.6769 N   0  0  0  0  0  0  0  0  0  0  0  0
    6.1021    2.5564   21.0678 C   0  0  0  0  0  0  0  0  0  0  0  0
   10.9097   11.8051   18.4804 C   0  0  0  0  0  0  0  0  0  0  0  0
   11.2280   12.9135   17.5669 C   0  0  0  0  0  0  0  0  0  0  0  0
   12.3782    5.4231   20.7777 C   0  0  0  0  0  0  0  0  0  0  0  0
    7.7365    4.6508   21.6987 C   0  0  0  0  0  0  0  0  0  0  0  0
   13.0186   11.0102   18.0020 C   0  0  0  0  0  0  0  0  0  0  0  0
    8.6628    5.7088   21.8871 N   0  0  0  0  0  0  0  0  0  0  0  0
    5.6516    3.5258   21.9140 C   0  0  0  0  0  0  0  0  0  0  0  0
   11.5863    9.6815   19.4539 C   0  0  0  0  0  0  0  0  0  0  0  0
   12.9648    4.1543   20.9205 C   0  0  0  0  0  0  0  0  0  0  0  0
    8.2089    3.6265   20.8929 C   0  0  0  0  0  0  0  0  0  0  0  0
    7.3827    2.5724   20.5432 C   0  0  0  0  0  0  0  0  0  0  0  0
   11.1529    7.2750   20.8025 C   0  0  0  0  0  0  0  0  0  0  0  0
   10.2573    8.3215   20.9827 C   0  0  0  0  0  0  0  0  0  0  0  0
   11.1606    5.9378   21.2366 N   0  0  0  0  0  0  0  0  0  0  0  0
    9.8932   11.6736   19.0677 O   0  0  0  0  0  0  0  0  0  0  0  0
    6.4470    4.5850   22.2321 C   0  0  0  0  0  0  0  0  0  0  0  0
    8.4619    6.9895   22.2968 C   0  0  0  0  0  0  0  0  0  0  0  0
   12.2747    7.5102   20.0420 C   0  0  0  0  0  0  0  0  0  0  0  0
   14.2544    6.2142   19.4191 C   0  0  0  0  0  0  0  0  0  0  0  0
   13.0695    6.3705   20.0375 N   0  0  0  0  0  0  0  0  0  0  0  0
    9.1913    8.0876   21.8361 N   0  0  0  0  0  0  0  0  0  0  0  0
   10.4739    9.4813   20.2889 C   0  0  0  0  0  0  0  0  0  0  0  0
    7.5551    7.1270   23.1200 O   0  0  0  0  0  0  0  0  0  0  0  0
  1 11  4  0
  1 21  4  0
  2  4  1  0
  2  8  1  0
  2 11  1  0
  3 10  4  0
  3 14  4  0
  4  5  1  0
  4 18  2  0
  6 12  1  0
  6 17  4  0
  6 23  4  0
  7  9  1  0
  7 13  4  0
  7 19  4  0
  9 20  1  0
 10 19  4  0
 11 25  4  0
 13 14  4  0
 15 16  4  0
 15 17  4  0
 15 21  4  0
 16 24  1  0
 16 25  4  0
 20 24  1  0
 20 26  2  0
 21 23  4  0
 22 23  1  0
M  END
$$$$

 Created by Python create_sdf_string function

 26 28  0  0  0  0  0  0  0  0999 V2000
   12.4616    8.6700   19.4180 N   0  0  0  0  0  0  0  0  0  0  0  0
   11.8329   10.8148   18.6769 N   0  0  0  0  0  0  0  0  0  0  0  0
    6.1021    2.5564   21.0678 C   0  0  0  0  0  0  0  0  0  0  0  0
   10.9097   11.8051   18.4804 C   0  0  0  0  0  0  0  0  0  0  0  0
   11.2280   12.9135   17.5669 C   0  0  0  0  0  0  0  0  0  0  0  0
   12.3782    5.4231   20.7777 C   0  0  0  0  0  0  0  0  0  0  0  0
    7.7365    4.6508   21.6987 C   0  0  0  0  0  0  0  0  0  0  0  0
   13.0186   11.0102   18.0020 C   0  0  0  0  0  0  0  0  0  0  0  0
    8.6628    5.7088   21.8871 N   0  0  0  0  0  0  0  0  0  0  0  0
    5.6516    3.5258   21.9140 C   0  0  0  0  0  0  0  0  0  0  0  0
   11.5863    9.6815   19.4539 C   0  0  0  0  0  0  0  0  0  0  0  0
   12.9648    4.1543   20.9205 C   0  0  0  0  0  0  0  0  0  0  0  0
    8.2089    3.6265   20.8929 C   0  0  0  0  0  0  0  0  0  0  0  0
    7.3827    2.5724   20.5432 C   0  0  0  0  0  0  0  0  0  0  0  0
   11.1529    7.2750   20.8025 C   0  0  0  0  0  0  0  0  0  0  0  0
   10.2573    8.3215   20.9827 C   0  0  0  0  0  0  0  0  0  0  0  0
   11.1606    5.9378   21.2366 N   0  0  0  0  0  0  0  0  0  0  0  0
    9.8932   11.6736   19.0677 O   0  0  0  0  0  0  0  0  0  0  0  0
    6.4470    4.5850   22.2321 C   0  0  0  0  0  0  0  0  0  0  0  0
    8.4619    6.9895   22.2968 C   0  0  0  0  0  0  0  0  0  0  0  0
   12.2747    7.5102   20.0420 C   0  0  0  0  0  0  0  0  0  0  0  0
   14.2544    6.2142   19.4191 C   0  0  0  0  0  0  0  0  0  0  0  0
   13.0695    6.3705   20.0375 N   0  0  0  0  0  0  0  0  0  0  0  0
    9.1913    8.0876   21.8361 N   0  0  0  0  0  0  0  0  0  0  0  0
   10.4739    9.4813   20.2889 C   0  0  0  0  0  0  0  0  0  0  0  0
    7.5551    7.1270   23.1200 O   0  0  0  0  0  0  0  0  0  0  0  0
  1 11  4  0
  1 21  4  0
  2  4  1  0
  2  8  1  0
  2 11  1  0
  3 10  4  0
  3 14  4  0
  4  5  1  0
  4 18  2  0
  6 12  1  0
  6 17  4  0
  6 23  4  0
  7  9  1  0
  7 13  4  0
  7 19  4  0
  9 20  1  0
 10 19  4  0
 11 25  4  0
 13 14  4  0
 15 16  4  0
 15 17  4  0
 15 21  4  0
 16 24  1  0
 16 25  4  0
 20 24  1  0
 20 26  2  0
 21 23  4  0
 22 23  1  0
M  END
$$$$

 Created by Python create_sdf_string function

 26 28  0  0  0  0  0  0  0  0999 V2000
   12.4616    8.6700   19.4180 N   0  0  0  0  0  0  0  0  0  0  0  0
   11.8329   10.8148   18.6769 N   0  0  0  0  0  0  0  0  0  0  0  0
    6.1021    2.5564   21.0678 C   0  0  0  0  0  0  0  0  0  0  0  0
   10.9097   11.8051   18.4804 C   0  0  0  0  0  0  0  0  0  0  0  0
   11.2280   12.9135   17.5669 C   0  0  0  0  0  0  0  0  0  0  0  0
   12.3782    5.4231   20.7777 C   0  0  0  0  0  0  0  0  0  0  0  0
    7.7365    4.6508   21.6987 C   0  0  0  0  0  0  0  0  0  0  0  0
   13.0186   11.0102   18.0020 C   0  0  0  0  0  0  0  0  0  0  0  0
    8.6628    5.7088   21.8871 N   0  0  0  0  0  0  0  0  0  0  0  0
    5.6516    3.5258   21.9140 C   0  0  0  0  0  0  0  0  0  0  0  0
   11.5863    9.6815   19.4539 C   0  0  0  0  0  0  0  0  0  0  0  0
   12.9648    4.1543   20.9205 C   0  0  0  0  0  0  0  0  0  0  0  0
    8.2089    3.6265   20.8929 C   0  0  0  0  0  0  0  0  0  0  0  0
    7.3827    2.5724   20.5432 C   0  0  0  0  0  0  0  0  0  0  0  0
   11.1529    7.2750   20.8025 C   0  0  0  0  0  0  0  0  0  0  0  0
   10.2573    8.3215   20.9827 C   0  0  0  0  0  0  0  0  0  0  0  0
   11.1606    5.9378   21.2366 N   0  0  0  0  0  0  0  0  0  0  0  0
    9.8932   11.6736   19.0677 O   0  0  0  0  0  0  0  0  0  0  0  0
    6.4470    4.5850   22.2321 C   0  0  0  0  0  0  0  0  0  0  0  0
    8.4619    6.9895   22.2968 C   0  0  0  0  0  0  0  0  0  0  0  0
   12.2747    7.5102   20.0420 C   0  0  0  0  0  0  0  0  0  0  0  0
   14.2544    6.2142   19.4191 C   0  0  0  0  0  0  0  0  0  0  0  0
   13.0695    6.3705   20.0375 N   0  0  0  0  0  0  0  0  0  0  0  0
    9.1913    8.0876   21.8361 N   0  0  0  0  0  0  0  0  0  0  0  0
   10.4739    9.4813   20.2889 C   0  0  0  0  0  0  0  0  0  0  0  0
    7.5551    7.1270   23.1200 O   0  0  0  0  0  0  0  0  0  0  0  0
  1 11  4  0
  1 21  4  0
  2  4  1  0
  2  8  1  0
  2 11  1  0
  3 10  4  0
  3 14  4  0
  4  5  1  0
  4 18  2  0
  6 12  1  0
  6 17  4  0
  6 23  4  0
  7  9  1  0
  7 13  4  0
  7 19  4  0
  9 20  1  0
 10 19  4  0
 11 25  4  0
 13 14  4  0
 15 16  4  0
 15 17  4  0
 15 21  4  0
 16 24  1  0
 16 25  4  0
 20 24  1  0
 20 26  2  0
 21 23  4  0
 22 23  1  0
M  END
$$$$

 Created by Python create_sdf_string function

 26 28  0  0  0  0  0  0  0  0999 V2000
   12.4616    8.6700   19.4180 N   0  0  0  0  0  0  0  0  0  0  0  0
   11.8329   10.8148   18.6769 N   0  0  0  0  0  0  0  0  0  0  0  0
    6.1021    2.5564   21.0678 C   0  0  0  0  0  0  0  0  0  0  0  0
   10.9097   11.8051   18.4804 C   0  0  0  0  0  0  0  0  0  0  0  0
   11.2280   12.9135   17.5669 C   0  0  0  0  0  0  0  0  0  0  0  0
   12.3782    5.4231   20.7777 C   0  0  0  0  0  0  0  0  0  0  0  0
    7.7365    4.6508   21.6987 C   0  0  0  0  0  0  0  0  0  0  0  0
   13.0186   11.0102   18.0020 C   0  0  0  0  0  0  0  0  0  0  0  0
    8.6628    5.7088   21.8871 N   0  0  0  0  0  0  0  0  0  0  0  0
    5.6516    3.5258   21.9140 C   0  0  0  0  0  0  0  0  0  0  0  0
   11.5863    9.6815   19.4539 C   0  0  0  0  0  0  0  0  0  0  0  0
   12.9648    4.1543   20.9205 C   0  0  0  0  0  0  0  0  0  0  0  0
    8.2089    3.6265   20.8929 C   0  0  0  0  0  0  0  0  0  0  0  0
    7.3827    2.5724   20.5432 C   0  0  0  0  0  0  0  0  0  0  0  0
   11.1529    7.2750   20.8025 C   0  0  0  0  0  0  0  0  0  0  0  0
   10.2573    8.3215   20.9827 C   0  0  0  0  0  0  0  0  0  0  0  0
   11.1606    5.9378   21.2366 N   0  0  0  0  0  0  0  0  0  0  0  0
    9.8932   11.6736   19.0677 O   0  0  0  0  0  0  0  0  0  0  0  0
    6.4470    4.5850   22.2321 C   0  0  0  0  0  0  0  0  0  0  0  0
    8.4619    6.9895   22.2968 C   0  0  0  0  0  0  0  0  0  0  0  0
   12.2747    7.5102   20.0420 C   0  0  0  0  0  0  0  0  0  0  0  0
   14.2544    6.2142   19.4191 C   0  0  0  0  0  0  0  0  0  0  0  0
   13.0695    6.3705   20.0375 N   0  0  0  0  0  0  0  0  0  0  0  0
    9.1913    8.0876   21.8361 N   0  0  0  0  0  0  0  0  0  0  0  0
   10.4739    9.4813   20.2889 C   0  0  0  0  0  0  0  0  0  0  0  0
    7.5551    7.1270   23.1200 O   0  0  0  0  0  0  0  0  0  0  0  0
  1 11  4  0
  1 21  4  0
  2  4  1  0
  2  8  1  0
  2 11  1  0
  3 10  4  0
  3 14  4  0
  4  5  1  0
  4 18  2  0
  6 12  1  0
  6 17  4  0
  6 23  4  0
  7  9  1  0
  7 13  4  0
  7 19  4  0
  9 20  1  0
 10 19  4  0
 11 25  4  0
 13 14  4  0
 15 16  4  0
 15 17  4  0
 15 21  4  0
 16 24  1  0
 16 25  4  0
 20 24  1  0
 20 26  2  0
 21 23  4  0
 22 23  1  0
M  END
$$$$

 Created by Python create_sdf_string function

 26 28  0  0  0  0  0  0  0  0999 V2000
   12.4616    8.6700   19.4180 N   0  0  0  0  0  0  0  0  0  0  0  0
   11.8329   10.8148   18.6769 N   0  0  0  0  0  0  0  0  0  0  0  0
    6.1021    2.5564   21.0678 C   0  0  0  0  0  0  0  0  0  0  0  0
   10.9097   11.8051   18.4804 C   0  0  0  0  0  0  0  0  0  0  0  0
   11.2280   12.9135   17.5669 C   0  0  0  0  0  0  0  0  0  0  0  0
   12.3782    5.4231   20.7777 C   0  0  0  0  0  0  0  0  0  0  0  0
    7.7365    4.6508   21.6987 C   0  0  0  0  0  0  0  0  0  0  0  0
   13.0186   11.0102   18.0020 C   0  0  0  0  0  0  0  0  0  0  0  0
    8.6628    5.7088   21.8871 N   0  0  0  0  0  0  0  0  0  0  0  0
    5.6516    3.5258   21.9140 C   0  0  0  0  0  0  0  0  0  0  0  0
   11.5863    9.6815   19.4539 C   0  0  0  0  0  0  0  0  0  0  0  0
   12.9648    4.1543   20.9205 C   0  0  0  0  0  0  0  0  0  0  0  0
    8.2089    3.6265   20.8929 C   0  0  0  0  0  0  0  0  0  0  0  0
    7.3827    2.5724   20.5432 C   0  0  0  0  0  0  0  0  0  0  0  0
   11.1529    7.2750   20.8025 C   0  0  0  0  0  0  0  0  0  0  0  0
   10.2573    8.3215   20.9827 C   0  0  0  0  0  0  0  0  0  0  0  0
   11.1606    5.9378   21.2366 N   0  0  0  0  0  0  0  0  0  0  0  0
    9.8932   11.6736   19.0677 O   0  0  0  0  0  0  0  0  0  0  0  0
    6.4470    4.5850   22.2321 C   0  0  0  0  0  0  0  0  0  0  0  0
    8.4619    6.9895   22.2968 C   0  0  0  0  0  0  0  0  0  0  0  0
   12.2747    7.5102   20.0420 C   0  0  0  0  0  0  0  0  0  0  0  0
   14.2544    6.2142   19.4191 C   0  0  0  0  0  0  0  0  0  0  0  0
   13.0695    6.3705   20.0375 N   0  0  0  0  0  0  0  0  0  0  0  0
    9.1913    8.0876   21.8361 N   0  0  0  0  0  0  0  0  0  0  0  0
   10.4739    9.4813   20.2889 C   0  0  0  0  0  0  0  0  0  0  0  0
    7.5551    7.1270   23.1200 O   0  0  0  0  0  0  0  0  0  0  0  0
  1 11  4  0
  1 21  4  0
  2  4  1  0
  2  8  1  0
  2 11  1  0
  3 10  4  0
  3 14  4  0
  4  5  1  0
  4 18  2  0
  6 12  1  0
  6 17  4  0
  6 23  4  0
  7  9  1  0
  7 13  4  0
  7 19  4  0
  9 20  1  0
 10 19  4  0
 11 25  4  0
 13 14  4  0
 15 16  4  0
 15 17  4  0
 15 21  4  0
 16 24  1  0
 16 25  4  0
 20 24  1  0
 20 26  2  0
 21 23  4  0
 22 23  1  0
M  END
$$$$

 Created by Python create_sdf_string function

 26 28  0  0  0  0  0  0  0  0999 V2000
   12.4616    8.6700   19.4180 N   0  0  0  0  0  0  0  0  0  0  0  0
   11.8329   10.8148   18.6769 N   0  0  0  0  0  0  0  0  0  0  0  0
    6.1021    2.5564   21.0678 C   0  0  0  0  0  0  0  0  0  0  0  0
   10.9097   11.8051   18.4804 C   0  0  0  0  0  0  0  0  0  0  0  0
   11.2280   12.9135   17.5669 C   0  0  0  0  0  0  0  0  0  0  0  0
   12.3782    5.4231   20.7777 C   0  0  0  0  0  0  0  0  0  0  0  0
    7.7365    4.6508   21.6987 C   0  0  0  0  0  0  0  0  0  0  0  0
   13.0186   11.0102   18.0020 C   0  0  0  0  0  0  0  0  0  0  0  0
    8.6628    5.7088   21.8871 N   0  0  0  0  0  0  0  0  0  0  0  0
    5.6516    3.5258   21.9140 C   0  0  0  0  0  0  0  0  0  0  0  0
   11.5863    9.6815   19.4539 C   0  0  0  0  0  0  0  0  0  0  0  0
   12.9648    4.1543   20.9205 C   0  0  0  0  0  0  0  0  0  0  0  0
    8.2089    3.6265   20.8929 C   0  0  0  0  0  0  0  0  0  0  0  0
    7.3827    2.5724   20.5432 C   0  0  0  0  0  0  0  0  0  0  0  0
   11.1529    7.2750   20.8025 C   0  0  0  0  0  0  0  0  0  0  0  0
   10.2573    8.3215   20.9827 C   0  0  0  0  0  0  0  0  0  0  0  0
   11.1606    5.9378   21.2366 N   0  0  0  0  0  0  0  0  0  0  0  0
    9.8932   11.6736   19.0677 O   0  0  0  0  0  0  0  0  0  0  0  0
    6.4470    4.5850   22.2321 C   0  0  0  0  0  0  0  0  0  0  0  0
    8.4619    6.9895   22.2968 C   0  0  0  0  0  0  0  0  0  0  0  0
   12.2747    7.5102   20.0420 C   0  0  0  0  0  0  0  0  0  0  0  0
   14.2544    6.2142   19.4191 C   0  0  0  0  0  0  0  0  0  0  0  0
   13.0695    6.3705   20.0375 N   0  0  0  0  0  0  0  0  0  0  0  0
    9.1913    8.0876   21.8361 N   0  0  0  0  0  0  0  0  0  0  0  0
   10.4739    9.4813   20.2889 C   0  0  0  0  0  0  0  0  0  0  0  0
    7.5551    7.1270   23.1200 O   0  0  0  0  0  0  0  0  0  0  0  0
  1 11  4  0
  1 21  4  0
  2  4  1  0
  2  8  1  0
  2 11  1  0
  3 10  4  0
  3 14  4  0
  4  5  1  0
  4 18  2  0
  6 12  1  0
  6 17  4  0
  6 23  4  0
  7  9  1  0
  7 13  4  0
  7 19  4  0
  9 20  1  0
 10 19  4  0
 11 25  4  0
 13 14  4  0
 15 16  4  0
 15 17  4  0
 15 21  4  0
 16 24  1  0
 16 25  4  0
 20 24  1  0
 20 26  2  0
 21 23  4  0
 22 23  1  0
M  END
$$$$

 Created by Python create_sdf_string function

 26 28  0  0  0  0  0  0  0  0999 V2000
   12.4616    8.6700   19.4180 N   0  0  0  0  0  0  0  0  0  0  0  0
   11.8329   10.8148   18.6769 N   0  0  0  0  0  0  0  0  0  0  0  0
    6.1021    2.5564   21.0678 C   0  0  0  0  0  0  0  0  0  0  0  0
   10.9097   11.8051   18.4804 C   0  0  0  0  0  0  0  0  0  0  0  0
   11.2280   12.9135   17.5669 C   0  0  0  0  0  0  0  0  0  0  0  0
   12.3782    5.4231   20.7777 C   0  0  0  0  0  0  0  0  0  0  0  0
    7.7365    4.6508   21.6987 C   0  0  0  0  0  0  0  0  0  0  0  0
   13.0186   11.0102   18.0020 C   0  0  0  0  0  0  0  0  0  0  0  0
    8.6628    5.7088   21.8871 N   0  0  0  0  0  0  0  0  0  0  0  0
    5.6516    3.5258   21.9140 C   0  0  0  0  0  0  0  0  0  0  0  0
   11.5863    9.6815   19.4539 C   0  0  0  0  0  0  0  0  0  0  0  0
   12.9648    4.1543   20.9205 C   0  0  0  0  0  0  0  0  0  0  0  0
    8.2089    3.6265   20.8929 C   0  0  0  0  0  0  0  0  0  0  0  0
    7.3827    2.5724   20.5432 C   0  0  0  0  0  0  0  0  0  0  0  0
   11.1529    7.2750   20.8025 C   0  0  0  0  0  0  0  0  0  0  0  0
   10.2573    8.3215   20.9827 C   0  0  0  0  0  0  0  0  0  0  0  0
   11.1606    5.9378   21.2366 N   0  0  0  0  0  0  0  0  0  0  0  0
    9.8932   11.6736   19.0677 O   0  0  0  0  0  0  0  0  0  0  0  0
    6.4470    4.5850   22.2321 C   0  0  0  0  0  0  0  0  0  0  0  0
    8.4619    6.9895   22.2968 C   0  0  0  0  0  0  0  0  0  0  0  0
   12.2747    7.5102   20.0420 C   0  0  0  0  0  0  0  0  0  0  0  0
   14.2544    6.2142   19.4191 C   0  0  0  0  0  0  0  0  0  0  0  0
   13.0695    6.3705   20.0375 N   0  0  0  0  0  0  0  0  0  0  0  0
    9.1913    8.0876   21.8361 N   0  0  0  0  0  0  0  0  0  0  0  0
   10.4739    9.4813   20.2889 C   0  0  0  0  0  0  0  0  0  0  0  0
    7.5551    7.1270   23.1200 O   0  0  0  0  0  0  0  0  0  0  0  0
  1 11  4  0
  1 21  4  0
  2  4  1  0
  2  8  1  0
  2 11  1  0
  3 10  4  0
  3 14  4  0
  4  5  1  0
  4 18  2  0
  6 12  1  0
  6 17  4  0
  6 23  4  0
  7  9  1  0
  7 13  4  0
  7 19  4  0
  9 20  1  0
 10 19  4  0
 11 25  4  0
 13 14  4  0
 15 16  4  0
 15 17  4  0
 15 21  4  0
 16 24  1  0
 16 25  4  0
 20 24  1  0
 20 26  2  0
 21 23  4  0
 22 23  1  0
M  END
$$$$

 Created by Python create_sdf_string function

 26 28  0  0  0  0  0  0  0  0999 V2000
   12.4616    8.6700   19.4180 N   0  0  0  0  0  0  0  0  0  0  0  0
   11.8329   10.8148   18.6769 N   0  0  0  0  0  0  0  0  0  0  0  0
    6.1021    2.5564   21.0678 C   0  0  0  0  0  0  0  0  0  0  0  0
   10.9097   11.8051   18.4804 C   0  0  0  0  0  0  0  0  0  0  0  0
   11.2280   12.9135   17.5669 C   0  0  0  0  0  0  0  0  0  0  0  0
   12.3782    5.4231   20.7777 C   0  0  0  0  0  0  0  0  0  0  0  0
    7.7365    4.6508   21.6987 C   0  0  0  0  0  0  0  0  0  0  0  0
   13.0186   11.0102   18.0020 C   0  0  0  0  0  0  0  0  0  0  0  0
    8.6628    5.7088   21.8871 N   0  0  0  0  0  0  0  0  0  0  0  0
    5.6516    3.5258   21.9140 C   0  0  0  0  0  0  0  0  0  0  0  0
   11.5863    9.6815   19.4539 C   0  0  0  0  0  0  0  0  0  0  0  0
   12.9648    4.1543   20.9205 C   0  0  0  0  0  0  0  0  0  0  0  0
    8.2089    3.6265   20.8929 C   0  0  0  0  0  0  0  0  0  0  0  0
    7.3827    2.5724   20.5432 C   0  0  0  0  0  0  0  0  0  0  0  0
   11.1529    7.2750   20.8025 C   0  0  0  0  0  0  0  0  0  0  0  0
   10.2573    8.3215   20.9827 C   0  0  0  0  0  0  0  0  0  0  0  0
   11.1606    5.9378   21.2366 N   0  0  0  0  0  0  0  0  0  0  0  0
    9.8932   11.6736   19.0677 O   0  0  0  0  0  0  0  0  0  0  0  0
    6.4470    4.5850   22.2321 C   0  0  0  0  0  0  0  0  0  0  0  0
    8.4619    6.9895   22.2968 C   0  0  0  0  0  0  0  0  0  0  0  0
   12.2747    7.5102   20.0420 C   0  0  0  0  0  0  0  0  0  0  0  0
   14.2544    6.2142   19.4191 C   0  0  0  0  0  0  0  0  0  0  0  0
   13.0695    6.3705   20.0375 N   0  0  0  0  0  0  0  0  0  0  0  0
    9.1913    8.0876   21.8361 N   0  0  0  0  0  0  0  0  0  0  0  0
   10.4739    9.4813   20.2889 C   0  0  0  0  0  0  0  0  0  0  0  0
    7.5551    7.1270   23.1200 O   0  0  0  0  0  0  0  0  0  0  0  0
  1 11  4  0
  1 21  4  0
  2  4  1  0
  2  8  1  0
  2 11  1  0
  3 10  4  0
  3 14  4  0
  4  5  1  0
  4 18  2  0
  6 12  1  0
  6 17  4  0
  6 23  4  0
  7  9  1  0
  7 13  4  0
  7 19  4  0
  9 20  1  0
 10 19  4  0
 11 25  4  0
 13 14  4  0
 15 16  4  0
 15 17  4  0
 15 21  4  0
 16 24  1  0
 16 25  4  0
 20 24  1  0
 20 26  2  0
 21 23  4  0
 22 23  1  0
M  END
$$$$

 Created by Python create_sdf_string function

 26 28  0  0  0  0  0  0  0  0999 V2000
   12.4616    8.6700   19.4180 N   0  0  0  0  0  0  0  0  0  0  0  0
   11.8329   10.8148   18.6769 N   0  0  0  0  0  0  0  0  0  0  0  0
    6.1021    2.5564   21.0678 C   0  0  0  0  0  0  0  0  0  0  0  0
   10.9097   11.8051   18.4804 C   0  0  0  0  0  0  0  0  0  0  0  0
   11.2280   12.9135   17.5669 C   0  0  0  0  0  0  0  0  0  0  0  0
   12.3782    5.4231   20.7777 C   0  0  0  0  0  0  0  0  0  0  0  0
    7.7365    4.6508   21.6987 C   0  0  0  0  0  0  0  0  0  0  0  0
   13.0186   11.0102   18.0020 C   0  0  0  0  0  0  0  0  0  0  0  0
    8.6628    5.7088   21.8871 N   0  0  0  0  0  0  0  0  0  0  0  0
    5.6516    3.5258   21.9140 C   0  0  0  0  0  0  0  0  0  0  0  0
   11.5863    9.6815   19.4539 C   0  0  0  0  0  0  0  0  0  0  0  0
   12.9648    4.1543   20.9205 C   0  0  0  0  0  0  0  0  0  0  0  0
    8.2089    3.6265   20.8929 C   0  0  0  0  0  0  0  0  0  0  0  0
    7.3827    2.5724   20.5432 C   0  0  0  0  0  0  0  0  0  0  0  0
   11.1529    7.2750   20.8025 C   0  0  0  0  0  0  0  0  0  0  0  0
   10.2573    8.3215   20.9827 C   0  0  0  0  0  0  0  0  0  0  0  0
   11.1606    5.9378   21.2366 N   0  0  0  0  0  0  0  0  0  0  0  0
    9.8932   11.6736   19.0677 O   0  0  0  0  0  0  0  0  0  0  0  0
    6.4470    4.5850   22.2321 C   0  0  0  0  0  0  0  0  0  0  0  0
    8.4619    6.9895   22.2968 C   0  0  0  0  0  0  0  0  0  0  0  0
   12.2747    7.5102   20.0420 C   0  0  0  0  0  0  0  0  0  0  0  0
   14.2544    6.2142   19.4191 C   0  0  0  0  0  0  0  0  0  0  0  0
   13.0695    6.3705   20.0375 N   0  0  0  0  0  0  0  0  0  0  0  0
    9.1913    8.0876   21.8361 N   0  0  0  0  0  0  0  0  0  0  0  0
   10.4739    9.4813   20.2889 C   0  0  0  0  0  0  0  0  0  0  0  0
    7.5551    7.1270   23.1200 O   0  0  0  0  0  0  0  0  0  0  0  0
  1 11  4  0
  1 21  4  0
  2  4  1  0
  2  8  1  0
  2 11  1  0
  3 10  4  0
  3 14  4  0
  4  5  1  0
  4 18  2  0
  6 12  1  0
  6 17  4  0
  6 23  4  0
  7  9  1  0
  7 13  4  0
  7 19  4  0
  9 20  1  0
 10 19  4  0
 11 25  4  0
 13 14  4  0
 15 16  4  0
 15 17  4  0
 15 21  4  0
 16 24  1  0
 16 25  4  0
 20 24  1  0
 20 26  2  0
 21 23  4  0
 22 23  1  0
M  END
$$$$

 Created by Python create_sdf_string function

 26 28  0  0  0  0  0  0  0  0999 V2000
   12.4616    8.6700   19.4180 N   0  0  0  0  0  0  0  0  0  0  0  0
   11.8329   10.8148   18.6769 N   0  0  0  0  0  0  0  0  0  0  0  0
    6.1021    2.5564   21.0678 C   0  0  0  0  0  0  0  0  0  0  0  0
   10.9097   11.8051   18.4804 C   0  0  0  0  0  0  0  0  0  0  0  0
   11.2280   12.9135   17.5669 C   0  0  0  0  0  0  0  0  0  0  0  0
   12.3782    5.4231   20.7777 C   0  0  0  0  0  0  0  0  0  0  0  0
    7.7365    4.6508   21.6987 C   0  0  0  0  0  0  0  0  0  0  0  0
   13.0186   11.0102   18.0020 C   0  0  0  0  0  0  0  0  0  0  0  0
    8.6628    5.7088   21.8871 N   0  0  0  0  0  0  0  0  0  0  0  0
    5.6516    3.5258   21.9140 C   0  0  0  0  0  0  0  0  0  0  0  0
   11.5863    9.6815   19.4539 C   0  0  0  0  0  0  0  0  0  0  0  0
   12.9648    4.1543   20.9205 C   0  0  0  0  0  0  0  0  0  0  0  0
    8.2089    3.6265   20.8929 C   0  0  0  0  0  0  0  0  0  0  0  0
    7.3827    2.5724   20.5432 C   0  0  0  0  0  0  0  0  0  0  0  0
   11.1529    7.2750   20.8025 C   0  0  0  0  0  0  0  0  0  0  0  0
   10.2573    8.3215   20.9827 C   0  0  0  0  0  0  0  0  0  0  0  0
   11.1606    5.9378   21.2366 N   0  0  0  0  0  0  0  0  0  0  0  0
    9.8932   11.6736   19.0677 O   0  0  0  0  0  0  0  0  0  0  0  0
    6.4470    4.5850   22.2321 C   0  0  0  0  0  0  0  0  0  0  0  0
    8.4619    6.9895   22.2968 C   0  0  0  0  0  0  0  0  0  0  0  0
   12.2747    7.5102   20.0420 C   0  0  0  0  0  0  0  0  0  0  0  0
   14.2544    6.2142   19.4191 C   0  0  0  0  0  0  0  0  0  0  0  0
   13.0695    6.3705   20.0375 N   0  0  0  0  0  0  0  0  0  0  0  0
    9.1913    8.0876   21.8361 N   0  0  0  0  0  0  0  0  0  0  0  0
   10.4739    9.4813   20.2889 C   0  0  0  0  0  0  0  0  0  0  0  0
    7.5551    7.1270   23.1200 O   0  0  0  0  0  0  0  0  0  0  0  0
  1 11  4  0
  1 21  4  0
  2  4  1  0
  2  8  1  0
  2 11  1  0
  3 10  4  0
  3 14  4  0
  4  5  1  0
  4 18  2  0
  6 12  1  0
  6 17  4  0
  6 23  4  0
  7  9  1  0
  7 13  4  0
  7 19  4  0
  9 20  1  0
 10 19  4  0
 11 25  4  0
 13 14  4  0
 15 16  4  0
 15 17  4  0
 15 21  4  0
 16 24  1  0
 16 25  4  0
 20 24  1  0
 20 26  2  0
 21 23  4  0
 22 23  1  0
M  END
$$$$

 Created by Python create_sdf_string function

 26 28  0  0  0  0  0  0  0  0999 V2000
   12.4616    8.6700   19.4180 N   0  0  0  0  0  0  0  0  0  0  0  0
   11.8329   10.8148   18.6769 N   0  0  0  0  0  0  0  0  0  0  0  0
    6.1021    2.5564   21.0678 C   0  0  0  0  0  0  0  0  0  0  0  0
   10.9097   11.8051   18.4804 C   0  0  0  0  0  0  0  0  0  0  0  0
   11.2280   12.9135   17.5669 C   0  0  0  0  0  0  0  0  0  0  0  0
   12.3782    5.4231   20.7777 C   0  0  0  0  0  0  0  0  0  0  0  0
    7.7365    4.6508   21.6987 C   0  0  0  0  0  0  0  0  0  0  0  0
   13.0186   11.0102   18.0020 C   0  0  0  0  0  0  0  0  0  0  0  0
    8.6628    5.7088   21.8871 N   0  0  0  0  0  0  0  0  0  0  0  0
    5.6516    3.5258   21.9140 C   0  0  0  0  0  0  0  0  0  0  0  0
   11.5863    9.6815   19.4539 C   0  0  0  0  0  0  0  0  0  0  0  0
   12.9648    4.1543   20.9205 C   0  0  0  0  0  0  0  0  0  0  0  0
    8.2089    3.6265   20.8929 C   0  0  0  0  0  0  0  0  0  0  0  0
    7.3827    2.5724   20.5432 C   0  0  0  0  0  0  0  0  0  0  0  0
   11.1529    7.2750   20.8025 C   0  0  0  0  0  0  0  0  0  0  0  0
   10.2573    8.3215   20.9827 C   0  0  0  0  0  0  0  0  0  0  0  0
   11.1606    5.9378   21.2366 N   0  0  0  0  0  0  0  0  0  0  0  0
    9.8932   11.6736   19.0677 O   0  0  0  0  0  0  0  0  0  0  0  0
    6.4470    4.5850   22.2321 C   0  0  0  0  0  0  0  0  0  0  0  0
    8.4619    6.9895   22.2968 C   0  0  0  0  0  0  0  0  0  0  0  0
   12.2747    7.5102   20.0420 C   0  0  0  0  0  0  0  0  0  0  0  0
   14.2544    6.2142   19.4191 C   0  0  0  0  0  0  0  0  0  0  0  0
   13.0695    6.3705   20.0375 N   0  0  0  0  0  0  0  0  0  0  0  0
    9.1913    8.0876   21.8361 N   0  0  0  0  0  0  0  0  0  0  0  0
   10.4739    9.4813   20.2889 C   0  0  0  0  0  0  0  0  0  0  0  0
    7.5551    7.1270   23.1200 O   0  0  0  0  0  0  0  0  0  0  0  0
  1 11  4  0
  1 21  4  0
  2  4  1  0
  2  8  1  0
  2 11  1  0
  3 10  4  0
  3 14  4  0
  4  5  1  0
  4 18  2  0
  6 12  1  0
  6 17  4  0
  6 23  4  0
  7  9  1  0
  7 13  4  0
  7 19  4  0
  9 20  1  0
 10 19  4  0
 11 25  4  0
 13 14  4  0
 15 16  4  0
 15 17  4  0
 15 21  4  0
 16 24  1  0
 16 25  4  0
 20 24  1  0
 20 26  2  0
 21 23  4  0
 22 23  1  0
M  END
$$$$

 Created by Python create_sdf_string function

 26 28  0  0  0  0  0  0  0  0999 V2000
   12.4616    8.6700   19.4180 N   0  0  0  0  0  0  0  0  0  0  0  0
   11.8329   10.8148   18.6769 N   0  0  0  0  0  0  0  0  0  0  0  0
    6.1021    2.5564   21.0678 C   0  0  0  0  0  0  0  0  0  0  0  0
   10.9097   11.8051   18.4804 C   0  0  0  0  0  0  0  0  0  0  0  0
   11.2280   12.9135   17.5669 C   0  0  0  0  0  0  0  0  0  0  0  0
   12.3782    5.4231   20.7777 C   0  0  0  0  0  0  0  0  0  0  0  0
    7.7365    4.6508   21.6987 C   0  0  0  0  0  0  0  0  0  0  0  0
   13.0186   11.0102   18.0020 C   0  0  0  0  0  0  0  0  0  0  0  0
    8.6628    5.7088   21.8871 N   0  0  0  0  0  0  0  0  0  0  0  0
    5.6516    3.5258   21.9140 C   0  0  0  0  0  0  0  0  0  0  0  0
   11.5863    9.6815   19.4539 C   0  0  0  0  0  0  0  0  0  0  0  0
   12.9648    4.1543   20.9205 C   0  0  0  0  0  0  0  0  0  0  0  0
    8.2089    3.6265   20.8929 C   0  0  0  0  0  0  0  0  0  0  0  0
    7.3827    2.5724   20.5432 C   0  0  0  0  0  0  0  0  0  0  0  0
   11.1529    7.2750   20.8025 C   0  0  0  0  0  0  0  0  0  0  0  0
   10.2573    8.3215   20.9827 C   0  0  0  0  0  0  0  0  0  0  0  0
   11.1606    5.9378   21.2366 N   0  0  0  0  0  0  0  0  0  0  0  0
    9.8932   11.6736   19.0677 O   0  0  0  0  0  0  0  0  0  0  0  0
    6.4470    4.5850   22.2321 C   0  0  0  0  0  0  0  0  0  0  0  0
    8.4619    6.9895   22.2968 C   0  0  0  0  0  0  0  0  0  0  0  0
   12.2747    7.5102   20.0420 C   0  0  0  0  0  0  0  0  0  0  0  0
   14.2544    6.2142   19.4191 C   0  0  0  0  0  0  0  0  0  0  0  0
   13.0695    6.3705   20.0375 N   0  0  0  0  0  0  0  0  0  0  0  0
    9.1913    8.0876   21.8361 N   0  0  0  0  0  0  0  0  0  0  0  0
   10.4739    9.4813   20.2889 C   0  0  0  0  0  0  0  0  0  0  0  0
    7.5551    7.1270   23.1200 O   0  0  0  0  0  0  0  0  0  0  0  0
  1 11  4  0
  1 21  4  0
  2  4  1  0
  2  8  1  0
  2 11  1  0
  3 10  4  0
  3 14  4  0
  4  5  1  0
  4 18  2  0
  6 12  1  0
  6 17  4  0
  6 23  4  0
  7  9  1  0
  7 13  4  0
  7 19  4  0
  9 20  1  0
 10 19  4  0
 11 25  4  0
 13 14  4  0
 15 16  4  0
 15 17  4  0
 15 21  4  0
 16 24  1  0
 16 25  4  0
 20 24  1  0
 20 26  2  0
 21 23  4  0
 22 23  1  0
M  END
$$$$

 Created by Python create_sdf_string function

 26 28  0  0  0  0  0  0  0  0999 V2000
   12.4616    8.6700   19.4180 N   0  0  0  0  0  0  0  0  0  0  0  0
   11.8329   10.8148   18.6769 N   0  0  0  0  0  0  0  0  0  0  0  0
    6.1021    2.5564   21.0678 C   0  0  0  0  0  0  0  0  0  0  0  0
   10.9097   11.8051   18.4804 C   0  0  0  0  0  0  0  0  0  0  0  0
   11.2280   12.9135   17.5669 C   0  0  0  0  0  0  0  0  0  0  0  0
   12.3782    5.4231   20.7777 C   0  0  0  0  0  0  0  0  0  0  0  0
    7.7365    4.6508   21.6987 C   0  0  0  0  0  0  0  0  0  0  0  0
   13.0186   11.0102   18.0020 C   0  0  0  0  0  0  0  0  0  0  0  0
    8.6628    5.7088   21.8871 N   0  0  0  0  0  0  0  0  0  0  0  0
    5.6516    3.5258   21.9140 C   0  0  0  0  0  0  0  0  0  0  0  0
   11.5863    9.6815   19.4539 C   0  0  0  0  0  0  0  0  0  0  0  0
   12.9648    4.1543   20.9205 C   0  0  0  0  0  0  0  0  0  0  0  0
    8.2089    3.6265   20.8929 C   0  0  0  0  0  0  0  0  0  0  0  0
    7.3827    2.5724   20.5432 C   0  0  0  0  0  0  0  0  0  0  0  0
   11.1529    7.2750   20.8025 C   0  0  0  0  0  0  0  0  0  0  0  0
   10.2573    8.3215   20.9827 C   0  0  0  0  0  0  0  0  0  0  0  0
   11.1606    5.9378   21.2366 N   0  0  0  0  0  0  0  0  0  0  0  0
    9.8932   11.6736   19.0677 O   0  0  0  0  0  0  0  0  0  0  0  0
    6.4470    4.5850   22.2321 C   0  0  0  0  0  0  0  0  0  0  0  0
    8.4619    6.9895   22.2968 C   0  0  0  0  0  0  0  0  0  0  0  0
   12.2747    7.5102   20.0420 C   0  0  0  0  0  0  0  0  0  0  0  0
   14.2544    6.2142   19.4191 C   0  0  0  0  0  0  0  0  0  0  0  0
   13.0695    6.3705   20.0375 N   0  0  0  0  0  0  0  0  0  0  0  0
    9.1913    8.0876   21.8361 N   0  0  0  0  0  0  0  0  0  0  0  0
   10.4739    9.4813   20.2889 C   0  0  0  0  0  0  0  0  0  0  0  0
    7.5551    7.1270   23.1200 O   0  0  0  0  0  0  0  0  0  0  0  0
  1 11  4  0
  1 21  4  0
  2  4  1  0
  2  8  1  0
  2 11  1  0
  3 10  4  0
  3 14  4  0
  4  5  1  0
  4 18  2  0
  6 12  1  0
  6 17  4  0
  6 23  4  0
  7  9  1  0
  7 13  4  0
  7 19  4  0
  9 20  1  0
 10 19  4  0
 11 25  4  0
 13 14  4  0
 15 16  4  0
 15 17  4  0
 15 21  4  0
 16 24  1  0
 16 25  4  0
 20 24  1  0
 20 26  2  0
 21 23  4  0
 22 23  1  0
M  END
$$$$

 Created by Python create_sdf_string function

 26 28  0  0  0  0  0  0  0  0999 V2000
   12.4616    8.6700   19.4180 N   0  0  0  0  0  0  0  0  0  0  0  0
   11.8329   10.8148   18.6769 N   0  0  0  0  0  0  0  0  0  0  0  0
    6.1021    2.5564   21.0678 C   0  0  0  0  0  0  0  0  0  0  0  0
   10.9097   11.8051   18.4804 C   0  0  0  0  0  0  0  0  0  0  0  0
   11.2280   12.9135   17.5669 C   0  0  0  0  0  0  0  0  0  0  0  0
   12.3782    5.4231   20.7777 C   0  0  0  0  0  0  0  0  0  0  0  0
    7.7365    4.6508   21.6987 C   0  0  0  0  0  0  0  0  0  0  0  0
   13.0186   11.0102   18.0020 C   0  0  0  0  0  0  0  0  0  0  0  0
    8.6628    5.7088   21.8871 N   0  0  0  0  0  0  0  0  0  0  0  0
    5.6516    3.5258   21.9140 C   0  0  0  0  0  0  0  0  0  0  0  0
   11.5863    9.6815   19.4539 C   0  0  0  0  0  0  0  0  0  0  0  0
   12.9648    4.1543   20.9205 C   0  0  0  0  0  0  0  0  0  0  0  0
    8.2089    3.6265   20.8929 C   0  0  0  0  0  0  0  0  0  0  0  0
    7.3827    2.5724   20.5432 C   0  0  0  0  0  0  0  0  0  0  0  0
   11.1529    7.2750   20.8025 C   0  0  0  0  0  0  0  0  0  0  0  0
   10.2573    8.3215   20.9827 C   0  0  0  0  0  0  0  0  0  0  0  0
   11.1606    5.9378   21.2366 N   0  0  0  0  0  0  0  0  0  0  0  0
    9.8932   11.6736   19.0677 O   0  0  0  0  0  0  0  0  0  0  0  0
    6.4470    4.5850   22.2321 C   0  0  0  0  0  0  0  0  0  0  0  0
    8.4619    6.9895   22.2968 C   0  0  0  0  0  0  0  0  0  0  0  0
   12.2747    7.5102   20.0420 C   0  0  0  0  0  0  0  0  0  0  0  0
   14.2544    6.2142   19.4191 C   0  0  0  0  0  0  0  0  0  0  0  0
   13.0695    6.3705   20.0375 N   0  0  0  0  0  0  0  0  0  0  0  0
    9.1913    8.0876   21.8361 N   0  0  0  0  0  0  0  0  0  0  0  0
   10.4739    9.4813   20.2889 C   0  0  0  0  0  0  0  0  0  0  0  0
    7.5551    7.1270   23.1200 O   0  0  0  0  0  0  0  0  0  0  0  0
  1 11  4  0
  1 21  4  0
  2  4  1  0
  2  8  1  0
  2 11  1  0
  3 10  4  0
  3 14  4  0
  4  5  1  0
  4 18  2  0
  6 12  1  0
  6 17  4  0
  6 23  4  0
  7  9  1  0
  7 13  4  0
  7 19  4  0
  9 20  1  0
 10 19  4  0
 11 25  4  0
 13 14  4  0
 15 16  4  0
 15 17  4  0
 15 21  4  0
 16 24  1  0
 16 25  4  0
 20 24  1  0
 20 26  2  0
 21 23  4  0
 22 23  1  0
M  END
$$$$

 Created by Python create_sdf_string function

 26 28  0  0  0  0  0  0  0  0999 V2000
   12.4616    8.6700   19.4180 N   0  0  0  0  0  0  0  0  0  0  0  0
   11.8329   10.8148   18.6769 N   0  0  0  0  0  0  0  0  0  0  0  0
    6.1021    2.5564   21.0678 C   0  0  0  0  0  0  0  0  0  0  0  0
   10.9097   11.8051   18.4804 C   0  0  0  0  0  0  0  0  0  0  0  0
   11.2280   12.9135   17.5669 C   0  0  0  0  0  0  0  0  0  0  0  0
   12.3782    5.4231   20.7777 C   0  0  0  0  0  0  0  0  0  0  0  0
    7.7365    4.6508   21.6987 C   0  0  0  0  0  0  0  0  0  0  0  0
   13.0186   11.0102   18.0020 C   0  0  0  0  0  0  0  0  0  0  0  0
    8.6628    5.7088   21.8871 N   0  0  0  0  0  0  0  0  0  0  0  0
    5.6516    3.5258   21.9140 C   0  0  0  0  0  0  0  0  0  0  0  0
   11.5863    9.6815   19.4539 C   0  0  0  0  0  0  0  0  0  0  0  0
   12.9648    4.1543   20.9205 C   0  0  0  0  0  0  0  0  0  0  0  0
    8.2089    3.6265   20.8929 C   0  0  0  0  0  0  0  0  0  0  0  0
    7.3827    2.5724   20.5432 C   0  0  0  0  0  0  0  0  0  0  0  0
   11.1529    7.2750   20.8025 C   0  0  0  0  0  0  0  0  0  0  0  0
   10.2573    8.3215   20.9827 C   0  0  0  0  0  0  0  0  0  0  0  0
   11.1606    5.9378   21.2366 N   0  0  0  0  0  0  0  0  0  0  0  0
    9.8932   11.6736   19.0677 O   0  0  0  0  0  0  0  0  0  0  0  0
    6.4470    4.5850   22.2321 C   0  0  0  0  0  0  0  0  0  0  0  0
    8.4619    6.9895   22.2968 C   0  0  0  0  0  0  0  0  0  0  0  0
   12.2747    7.5102   20.0420 C   0  0  0  0  0  0  0  0  0  0  0  0
   14.2544    6.2142   19.4191 C   0  0  0  0  0  0  0  0  0  0  0  0
   13.0695    6.3705   20.0375 N   0  0  0  0  0  0  0  0  0  0  0  0
    9.1913    8.0876   21.8361 N   0  0  0  0  0  0  0  0  0  0  0  0
   10.4739    9.4813   20.2889 C   0  0  0  0  0  0  0  0  0  0  0  0
    7.5551    7.1270   23.1200 O   0  0  0  0  0  0  0  0  0  0  0  0
  1 11  4  0
  1 21  4  0
  2  4  1  0
  2  8  1  0
  2 11  1  0
  3 10  4  0
  3 14  4  0
  4  5  1  0
  4 18  2  0
  6 12  1  0
  6 17  4  0
  6 23  4  0
  7  9  1  0
  7 13  4  0
  7 19  4  0
  9 20  1  0
 10 19  4  0
 11 25  4  0
 13 14  4  0
 15 16  4  0
 15 17  4  0
 15 21  4  0
 16 24  1  0
 16 25  4  0
 20 24  1  0
 20 26  2  0
 21 23  4  0
 22 23  1  0
M  END
$$$$

 Created by Python create_sdf_string function

 26 28  0  0  0  0  0  0  0  0999 V2000
   12.4616    8.6700   19.4180 N   0  0  0  0  0  0  0  0  0  0  0  0
   11.8329   10.8148   18.6769 N   0  0  0  0  0  0  0  0  0  0  0  0
    6.1021    2.5564   21.0678 C   0  0  0  0  0  0  0  0  0  0  0  0
   10.9097   11.8051   18.4804 C   0  0  0  0  0  0  0  0  0  0  0  0
   11.2280   12.9135   17.5669 C   0  0  0  0  0  0  0  0  0  0  0  0
   12.3782    5.4231   20.7777 C   0  0  0  0  0  0  0  0  0  0  0  0
    7.7365    4.6508   21.6987 C   0  0  0  0  0  0  0  0  0  0  0  0
   13.0186   11.0102   18.0020 C   0  0  0  0  0  0  0  0  0  0  0  0
    8.6628    5.7088   21.8871 N   0  0  0  0  0  0  0  0  0  0  0  0
    5.6516    3.5258   21.9140 C   0  0  0  0  0  0  0  0  0  0  0  0
   11.5863    9.6815   19.4539 C   0  0  0  0  0  0  0  0  0  0  0  0
   12.9648    4.1543   20.9205 C   0  0  0  0  0  0  0  0  0  0  0  0
    8.2089    3.6265   20.8929 C   0  0  0  0  0  0  0  0  0  0  0  0
    7.3827    2.5724   20.5432 C   0  0  0  0  0  0  0  0  0  0  0  0
   11.1529    7.2750   20.8025 C   0  0  0  0  0  0  0  0  0  0  0  0
   10.2573    8.3215   20.9827 C   0  0  0  0  0  0  0  0  0  0  0  0
   11.1606    5.9378   21.2366 N   0  0  0  0  0  0  0  0  0  0  0  0
    9.8932   11.6736   19.0677 O   0  0  0  0  0  0  0  0  0  0  0  0
    6.4470    4.5850   22.2321 C   0  0  0  0  0  0  0  0  0  0  0  0
    8.4619    6.9895   22.2968 C   0  0  0  0  0  0  0  0  0  0  0  0
   12.2747    7.5102   20.0420 C   0  0  0  0  0  0  0  0  0  0  0  0
   14.2544    6.2142   19.4191 C   0  0  0  0  0  0  0  0  0  0  0  0
   13.0695    6.3705   20.0375 N   0  0  0  0  0  0  0  0  0  0  0  0
    9.1913    8.0876   21.8361 N   0  0  0  0  0  0  0  0  0  0  0  0
   10.4739    9.4813   20.2889 C   0  0  0  0  0  0  0  0  0  0  0  0
    7.5551    7.1270   23.1200 O   0  0  0  0  0  0  0  0  0  0  0  0
  1 11  4  0
  1 21  4  0
  2  4  1  0
  2  8  1  0
  2 11  1  0
  3 10  4  0
  3 14  4  0
  4  5  1  0
  4 18  2  0
  6 12  1  0
  6 17  4  0
  6 23  4  0
  7  9  1  0
  7 13  4  0
  7 19  4  0
  9 20  1  0
 10 19  4  0
 11 25  4  0
 13 14  4  0
 15 16  4  0
 15 17  4  0
 15 21  4  0
 16 24  1  0
 16 25  4  0
 20 24  1  0
 20 26  2  0
 21 23  4  0
 22 23  1  0
M  END
$$$$

 Created by Python create_sdf_string function

 26 28  0  0  0  0  0  0  0  0999 V2000
   12.4616    8.6700   19.4180 N   0  0  0  0  0  0  0  0  0  0  0  0
   11.8329   10.8148   18.6769 N   0  0  0  0  0  0  0  0  0  0  0  0
    6.1021    2.5564   21.0678 C   0  0  0  0  0  0  0  0  0  0  0  0
   10.9097   11.8051   18.4804 C   0  0  0  0  0  0  0  0  0  0  0  0
   11.2280   12.9135   17.5669 C   0  0  0  0  0  0  0  0  0  0  0  0
   12.3782    5.4231   20.7777 C   0  0  0  0  0  0  0  0  0  0  0  0
    7.7365    4.6508   21.6987 C   0  0  0  0  0  0  0  0  0  0  0  0
   13.0186   11.0102   18.0020 C   0  0  0  0  0  0  0  0  0  0  0  0
    8.6628    5.7088   21.8871 N   0  0  0  0  0  0  0  0  0  0  0  0
    5.6516    3.5258   21.9140 C   0  0  0  0  0  0  0  0  0  0  0  0
   11.5863    9.6815   19.4539 C   0  0  0  0  0  0  0  0  0  0  0  0
   12.9648    4.1543   20.9205 C   0  0  0  0  0  0  0  0  0  0  0  0
    8.2089    3.6265   20.8929 C   0  0  0  0  0  0  0  0  0  0  0  0
    7.3827    2.5724   20.5432 C   0  0  0  0  0  0  0  0  0  0  0  0
   11.1529    7.2750   20.8025 C   0  0  0  0  0  0  0  0  0  0  0  0
   10.2573    8.3215   20.9827 C   0  0  0  0  0  0  0  0  0  0  0  0
   11.1606    5.9378   21.2366 N   0  0  0  0  0  0  0  0  0  0  0  0
    9.8932   11.6736   19.0677 O   0  0  0  0  0  0  0  0  0  0  0  0
    6.4470    4.5850   22.2321 C   0  0  0  0  0  0  0  0  0  0  0  0
    8.4619    6.9895   22.2968 C   0  0  0  0  0  0  0  0  0  0  0  0
   12.2747    7.5102   20.0420 C   0  0  0  0  0  0  0  0  0  0  0  0
   14.2544    6.2142   19.4191 C   0  0  0  0  0  0  0  0  0  0  0  0
   13.0695    6.3705   20.0375 N   0  0  0  0  0  0  0  0  0  0  0  0
    9.1913    8.0876   21.8361 N   0  0  0  0  0  0  0  0  0  0  0  0
   10.4739    9.4813   20.2889 C   0  0  0  0  0  0  0  0  0  0  0  0
    7.5551    7.1270   23.1200 O   0  0  0  0  0  0  0  0  0  0  0  0
  1 11  4  0
  1 21  4  0
  2  4  1  0
  2  8  1  0
  2 11  1  0
  3 10  4  0
  3 14  4  0
  4  5  1  0
  4 18  2  0
  6 12  1  0
  6 17  4  0
  6 23  4  0
  7  9  1  0
  7 13  4  0
  7 19  4  0
  9 20  1  0
 10 19  4  0
 11 25  4  0
 13 14  4  0
 15 16  4  0
 15 17  4  0
 15 21  4  0
 16 24  1  0
 16 25  4  0
 20 24  1  0
 20 26  2  0
 21 23  4  0
 22 23  1  0
M  END
$$$$

 Created by Python create_sdf_string function

 26 28  0  0  0  0  0  0  0  0999 V2000
   12.4616    8.6700   19.4180 N   0  0  0  0  0  0  0  0  0  0  0  0
   11.8329   10.8148   18.6769 N   0  0  0  0  0  0  0  0  0  0  0  0
    6.1021    2.5564   21.0678 C   0  0  0  0  0  0  0  0  0  0  0  0
   10.9097   11.8051   18.4804 C   0  0  0  0  0  0  0  0  0  0  0  0
   11.2280   12.9135   17.5669 C   0  0  0  0  0  0  0  0  0  0  0  0
   12.3782    5.4231   20.7777 C   0  0  0  0  0  0  0  0  0  0  0  0
    7.7365    4.6508   21.6987 C   0  0  0  0  0  0  0  0  0  0  0  0
   13.0186   11.0102   18.0020 C   0  0  0  0  0  0  0  0  0  0  0  0
    8.6628    5.7088   21.8871 N   0  0  0  0  0  0  0  0  0  0  0  0
    5.6516    3.5258   21.9140 C   0  0  0  0  0  0  0  0  0  0  0  0
   11.5863    9.6815   19.4539 C   0  0  0  0  0  0  0  0  0  0  0  0
   12.9648    4.1543   20.9205 C   0  0  0  0  0  0  0  0  0  0  0  0
    8.2089    3.6265   20.8929 C   0  0  0  0  0  0  0  0  0  0  0  0
    7.3827    2.5724   20.5432 C   0  0  0  0  0  0  0  0  0  0  0  0
   11.1529    7.2750   20.8025 C   0  0  0  0  0  0  0  0  0  0  0  0
   10.2573    8.3215   20.9827 C   0  0  0  0  0  0  0  0  0  0  0  0
   11.1606    5.9378   21.2366 N   0  0  0  0  0  0  0  0  0  0  0  0
    9.8932   11.6736   19.0677 O   0  0  0  0  0  0  0  0  0  0  0  0
    6.4470    4.5850   22.2321 C   0  0  0  0  0  0  0  0  0  0  0  0
    8.4619    6.9895   22.2968 C   0  0  0  0  0  0  0  0  0  0  0  0
   12.2747    7.5102   20.0420 C   0  0  0  0  0  0  0  0  0  0  0  0
   14.2544    6.2142   19.4191 C   0  0  0  0  0  0  0  0  0  0  0  0
   13.0695    6.3705   20.0375 N   0  0  0  0  0  0  0  0  0  0  0  0
    9.1913    8.0876   21.8361 N   0  0  0  0  0  0  0  0  0  0  0  0
   10.4739    9.4813   20.2889 C   0  0  0  0  0  0  0  0  0  0  0  0
    7.5551    7.1270   23.1200 O   0  0  0  0  0  0  0  0  0  0  0  0
  1 11  4  0
  1 21  4  0
  2  4  1  0
  2  8  1  0
  2 11  1  0
  3 10  4  0
  3 14  4  0
  4  5  1  0
  4 18  2  0
  6 12  1  0
  6 17  4  0
  6 23  4  0
  7  9  1  0
  7 13  4  0
  7 19  4  0
  9 20  1  0
 10 19  4  0
 11 25  4  0
 13 14  4  0
 15 16  4  0
 15 17  4  0
 15 21  4  0
 16 24  1  0
 16 25  4  0
 20 24  1  0
 20 26  2  0
 21 23  4  0
 22 23  1  0
M  END
$$$$

 Created by Python create_sdf_string function

 26 28  0  0  0  0  0  0  0  0999 V2000
   12.4616    8.6700   19.4180 N   0  0  0  0  0  0  0  0  0  0  0  0
   11.8329   10.8148   18.6769 N   0  0  0  0  0  0  0  0  0  0  0  0
    6.1021    2.5564   21.0678 C   0  0  0  0  0  0  0  0  0  0  0  0
   10.9097   11.8051   18.4804 C   0  0  0  0  0  0  0  0  0  0  0  0
   11.2280   12.9135   17.5669 C   0  0  0  0  0  0  0  0  0  0  0  0
   12.3782    5.4231   20.7777 C   0  0  0  0  0  0  0  0  0  0  0  0
    7.7365    4.6508   21.6987 C   0  0  0  0  0  0  0  0  0  0  0  0
   13.0186   11.0102   18.0020 C   0  0  0  0  0  0  0  0  0  0  0  0
    8.6628    5.7088   21.8871 N   0  0  0  0  0  0  0  0  0  0  0  0
    5.6516    3.5258   21.9140 C   0  0  0  0  0  0  0  0  0  0  0  0
   11.5863    9.6815   19.4539 C   0  0  0  0  0  0  0  0  0  0  0  0
   12.9648    4.1543   20.9205 C   0  0  0  0  0  0  0  0  0  0  0  0
    8.2089    3.6265   20.8929 C   0  0  0  0  0  0  0  0  0  0  0  0
    7.3827    2.5724   20.5432 C   0  0  0  0  0  0  0  0  0  0  0  0
   11.1529    7.2750   20.8025 C   0  0  0  0  0  0  0  0  0  0  0  0
   10.2573    8.3215   20.9827 C   0  0  0  0  0  0  0  0  0  0  0  0
   11.1606    5.9378   21.2366 N   0  0  0  0  0  0  0  0  0  0  0  0
    9.8932   11.6736   19.0677 O   0  0  0  0  0  0  0  0  0  0  0  0
    6.4470    4.5850   22.2321 C   0  0  0  0  0  0  0  0  0  0  0  0
    8.4619    6.9895   22.2968 C   0  0  0  0  0  0  0  0  0  0  0  0
   12.2747    7.5102   20.0420 C   0  0  0  0  0  0  0  0  0  0  0  0
   14.2544    6.2142   19.4191 C   0  0  0  0  0  0  0  0  0  0  0  0
   13.0695    6.3705   20.0375 N   0  0  0  0  0  0  0  0  0  0  0  0
    9.1913    8.0876   21.8361 N   0  0  0  0  0  0  0  0  0  0  0  0
   10.4739    9.4813   20.2889 C   0  0  0  0  0  0  0  0  0  0  0  0
    7.5551    7.1270   23.1200 O   0  0  0  0  0  0  0  0  0  0  0  0
  1 11  4  0
  1 21  4  0
  2  4  1  0
  2  8  1  0
  2 11  1  0
  3 10  4  0
  3 14  4  0
  4  5  1  0
  4 18  2  0
  6 12  1  0
  6 17  4  0
  6 23  4  0
  7  9  1  0
  7 13  4  0
  7 19  4  0
  9 20  1  0
 10 19  4  0
 11 25  4  0
 13 14  4  0
 15 16  4  0
 15 17  4  0
 15 21  4  0
 16 24  1  0
 16 25  4  0
 20 24  1  0
 20 26  2  0
 21 23  4  0
 22 23  1  0
M  END
$$$$

 Created by Python create_sdf_string function

 26 28  0  0  0  0  0  0  0  0999 V2000
   12.4616    8.6700   19.4180 N   0  0  0  0  0  0  0  0  0  0  0  0
   11.8329   10.8148   18.6769 N   0  0  0  0  0  0  0  0  0  0  0  0
    6.1021    2.5564   21.0678 C   0  0  0  0  0  0  0  0  0  0  0  0
   10.9097   11.8051   18.4804 C   0  0  0  0  0  0  0  0  0  0  0  0
   11.2280   12.9135   17.5669 C   0  0  0  0  0  0  0  0  0  0  0  0
   12.3782    5.4231   20.7777 C   0  0  0  0  0  0  0  0  0  0  0  0
    7.7365    4.6508   21.6987 C   0  0  0  0  0  0  0  0  0  0  0  0
   13.0186   11.0102   18.0020 C   0  0  0  0  0  0  0  0  0  0  0  0
    8.6628    5.7088   21.8871 N   0  0  0  0  0  0  0  0  0  0  0  0
    5.6516    3.5258   21.9140 C   0  0  0  0  0  0  0  0  0  0  0  0
   11.5863    9.6815   19.4539 C   0  0  0  0  0  0  0  0  0  0  0  0
   12.9648    4.1543   20.9205 C   0  0  0  0  0  0  0  0  0  0  0  0
    8.2089    3.6265   20.8929 C   0  0  0  0  0  0  0  0  0  0  0  0
    7.3827    2.5724   20.5432 C   0  0  0  0  0  0  0  0  0  0  0  0
   11.1529    7.2750   20.8025 C   0  0  0  0  0  0  0  0  0  0  0  0
   10.2573    8.3215   20.9827 C   0  0  0  0  0  0  0  0  0  0  0  0
   11.1606    5.9378   21.2366 N   0  0  0  0  0  0  0  0  0  0  0  0
    9.8932   11.6736   19.0677 O   0  0  0  0  0  0  0  0  0  0  0  0
    6.4470    4.5850   22.2321 C   0  0  0  0  0  0  0  0  0  0  0  0
    8.4619    6.9895   22.2968 C   0  0  0  0  0  0  0  0  0  0  0  0
   12.2747    7.5102   20.0420 C   0  0  0  0  0  0  0  0  0  0  0  0
   14.2544    6.2142   19.4191 C   0  0  0  0  0  0  0  0  0  0  0  0
   13.0695    6.3705   20.0375 N   0  0  0  0  0  0  0  0  0  0  0  0
    9.1913    8.0876   21.8361 N   0  0  0  0  0  0  0  0  0  0  0  0
   10.4739    9.4813   20.2889 C   0  0  0  0  0  0  0  0  0  0  0  0
    7.5551    7.1270   23.1200 O   0  0  0  0  0  0  0  0  0  0  0  0
  1 11  4  0
  1 21  4  0
  2  4  1  0
  2  8  1  0
  2 11  1  0
  3 10  4  0
  3 14  4  0
  4  5  1  0
  4 18  2  0
  6 12  1  0
  6 17  4  0
  6 23  4  0
  7  9  1  0
  7 13  4  0
  7 19  4  0
  9 20  1  0
 10 19  4  0
 11 25  4  0
 13 14  4  0
 15 16  4  0
 15 17  4  0
 15 21  4  0
 16 24  1  0
 16 25  4  0
 20 24  1  0
 20 26  2  0
 21 23  4  0
 22 23  1  0
M  END
$$$$

 Created by Python create_sdf_string function

 26 28  0  0  0  0  0  0  0  0999 V2000
   12.4616    8.6700   19.4180 N   0  0  0  0  0  0  0  0  0  0  0  0
   11.8329   10.8148   18.6769 N   0  0  0  0  0  0  0  0  0  0  0  0
    6.1021    2.5564   21.0678 C   0  0  0  0  0  0  0  0  0  0  0  0
   10.9097   11.8051   18.4804 C   0  0  0  0  0  0  0  0  0  0  0  0
   11.2280   12.9135   17.5669 C   0  0  0  0  0  0  0  0  0  0  0  0
   12.3782    5.4231   20.7777 C   0  0  0  0  0  0  0  0  0  0  0  0
    7.7365    4.6508   21.6987 C   0  0  0  0  0  0  0  0  0  0  0  0
   13.0186   11.0102   18.0020 C   0  0  0  0  0  0  0  0  0  0  0  0
    8.6628    5.7088   21.8871 N   0  0  0  0  0  0  0  0  0  0  0  0
    5.6516    3.5258   21.9140 C   0  0  0  0  0  0  0  0  0  0  0  0
   11.5863    9.6815   19.4539 C   0  0  0  0  0  0  0  0  0  0  0  0
   12.9648    4.1543   20.9205 C   0  0  0  0  0  0  0  0  0  0  0  0
    8.2089    3.6265   20.8929 C   0  0  0  0  0  0  0  0  0  0  0  0
    7.3827    2.5724   20.5432 C   0  0  0  0  0  0  0  0  0  0  0  0
   11.1529    7.2750   20.8025 C   0  0  0  0  0  0  0  0  0  0  0  0
   10.2573    8.3215   20.9827 C   0  0  0  0  0  0  0  0  0  0  0  0
   11.1606    5.9378   21.2366 N   0  0  0  0  0  0  0  0  0  0  0  0
    9.8932   11.6736   19.0677 O   0  0  0  0  0  0  0  0  0  0  0  0
    6.4470    4.5850   22.2321 C   0  0  0  0  0  0  0  0  0  0  0  0
    8.4619    6.9895   22.2968 C   0  0  0  0  0  0  0  0  0  0  0  0
   12.2747    7.5102   20.0420 C   0  0  0  0  0  0  0  0  0  0  0  0
   14.2544    6.2142   19.4191 C   0  0  0  0  0  0  0  0  0  0  0  0
   13.0695    6.3705   20.0375 N   0  0  0  0  0  0  0  0  0  0  0  0
    9.1913    8.0876   21.8361 N   0  0  0  0  0  0  0  0  0  0  0  0
   10.4739    9.4813   20.2889 C   0  0  0  0  0  0  0  0  0  0  0  0
    7.5551    7.1270   23.1200 O   0  0  0  0  0  0  0  0  0  0  0  0
  1 11  4  0
  1 21  4  0
  2  4  1  0
  2  8  1  0
  2 11  1  0
  3 10  4  0
  3 14  4  0
  4  5  1  0
  4 18  2  0
  6 12  1  0
  6 17  4  0
  6 23  4  0
  7  9  1  0
  7 13  4  0
  7 19  4  0
  9 20  1  0
 10 19  4  0
 11 25  4  0
 13 14  4  0
 15 16  4  0
 15 17  4  0
 15 21  4  0
 16 24  1  0
 16 25  4  0
 20 24  1  0
 20 26  2  0
 21 23  4  0
 22 23  1  0
M  END
$$$$

 Created by Python create_sdf_string function

 26 28  0  0  0  0  0  0  0  0999 V2000
   12.4616    8.6700   19.4180 N   0  0  0  0  0  0  0  0  0  0  0  0
   11.8329   10.8148   18.6769 N   0  0  0  0  0  0  0  0  0  0  0  0
    6.1021    2.5564   21.0678 C   0  0  0  0  0  0  0  0  0  0  0  0
   10.9097   11.8051   18.4804 C   0  0  0  0  0  0  0  0  0  0  0  0
   11.2280   12.9135   17.5669 C   0  0  0  0  0  0  0  0  0  0  0  0
   12.3782    5.4231   20.7777 C   0  0  0  0  0  0  0  0  0  0  0  0
    7.7365    4.6508   21.6987 C   0  0  0  0  0  0  0  0  0  0  0  0
   13.0186   11.0102   18.0020 C   0  0  0  0  0  0  0  0  0  0  0  0
    8.6628    5.7088   21.8871 N   0  0  0  0  0  0  0  0  0  0  0  0
    5.6516    3.5258   21.9140 C   0  0  0  0  0  0  0  0  0  0  0  0
   11.5863    9.6815   19.4539 C   0  0  0  0  0  0  0  0  0  0  0  0
   12.9648    4.1543   20.9205 C   0  0  0  0  0  0  0  0  0  0  0  0
    8.2089    3.6265   20.8929 C   0  0  0  0  0  0  0  0  0  0  0  0
    7.3827    2.5724   20.5432 C   0  0  0  0  0  0  0  0  0  0  0  0
   11.1529    7.2750   20.8025 C   0  0  0  0  0  0  0  0  0  0  0  0
   10.2573    8.3215   20.9827 C   0  0  0  0  0  0  0  0  0  0  0  0
   11.1606    5.9378   21.2366 N   0  0  0  0  0  0  0  0  0  0  0  0
    9.8932   11.6736   19.0677 O   0  0  0  0  0  0  0  0  0  0  0  0
    6.4470    4.5850   22.2321 C   0  0  0  0  0  0  0  0  0  0  0  0
    8.4619    6.9895   22.2968 C   0  0  0  0  0  0  0  0  0  0  0  0
   12.2747    7.5102   20.0420 C   0  0  0  0  0  0  0  0  0  0  0  0
   14.2544    6.2142   19.4191 C   0  0  0  0  0  0  0  0  0  0  0  0
   13.0695    6.3705   20.0375 N   0  0  0  0  0  0  0  0  0  0  0  0
    9.1913    8.0876   21.8361 N   0  0  0  0  0  0  0  0  0  0  0  0
   10.4739    9.4813   20.2889 C   0  0  0  0  0  0  0  0  0  0  0  0
    7.5551    7.1270   23.1200 O   0  0  0  0  0  0  0  0  0  0  0  0
  1 11  4  0
  1 21  4  0
  2  4  1  0
  2  8  1  0
  2 11  1  0
  3 10  4  0
  3 14  4  0
  4  5  1  0
  4 18  2  0
  6 12  1  0
  6 17  4  0
  6 23  4  0
  7  9  1  0
  7 13  4  0
  7 19  4  0
  9 20  1  0
 10 19  4  0
 11 25  4  0
 13 14  4  0
 15 16  4  0
 15 17  4  0
 15 21  4  0
 16 24  1  0
 16 25  4  0
 20 24  1  0
 20 26  2  0
 21 23  4  0
 22 23  1  0
M  END
$$$$

 Created by Python create_sdf_string function

 26 28  0  0  0  0  0  0  0  0999 V2000
   12.4616    8.6700   19.4180 N   0  0  0  0  0  0  0  0  0  0  0  0
   11.8329   10.8148   18.6769 N   0  0  0  0  0  0  0  0  0  0  0  0
    6.1021    2.5564   21.0678 C   0  0  0  0  0  0  0  0  0  0  0  0
   10.9097   11.8051   18.4804 C   0  0  0  0  0  0  0  0  0  0  0  0
   11.2280   12.9135   17.5669 C   0  0  0  0  0  0  0  0  0  0  0  0
   12.3782    5.4231   20.7777 C   0  0  0  0  0  0  0  0  0  0  0  0
    7.7365    4.6508   21.6987 C   0  0  0  0  0  0  0  0  0  0  0  0
   13.0186   11.0102   18.0020 C   0  0  0  0  0  0  0  0  0  0  0  0
    8.6628    5.7088   21.8871 N   0  0  0  0  0  0  0  0  0  0  0  0
    5.6516    3.5258   21.9140 C   0  0  0  0  0  0  0  0  0  0  0  0
   11.5863    9.6815   19.4539 C   0  0  0  0  0  0  0  0  0  0  0  0
   12.9648    4.1543   20.9205 C   0  0  0  0  0  0  0  0  0  0  0  0
    8.2089    3.6265   20.8929 C   0  0  0  0  0  0  0  0  0  0  0  0
    7.3827    2.5724   20.5432 C   0  0  0  0  0  0  0  0  0  0  0  0
   11.1529    7.2750   20.8025 C   0  0  0  0  0  0  0  0  0  0  0  0
   10.2573    8.3215   20.9827 C   0  0  0  0  0  0  0  0  0  0  0  0
   11.1606    5.9378   21.2366 N   0  0  0  0  0  0  0  0  0  0  0  0
    9.8932   11.6736   19.0677 O   0  0  0  0  0  0  0  0  0  0  0  0
    6.4470    4.5850   22.2321 C   0  0  0  0  0  0  0  0  0  0  0  0
    8.4619    6.9895   22.2968 C   0  0  0  0  0  0  0  0  0  0  0  0
   12.2747    7.5102   20.0420 C   0  0  0  0  0  0  0  0  0  0  0  0
   14.2544    6.2142   19.4191 C   0  0  0  0  0  0  0  0  0  0  0  0
   13.0695    6.3705   20.0375 N   0  0  0  0  0  0  0  0  0  0  0  0
    9.1913    8.0876   21.8361 N   0  0  0  0  0  0  0  0  0  0  0  0
   10.4739    9.4813   20.2889 C   0  0  0  0  0  0  0  0  0  0  0  0
    7.5551    7.1270   23.1200 O   0  0  0  0  0  0  0  0  0  0  0  0
  1 11  4  0
  1 21  4  0
  2  4  1  0
  2  8  1  0
  2 11  1  0
  3 10  4  0
  3 14  4  0
  4  5  1  0
  4 18  2  0
  6 12  1  0
  6 17  4  0
  6 23  4  0
  7  9  1  0
  7 13  4  0
  7 19  4  0
  9 20  1  0
 10 19  4  0
 11 25  4  0
 13 14  4  0
 15 16  4  0
 15 17  4  0
 15 21  4  0
 16 24  1  0
 16 25  4  0
 20 24  1  0
 20 26  2  0
 21 23  4  0
 22 23  1  0
M  END
$$$$

 Created by Python create_sdf_string function

 26 28  0  0  0  0  0  0  0  0999 V2000
   12.4616    8.6700   19.4180 N   0  0  0  0  0  0  0  0  0  0  0  0
   11.8329   10.8148   18.6769 N   0  0  0  0  0  0  0  0  0  0  0  0
    6.1021    2.5564   21.0678 C   0  0  0  0  0  0  0  0  0  0  0  0
   10.9097   11.8051   18.4804 C   0  0  0  0  0  0  0  0  0  0  0  0
   11.2280   12.9135   17.5669 C   0  0  0  0  0  0  0  0  0  0  0  0
   12.3782    5.4231   20.7777 C   0  0  0  0  0  0  0  0  0  0  0  0
    7.7365    4.6508   21.6987 C   0  0  0  0  0  0  0  0  0  0  0  0
   13.0186   11.0102   18.0020 C   0  0  0  0  0  0  0  0  0  0  0  0
    8.6628    5.7088   21.8871 N   0  0  0  0  0  0  0  0  0  0  0  0
    5.6516    3.5258   21.9140 C   0  0  0  0  0  0  0  0  0  0  0  0
   11.5863    9.6815   19.4539 C   0  0  0  0  0  0  0  0  0  0  0  0
   12.9648    4.1543   20.9205 C   0  0  0  0  0  0  0  0  0  0  0  0
    8.2089    3.6265   20.8929 C   0  0  0  0  0  0  0  0  0  0  0  0
    7.3827    2.5724   20.5432 C   0  0  0  0  0  0  0  0  0  0  0  0
   11.1529    7.2750   20.8025 C   0  0  0  0  0  0  0  0  0  0  0  0
   10.2573    8.3215   20.9827 C   0  0  0  0  0  0  0  0  0  0  0  0
   11.1606    5.9378   21.2366 N   0  0  0  0  0  0  0  0  0  0  0  0
    9.8932   11.6736   19.0677 O   0  0  0  0  0  0  0  0  0  0  0  0
    6.4470    4.5850   22.2321 C   0  0  0  0  0  0  0  0  0  0  0  0
    8.4619    6.9895   22.2968 C   0  0  0  0  0  0  0  0  0  0  0  0
   12.2747    7.5102   20.0420 C   0  0  0  0  0  0  0  0  0  0  0  0
   14.2544    6.2142   19.4191 C   0  0  0  0  0  0  0  0  0  0  0  0
   13.0695    6.3705   20.0375 N   0  0  0  0  0  0  0  0  0  0  0  0
    9.1913    8.0876   21.8361 N   0  0  0  0  0  0  0  0  0  0  0  0
   10.4739    9.4813   20.2889 C   0  0  0  0  0  0  0  0  0  0  0  0
    7.5551    7.1270   23.1200 O   0  0  0  0  0  0  0  0  0  0  0  0
  1 11  4  0
  1 21  4  0
  2  4  1  0
  2  8  1  0
  2 11  1  0
  3 10  4  0
  3 14  4  0
  4  5  1  0
  4 18  2  0
  6 12  1  0
  6 17  4  0
  6 23  4  0
  7  9  1  0
  7 13  4  0
  7 19  4  0
  9 20  1  0
 10 19  4  0
 11 25  4  0
 13 14  4  0
 15 16  4  0
 15 17  4  0
 15 21  4  0
 16 24  1  0
 16 25  4  0
 20 24  1  0
 20 26  2  0
 21 23  4  0
 22 23  1  0
M  END
$$$$

 Created by Python create_sdf_string function

 26 28  0  0  0  0  0  0  0  0999 V2000
   12.4616    8.6700   19.4180 N   0  0  0  0  0  0  0  0  0  0  0  0
   11.8329   10.8148   18.6769 N   0  0  0  0  0  0  0  0  0  0  0  0
    6.1021    2.5564   21.0678 C   0  0  0  0  0  0  0  0  0  0  0  0
   10.9097   11.8051   18.4804 C   0  0  0  0  0  0  0  0  0  0  0  0
   11.2280   12.9135   17.5669 C   0  0  0  0  0  0  0  0  0  0  0  0
   12.3782    5.4231   20.7777 C   0  0  0  0  0  0  0  0  0  0  0  0
    7.7365    4.6508   21.6987 C   0  0  0  0  0  0  0  0  0  0  0  0
   13.0186   11.0102   18.0020 C   0  0  0  0  0  0  0  0  0  0  0  0
    8.6628    5.7088   21.8871 N   0  0  0  0  0  0  0  0  0  0  0  0
    5.6516    3.5258   21.9140 C   0  0  0  0  0  0  0  0  0  0  0  0
   11.5863    9.6815   19.4539 C   0  0  0  0  0  0  0  0  0  0  0  0
   12.9648    4.1543   20.9205 C   0  0  0  0  0  0  0  0  0  0  0  0
    8.2089    3.6265   20.8929 C   0  0  0  0  0  0  0  0  0  0  0  0
    7.3827    2.5724   20.5432 C   0  0  0  0  0  0  0  0  0  0  0  0
   11.1529    7.2750   20.8025 C   0  0  0  0  0  0  0  0  0  0  0  0
   10.2573    8.3215   20.9827 C   0  0  0  0  0  0  0  0  0  0  0  0
   11.1606    5.9378   21.2366 N   0  0  0  0  0  0  0  0  0  0  0  0
    9.8932   11.6736   19.0677 O   0  0  0  0  0  0  0  0  0  0  0  0
    6.4470    4.5850   22.2321 C   0  0  0  0  0  0  0  0  0  0  0  0
    8.4619    6.9895   22.2968 C   0  0  0  0  0  0  0  0  0  0  0  0
   12.2747    7.5102   20.0420 C   0  0  0  0  0  0  0  0  0  0  0  0
   14.2544    6.2142   19.4191 C   0  0  0  0  0  0  0  0  0  0  0  0
   13.0695    6.3705   20.0375 N   0  0  0  0  0  0  0  0  0  0  0  0
    9.1913    8.0876   21.8361 N   0  0  0  0  0  0  0  0  0  0  0  0
   10.4739    9.4813   20.2889 C   0  0  0  0  0  0  0  0  0  0  0  0
    7.5551    7.1270   23.1200 O   0  0  0  0  0  0  0  0  0  0  0  0
  1 11  4  0
  1 21  4  0
  2  4  1  0
  2  8  1  0
  2 11  1  0
  3 10  4  0
  3 14  4  0
  4  5  1  0
  4 18  2  0
  6 12  1  0
  6 17  4  0
  6 23  4  0
  7  9  1  0
  7 13  4  0
  7 19  4  0
  9 20  1  0
 10 19  4  0
 11 25  4  0
 13 14  4  0
 15 16  4  0
 15 17  4  0
 15 21  4  0
 16 24  1  0
 16 25  4  0
 20 24  1  0
 20 26  2  0
 21 23  4  0
 22 23  1  0
M  END
$$$$

 Created by Python create_sdf_string function

 26 28  0  0  0  0  0  0  0  0999 V2000
   12.4616    8.6700   19.4180 N   0  0  0  0  0  0  0  0  0  0  0  0
   11.8329   10.8148   18.6769 N   0  0  0  0  0  0  0  0  0  0  0  0
    6.1021    2.5564   21.0678 C   0  0  0  0  0  0  0  0  0  0  0  0
   10.9097   11.8051   18.4804 C   0  0  0  0  0  0  0  0  0  0  0  0
   11.2280   12.9135   17.5669 C   0  0  0  0  0  0  0  0  0  0  0  0
   12.3782    5.4231   20.7777 C   0  0  0  0  0  0  0  0  0  0  0  0
    7.7365    4.6508   21.6987 C   0  0  0  0  0  0  0  0  0  0  0  0
   13.0186   11.0102   18.0020 C   0  0  0  0  0  0  0  0  0  0  0  0
    8.6628    5.7088   21.8871 N   0  0  0  0  0  0  0  0  0  0  0  0
    5.6516    3.5258   21.9140 C   0  0  0  0  0  0  0  0  0  0  0  0
   11.5863    9.6815   19.4539 C   0  0  0  0  0  0  0  0  0  0  0  0
   12.9648    4.1543   20.9205 C   0  0  0  0  0  0  0  0  0  0  0  0
    8.2089    3.6265   20.8929 C   0  0  0  0  0  0  0  0  0  0  0  0
    7.3827    2.5724   20.5432 C   0  0  0  0  0  0  0  0  0  0  0  0
   11.1529    7.2750   20.8025 C   0  0  0  0  0  0  0  0  0  0  0  0
   10.2573    8.3215   20.9827 C   0  0  0  0  0  0  0  0  0  0  0  0
   11.1606    5.9378   21.2366 N   0  0  0  0  0  0  0  0  0  0  0  0
    9.8932   11.6736   19.0677 O   0  0  0  0  0  0  0  0  0  0  0  0
    6.4470    4.5850   22.2321 C   0  0  0  0  0  0  0  0  0  0  0  0
    8.4619    6.9895   22.2968 C   0  0  0  0  0  0  0  0  0  0  0  0
   12.2747    7.5102   20.0420 C   0  0  0  0  0  0  0  0  0  0  0  0
   14.2544    6.2142   19.4191 C   0  0  0  0  0  0  0  0  0  0  0  0
   13.0695    6.3705   20.0375 N   0  0  0  0  0  0  0  0  0  0  0  0
    9.1913    8.0876   21.8361 N   0  0  0  0  0  0  0  0  0  0  0  0
   10.4739    9.4813   20.2889 C   0  0  0  0  0  0  0  0  0  0  0  0
    7.5551    7.1270   23.1200 O   0  0  0  0  0  0  0  0  0  0  0  0
  1 11  4  0
  1 21  4  0
  2  4  1  0
  2  8  1  0
  2 11  1  0
  3 10  4  0
  3 14  4  0
  4  5  1  0
  4 18  2  0
  6 12  1  0
  6 17  4  0
  6 23  4  0
  7  9  1  0
  7 13  4  0
  7 19  4  0
  9 20  1  0
 10 19  4  0
 11 25  4  0
 13 14  4  0
 15 16  4  0
 15 17  4  0
 15 21  4  0
 16 24  1  0
 16 25  4  0
 20 24  1  0
 20 26  2  0
 21 23  4  0
 22 23  1  0
M  END
$$$$

 Created by Python create_sdf_string function

 26 28  0  0  0  0  0  0  0  0999 V2000
   12.4616    8.6700   19.4180 N   0  0  0  0  0  0  0  0  0  0  0  0
   11.8329   10.8148   18.6769 N   0  0  0  0  0  0  0  0  0  0  0  0
    6.1021    2.5564   21.0678 C   0  0  0  0  0  0  0  0  0  0  0  0
   10.9097   11.8051   18.4804 C   0  0  0  0  0  0  0  0  0  0  0  0
   11.2280   12.9135   17.5669 C   0  0  0  0  0  0  0  0  0  0  0  0
   12.3782    5.4231   20.7777 C   0  0  0  0  0  0  0  0  0  0  0  0
    7.7365    4.6508   21.6987 C   0  0  0  0  0  0  0  0  0  0  0  0
   13.0186   11.0102   18.0020 C   0  0  0  0  0  0  0  0  0  0  0  0
    8.6628    5.7088   21.8871 N   0  0  0  0  0  0  0  0  0  0  0  0
    5.6516    3.5258   21.9140 C   0  0  0  0  0  0  0  0  0  0  0  0
   11.5863    9.6815   19.4539 C   0  0  0  0  0  0  0  0  0  0  0  0
   12.9648    4.1543   20.9205 C   0  0  0  0  0  0  0  0  0  0  0  0
    8.2089    3.6265   20.8929 C   0  0  0  0  0  0  0  0  0  0  0  0
    7.3827    2.5724   20.5432 C   0  0  0  0  0  0  0  0  0  0  0  0
   11.1529    7.2750   20.8025 C   0  0  0  0  0  0  0  0  0  0  0  0
   10.2573    8.3215   20.9827 C   0  0  0  0  0  0  0  0  0  0  0  0
   11.1606    5.9378   21.2366 N   0  0  0  0  0  0  0  0  0  0  0  0
    9.8932   11.6736   19.0677 O   0  0  0  0  0  0  0  0  0  0  0  0
    6.4470    4.5850   22.2321 C   0  0  0  0  0  0  0  0  0  0  0  0
    8.4619    6.9895   22.2968 C   0  0  0  0  0  0  0  0  0  0  0  0
   12.2747    7.5102   20.0420 C   0  0  0  0  0  0  0  0  0  0  0  0
   14.2544    6.2142   19.4191 C   0  0  0  0  0  0  0  0  0  0  0  0
   13.0695    6.3705   20.0375 N   0  0  0  0  0  0  0  0  0  0  0  0
    9.1913    8.0876   21.8361 N   0  0  0  0  0  0  0  0  0  0  0  0
   10.4739    9.4813   20.2889 C   0  0  0  0  0  0  0  0  0  0  0  0
    7.5551    7.1270   23.1200 O   0  0  0  0  0  0  0  0  0  0  0  0
  1 11  4  0
  1 21  4  0
  2  4  1  0
  2  8  1  0
  2 11  1  0
  3 10  4  0
  3 14  4  0
  4  5  1  0
  4 18  2  0
  6 12  1  0
  6 17  4  0
  6 23  4  0
  7  9  1  0
  7 13  4  0
  7 19  4  0
  9 20  1  0
 10 19  4  0
 11 25  4  0
 13 14  4  0
 15 16  4  0
 15 17  4  0
 15 21  4  0
 16 24  1  0
 16 25  4  0
 20 24  1  0
 20 26  2  0
 21 23  4  0
 22 23  1  0
M  END
$$$$

 Created by Python create_sdf_string function

 26 28  0  0  0  0  0  0  0  0999 V2000
   12.4616    8.6700   19.4180 N   0  0  0  0  0  0  0  0  0  0  0  0
   11.8329   10.8148   18.6769 N   0  0  0  0  0  0  0  0  0  0  0  0
    6.1021    2.5564   21.0678 C   0  0  0  0  0  0  0  0  0  0  0  0
   10.9097   11.8051   18.4804 C   0  0  0  0  0  0  0  0  0  0  0  0
   11.2280   12.9135   17.5669 C   0  0  0  0  0  0  0  0  0  0  0  0
   12.3782    5.4231   20.7777 C   0  0  0  0  0  0  0  0  0  0  0  0
    7.7365    4.6508   21.6987 C   0  0  0  0  0  0  0  0  0  0  0  0
   13.0186   11.0102   18.0020 C   0  0  0  0  0  0  0  0  0  0  0  0
    8.6628    5.7088   21.8871 N   0  0  0  0  0  0  0  0  0  0  0  0
    5.6516    3.5258   21.9140 C   0  0  0  0  0  0  0  0  0  0  0  0
   11.5863    9.6815   19.4539 C   0  0  0  0  0  0  0  0  0  0  0  0
   12.9648    4.1543   20.9205 C   0  0  0  0  0  0  0  0  0  0  0  0
    8.2089    3.6265   20.8929 C   0  0  0  0  0  0  0  0  0  0  0  0
    7.3827    2.5724   20.5432 C   0  0  0  0  0  0  0  0  0  0  0  0
   11.1529    7.2750   20.8025 C   0  0  0  0  0  0  0  0  0  0  0  0
   10.2573    8.3215   20.9827 C   0  0  0  0  0  0  0  0  0  0  0  0
   11.1606    5.9378   21.2366 N   0  0  0  0  0  0  0  0  0  0  0  0
    9.8932   11.6736   19.0677 O   0  0  0  0  0  0  0  0  0  0  0  0
    6.4470    4.5850   22.2321 C   0  0  0  0  0  0  0  0  0  0  0  0
    8.4619    6.9895   22.2968 C   0  0  0  0  0  0  0  0  0  0  0  0
   12.2747    7.5102   20.0420 C   0  0  0  0  0  0  0  0  0  0  0  0
   14.2544    6.2142   19.4191 C   0  0  0  0  0  0  0  0  0  0  0  0
   13.0695    6.3705   20.0375 N   0  0  0  0  0  0  0  0  0  0  0  0
    9.1913    8.0876   21.8361 N   0  0  0  0  0  0  0  0  0  0  0  0
   10.4739    9.4813   20.2889 C   0  0  0  0  0  0  0  0  0  0  0  0
    7.5551    7.1270   23.1200 O   0  0  0  0  0  0  0  0  0  0  0  0
  1 11  4  0
  1 21  4  0
  2  4  1  0
  2  8  1  0
  2 11  1  0
  3 10  4  0
  3 14  4  0
  4  5  1  0
  4 18  2  0
  6 12  1  0
  6 17  4  0
  6 23  4  0
  7  9  1  0
  7 13  4  0
  7 19  4  0
  9 20  1  0
 10 19  4  0
 11 25  4  0
 13 14  4  0
 15 16  4  0
 15 17  4  0
 15 21  4  0
 16 24  1  0
 16 25  4  0
 20 24  1  0
 20 26  2  0
 21 23  4  0
 22 23  1  0
M  END
$$$$

 Created by Python create_sdf_string function

 26 28  0  0  0  0  0  0  0  0999 V2000
   12.4616    8.6700   19.4180 N   0  0  0  0  0  0  0  0  0  0  0  0
   11.8329   10.8148   18.6769 N   0  0  0  0  0  0  0  0  0  0  0  0
    6.1021    2.5564   21.0678 C   0  0  0  0  0  0  0  0  0  0  0  0
   10.9097   11.8051   18.4804 C   0  0  0  0  0  0  0  0  0  0  0  0
   11.2280   12.9135   17.5669 C   0  0  0  0  0  0  0  0  0  0  0  0
   12.3782    5.4231   20.7777 C   0  0  0  0  0  0  0  0  0  0  0  0
    7.7365    4.6508   21.6987 C   0  0  0  0  0  0  0  0  0  0  0  0
   13.0186   11.0102   18.0020 C   0  0  0  0  0  0  0  0  0  0  0  0
    8.6628    5.7088   21.8871 N   0  0  0  0  0  0  0  0  0  0  0  0
    5.6516    3.5258   21.9140 C   0  0  0  0  0  0  0  0  0  0  0  0
   11.5863    9.6815   19.4539 C   0  0  0  0  0  0  0  0  0  0  0  0
   12.9648    4.1543   20.9205 C   0  0  0  0  0  0  0  0  0  0  0  0
    8.2089    3.6265   20.8929 C   0  0  0  0  0  0  0  0  0  0  0  0
    7.3827    2.5724   20.5432 C   0  0  0  0  0  0  0  0  0  0  0  0
   11.1529    7.2750   20.8025 C   0  0  0  0  0  0  0  0  0  0  0  0
   10.2573    8.3215   20.9827 C   0  0  0  0  0  0  0  0  0  0  0  0
   11.1606    5.9378   21.2366 N   0  0  0  0  0  0  0  0  0  0  0  0
    9.8932   11.6736   19.0677 O   0  0  0  0  0  0  0  0  0  0  0  0
    6.4470    4.5850   22.2321 C   0  0  0  0  0  0  0  0  0  0  0  0
    8.4619    6.9895   22.2968 C   0  0  0  0  0  0  0  0  0  0  0  0
   12.2747    7.5102   20.0420 C   0  0  0  0  0  0  0  0  0  0  0  0
   14.2544    6.2142   19.4191 C   0  0  0  0  0  0  0  0  0  0  0  0
   13.0695    6.3705   20.0375 N   0  0  0  0  0  0  0  0  0  0  0  0
    9.1913    8.0876   21.8361 N   0  0  0  0  0  0  0  0  0  0  0  0
   10.4739    9.4813   20.2889 C   0  0  0  0  0  0  0  0  0  0  0  0
    7.5551    7.1270   23.1200 O   0  0  0  0  0  0  0  0  0  0  0  0
  1 11  4  0
  1 21  4  0
  2  4  1  0
  2  8  1  0
  2 11  1  0
  3 10  4  0
  3 14  4  0
  4  5  1  0
  4 18  2  0
  6 12  1  0
  6 17  4  0
  6 23  4  0
  7  9  1  0
  7 13  4  0
  7 19  4  0
  9 20  1  0
 10 19  4  0
 11 25  4  0
 13 14  4  0
 15 16  4  0
 15 17  4  0
 15 21  4  0
 16 24  1  0
 16 25  4  0
 20 24  1  0
 20 26  2  0
 21 23  4  0
 22 23  1  0
M  END
$$$$

 Created by Python create_sdf_string function

 26 28  0  0  0  0  0  0  0  0999 V2000
   12.4616    8.6700   19.4180 N   0  0  0  0  0  0  0  0  0  0  0  0
   11.8329   10.8148   18.6769 N   0  0  0  0  0  0  0  0  0  0  0  0
    6.1021    2.5564   21.0678 C   0  0  0  0  0  0  0  0  0  0  0  0
   10.9097   11.8051   18.4804 C   0  0  0  0  0  0  0  0  0  0  0  0
   11.2280   12.9135   17.5669 C   0  0  0  0  0  0  0  0  0  0  0  0
   12.3782    5.4231   20.7777 C   0  0  0  0  0  0  0  0  0  0  0  0
    7.7365    4.6508   21.6987 C   0  0  0  0  0  0  0  0  0  0  0  0
   13.0186   11.0102   18.0020 C   0  0  0  0  0  0  0  0  0  0  0  0
    8.6628    5.7088   21.8871 N   0  0  0  0  0  0  0  0  0  0  0  0
    5.6516    3.5258   21.9140 C   0  0  0  0  0  0  0  0  0  0  0  0
   11.5863    9.6815   19.4539 C   0  0  0  0  0  0  0  0  0  0  0  0
   12.9648    4.1543   20.9205 C   0  0  0  0  0  0  0  0  0  0  0  0
    8.2089    3.6265   20.8929 C   0  0  0  0  0  0  0  0  0  0  0  0
    7.3827    2.5724   20.5432 C   0  0  0  0  0  0  0  0  0  0  0  0
   11.1529    7.2750   20.8025 C   0  0  0  0  0  0  0  0  0  0  0  0
   10.2573    8.3215   20.9827 C   0  0  0  0  0  0  0  0  0  0  0  0
   11.1606    5.9378   21.2366 N   0  0  0  0  0  0  0  0  0  0  0  0
    9.8932   11.6736   19.0677 O   0  0  0  0  0  0  0  0  0  0  0  0
    6.4470    4.5850   22.2321 C   0  0  0  0  0  0  0  0  0  0  0  0
    8.4619    6.9895   22.2968 C   0  0  0  0  0  0  0  0  0  0  0  0
   12.2747    7.5102   20.0420 C   0  0  0  0  0  0  0  0  0  0  0  0
   14.2544    6.2142   19.4191 C   0  0  0  0  0  0  0  0  0  0  0  0
   13.0695    6.3705   20.0375 N   0  0  0  0  0  0  0  0  0  0  0  0
    9.1913    8.0876   21.8361 N   0  0  0  0  0  0  0  0  0  0  0  0
   10.4739    9.4813   20.2889 C   0  0  0  0  0  0  0  0  0  0  0  0
    7.5551    7.1270   23.1200 O   0  0  0  0  0  0  0  0  0  0  0  0
  1 11  4  0
  1 21  4  0
  2  4  1  0
  2  8  1  0
  2 11  1  0
  3 10  4  0
  3 14  4  0
  4  5  1  0
  4 18  2  0
  6 12  1  0
  6 17  4  0
  6 23  4  0
  7  9  1  0
  7 13  4  0
  7 19  4  0
  9 20  1  0
 10 19  4  0
 11 25  4  0
 13 14  4  0
 15 16  4  0
 15 17  4  0
 15 21  4  0
 16 24  1  0
 16 25  4  0
 20 24  1  0
 20 26  2  0
 21 23  4  0
 22 23  1  0
M  END
$$$$

 Created by Python create_sdf_string function

 26 28  0  0  0  0  0  0  0  0999 V2000
   12.4616    8.6700   19.4180 N   0  0  0  0  0  0  0  0  0  0  0  0
   11.8329   10.8148   18.6769 N   0  0  0  0  0  0  0  0  0  0  0  0
    6.1021    2.5564   21.0678 C   0  0  0  0  0  0  0  0  0  0  0  0
   10.9097   11.8051   18.4804 C   0  0  0  0  0  0  0  0  0  0  0  0
   11.2280   12.9135   17.5669 C   0  0  0  0  0  0  0  0  0  0  0  0
   12.3782    5.4231   20.7777 C   0  0  0  0  0  0  0  0  0  0  0  0
    7.7365    4.6508   21.6987 C   0  0  0  0  0  0  0  0  0  0  0  0
   13.0186   11.0102   18.0020 C   0  0  0  0  0  0  0  0  0  0  0  0
    8.6628    5.7088   21.8871 N   0  0  0  0  0  0  0  0  0  0  0  0
    5.6516    3.5258   21.9140 C   0  0  0  0  0  0  0  0  0  0  0  0
   11.5863    9.6815   19.4539 C   0  0  0  0  0  0  0  0  0  0  0  0
   12.9648    4.1543   20.9205 C   0  0  0  0  0  0  0  0  0  0  0  0
    8.2089    3.6265   20.8929 C   0  0  0  0  0  0  0  0  0  0  0  0
    7.3827    2.5724   20.5432 C   0  0  0  0  0  0  0  0  0  0  0  0
   11.1529    7.2750   20.8025 C   0  0  0  0  0  0  0  0  0  0  0  0
   10.2573    8.3215   20.9827 C   0  0  0  0  0  0  0  0  0  0  0  0
   11.1606    5.9378   21.2366 N   0  0  0  0  0  0  0  0  0  0  0  0
    9.8932   11.6736   19.0677 O   0  0  0  0  0  0  0  0  0  0  0  0
    6.4470    4.5850   22.2321 C   0  0  0  0  0  0  0  0  0  0  0  0
    8.4619    6.9895   22.2968 C   0  0  0  0  0  0  0  0  0  0  0  0
   12.2747    7.5102   20.0420 C   0  0  0  0  0  0  0  0  0  0  0  0
   14.2544    6.2142   19.4191 C   0  0  0  0  0  0  0  0  0  0  0  0
   13.0695    6.3705   20.0375 N   0  0  0  0  0  0  0  0  0  0  0  0
    9.1913    8.0876   21.8361 N   0  0  0  0  0  0  0  0  0  0  0  0
   10.4739    9.4813   20.2889 C   0  0  0  0  0  0  0  0  0  0  0  0
    7.5551    7.1270   23.1200 O   0  0  0  0  0  0  0  0  0  0  0  0
  1 11  4  0
  1 21  4  0
  2  4  1  0
  2  8  1  0
  2 11  1  0
  3 10  4  0
  3 14  4  0
  4  5  1  0
  4 18  2  0
  6 12  1  0
  6 17  4  0
  6 23  4  0
  7  9  1  0
  7 13  4  0
  7 19  4  0
  9 20  1  0
 10 19  4  0
 11 25  4  0
 13 14  4  0
 15 16  4  0
 15 17  4  0
 15 21  4  0
 16 24  1  0
 16 25  4  0
 20 24  1  0
 20 26  2  0
 21 23  4  0
 22 23  1  0
M  END
$$$$

 Created by Python create_sdf_string function

 26 28  0  0  0  0  0  0  0  0999 V2000
   12.4616    8.6700   19.4180 N   0  0  0  0  0  0  0  0  0  0  0  0
   11.8329   10.8148   18.6769 N   0  0  0  0  0  0  0  0  0  0  0  0
    6.1021    2.5564   21.0678 C   0  0  0  0  0  0  0  0  0  0  0  0
   10.9097   11.8051   18.4804 C   0  0  0  0  0  0  0  0  0  0  0  0
   11.2280   12.9135   17.5669 C   0  0  0  0  0  0  0  0  0  0  0  0
   12.3782    5.4231   20.7777 C   0  0  0  0  0  0  0  0  0  0  0  0
    7.7365    4.6508   21.6987 C   0  0  0  0  0  0  0  0  0  0  0  0
   13.0186   11.0102   18.0020 C   0  0  0  0  0  0  0  0  0  0  0  0
    8.6628    5.7088   21.8871 N   0  0  0  0  0  0  0  0  0  0  0  0
    5.6516    3.5258   21.9140 C   0  0  0  0  0  0  0  0  0  0  0  0
   11.5863    9.6815   19.4539 C   0  0  0  0  0  0  0  0  0  0  0  0
   12.9648    4.1543   20.9205 C   0  0  0  0  0  0  0  0  0  0  0  0
    8.2089    3.6265   20.8929 C   0  0  0  0  0  0  0  0  0  0  0  0
    7.3827    2.5724   20.5432 C   0  0  0  0  0  0  0  0  0  0  0  0
   11.1529    7.2750   20.8025 C   0  0  0  0  0  0  0  0  0  0  0  0
   10.2573    8.3215   20.9827 C   0  0  0  0  0  0  0  0  0  0  0  0
   11.1606    5.9378   21.2366 N   0  0  0  0  0  0  0  0  0  0  0  0
    9.8932   11.6736   19.0677 O   0  0  0  0  0  0  0  0  0  0  0  0
    6.4470    4.5850   22.2321 C   0  0  0  0  0  0  0  0  0  0  0  0
    8.4619    6.9895   22.2968 C   0  0  0  0  0  0  0  0  0  0  0  0
   12.2747    7.5102   20.0420 C   0  0  0  0  0  0  0  0  0  0  0  0
   14.2544    6.2142   19.4191 C   0  0  0  0  0  0  0  0  0  0  0  0
   13.0695    6.3705   20.0375 N   0  0  0  0  0  0  0  0  0  0  0  0
    9.1913    8.0876   21.8361 N   0  0  0  0  0  0  0  0  0  0  0  0
   10.4739    9.4813   20.2889 C   0  0  0  0  0  0  0  0  0  0  0  0
    7.5551    7.1270   23.1200 O   0  0  0  0  0  0  0  0  0  0  0  0
  1 11  4  0
  1 21  4  0
  2  4  1  0
  2  8  1  0
  2 11  1  0
  3 10  4  0
  3 14  4  0
  4  5  1  0
  4 18  2  0
  6 12  1  0
  6 17  4  0
  6 23  4  0
  7  9  1  0
  7 13  4  0
  7 19  4  0
  9 20  1  0
 10 19  4  0
 11 25  4  0
 13 14  4  0
 15 16  4  0
 15 17  4  0
 15 21  4  0
 16 24  1  0
 16 25  4  0
 20 24  1  0
 20 26  2  0
 21 23  4  0
 22 23  1  0
M  END
$$$$

 Created by Python create_sdf_string function

 26 28  0  0  0  0  0  0  0  0999 V2000
   12.4616    8.6700   19.4180 N   0  0  0  0  0  0  0  0  0  0  0  0
   11.8329   10.8148   18.6769 N   0  0  0  0  0  0  0  0  0  0  0  0
    6.1021    2.5564   21.0678 C   0  0  0  0  0  0  0  0  0  0  0  0
   10.9097   11.8051   18.4804 C   0  0  0  0  0  0  0  0  0  0  0  0
   11.2280   12.9135   17.5669 C   0  0  0  0  0  0  0  0  0  0  0  0
   12.3782    5.4231   20.7777 C   0  0  0  0  0  0  0  0  0  0  0  0
    7.7365    4.6508   21.6987 C   0  0  0  0  0  0  0  0  0  0  0  0
   13.0186   11.0102   18.0020 C   0  0  0  0  0  0  0  0  0  0  0  0
    8.6628    5.7088   21.8871 N   0  0  0  0  0  0  0  0  0  0  0  0
    5.6516    3.5258   21.9140 C   0  0  0  0  0  0  0  0  0  0  0  0
   11.5863    9.6815   19.4539 C   0  0  0  0  0  0  0  0  0  0  0  0
   12.9648    4.1543   20.9205 C   0  0  0  0  0  0  0  0  0  0  0  0
    8.2089    3.6265   20.8929 C   0  0  0  0  0  0  0  0  0  0  0  0
    7.3827    2.5724   20.5432 C   0  0  0  0  0  0  0  0  0  0  0  0
   11.1529    7.2750   20.8025 C   0  0  0  0  0  0  0  0  0  0  0  0
   10.2573    8.3215   20.9827 C   0  0  0  0  0  0  0  0  0  0  0  0
   11.1606    5.9378   21.2366 N   0  0  0  0  0  0  0  0  0  0  0  0
    9.8932   11.6736   19.0677 O   0  0  0  0  0  0  0  0  0  0  0  0
    6.4470    4.5850   22.2321 C   0  0  0  0  0  0  0  0  0  0  0  0
    8.4619    6.9895   22.2968 C   0  0  0  0  0  0  0  0  0  0  0  0
   12.2747    7.5102   20.0420 C   0  0  0  0  0  0  0  0  0  0  0  0
   14.2544    6.2142   19.4191 C   0  0  0  0  0  0  0  0  0  0  0  0
   13.0695    6.3705   20.0375 N   0  0  0  0  0  0  0  0  0  0  0  0
    9.1913    8.0876   21.8361 N   0  0  0  0  0  0  0  0  0  0  0  0
   10.4739    9.4813   20.2889 C   0  0  0  0  0  0  0  0  0  0  0  0
    7.5551    7.1270   23.1200 O   0  0  0  0  0  0  0  0  0  0  0  0
  1 11  4  0
  1 21  4  0
  2  4  1  0
  2  8  1  0
  2 11  1  0
  3 10  4  0
  3 14  4  0
  4  5  1  0
  4 18  2  0
  6 12  1  0
  6 17  4  0
  6 23  4  0
  7  9  1  0
  7 13  4  0
  7 19  4  0
  9 20  1  0
 10 19  4  0
 11 25  4  0
 13 14  4  0
 15 16  4  0
 15 17  4  0
 15 21  4  0
 16 24  1  0
 16 25  4  0
 20 24  1  0
 20 26  2  0
 21 23  4  0
 22 23  1  0
M  END
$$$$

 Created by Python create_sdf_string function

 26 28  0  0  0  0  0  0  0  0999 V2000
   12.4616    8.6700   19.4180 N   0  0  0  0  0  0  0  0  0  0  0  0
   11.8329   10.8148   18.6769 N   0  0  0  0  0  0  0  0  0  0  0  0
    6.1021    2.5564   21.0678 C   0  0  0  0  0  0  0  0  0  0  0  0
   10.9097   11.8051   18.4804 C   0  0  0  0  0  0  0  0  0  0  0  0
   11.2280   12.9135   17.5669 C   0  0  0  0  0  0  0  0  0  0  0  0
   12.3782    5.4231   20.7777 C   0  0  0  0  0  0  0  0  0  0  0  0
    7.7365    4.6508   21.6987 C   0  0  0  0  0  0  0  0  0  0  0  0
   13.0186   11.0102   18.0020 C   0  0  0  0  0  0  0  0  0  0  0  0
    8.6628    5.7088   21.8871 N   0  0  0  0  0  0  0  0  0  0  0  0
    5.6516    3.5258   21.9140 C   0  0  0  0  0  0  0  0  0  0  0  0
   11.5863    9.6815   19.4539 C   0  0  0  0  0  0  0  0  0  0  0  0
   12.9648    4.1543   20.9205 C   0  0  0  0  0  0  0  0  0  0  0  0
    8.2089    3.6265   20.8929 C   0  0  0  0  0  0  0  0  0  0  0  0
    7.3827    2.5724   20.5432 C   0  0  0  0  0  0  0  0  0  0  0  0
   11.1529    7.2750   20.8025 C   0  0  0  0  0  0  0  0  0  0  0  0
   10.2573    8.3215   20.9827 C   0  0  0  0  0  0  0  0  0  0  0  0
   11.1606    5.9378   21.2366 N   0  0  0  0  0  0  0  0  0  0  0  0
    9.8932   11.6736   19.0677 O   0  0  0  0  0  0  0  0  0  0  0  0
    6.4470    4.5850   22.2321 C   0  0  0  0  0  0  0  0  0  0  0  0
    8.4619    6.9895   22.2968 C   0  0  0  0  0  0  0  0  0  0  0  0
   12.2747    7.5102   20.0420 C   0  0  0  0  0  0  0  0  0  0  0  0
   14.2544    6.2142   19.4191 C   0  0  0  0  0  0  0  0  0  0  0  0
   13.0695    6.3705   20.0375 N   0  0  0  0  0  0  0  0  0  0  0  0
    9.1913    8.0876   21.8361 N   0  0  0  0  0  0  0  0  0  0  0  0
   10.4739    9.4813   20.2889 C   0  0  0  0  0  0  0  0  0  0  0  0
    7.5551    7.1270   23.1200 O   0  0  0  0  0  0  0  0  0  0  0  0
  1 11  4  0
  1 21  4  0
  2  4  1  0
  2  8  1  0
  2 11  1  0
  3 10  4  0
  3 14  4  0
  4  5  1  0
  4 18  2  0
  6 12  1  0
  6 17  4  0
  6 23  4  0
  7  9  1  0
  7 13  4  0
  7 19  4  0
  9 20  1  0
 10 19  4  0
 11 25  4  0
 13 14  4  0
 15 16  4  0
 15 17  4  0
 15 21  4  0
 16 24  1  0
 16 25  4  0
 20 24  1  0
 20 26  2  0
 21 23  4  0
 22 23  1  0
M  END
$$$$

 Created by Python create_sdf_string function

 26 28  0  0  0  0  0  0  0  0999 V2000
   12.4616    8.6700   19.4180 N   0  0  0  0  0  0  0  0  0  0  0  0
   11.8329   10.8148   18.6769 N   0  0  0  0  0  0  0  0  0  0  0  0
    6.1021    2.5564   21.0678 C   0  0  0  0  0  0  0  0  0  0  0  0
   10.9097   11.8051   18.4804 C   0  0  0  0  0  0  0  0  0  0  0  0
   11.2280   12.9135   17.5669 C   0  0  0  0  0  0  0  0  0  0  0  0
   12.3782    5.4231   20.7777 C   0  0  0  0  0  0  0  0  0  0  0  0
    7.7365    4.6508   21.6987 C   0  0  0  0  0  0  0  0  0  0  0  0
   13.0186   11.0102   18.0020 C   0  0  0  0  0  0  0  0  0  0  0  0
    8.6628    5.7088   21.8871 N   0  0  0  0  0  0  0  0  0  0  0  0
    5.6516    3.5258   21.9140 C   0  0  0  0  0  0  0  0  0  0  0  0
   11.5863    9.6815   19.4539 C   0  0  0  0  0  0  0  0  0  0  0  0
   12.9648    4.1543   20.9205 C   0  0  0  0  0  0  0  0  0  0  0  0
    8.2089    3.6265   20.8929 C   0  0  0  0  0  0  0  0  0  0  0  0
    7.3827    2.5724   20.5432 C   0  0  0  0  0  0  0  0  0  0  0  0
   11.1529    7.2750   20.8025 C   0  0  0  0  0  0  0  0  0  0  0  0
   10.2573    8.3215   20.9827 C   0  0  0  0  0  0  0  0  0  0  0  0
   11.1606    5.9378   21.2366 N   0  0  0  0  0  0  0  0  0  0  0  0
    9.8932   11.6736   19.0677 O   0  0  0  0  0  0  0  0  0  0  0  0
    6.4470    4.5850   22.2321 C   0  0  0  0  0  0  0  0  0  0  0  0
    8.4619    6.9895   22.2968 C   0  0  0  0  0  0  0  0  0  0  0  0
   12.2747    7.5102   20.0420 C   0  0  0  0  0  0  0  0  0  0  0  0
   14.2544    6.2142   19.4191 C   0  0  0  0  0  0  0  0  0  0  0  0
   13.0695    6.3705   20.0375 N   0  0  0  0  0  0  0  0  0  0  0  0
    9.1913    8.0876   21.8361 N   0  0  0  0  0  0  0  0  0  0  0  0
   10.4739    9.4813   20.2889 C   0  0  0  0  0  0  0  0  0  0  0  0
    7.5551    7.1270   23.1200 O   0  0  0  0  0  0  0  0  0  0  0  0
  1 11  4  0
  1 21  4  0
  2  4  1  0
  2  8  1  0
  2 11  1  0
  3 10  4  0
  3 14  4  0
  4  5  1  0
  4 18  2  0
  6 12  1  0
  6 17  4  0
  6 23  4  0
  7  9  1  0
  7 13  4  0
  7 19  4  0
  9 20  1  0
 10 19  4  0
 11 25  4  0
 13 14  4  0
 15 16  4  0
 15 17  4  0
 15 21  4  0
 16 24  1  0
 16 25  4  0
 20 24  1  0
 20 26  2  0
 21 23  4  0
 22 23  1  0
M  END
$$$$

 Created by Python create_sdf_string function

 26 28  0  0  0  0  0  0  0  0999 V2000
   12.4616    8.6700   19.4180 N   0  0  0  0  0  0  0  0  0  0  0  0
   11.8329   10.8148   18.6769 N   0  0  0  0  0  0  0  0  0  0  0  0
    6.1021    2.5564   21.0678 C   0  0  0  0  0  0  0  0  0  0  0  0
   10.9097   11.8051   18.4804 C   0  0  0  0  0  0  0  0  0  0  0  0
   11.2280   12.9135   17.5669 C   0  0  0  0  0  0  0  0  0  0  0  0
   12.3782    5.4231   20.7777 C   0  0  0  0  0  0  0  0  0  0  0  0
    7.7365    4.6508   21.6987 C   0  0  0  0  0  0  0  0  0  0  0  0
   13.0186   11.0102   18.0020 C   0  0  0  0  0  0  0  0  0  0  0  0
    8.6628    5.7088   21.8871 N   0  0  0  0  0  0  0  0  0  0  0  0
    5.6516    3.5258   21.9140 C   0  0  0  0  0  0  0  0  0  0  0  0
   11.5863    9.6815   19.4539 C   0  0  0  0  0  0  0  0  0  0  0  0
   12.9648    4.1543   20.9205 C   0  0  0  0  0  0  0  0  0  0  0  0
    8.2089    3.6265   20.8929 C   0  0  0  0  0  0  0  0  0  0  0  0
    7.3827    2.5724   20.5432 C   0  0  0  0  0  0  0  0  0  0  0  0
   11.1529    7.2750   20.8025 C   0  0  0  0  0  0  0  0  0  0  0  0
   10.2573    8.3215   20.9827 C   0  0  0  0  0  0  0  0  0  0  0  0
   11.1606    5.9378   21.2366 N   0  0  0  0  0  0  0  0  0  0  0  0
    9.8932   11.6736   19.0677 O   0  0  0  0  0  0  0  0  0  0  0  0
    6.4470    4.5850   22.2321 C   0  0  0  0  0  0  0  0  0  0  0  0
    8.4619    6.9895   22.2968 C   0  0  0  0  0  0  0  0  0  0  0  0
   12.2747    7.5102   20.0420 C   0  0  0  0  0  0  0  0  0  0  0  0
   14.2544    6.2142   19.4191 C   0  0  0  0  0  0  0  0  0  0  0  0
   13.0695    6.3705   20.0375 N   0  0  0  0  0  0  0  0  0  0  0  0
    9.1913    8.0876   21.8361 N   0  0  0  0  0  0  0  0  0  0  0  0
   10.4739    9.4813   20.2889 C   0  0  0  0  0  0  0  0  0  0  0  0
    7.5551    7.1270   23.1200 O   0  0  0  0  0  0  0  0  0  0  0  0
  1 11  4  0
  1 21  4  0
  2  4  1  0
  2  8  1  0
  2 11  1  0
  3 10  4  0
  3 14  4  0
  4  5  1  0
  4 18  2  0
  6 12  1  0
  6 17  4  0
  6 23  4  0
  7  9  1  0
  7 13  4  0
  7 19  4  0
  9 20  1  0
 10 19  4  0
 11 25  4  0
 13 14  4  0
 15 16  4  0
 15 17  4  0
 15 21  4  0
 16 24  1  0
 16 25  4  0
 20 24  1  0
 20 26  2  0
 21 23  4  0
 22 23  1  0
M  END
$$$$

 Created by Python create_sdf_string function

 26 28  0  0  0  0  0  0  0  0999 V2000
   12.4616    8.6700   19.4180 N   0  0  0  0  0  0  0  0  0  0  0  0
   11.8329   10.8148   18.6769 N   0  0  0  0  0  0  0  0  0  0  0  0
    6.1021    2.5564   21.0678 C   0  0  0  0  0  0  0  0  0  0  0  0
   10.9097   11.8051   18.4804 C   0  0  0  0  0  0  0  0  0  0  0  0
   11.2280   12.9135   17.5669 C   0  0  0  0  0  0  0  0  0  0  0  0
   12.3782    5.4231   20.7777 C   0  0  0  0  0  0  0  0  0  0  0  0
    7.7365    4.6508   21.6987 C   0  0  0  0  0  0  0  0  0  0  0  0
   13.0186   11.0102   18.0020 C   0  0  0  0  0  0  0  0  0  0  0  0
    8.6628    5.7088   21.8871 N   0  0  0  0  0  0  0  0  0  0  0  0
    5.6516    3.5258   21.9140 C   0  0  0  0  0  0  0  0  0  0  0  0
   11.5863    9.6815   19.4539 C   0  0  0  0  0  0  0  0  0  0  0  0
   12.9648    4.1543   20.9205 C   0  0  0  0  0  0  0  0  0  0  0  0
    8.2089    3.6265   20.8929 C   0  0  0  0  0  0  0  0  0  0  0  0
    7.3827    2.5724   20.5432 C   0  0  0  0  0  0  0  0  0  0  0  0
   11.1529    7.2750   20.8025 C   0  0  0  0  0  0  0  0  0  0  0  0
   10.2573    8.3215   20.9827 C   0  0  0  0  0  0  0  0  0  0  0  0
   11.1606    5.9378   21.2366 N   0  0  0  0  0  0  0  0  0  0  0  0
    9.8932   11.6736   19.0677 O   0  0  0  0  0  0  0  0  0  0  0  0
    6.4470    4.5850   22.2321 C   0  0  0  0  0  0  0  0  0  0  0  0
    8.4619    6.9895   22.2968 C   0  0  0  0  0  0  0  0  0  0  0  0
   12.2747    7.5102   20.0420 C   0  0  0  0  0  0  0  0  0  0  0  0
   14.2544    6.2142   19.4191 C   0  0  0  0  0  0  0  0  0  0  0  0
   13.0695    6.3705   20.0375 N   0  0  0  0  0  0  0  0  0  0  0  0
    9.1913    8.0876   21.8361 N   0  0  0  0  0  0  0  0  0  0  0  0
   10.4739    9.4813   20.2889 C   0  0  0  0  0  0  0  0  0  0  0  0
    7.5551    7.1270   23.1200 O   0  0  0  0  0  0  0  0  0  0  0  0
  1 11  4  0
  1 21  4  0
  2  4  1  0
  2  8  1  0
  2 11  1  0
  3 10  4  0
  3 14  4  0
  4  5  1  0
  4 18  2  0
  6 12  1  0
  6 17  4  0
  6 23  4  0
  7  9  1  0
  7 13  4  0
  7 19  4  0
  9 20  1  0
 10 19  4  0
 11 25  4  0
 13 14  4  0
 15 16  4  0
 15 17  4  0
 15 21  4  0
 16 24  1  0
 16 25  4  0
 20 24  1  0
 20 26  2  0
 21 23  4  0
 22 23  1  0
M  END
$$$$

 Created by Python create_sdf_string function

 26 28  0  0  0  0  0  0  0  0999 V2000
   12.4616    8.6700   19.4180 N   0  0  0  0  0  0  0  0  0  0  0  0
   11.8329   10.8148   18.6769 N   0  0  0  0  0  0  0  0  0  0  0  0
    6.1021    2.5564   21.0678 C   0  0  0  0  0  0  0  0  0  0  0  0
   10.9097   11.8051   18.4804 C   0  0  0  0  0  0  0  0  0  0  0  0
   11.2280   12.9135   17.5669 C   0  0  0  0  0  0  0  0  0  0  0  0
   12.3782    5.4231   20.7777 C   0  0  0  0  0  0  0  0  0  0  0  0
    7.7365    4.6508   21.6987 C   0  0  0  0  0  0  0  0  0  0  0  0
   13.0186   11.0102   18.0020 C   0  0  0  0  0  0  0  0  0  0  0  0
    8.6628    5.7088   21.8871 N   0  0  0  0  0  0  0  0  0  0  0  0
    5.6516    3.5258   21.9140 C   0  0  0  0  0  0  0  0  0  0  0  0
   11.5863    9.6815   19.4539 C   0  0  0  0  0  0  0  0  0  0  0  0
   12.9648    4.1543   20.9205 C   0  0  0  0  0  0  0  0  0  0  0  0
    8.2089    3.6265   20.8929 C   0  0  0  0  0  0  0  0  0  0  0  0
    7.3827    2.5724   20.5432 C   0  0  0  0  0  0  0  0  0  0  0  0
   11.1529    7.2750   20.8025 C   0  0  0  0  0  0  0  0  0  0  0  0
   10.2573    8.3215   20.9827 C   0  0  0  0  0  0  0  0  0  0  0  0
   11.1606    5.9378   21.2366 N   0  0  0  0  0  0  0  0  0  0  0  0
    9.8932   11.6736   19.0677 O   0  0  0  0  0  0  0  0  0  0  0  0
    6.4470    4.5850   22.2321 C   0  0  0  0  0  0  0  0  0  0  0  0
    8.4619    6.9895   22.2968 C   0  0  0  0  0  0  0  0  0  0  0  0
   12.2747    7.5102   20.0420 C   0  0  0  0  0  0  0  0  0  0  0  0
   14.2544    6.2142   19.4191 C   0  0  0  0  0  0  0  0  0  0  0  0
   13.0695    6.3705   20.0375 N   0  0  0  0  0  0  0  0  0  0  0  0
    9.1913    8.0876   21.8361 N   0  0  0  0  0  0  0  0  0  0  0  0
   10.4739    9.4813   20.2889 C   0  0  0  0  0  0  0  0  0  0  0  0
    7.5551    7.1270   23.1200 O   0  0  0  0  0  0  0  0  0  0  0  0
  1 11  4  0
  1 21  4  0
  2  4  1  0
  2  8  1  0
  2 11  1  0
  3 10  4  0
  3 14  4  0
  4  5  1  0
  4 18  2  0
  6 12  1  0
  6 17  4  0
  6 23  4  0
  7  9  1  0
  7 13  4  0
  7 19  4  0
  9 20  1  0
 10 19  4  0
 11 25  4  0
 13 14  4  0
 15 16  4  0
 15 17  4  0
 15 21  4  0
 16 24  1  0
 16 25  4  0
 20 24  1  0
 20 26  2  0
 21 23  4  0
 22 23  1  0
M  END
$$$$

 Created by Python create_sdf_string function

 26 28  0  0  0  0  0  0  0  0999 V2000
   12.4616    8.6700   19.4180 N   0  0  0  0  0  0  0  0  0  0  0  0
   11.8329   10.8148   18.6769 N   0  0  0  0  0  0  0  0  0  0  0  0
    6.1021    2.5564   21.0678 C   0  0  0  0  0  0  0  0  0  0  0  0
   10.9097   11.8051   18.4804 C   0  0  0  0  0  0  0  0  0  0  0  0
   11.2280   12.9135   17.5669 C   0  0  0  0  0  0  0  0  0  0  0  0
   12.3782    5.4231   20.7777 C   0  0  0  0  0  0  0  0  0  0  0  0
    7.7365    4.6508   21.6987 C   0  0  0  0  0  0  0  0  0  0  0  0
   13.0186   11.0102   18.0020 C   0  0  0  0  0  0  0  0  0  0  0  0
    8.6628    5.7088   21.8871 N   0  0  0  0  0  0  0  0  0  0  0  0
    5.6516    3.5258   21.9140 C   0  0  0  0  0  0  0  0  0  0  0  0
   11.5863    9.6815   19.4539 C   0  0  0  0  0  0  0  0  0  0  0  0
   12.9648    4.1543   20.9205 C   0  0  0  0  0  0  0  0  0  0  0  0
    8.2089    3.6265   20.8929 C   0  0  0  0  0  0  0  0  0  0  0  0
    7.3827    2.5724   20.5432 C   0  0  0  0  0  0  0  0  0  0  0  0
   11.1529    7.2750   20.8025 C   0  0  0  0  0  0  0  0  0  0  0  0
   10.2573    8.3215   20.9827 C   0  0  0  0  0  0  0  0  0  0  0  0
   11.1606    5.9378   21.2366 N   0  0  0  0  0  0  0  0  0  0  0  0
    9.8932   11.6736   19.0677 O   0  0  0  0  0  0  0  0  0  0  0  0
    6.4470    4.5850   22.2321 C   0  0  0  0  0  0  0  0  0  0  0  0
    8.4619    6.9895   22.2968 C   0  0  0  0  0  0  0  0  0  0  0  0
   12.2747    7.5102   20.0420 C   0  0  0  0  0  0  0  0  0  0  0  0
   14.2544    6.2142   19.4191 C   0  0  0  0  0  0  0  0  0  0  0  0
   13.0695    6.3705   20.0375 N   0  0  0  0  0  0  0  0  0  0  0  0
    9.1913    8.0876   21.8361 N   0  0  0  0  0  0  0  0  0  0  0  0
   10.4739    9.4813   20.2889 C   0  0  0  0  0  0  0  0  0  0  0  0
    7.5551    7.1270   23.1200 O   0  0  0  0  0  0  0  0  0  0  0  0
  1 11  4  0
  1 21  4  0
  2  4  1  0
  2  8  1  0
  2 11  1  0
  3 10  4  0
  3 14  4  0
  4  5  1  0
  4 18  2  0
  6 12  1  0
  6 17  4  0
  6 23  4  0
  7  9  1  0
  7 13  4  0
  7 19  4  0
  9 20  1  0
 10 19  4  0
 11 25  4  0
 13 14  4  0
 15 16  4  0
 15 17  4  0
 15 21  4  0
 16 24  1  0
 16 25  4  0
 20 24  1  0
 20 26  2  0
 21 23  4  0
 22 23  1  0
M  END
$$$$

 Created by Python create_sdf_string function

 26 28  0  0  0  0  0  0  0  0999 V2000
   12.4616    8.6700   19.4180 N   0  0  0  0  0  0  0  0  0  0  0  0
   11.8329   10.8148   18.6769 N   0  0  0  0  0  0  0  0  0  0  0  0
    6.1021    2.5564   21.0678 C   0  0  0  0  0  0  0  0  0  0  0  0
   10.9097   11.8051   18.4804 C   0  0  0  0  0  0  0  0  0  0  0  0
   11.2280   12.9135   17.5669 C   0  0  0  0  0  0  0  0  0  0  0  0
   12.3782    5.4231   20.7777 C   0  0  0  0  0  0  0  0  0  0  0  0
    7.7365    4.6508   21.6987 C   0  0  0  0  0  0  0  0  0  0  0  0
   13.0186   11.0102   18.0020 C   0  0  0  0  0  0  0  0  0  0  0  0
    8.6628    5.7088   21.8871 N   0  0  0  0  0  0  0  0  0  0  0  0
    5.6516    3.5258   21.9140 C   0  0  0  0  0  0  0  0  0  0  0  0
   11.5863    9.6815   19.4539 C   0  0  0  0  0  0  0  0  0  0  0  0
   12.9648    4.1543   20.9205 C   0  0  0  0  0  0  0  0  0  0  0  0
    8.2089    3.6265   20.8929 C   0  0  0  0  0  0  0  0  0  0  0  0
    7.3827    2.5724   20.5432 C   0  0  0  0  0  0  0  0  0  0  0  0
   11.1529    7.2750   20.8025 C   0  0  0  0  0  0  0  0  0  0  0  0
   10.2573    8.3215   20.9827 C   0  0  0  0  0  0  0  0  0  0  0  0
   11.1606    5.9378   21.2366 N   0  0  0  0  0  0  0  0  0  0  0  0
    9.8932   11.6736   19.0677 O   0  0  0  0  0  0  0  0  0  0  0  0
    6.4470    4.5850   22.2321 C   0  0  0  0  0  0  0  0  0  0  0  0
    8.4619    6.9895   22.2968 C   0  0  0  0  0  0  0  0  0  0  0  0
   12.2747    7.5102   20.0420 C   0  0  0  0  0  0  0  0  0  0  0  0
   14.2544    6.2142   19.4191 C   0  0  0  0  0  0  0  0  0  0  0  0
   13.0695    6.3705   20.0375 N   0  0  0  0  0  0  0  0  0  0  0  0
    9.1913    8.0876   21.8361 N   0  0  0  0  0  0  0  0  0  0  0  0
   10.4739    9.4813   20.2889 C   0  0  0  0  0  0  0  0  0  0  0  0
    7.5551    7.1270   23.1200 O   0  0  0  0  0  0  0  0  0  0  0  0
  1 11  4  0
  1 21  4  0
  2  4  1  0
  2  8  1  0
  2 11  1  0
  3 10  4  0
  3 14  4  0
  4  5  1  0
  4 18  2  0
  6 12  1  0
  6 17  4  0
  6 23  4  0
  7  9  1  0
  7 13  4  0
  7 19  4  0
  9 20  1  0
 10 19  4  0
 11 25  4  0
 13 14  4  0
 15 16  4  0
 15 17  4  0
 15 21  4  0
 16 24  1  0
 16 25  4  0
 20 24  1  0
 20 26  2  0
 21 23  4  0
 22 23  1  0
M  END
$$$$

 Created by Python create_sdf_string function

 26 28  0  0  0  0  0  0  0  0999 V2000
   12.4616    8.6700   19.4180 N   0  0  0  0  0  0  0  0  0  0  0  0
   11.8329   10.8148   18.6769 N   0  0  0  0  0  0  0  0  0  0  0  0
    6.1021    2.5564   21.0678 C   0  0  0  0  0  0  0  0  0  0  0  0
   10.9097   11.8051   18.4804 C   0  0  0  0  0  0  0  0  0  0  0  0
   11.2280   12.9135   17.5669 C   0  0  0  0  0  0  0  0  0  0  0  0
   12.3782    5.4231   20.7777 C   0  0  0  0  0  0  0  0  0  0  0  0
    7.7365    4.6508   21.6987 C   0  0  0  0  0  0  0  0  0  0  0  0
   13.0186   11.0102   18.0020 C   0  0  0  0  0  0  0  0  0  0  0  0
    8.6628    5.7088   21.8871 N   0  0  0  0  0  0  0  0  0  0  0  0
    5.6516    3.5258   21.9140 C   0  0  0  0  0  0  0  0  0  0  0  0
   11.5863    9.6815   19.4539 C   0  0  0  0  0  0  0  0  0  0  0  0
   12.9648    4.1543   20.9205 C   0  0  0  0  0  0  0  0  0  0  0  0
    8.2089    3.6265   20.8929 C   0  0  0  0  0  0  0  0  0  0  0  0
    7.3827    2.5724   20.5432 C   0  0  0  0  0  0  0  0  0  0  0  0
   11.1529    7.2750   20.8025 C   0  0  0  0  0  0  0  0  0  0  0  0
   10.2573    8.3215   20.9827 C   0  0  0  0  0  0  0  0  0  0  0  0
   11.1606    5.9378   21.2366 N   0  0  0  0  0  0  0  0  0  0  0  0
    9.8932   11.6736   19.0677 O   0  0  0  0  0  0  0  0  0  0  0  0
    6.4470    4.5850   22.2321 C   0  0  0  0  0  0  0  0  0  0  0  0
    8.4619    6.9895   22.2968 C   0  0  0  0  0  0  0  0  0  0  0  0
   12.2747    7.5102   20.0420 C   0  0  0  0  0  0  0  0  0  0  0  0
   14.2544    6.2142   19.4191 C   0  0  0  0  0  0  0  0  0  0  0  0
   13.0695    6.3705   20.0375 N   0  0  0  0  0  0  0  0  0  0  0  0
    9.1913    8.0876   21.8361 N   0  0  0  0  0  0  0  0  0  0  0  0
   10.4739    9.4813   20.2889 C   0  0  0  0  0  0  0  0  0  0  0  0
    7.5551    7.1270   23.1200 O   0  0  0  0  0  0  0  0  0  0  0  0
  1 11  4  0
  1 21  4  0
  2  4  1  0
  2  8  1  0
  2 11  1  0
  3 10  4  0
  3 14  4  0
  4  5  1  0
  4 18  2  0
  6 12  1  0
  6 17  4  0
  6 23  4  0
  7  9  1  0
  7 13  4  0
  7 19  4  0
  9 20  1  0
 10 19  4  0
 11 25  4  0
 13 14  4  0
 15 16  4  0
 15 17  4  0
 15 21  4  0
 16 24  1  0
 16 25  4  0
 20 24  1  0
 20 26  2  0
 21 23  4  0
 22 23  1  0
M  END
$$$$

 Created by Python create_sdf_string function

 26 28  0  0  0  0  0  0  0  0999 V2000
   12.4616    8.6700   19.4180 N   0  0  0  0  0  0  0  0  0  0  0  0
   11.8329   10.8148   18.6769 N   0  0  0  0  0  0  0  0  0  0  0  0
    6.1021    2.5564   21.0678 C   0  0  0  0  0  0  0  0  0  0  0  0
   10.9097   11.8051   18.4804 C   0  0  0  0  0  0  0  0  0  0  0  0
   11.2280   12.9135   17.5669 C   0  0  0  0  0  0  0  0  0  0  0  0
   12.3782    5.4231   20.7777 C   0  0  0  0  0  0  0  0  0  0  0  0
    7.7365    4.6508   21.6987 C   0  0  0  0  0  0  0  0  0  0  0  0
   13.0186   11.0102   18.0020 C   0  0  0  0  0  0  0  0  0  0  0  0
    8.6628    5.7088   21.8871 N   0  0  0  0  0  0  0  0  0  0  0  0
    5.6516    3.5258   21.9140 C   0  0  0  0  0  0  0  0  0  0  0  0
   11.5863    9.6815   19.4539 C   0  0  0  0  0  0  0  0  0  0  0  0
   12.9648    4.1543   20.9205 C   0  0  0  0  0  0  0  0  0  0  0  0
    8.2089    3.6265   20.8929 C   0  0  0  0  0  0  0  0  0  0  0  0
    7.3827    2.5724   20.5432 C   0  0  0  0  0  0  0  0  0  0  0  0
   11.1529    7.2750   20.8025 C   0  0  0  0  0  0  0  0  0  0  0  0
   10.2573    8.3215   20.9827 C   0  0  0  0  0  0  0  0  0  0  0  0
   11.1606    5.9378   21.2366 N   0  0  0  0  0  0  0  0  0  0  0  0
    9.8932   11.6736   19.0677 O   0  0  0  0  0  0  0  0  0  0  0  0
    6.4470    4.5850   22.2321 C   0  0  0  0  0  0  0  0  0  0  0  0
    8.4619    6.9895   22.2968 C   0  0  0  0  0  0  0  0  0  0  0  0
   12.2747    7.5102   20.0420 C   0  0  0  0  0  0  0  0  0  0  0  0
   14.2544    6.2142   19.4191 C   0  0  0  0  0  0  0  0  0  0  0  0
   13.0695    6.3705   20.0375 N   0  0  0  0  0  0  0  0  0  0  0  0
    9.1913    8.0876   21.8361 N   0  0  0  0  0  0  0  0  0  0  0  0
   10.4739    9.4813   20.2889 C   0  0  0  0  0  0  0  0  0  0  0  0
    7.5551    7.1270   23.1200 O   0  0  0  0  0  0  0  0  0  0  0  0
  1 11  4  0
  1 21  4  0
  2  4  1  0
  2  8  1  0
  2 11  1  0
  3 10  4  0
  3 14  4  0
  4  5  1  0
  4 18  2  0
  6 12  1  0
  6 17  4  0
  6 23  4  0
  7  9  1  0
  7 13  4  0
  7 19  4  0
  9 20  1  0
 10 19  4  0
 11 25  4  0
 13 14  4  0
 15 16  4  0
 15 17  4  0
 15 21  4  0
 16 24  1  0
 16 25  4  0
 20 24  1  0
 20 26  2  0
 21 23  4  0
 22 23  1  0
M  END
$$$$

 Created by Python create_sdf_string function

 26 28  0  0  0  0  0  0  0  0999 V2000
   12.4616    8.6700   19.4180 N   0  0  0  0  0  0  0  0  0  0  0  0
   11.8329   10.8148   18.6769 N   0  0  0  0  0  0  0  0  0  0  0  0
    6.1021    2.5564   21.0678 C   0  0  0  0  0  0  0  0  0  0  0  0
   10.9097   11.8051   18.4804 C   0  0  0  0  0  0  0  0  0  0  0  0
   11.2280   12.9135   17.5669 C   0  0  0  0  0  0  0  0  0  0  0  0
   12.3782    5.4231   20.7777 C   0  0  0  0  0  0  0  0  0  0  0  0
    7.7365    4.6508   21.6987 C   0  0  0  0  0  0  0  0  0  0  0  0
   13.0186   11.0102   18.0020 C   0  0  0  0  0  0  0  0  0  0  0  0
    8.6628    5.7088   21.8871 N   0  0  0  0  0  0  0  0  0  0  0  0
    5.6516    3.5258   21.9140 C   0  0  0  0  0  0  0  0  0  0  0  0
   11.5863    9.6815   19.4539 C   0  0  0  0  0  0  0  0  0  0  0  0
   12.9648    4.1543   20.9205 C   0  0  0  0  0  0  0  0  0  0  0  0
    8.2089    3.6265   20.8929 C   0  0  0  0  0  0  0  0  0  0  0  0
    7.3827    2.5724   20.5432 C   0  0  0  0  0  0  0  0  0  0  0  0
   11.1529    7.2750   20.8025 C   0  0  0  0  0  0  0  0  0  0  0  0
   10.2573    8.3215   20.9827 C   0  0  0  0  0  0  0  0  0  0  0  0
   11.1606    5.9378   21.2366 N   0  0  0  0  0  0  0  0  0  0  0  0
    9.8932   11.6736   19.0677 O   0  0  0  0  0  0  0  0  0  0  0  0
    6.4470    4.5850   22.2321 C   0  0  0  0  0  0  0  0  0  0  0  0
    8.4619    6.9895   22.2968 C   0  0  0  0  0  0  0  0  0  0  0  0
   12.2747    7.5102   20.0420 C   0  0  0  0  0  0  0  0  0  0  0  0
   14.2544    6.2142   19.4191 C   0  0  0  0  0  0  0  0  0  0  0  0
   13.0695    6.3705   20.0375 N   0  0  0  0  0  0  0  0  0  0  0  0
    9.1913    8.0876   21.8361 N   0  0  0  0  0  0  0  0  0  0  0  0
   10.4739    9.4813   20.2889 C   0  0  0  0  0  0  0  0  0  0  0  0
    7.5551    7.1270   23.1200 O   0  0  0  0  0  0  0  0  0  0  0  0
  1 11  4  0
  1 21  4  0
  2  4  1  0
  2  8  1  0
  2 11  1  0
  3 10  4  0
  3 14  4  0
  4  5  1  0
  4 18  2  0
  6 12  1  0
  6 17  4  0
  6 23  4  0
  7  9  1  0
  7 13  4  0
  7 19  4  0
  9 20  1  0
 10 19  4  0
 11 25  4  0
 13 14  4  0
 15 16  4  0
 15 17  4  0
 15 21  4  0
 16 24  1  0
 16 25  4  0
 20 24  1  0
 20 26  2  0
 21 23  4  0
 22 23  1  0
M  END
$$$$

 Created by Python create_sdf_string function

 26 28  0  0  0  0  0  0  0  0999 V2000
   12.4616    8.6700   19.4180 N   0  0  0  0  0  0  0  0  0  0  0  0
   11.8329   10.8148   18.6769 N   0  0  0  0  0  0  0  0  0  0  0  0
    6.1021    2.5564   21.0678 C   0  0  0  0  0  0  0  0  0  0  0  0
   10.9097   11.8051   18.4804 C   0  0  0  0  0  0  0  0  0  0  0  0
   11.2280   12.9135   17.5669 C   0  0  0  0  0  0  0  0  0  0  0  0
   12.3782    5.4231   20.7777 C   0  0  0  0  0  0  0  0  0  0  0  0
    7.7365    4.6508   21.6987 C   0  0  0  0  0  0  0  0  0  0  0  0
   13.0186   11.0102   18.0020 C   0  0  0  0  0  0  0  0  0  0  0  0
    8.6628    5.7088   21.8871 N   0  0  0  0  0  0  0  0  0  0  0  0
    5.6516    3.5258   21.9140 C   0  0  0  0  0  0  0  0  0  0  0  0
   11.5863    9.6815   19.4539 C   0  0  0  0  0  0  0  0  0  0  0  0
   12.9648    4.1543   20.9205 C   0  0  0  0  0  0  0  0  0  0  0  0
    8.2089    3.6265   20.8929 C   0  0  0  0  0  0  0  0  0  0  0  0
    7.3827    2.5724   20.5432 C   0  0  0  0  0  0  0  0  0  0  0  0
   11.1529    7.2750   20.8025 C   0  0  0  0  0  0  0  0  0  0  0  0
   10.2573    8.3215   20.9827 C   0  0  0  0  0  0  0  0  0  0  0  0
   11.1606    5.9378   21.2366 N   0  0  0  0  0  0  0  0  0  0  0  0
    9.8932   11.6736   19.0677 O   0  0  0  0  0  0  0  0  0  0  0  0
    6.4470    4.5850   22.2321 C   0  0  0  0  0  0  0  0  0  0  0  0
    8.4619    6.9895   22.2968 C   0  0  0  0  0  0  0  0  0  0  0  0
   12.2747    7.5102   20.0420 C   0  0  0  0  0  0  0  0  0  0  0  0
   14.2544    6.2142   19.4191 C   0  0  0  0  0  0  0  0  0  0  0  0
   13.0695    6.3705   20.0375 N   0  0  0  0  0  0  0  0  0  0  0  0
    9.1913    8.0876   21.8361 N   0  0  0  0  0  0  0  0  0  0  0  0
   10.4739    9.4813   20.2889 C   0  0  0  0  0  0  0  0  0  0  0  0
    7.5551    7.1270   23.1200 O   0  0  0  0  0  0  0  0  0  0  0  0
  1 11  4  0
  1 21  4  0
  2  4  1  0
  2  8  1  0
  2 11  1  0
  3 10  4  0
  3 14  4  0
  4  5  1  0
  4 18  2  0
  6 12  1  0
  6 17  4  0
  6 23  4  0
  7  9  1  0
  7 13  4  0
  7 19  4  0
  9 20  1  0
 10 19  4  0
 11 25  4  0
 13 14  4  0
 15 16  4  0
 15 17  4  0
 15 21  4  0
 16 24  1  0
 16 25  4  0
 20 24  1  0
 20 26  2  0
 21 23  4  0
 22 23  1  0
M  END
$$$$

 Created by Python create_sdf_string function

 26 28  0  0  0  0  0  0  0  0999 V2000
   12.4616    8.6700   19.4180 N   0  0  0  0  0  0  0  0  0  0  0  0
   11.8329   10.8148   18.6769 N   0  0  0  0  0  0  0  0  0  0  0  0
    6.1021    2.5564   21.0678 C   0  0  0  0  0  0  0  0  0  0  0  0
   10.9097   11.8051   18.4804 C   0  0  0  0  0  0  0  0  0  0  0  0
   11.2280   12.9135   17.5669 C   0  0  0  0  0  0  0  0  0  0  0  0
   12.3782    5.4231   20.7777 C   0  0  0  0  0  0  0  0  0  0  0  0
    7.7365    4.6508   21.6987 C   0  0  0  0  0  0  0  0  0  0  0  0
   13.0186   11.0102   18.0020 C   0  0  0  0  0  0  0  0  0  0  0  0
    8.6628    5.7088   21.8871 N   0  0  0  0  0  0  0  0  0  0  0  0
    5.6516    3.5258   21.9140 C   0  0  0  0  0  0  0  0  0  0  0  0
   11.5863    9.6815   19.4539 C   0  0  0  0  0  0  0  0  0  0  0  0
   12.9648    4.1543   20.9205 C   0  0  0  0  0  0  0  0  0  0  0  0
    8.2089    3.6265   20.8929 C   0  0  0  0  0  0  0  0  0  0  0  0
    7.3827    2.5724   20.5432 C   0  0  0  0  0  0  0  0  0  0  0  0
   11.1529    7.2750   20.8025 C   0  0  0  0  0  0  0  0  0  0  0  0
   10.2573    8.3215   20.9827 C   0  0  0  0  0  0  0  0  0  0  0  0
   11.1606    5.9378   21.2366 N   0  0  0  0  0  0  0  0  0  0  0  0
    9.8932   11.6736   19.0677 O   0  0  0  0  0  0  0  0  0  0  0  0
    6.4470    4.5850   22.2321 C   0  0  0  0  0  0  0  0  0  0  0  0
    8.4619    6.9895   22.2968 C   0  0  0  0  0  0  0  0  0  0  0  0
   12.2747    7.5102   20.0420 C   0  0  0  0  0  0  0  0  0  0  0  0
   14.2544    6.2142   19.4191 C   0  0  0  0  0  0  0  0  0  0  0  0
   13.0695    6.3705   20.0375 N   0  0  0  0  0  0  0  0  0  0  0  0
    9.1913    8.0876   21.8361 N   0  0  0  0  0  0  0  0  0  0  0  0
   10.4739    9.4813   20.2889 C   0  0  0  0  0  0  0  0  0  0  0  0
    7.5551    7.1270   23.1200 O   0  0  0  0  0  0  0  0  0  0  0  0
  1 11  4  0
  1 21  4  0
  2  4  1  0
  2  8  1  0
  2 11  1  0
  3 10  4  0
  3 14  4  0
  4  5  1  0
  4 18  2  0
  6 12  1  0
  6 17  4  0
  6 23  4  0
  7  9  1  0
  7 13  4  0
  7 19  4  0
  9 20  1  0
 10 19  4  0
 11 25  4  0
 13 14  4  0
 15 16  4  0
 15 17  4  0
 15 21  4  0
 16 24  1  0
 16 25  4  0
 20 24  1  0
 20 26  2  0
 21 23  4  0
 22 23  1  0
M  END
$$$$

 Created by Python create_sdf_string function

 26 28  0  0  0  0  0  0  0  0999 V2000
   12.4616    8.6700   19.4180 N   0  0  0  0  0  0  0  0  0  0  0  0
   11.8329   10.8148   18.6769 N   0  0  0  0  0  0  0  0  0  0  0  0
    6.1021    2.5564   21.0678 C   0  0  0  0  0  0  0  0  0  0  0  0
   10.9097   11.8051   18.4804 C   0  0  0  0  0  0  0  0  0  0  0  0
   11.2280   12.9135   17.5669 C   0  0  0  0  0  0  0  0  0  0  0  0
   12.3782    5.4231   20.7777 C   0  0  0  0  0  0  0  0  0  0  0  0
    7.7365    4.6508   21.6987 C   0  0  0  0  0  0  0  0  0  0  0  0
   13.0186   11.0102   18.0020 C   0  0  0  0  0  0  0  0  0  0  0  0
    8.6628    5.7088   21.8871 N   0  0  0  0  0  0  0  0  0  0  0  0
    5.6516    3.5258   21.9140 C   0  0  0  0  0  0  0  0  0  0  0  0
   11.5863    9.6815   19.4539 C   0  0  0  0  0  0  0  0  0  0  0  0
   12.9648    4.1543   20.9205 C   0  0  0  0  0  0  0  0  0  0  0  0
    8.2089    3.6265   20.8929 C   0  0  0  0  0  0  0  0  0  0  0  0
    7.3827    2.5724   20.5432 C   0  0  0  0  0  0  0  0  0  0  0  0
   11.1529    7.2750   20.8025 C   0  0  0  0  0  0  0  0  0  0  0  0
   10.2573    8.3215   20.9827 C   0  0  0  0  0  0  0  0  0  0  0  0
   11.1606    5.9378   21.2366 N   0  0  0  0  0  0  0  0  0  0  0  0
    9.8932   11.6736   19.0677 O   0  0  0  0  0  0  0  0  0  0  0  0
    6.4470    4.5850   22.2321 C   0  0  0  0  0  0  0  0  0  0  0  0
    8.4619    6.9895   22.2968 C   0  0  0  0  0  0  0  0  0  0  0  0
   12.2747    7.5102   20.0420 C   0  0  0  0  0  0  0  0  0  0  0  0
   14.2544    6.2142   19.4191 C   0  0  0  0  0  0  0  0  0  0  0  0
   13.0695    6.3705   20.0375 N   0  0  0  0  0  0  0  0  0  0  0  0
    9.1913    8.0876   21.8361 N   0  0  0  0  0  0  0  0  0  0  0  0
   10.4739    9.4813   20.2889 C   0  0  0  0  0  0  0  0  0  0  0  0
    7.5551    7.1270   23.1200 O   0  0  0  0  0  0  0  0  0  0  0  0
  1 11  4  0
  1 21  4  0
  2  4  1  0
  2  8  1  0
  2 11  1  0
  3 10  4  0
  3 14  4  0
  4  5  1  0
  4 18  2  0
  6 12  1  0
  6 17  4  0
  6 23  4  0
  7  9  1  0
  7 13  4  0
  7 19  4  0
  9 20  1  0
 10 19  4  0
 11 25  4  0
 13 14  4  0
 15 16  4  0
 15 17  4  0
 15 21  4  0
 16 24  1  0
 16 25  4  0
 20 24  1  0
 20 26  2  0
 21 23  4  0
 22 23  1  0
M  END
$$$$

 Created by Python create_sdf_string function

 26 28  0  0  0  0  0  0  0  0999 V2000
   12.4616    8.6700   19.4180 N   0  0  0  0  0  0  0  0  0  0  0  0
   11.8329   10.8148   18.6769 N   0  0  0  0  0  0  0  0  0  0  0  0
    6.1021    2.5564   21.0678 C   0  0  0  0  0  0  0  0  0  0  0  0
   10.9097   11.8051   18.4804 C   0  0  0  0  0  0  0  0  0  0  0  0
   11.2280   12.9135   17.5669 C   0  0  0  0  0  0  0  0  0  0  0  0
   12.3782    5.4231   20.7777 C   0  0  0  0  0  0  0  0  0  0  0  0
    7.7365    4.6508   21.6987 C   0  0  0  0  0  0  0  0  0  0  0  0
   13.0186   11.0102   18.0020 C   0  0  0  0  0  0  0  0  0  0  0  0
    8.6628    5.7088   21.8871 N   0  0  0  0  0  0  0  0  0  0  0  0
    5.6516    3.5258   21.9140 C   0  0  0  0  0  0  0  0  0  0  0  0
   11.5863    9.6815   19.4539 C   0  0  0  0  0  0  0  0  0  0  0  0
   12.9648    4.1543   20.9205 C   0  0  0  0  0  0  0  0  0  0  0  0
    8.2089    3.6265   20.8929 C   0  0  0  0  0  0  0  0  0  0  0  0
    7.3827    2.5724   20.5432 C   0  0  0  0  0  0  0  0  0  0  0  0
   11.1529    7.2750   20.8025 C   0  0  0  0  0  0  0  0  0  0  0  0
   10.2573    8.3215   20.9827 C   0  0  0  0  0  0  0  0  0  0  0  0
   11.1606    5.9378   21.2366 N   0  0  0  0  0  0  0  0  0  0  0  0
    9.8932   11.6736   19.0677 O   0  0  0  0  0  0  0  0  0  0  0  0
    6.4470    4.5850   22.2321 C   0  0  0  0  0  0  0  0  0  0  0  0
    8.4619    6.9895   22.2968 C   0  0  0  0  0  0  0  0  0  0  0  0
   12.2747    7.5102   20.0420 C   0  0  0  0  0  0  0  0  0  0  0  0
   14.2544    6.2142   19.4191 C   0  0  0  0  0  0  0  0  0  0  0  0
   13.0695    6.3705   20.0375 N   0  0  0  0  0  0  0  0  0  0  0  0
    9.1913    8.0876   21.8361 N   0  0  0  0  0  0  0  0  0  0  0  0
   10.4739    9.4813   20.2889 C   0  0  0  0  0  0  0  0  0  0  0  0
    7.5551    7.1270   23.1200 O   0  0  0  0  0  0  0  0  0  0  0  0
  1 11  4  0
  1 21  4  0
  2  4  1  0
  2  8  1  0
  2 11  1  0
  3 10  4  0
  3 14  4  0
  4  5  1  0
  4 18  2  0
  6 12  1  0
  6 17  4  0
  6 23  4  0
  7  9  1  0
  7 13  4  0
  7 19  4  0
  9 20  1  0
 10 19  4  0
 11 25  4  0
 13 14  4  0
 15 16  4  0
 15 17  4  0
 15 21  4  0
 16 24  1  0
 16 25  4  0
 20 24  1  0
 20 26  2  0
 21 23  4  0
 22 23  1  0
M  END
$$$$

 Created by Python create_sdf_string function

 26 28  0  0  0  0  0  0  0  0999 V2000
   12.4616    8.6700   19.4180 N   0  0  0  0  0  0  0  0  0  0  0  0
   11.8329   10.8148   18.6769 N   0  0  0  0  0  0  0  0  0  0  0  0
    6.1021    2.5564   21.0678 C   0  0  0  0  0  0  0  0  0  0  0  0
   10.9097   11.8051   18.4804 C   0  0  0  0  0  0  0  0  0  0  0  0
   11.2280   12.9135   17.5669 C   0  0  0  0  0  0  0  0  0  0  0  0
   12.3782    5.4231   20.7777 C   0  0  0  0  0  0  0  0  0  0  0  0
    7.7365    4.6508   21.6987 C   0  0  0  0  0  0  0  0  0  0  0  0
   13.0186   11.0102   18.0020 C   0  0  0  0  0  0  0  0  0  0  0  0
    8.6628    5.7088   21.8871 N   0  0  0  0  0  0  0  0  0  0  0  0
    5.6516    3.5258   21.9140 C   0  0  0  0  0  0  0  0  0  0  0  0
   11.5863    9.6815   19.4539 C   0  0  0  0  0  0  0  0  0  0  0  0
   12.9648    4.1543   20.9205 C   0  0  0  0  0  0  0  0  0  0  0  0
    8.2089    3.6265   20.8929 C   0  0  0  0  0  0  0  0  0  0  0  0
    7.3827    2.5724   20.5432 C   0  0  0  0  0  0  0  0  0  0  0  0
   11.1529    7.2750   20.8025 C   0  0  0  0  0  0  0  0  0  0  0  0
   10.2573    8.3215   20.9827 C   0  0  0  0  0  0  0  0  0  0  0  0
   11.1606    5.9378   21.2366 N   0  0  0  0  0  0  0  0  0  0  0  0
    9.8932   11.6736   19.0677 O   0  0  0  0  0  0  0  0  0  0  0  0
    6.4470    4.5850   22.2321 C   0  0  0  0  0  0  0  0  0  0  0  0
    8.4619    6.9895   22.2968 C   0  0  0  0  0  0  0  0  0  0  0  0
   12.2747    7.5102   20.0420 C   0  0  0  0  0  0  0  0  0  0  0  0
   14.2544    6.2142   19.4191 C   0  0  0  0  0  0  0  0  0  0  0  0
   13.0695    6.3705   20.0375 N   0  0  0  0  0  0  0  0  0  0  0  0
    9.1913    8.0876   21.8361 N   0  0  0  0  0  0  0  0  0  0  0  0
   10.4739    9.4813   20.2889 C   0  0  0  0  0  0  0  0  0  0  0  0
    7.5551    7.1270   23.1200 O   0  0  0  0  0  0  0  0  0  0  0  0
  1 11  4  0
  1 21  4  0
  2  4  1  0
  2  8  1  0
  2 11  1  0
  3 10  4  0
  3 14  4  0
  4  5  1  0
  4 18  2  0
  6 12  1  0
  6 17  4  0
  6 23  4  0
  7  9  1  0
  7 13  4  0
  7 19  4  0
  9 20  1  0
 10 19  4  0
 11 25  4  0
 13 14  4  0
 15 16  4  0
 15 17  4  0
 15 21  4  0
 16 24  1  0
 16 25  4  0
 20 24  1  0
 20 26  2  0
 21 23  4  0
 22 23  1  0
M  END
$$$$

 Created by Python create_sdf_string function

 26 28  0  0  0  0  0  0  0  0999 V2000
   12.4616    8.6700   19.4180 N   0  0  0  0  0  0  0  0  0  0  0  0
   11.8329   10.8148   18.6769 N   0  0  0  0  0  0  0  0  0  0  0  0
    6.1021    2.5564   21.0678 C   0  0  0  0  0  0  0  0  0  0  0  0
   10.9097   11.8051   18.4804 C   0  0  0  0  0  0  0  0  0  0  0  0
   11.2280   12.9135   17.5669 C   0  0  0  0  0  0  0  0  0  0  0  0
   12.3782    5.4231   20.7777 C   0  0  0  0  0  0  0  0  0  0  0  0
    7.7365    4.6508   21.6987 C   0  0  0  0  0  0  0  0  0  0  0  0
   13.0186   11.0102   18.0020 C   0  0  0  0  0  0  0  0  0  0  0  0
    8.6628    5.7088   21.8871 N   0  0  0  0  0  0  0  0  0  0  0  0
    5.6516    3.5258   21.9140 C   0  0  0  0  0  0  0  0  0  0  0  0
   11.5863    9.6815   19.4539 C   0  0  0  0  0  0  0  0  0  0  0  0
   12.9648    4.1543   20.9205 C   0  0  0  0  0  0  0  0  0  0  0  0
    8.2089    3.6265   20.8929 C   0  0  0  0  0  0  0  0  0  0  0  0
    7.3827    2.5724   20.5432 C   0  0  0  0  0  0  0  0  0  0  0  0
   11.1529    7.2750   20.8025 C   0  0  0  0  0  0  0  0  0  0  0  0
   10.2573    8.3215   20.9827 C   0  0  0  0  0  0  0  0  0  0  0  0
   11.1606    5.9378   21.2366 N   0  0  0  0  0  0  0  0  0  0  0  0
    9.8932   11.6736   19.0677 O   0  0  0  0  0  0  0  0  0  0  0  0
    6.4470    4.5850   22.2321 C   0  0  0  0  0  0  0  0  0  0  0  0
    8.4619    6.9895   22.2968 C   0  0  0  0  0  0  0  0  0  0  0  0
   12.2747    7.5102   20.0420 C   0  0  0  0  0  0  0  0  0  0  0  0
   14.2544    6.2142   19.4191 C   0  0  0  0  0  0  0  0  0  0  0  0
   13.0695    6.3705   20.0375 N   0  0  0  0  0  0  0  0  0  0  0  0
    9.1913    8.0876   21.8361 N   0  0  0  0  0  0  0  0  0  0  0  0
   10.4739    9.4813   20.2889 C   0  0  0  0  0  0  0  0  0  0  0  0
    7.5551    7.1270   23.1200 O   0  0  0  0  0  0  0  0  0  0  0  0
  1 11  4  0
  1 21  4  0
  2  4  1  0
  2  8  1  0
  2 11  1  0
  3 10  4  0
  3 14  4  0
  4  5  1  0
  4 18  2  0
  6 12  1  0
  6 17  4  0
  6 23  4  0
  7  9  1  0
  7 13  4  0
  7 19  4  0
  9 20  1  0
 10 19  4  0
 11 25  4  0
 13 14  4  0
 15 16  4  0
 15 17  4  0
 15 21  4  0
 16 24  1  0
 16 25  4  0
 20 24  1  0
 20 26  2  0
 21 23  4  0
 22 23  1  0
M  END
$$$$

 Created by Python create_sdf_string function

 26 28  0  0  0  0  0  0  0  0999 V2000
   12.4616    8.6700   19.4180 N   0  0  0  0  0  0  0  0  0  0  0  0
   11.8329   10.8148   18.6769 N   0  0  0  0  0  0  0  0  0  0  0  0
    6.1021    2.5564   21.0678 C   0  0  0  0  0  0  0  0  0  0  0  0
   10.9097   11.8051   18.4804 C   0  0  0  0  0  0  0  0  0  0  0  0
   11.2280   12.9135   17.5669 C   0  0  0  0  0  0  0  0  0  0  0  0
   12.3782    5.4231   20.7777 C   0  0  0  0  0  0  0  0  0  0  0  0
    7.7365    4.6508   21.6987 C   0  0  0  0  0  0  0  0  0  0  0  0
   13.0186   11.0102   18.0020 C   0  0  0  0  0  0  0  0  0  0  0  0
    8.6628    5.7088   21.8871 N   0  0  0  0  0  0  0  0  0  0  0  0
    5.6516    3.5258   21.9140 C   0  0  0  0  0  0  0  0  0  0  0  0
   11.5863    9.6815   19.4539 C   0  0  0  0  0  0  0  0  0  0  0  0
   12.9648    4.1543   20.9205 C   0  0  0  0  0  0  0  0  0  0  0  0
    8.2089    3.6265   20.8929 C   0  0  0  0  0  0  0  0  0  0  0  0
    7.3827    2.5724   20.5432 C   0  0  0  0  0  0  0  0  0  0  0  0
   11.1529    7.2750   20.8025 C   0  0  0  0  0  0  0  0  0  0  0  0
   10.2573    8.3215   20.9827 C   0  0  0  0  0  0  0  0  0  0  0  0
   11.1606    5.9378   21.2366 N   0  0  0  0  0  0  0  0  0  0  0  0
    9.8932   11.6736   19.0677 O   0  0  0  0  0  0  0  0  0  0  0  0
    6.4470    4.5850   22.2321 C   0  0  0  0  0  0  0  0  0  0  0  0
    8.4619    6.9895   22.2968 C   0  0  0  0  0  0  0  0  0  0  0  0
   12.2747    7.5102   20.0420 C   0  0  0  0  0  0  0  0  0  0  0  0
   14.2544    6.2142   19.4191 C   0  0  0  0  0  0  0  0  0  0  0  0
   13.0695    6.3705   20.0375 N   0  0  0  0  0  0  0  0  0  0  0  0
    9.1913    8.0876   21.8361 N   0  0  0  0  0  0  0  0  0  0  0  0
   10.4739    9.4813   20.2889 C   0  0  0  0  0  0  0  0  0  0  0  0
    7.5551    7.1270   23.1200 O   0  0  0  0  0  0  0  0  0  0  0  0
  1 11  4  0
  1 21  4  0
  2  4  1  0
  2  8  1  0
  2 11  1  0
  3 10  4  0
  3 14  4  0
  4  5  1  0
  4 18  2  0
  6 12  1  0
  6 17  4  0
  6 23  4  0
  7  9  1  0
  7 13  4  0
  7 19  4  0
  9 20  1  0
 10 19  4  0
 11 25  4  0
 13 14  4  0
 15 16  4  0
 15 17  4  0
 15 21  4  0
 16 24  1  0
 16 25  4  0
 20 24  1  0
 20 26  2  0
 21 23  4  0
 22 23  1  0
M  END
$$$$

 Created by Python create_sdf_string function

 26 28  0  0  0  0  0  0  0  0999 V2000
   12.4616    8.6700   19.4180 N   0  0  0  0  0  0  0  0  0  0  0  0
   11.8329   10.8148   18.6769 N   0  0  0  0  0  0  0  0  0  0  0  0
    6.1021    2.5564   21.0678 C   0  0  0  0  0  0  0  0  0  0  0  0
   10.9097   11.8051   18.4804 C   0  0  0  0  0  0  0  0  0  0  0  0
   11.2280   12.9135   17.5669 C   0  0  0  0  0  0  0  0  0  0  0  0
   12.3782    5.4231   20.7777 C   0  0  0  0  0  0  0  0  0  0  0  0
    7.7365    4.6508   21.6987 C   0  0  0  0  0  0  0  0  0  0  0  0
   13.0186   11.0102   18.0020 C   0  0  0  0  0  0  0  0  0  0  0  0
    8.6628    5.7088   21.8871 N   0  0  0  0  0  0  0  0  0  0  0  0
    5.6516    3.5258   21.9140 C   0  0  0  0  0  0  0  0  0  0  0  0
   11.5863    9.6815   19.4539 C   0  0  0  0  0  0  0  0  0  0  0  0
   12.9648    4.1543   20.9205 C   0  0  0  0  0  0  0  0  0  0  0  0
    8.2089    3.6265   20.8929 C   0  0  0  0  0  0  0  0  0  0  0  0
    7.3827    2.5724   20.5432 C   0  0  0  0  0  0  0  0  0  0  0  0
   11.1529    7.2750   20.8025 C   0  0  0  0  0  0  0  0  0  0  0  0
   10.2573    8.3215   20.9827 C   0  0  0  0  0  0  0  0  0  0  0  0
   11.1606    5.9378   21.2366 N   0  0  0  0  0  0  0  0  0  0  0  0
    9.8932   11.6736   19.0677 O   0  0  0  0  0  0  0  0  0  0  0  0
    6.4470    4.5850   22.2321 C   0  0  0  0  0  0  0  0  0  0  0  0
    8.4619    6.9895   22.2968 C   0  0  0  0  0  0  0  0  0  0  0  0
   12.2747    7.5102   20.0420 C   0  0  0  0  0  0  0  0  0  0  0  0
   14.2544    6.2142   19.4191 C   0  0  0  0  0  0  0  0  0  0  0  0
   13.0695    6.3705   20.0375 N   0  0  0  0  0  0  0  0  0  0  0  0
    9.1913    8.0876   21.8361 N   0  0  0  0  0  0  0  0  0  0  0  0
   10.4739    9.4813   20.2889 C   0  0  0  0  0  0  0  0  0  0  0  0
    7.5551    7.1270   23.1200 O   0  0  0  0  0  0  0  0  0  0  0  0
  1 11  4  0
  1 21  4  0
  2  4  1  0
  2  8  1  0
  2 11  1  0
  3 10  4  0
  3 14  4  0
  4  5  1  0
  4 18  2  0
  6 12  1  0
  6 17  4  0
  6 23  4  0
  7  9  1  0
  7 13  4  0
  7 19  4  0
  9 20  1  0
 10 19  4  0
 11 25  4  0
 13 14  4  0
 15 16  4  0
 15 17  4  0
 15 21  4  0
 16 24  1  0
 16 25  4  0
 20 24  1  0
 20 26  2  0
 21 23  4  0
 22 23  1  0
M  END
$$$$

 Created by Python create_sdf_string function

 26 28  0  0  0  0  0  0  0  0999 V2000
   12.4616    8.6700   19.4180 N   0  0  0  0  0  0  0  0  0  0  0  0
   11.8329   10.8148   18.6769 N   0  0  0  0  0  0  0  0  0  0  0  0
    6.1021    2.5564   21.0678 C   0  0  0  0  0  0  0  0  0  0  0  0
   10.9097   11.8051   18.4804 C   0  0  0  0  0  0  0  0  0  0  0  0
   11.2280   12.9135   17.5669 C   0  0  0  0  0  0  0  0  0  0  0  0
   12.3782    5.4231   20.7777 C   0  0  0  0  0  0  0  0  0  0  0  0
    7.7365    4.6508   21.6987 C   0  0  0  0  0  0  0  0  0  0  0  0
   13.0186   11.0102   18.0020 C   0  0  0  0  0  0  0  0  0  0  0  0
    8.6628    5.7088   21.8871 N   0  0  0  0  0  0  0  0  0  0  0  0
    5.6516    3.5258   21.9140 C   0  0  0  0  0  0  0  0  0  0  0  0
   11.5863    9.6815   19.4539 C   0  0  0  0  0  0  0  0  0  0  0  0
   12.9648    4.1543   20.9205 C   0  0  0  0  0  0  0  0  0  0  0  0
    8.2089    3.6265   20.8929 C   0  0  0  0  0  0  0  0  0  0  0  0
    7.3827    2.5724   20.5432 C   0  0  0  0  0  0  0  0  0  0  0  0
   11.1529    7.2750   20.8025 C   0  0  0  0  0  0  0  0  0  0  0  0
   10.2573    8.3215   20.9827 C   0  0  0  0  0  0  0  0  0  0  0  0
   11.1606    5.9378   21.2366 N   0  0  0  0  0  0  0  0  0  0  0  0
    9.8932   11.6736   19.0677 O   0  0  0  0  0  0  0  0  0  0  0  0
    6.4470    4.5850   22.2321 C   0  0  0  0  0  0  0  0  0  0  0  0
    8.4619    6.9895   22.2968 C   0  0  0  0  0  0  0  0  0  0  0  0
   12.2747    7.5102   20.0420 C   0  0  0  0  0  0  0  0  0  0  0  0
   14.2544    6.2142   19.4191 C   0  0  0  0  0  0  0  0  0  0  0  0
   13.0695    6.3705   20.0375 N   0  0  0  0  0  0  0  0  0  0  0  0
    9.1913    8.0876   21.8361 N   0  0  0  0  0  0  0  0  0  0  0  0
   10.4739    9.4813   20.2889 C   0  0  0  0  0  0  0  0  0  0  0  0
    7.5551    7.1270   23.1200 O   0  0  0  0  0  0  0  0  0  0  0  0
  1 11  4  0
  1 21  4  0
  2  4  1  0
  2  8  1  0
  2 11  1  0
  3 10  4  0
  3 14  4  0
  4  5  1  0
  4 18  2  0
  6 12  1  0
  6 17  4  0
  6 23  4  0
  7  9  1  0
  7 13  4  0
  7 19  4  0
  9 20  1  0
 10 19  4  0
 11 25  4  0
 13 14  4  0
 15 16  4  0
 15 17  4  0
 15 21  4  0
 16 24  1  0
 16 25  4  0
 20 24  1  0
 20 26  2  0
 21 23  4  0
 22 23  1  0
M  END
$$$$

 Created by Python create_sdf_string function

 26 28  0  0  0  0  0  0  0  0999 V2000
   12.4616    8.6700   19.4180 N   0  0  0  0  0  0  0  0  0  0  0  0
   11.8329   10.8148   18.6769 N   0  0  0  0  0  0  0  0  0  0  0  0
    6.1021    2.5564   21.0678 C   0  0  0  0  0  0  0  0  0  0  0  0
   10.9097   11.8051   18.4804 C   0  0  0  0  0  0  0  0  0  0  0  0
   11.2280   12.9135   17.5669 C   0  0  0  0  0  0  0  0  0  0  0  0
   12.3782    5.4231   20.7777 C   0  0  0  0  0  0  0  0  0  0  0  0
    7.7365    4.6508   21.6987 C   0  0  0  0  0  0  0  0  0  0  0  0
   13.0186   11.0102   18.0020 C   0  0  0  0  0  0  0  0  0  0  0  0
    8.6628    5.7088   21.8871 N   0  0  0  0  0  0  0  0  0  0  0  0
    5.6516    3.5258   21.9140 C   0  0  0  0  0  0  0  0  0  0  0  0
   11.5863    9.6815   19.4539 C   0  0  0  0  0  0  0  0  0  0  0  0
   12.9648    4.1543   20.9205 C   0  0  0  0  0  0  0  0  0  0  0  0
    8.2089    3.6265   20.8929 C   0  0  0  0  0  0  0  0  0  0  0  0
    7.3827    2.5724   20.5432 C   0  0  0  0  0  0  0  0  0  0  0  0
   11.1529    7.2750   20.8025 C   0  0  0  0  0  0  0  0  0  0  0  0
   10.2573    8.3215   20.9827 C   0  0  0  0  0  0  0  0  0  0  0  0
   11.1606    5.9378   21.2366 N   0  0  0  0  0  0  0  0  0  0  0  0
    9.8932   11.6736   19.0677 O   0  0  0  0  0  0  0  0  0  0  0  0
    6.4470    4.5850   22.2321 C   0  0  0  0  0  0  0  0  0  0  0  0
    8.4619    6.9895   22.2968 C   0  0  0  0  0  0  0  0  0  0  0  0
   12.2747    7.5102   20.0420 C   0  0  0  0  0  0  0  0  0  0  0  0
   14.2544    6.2142   19.4191 C   0  0  0  0  0  0  0  0  0  0  0  0
   13.0695    6.3705   20.0375 N   0  0  0  0  0  0  0  0  0  0  0  0
    9.1913    8.0876   21.8361 N   0  0  0  0  0  0  0  0  0  0  0  0
   10.4739    9.4813   20.2889 C   0  0  0  0  0  0  0  0  0  0  0  0
    7.5551    7.1270   23.1200 O   0  0  0  0  0  0  0  0  0  0  0  0
  1 11  4  0
  1 21  4  0
  2  4  1  0
  2  8  1  0
  2 11  1  0
  3 10  4  0
  3 14  4  0
  4  5  1  0
  4 18  2  0
  6 12  1  0
  6 17  4  0
  6 23  4  0
  7  9  1  0
  7 13  4  0
  7 19  4  0
  9 20  1  0
 10 19  4  0
 11 25  4  0
 13 14  4  0
 15 16  4  0
 15 17  4  0
 15 21  4  0
 16 24  1  0
 16 25  4  0
 20 24  1  0
 20 26  2  0
 21 23  4  0
 22 23  1  0
M  END
$$$$

 Created by Python create_sdf_string function

 26 28  0  0  0  0  0  0  0  0999 V2000
   12.4616    8.6700   19.4180 N   0  0  0  0  0  0  0  0  0  0  0  0
   11.8329   10.8148   18.6769 N   0  0  0  0  0  0  0  0  0  0  0  0
    6.1021    2.5564   21.0678 C   0  0  0  0  0  0  0  0  0  0  0  0
   10.9097   11.8051   18.4804 C   0  0  0  0  0  0  0  0  0  0  0  0
   11.2280   12.9135   17.5669 C   0  0  0  0  0  0  0  0  0  0  0  0
   12.3782    5.4231   20.7777 C   0  0  0  0  0  0  0  0  0  0  0  0
    7.7365    4.6508   21.6987 C   0  0  0  0  0  0  0  0  0  0  0  0
   13.0186   11.0102   18.0020 C   0  0  0  0  0  0  0  0  0  0  0  0
    8.6628    5.7088   21.8871 N   0  0  0  0  0  0  0  0  0  0  0  0
    5.6516    3.5258   21.9140 C   0  0  0  0  0  0  0  0  0  0  0  0
   11.5863    9.6815   19.4539 C   0  0  0  0  0  0  0  0  0  0  0  0
   12.9648    4.1543   20.9205 C   0  0  0  0  0  0  0  0  0  0  0  0
    8.2089    3.6265   20.8929 C   0  0  0  0  0  0  0  0  0  0  0  0
    7.3827    2.5724   20.5432 C   0  0  0  0  0  0  0  0  0  0  0  0
   11.1529    7.2750   20.8025 C   0  0  0  0  0  0  0  0  0  0  0  0
   10.2573    8.3215   20.9827 C   0  0  0  0  0  0  0  0  0  0  0  0
   11.1606    5.9378   21.2366 N   0  0  0  0  0  0  0  0  0  0  0  0
    9.8932   11.6736   19.0677 O   0  0  0  0  0  0  0  0  0  0  0  0
    6.4470    4.5850   22.2321 C   0  0  0  0  0  0  0  0  0  0  0  0
    8.4619    6.9895   22.2968 C   0  0  0  0  0  0  0  0  0  0  0  0
   12.2747    7.5102   20.0420 C   0  0  0  0  0  0  0  0  0  0  0  0
   14.2544    6.2142   19.4191 C   0  0  0  0  0  0  0  0  0  0  0  0
   13.0695    6.3705   20.0375 N   0  0  0  0  0  0  0  0  0  0  0  0
    9.1913    8.0876   21.8361 N   0  0  0  0  0  0  0  0  0  0  0  0
   10.4739    9.4813   20.2889 C   0  0  0  0  0  0  0  0  0  0  0  0
    7.5551    7.1270   23.1200 O   0  0  0  0  0  0  0  0  0  0  0  0
  1 11  4  0
  1 21  4  0
  2  4  1  0
  2  8  1  0
  2 11  1  0
  3 10  4  0
  3 14  4  0
  4  5  1  0
  4 18  2  0
  6 12  1  0
  6 17  4  0
  6 23  4  0
  7  9  1  0
  7 13  4  0
  7 19  4  0
  9 20  1  0
 10 19  4  0
 11 25  4  0
 13 14  4  0
 15 16  4  0
 15 17  4  0
 15 21  4  0
 16 24  1  0
 16 25  4  0
 20 24  1  0
 20 26  2  0
 21 23  4  0
 22 23  1  0
M  END
$$$$

 Created by Python create_sdf_string function

 26 28  0  0  0  0  0  0  0  0999 V2000
   12.4616    8.6700   19.4180 N   0  0  0  0  0  0  0  0  0  0  0  0
   11.8329   10.8148   18.6769 N   0  0  0  0  0  0  0  0  0  0  0  0
    6.1021    2.5564   21.0678 C   0  0  0  0  0  0  0  0  0  0  0  0
   10.9097   11.8051   18.4804 C   0  0  0  0  0  0  0  0  0  0  0  0
   11.2280   12.9135   17.5669 C   0  0  0  0  0  0  0  0  0  0  0  0
   12.3782    5.4231   20.7777 C   0  0  0  0  0  0  0  0  0  0  0  0
    7.7365    4.6508   21.6987 C   0  0  0  0  0  0  0  0  0  0  0  0
   13.0186   11.0102   18.0020 C   0  0  0  0  0  0  0  0  0  0  0  0
    8.6628    5.7088   21.8871 N   0  0  0  0  0  0  0  0  0  0  0  0
    5.6516    3.5258   21.9140 C   0  0  0  0  0  0  0  0  0  0  0  0
   11.5863    9.6815   19.4539 C   0  0  0  0  0  0  0  0  0  0  0  0
   12.9648    4.1543   20.9205 C   0  0  0  0  0  0  0  0  0  0  0  0
    8.2089    3.6265   20.8929 C   0  0  0  0  0  0  0  0  0  0  0  0
    7.3827    2.5724   20.5432 C   0  0  0  0  0  0  0  0  0  0  0  0
   11.1529    7.2750   20.8025 C   0  0  0  0  0  0  0  0  0  0  0  0
   10.2573    8.3215   20.9827 C   0  0  0  0  0  0  0  0  0  0  0  0
   11.1606    5.9378   21.2366 N   0  0  0  0  0  0  0  0  0  0  0  0
    9.8932   11.6736   19.0677 O   0  0  0  0  0  0  0  0  0  0  0  0
    6.4470    4.5850   22.2321 C   0  0  0  0  0  0  0  0  0  0  0  0
    8.4619    6.9895   22.2968 C   0  0  0  0  0  0  0  0  0  0  0  0
   12.2747    7.5102   20.0420 C   0  0  0  0  0  0  0  0  0  0  0  0
   14.2544    6.2142   19.4191 C   0  0  0  0  0  0  0  0  0  0  0  0
   13.0695    6.3705   20.0375 N   0  0  0  0  0  0  0  0  0  0  0  0
    9.1913    8.0876   21.8361 N   0  0  0  0  0  0  0  0  0  0  0  0
   10.4739    9.4813   20.2889 C   0  0  0  0  0  0  0  0  0  0  0  0
    7.5551    7.1270   23.1200 O   0  0  0  0  0  0  0  0  0  0  0  0
  1 11  4  0
  1 21  4  0
  2  4  1  0
  2  8  1  0
  2 11  1  0
  3 10  4  0
  3 14  4  0
  4  5  1  0
  4 18  2  0
  6 12  1  0
  6 17  4  0
  6 23  4  0
  7  9  1  0
  7 13  4  0
  7 19  4  0
  9 20  1  0
 10 19  4  0
 11 25  4  0
 13 14  4  0
 15 16  4  0
 15 17  4  0
 15 21  4  0
 16 24  1  0
 16 25  4  0
 20 24  1  0
 20 26  2  0
 21 23  4  0
 22 23  1  0
M  END
$$$$

 Created by Python create_sdf_string function

 26 28  0  0  0  0  0  0  0  0999 V2000
   12.4616    8.6700   19.4180 N   0  0  0  0  0  0  0  0  0  0  0  0
   11.8329   10.8148   18.6769 N   0  0  0  0  0  0  0  0  0  0  0  0
    6.1021    2.5564   21.0678 C   0  0  0  0  0  0  0  0  0  0  0  0
   10.9097   11.8051   18.4804 C   0  0  0  0  0  0  0  0  0  0  0  0
   11.2280   12.9135   17.5669 C   0  0  0  0  0  0  0  0  0  0  0  0
   12.3782    5.4231   20.7777 C   0  0  0  0  0  0  0  0  0  0  0  0
    7.7365    4.6508   21.6987 C   0  0  0  0  0  0  0  0  0  0  0  0
   13.0186   11.0102   18.0020 C   0  0  0  0  0  0  0  0  0  0  0  0
    8.6628    5.7088   21.8871 N   0  0  0  0  0  0  0  0  0  0  0  0
    5.6516    3.5258   21.9140 C   0  0  0  0  0  0  0  0  0  0  0  0
   11.5863    9.6815   19.4539 C   0  0  0  0  0  0  0  0  0  0  0  0
   12.9648    4.1543   20.9205 C   0  0  0  0  0  0  0  0  0  0  0  0
    8.2089    3.6265   20.8929 C   0  0  0  0  0  0  0  0  0  0  0  0
    7.3827    2.5724   20.5432 C   0  0  0  0  0  0  0  0  0  0  0  0
   11.1529    7.2750   20.8025 C   0  0  0  0  0  0  0  0  0  0  0  0
   10.2573    8.3215   20.9827 C   0  0  0  0  0  0  0  0  0  0  0  0
   11.1606    5.9378   21.2366 N   0  0  0  0  0  0  0  0  0  0  0  0
    9.8932   11.6736   19.0677 O   0  0  0  0  0  0  0  0  0  0  0  0
    6.4470    4.5850   22.2321 C   0  0  0  0  0  0  0  0  0  0  0  0
    8.4619    6.9895   22.2968 C   0  0  0  0  0  0  0  0  0  0  0  0
   12.2747    7.5102   20.0420 C   0  0  0  0  0  0  0  0  0  0  0  0
   14.2544    6.2142   19.4191 C   0  0  0  0  0  0  0  0  0  0  0  0
   13.0695    6.3705   20.0375 N   0  0  0  0  0  0  0  0  0  0  0  0
    9.1913    8.0876   21.8361 N   0  0  0  0  0  0  0  0  0  0  0  0
   10.4739    9.4813   20.2889 C   0  0  0  0  0  0  0  0  0  0  0  0
    7.5551    7.1270   23.1200 O   0  0  0  0  0  0  0  0  0  0  0  0
  1 11  4  0
  1 21  4  0
  2  4  1  0
  2  8  1  0
  2 11  1  0
  3 10  4  0
  3 14  4  0
  4  5  1  0
  4 18  2  0
  6 12  1  0
  6 17  4  0
  6 23  4  0
  7  9  1  0
  7 13  4  0
  7 19  4  0
  9 20  1  0
 10 19  4  0
 11 25  4  0
 13 14  4  0
 15 16  4  0
 15 17  4  0
 15 21  4  0
 16 24  1  0
 16 25  4  0
 20 24  1  0
 20 26  2  0
 21 23  4  0
 22 23  1  0
M  END
$$$$

 Created by Python create_sdf_string function

 26 28  0  0  0  0  0  0  0  0999 V2000
   12.4616    8.6700   19.4180 N   0  0  0  0  0  0  0  0  0  0  0  0
   11.8329   10.8148   18.6769 N   0  0  0  0  0  0  0  0  0  0  0  0
    6.1021    2.5564   21.0678 C   0  0  0  0  0  0  0  0  0  0  0  0
   10.9097   11.8051   18.4804 C   0  0  0  0  0  0  0  0  0  0  0  0
   11.2280   12.9135   17.5669 C   0  0  0  0  0  0  0  0  0  0  0  0
   12.3782    5.4231   20.7777 C   0  0  0  0  0  0  0  0  0  0  0  0
    7.7365    4.6508   21.6987 C   0  0  0  0  0  0  0  0  0  0  0  0
   13.0186   11.0102   18.0020 C   0  0  0  0  0  0  0  0  0  0  0  0
    8.6628    5.7088   21.8871 N   0  0  0  0  0  0  0  0  0  0  0  0
    5.6516    3.5258   21.9140 C   0  0  0  0  0  0  0  0  0  0  0  0
   11.5863    9.6815   19.4539 C   0  0  0  0  0  0  0  0  0  0  0  0
   12.9648    4.1543   20.9205 C   0  0  0  0  0  0  0  0  0  0  0  0
    8.2089    3.6265   20.8929 C   0  0  0  0  0  0  0  0  0  0  0  0
    7.3827    2.5724   20.5432 C   0  0  0  0  0  0  0  0  0  0  0  0
   11.1529    7.2750   20.8025 C   0  0  0  0  0  0  0  0  0  0  0  0
   10.2573    8.3215   20.9827 C   0  0  0  0  0  0  0  0  0  0  0  0
   11.1606    5.9378   21.2366 N   0  0  0  0  0  0  0  0  0  0  0  0
    9.8932   11.6736   19.0677 O   0  0  0  0  0  0  0  0  0  0  0  0
    6.4470    4.5850   22.2321 C   0  0  0  0  0  0  0  0  0  0  0  0
    8.4619    6.9895   22.2968 C   0  0  0  0  0  0  0  0  0  0  0  0
   12.2747    7.5102   20.0420 C   0  0  0  0  0  0  0  0  0  0  0  0
   14.2544    6.2142   19.4191 C   0  0  0  0  0  0  0  0  0  0  0  0
   13.0695    6.3705   20.0375 N   0  0  0  0  0  0  0  0  0  0  0  0
    9.1913    8.0876   21.8361 N   0  0  0  0  0  0  0  0  0  0  0  0
   10.4739    9.4813   20.2889 C   0  0  0  0  0  0  0  0  0  0  0  0
    7.5551    7.1270   23.1200 O   0  0  0  0  0  0  0  0  0  0  0  0
  1 11  4  0
  1 21  4  0
  2  4  1  0
  2  8  1  0
  2 11  1  0
  3 10  4  0
  3 14  4  0
  4  5  1  0
  4 18  2  0
  6 12  1  0
  6 17  4  0
  6 23  4  0
  7  9  1  0
  7 13  4  0
  7 19  4  0
  9 20  1  0
 10 19  4  0
 11 25  4  0
 13 14  4  0
 15 16  4  0
 15 17  4  0
 15 21  4  0
 16 24  1  0
 16 25  4  0
 20 24  1  0
 20 26  2  0
 21 23  4  0
 22 23  1  0
M  END
$$$$

 Created by Python create_sdf_string function

 26 28  0  0  0  0  0  0  0  0999 V2000
   12.4616    8.6700   19.4180 N   0  0  0  0  0  0  0  0  0  0  0  0
   11.8329   10.8148   18.6769 N   0  0  0  0  0  0  0  0  0  0  0  0
    6.1021    2.5564   21.0678 C   0  0  0  0  0  0  0  0  0  0  0  0
   10.9097   11.8051   18.4804 C   0  0  0  0  0  0  0  0  0  0  0  0
   11.2280   12.9135   17.5669 C   0  0  0  0  0  0  0  0  0  0  0  0
   12.3782    5.4231   20.7777 C   0  0  0  0  0  0  0  0  0  0  0  0
    7.7365    4.6508   21.6987 C   0  0  0  0  0  0  0  0  0  0  0  0
   13.0186   11.0102   18.0020 C   0  0  0  0  0  0  0  0  0  0  0  0
    8.6628    5.7088   21.8871 N   0  0  0  0  0  0  0  0  0  0  0  0
    5.6516    3.5258   21.9140 C   0  0  0  0  0  0  0  0  0  0  0  0
   11.5863    9.6815   19.4539 C   0  0  0  0  0  0  0  0  0  0  0  0
   12.9648    4.1543   20.9205 C   0  0  0  0  0  0  0  0  0  0  0  0
    8.2089    3.6265   20.8929 C   0  0  0  0  0  0  0  0  0  0  0  0
    7.3827    2.5724   20.5432 C   0  0  0  0  0  0  0  0  0  0  0  0
   11.1529    7.2750   20.8025 C   0  0  0  0  0  0  0  0  0  0  0  0
   10.2573    8.3215   20.9827 C   0  0  0  0  0  0  0  0  0  0  0  0
   11.1606    5.9378   21.2366 N   0  0  0  0  0  0  0  0  0  0  0  0
    9.8932   11.6736   19.0677 O   0  0  0  0  0  0  0  0  0  0  0  0
    6.4470    4.5850   22.2321 C   0  0  0  0  0  0  0  0  0  0  0  0
    8.4619    6.9895   22.2968 C   0  0  0  0  0  0  0  0  0  0  0  0
   12.2747    7.5102   20.0420 C   0  0  0  0  0  0  0  0  0  0  0  0
   14.2544    6.2142   19.4191 C   0  0  0  0  0  0  0  0  0  0  0  0
   13.0695    6.3705   20.0375 N   0  0  0  0  0  0  0  0  0  0  0  0
    9.1913    8.0876   21.8361 N   0  0  0  0  0  0  0  0  0  0  0  0
   10.4739    9.4813   20.2889 C   0  0  0  0  0  0  0  0  0  0  0  0
    7.5551    7.1270   23.1200 O   0  0  0  0  0  0  0  0  0  0  0  0
  1 11  4  0
  1 21  4  0
  2  4  1  0
  2  8  1  0
  2 11  1  0
  3 10  4  0
  3 14  4  0
  4  5  1  0
  4 18  2  0
  6 12  1  0
  6 17  4  0
  6 23  4  0
  7  9  1  0
  7 13  4  0
  7 19  4  0
  9 20  1  0
 10 19  4  0
 11 25  4  0
 13 14  4  0
 15 16  4  0
 15 17  4  0
 15 21  4  0
 16 24  1  0
 16 25  4  0
 20 24  1  0
 20 26  2  0
 21 23  4  0
 22 23  1  0
M  END
$$$$

 Created by Python create_sdf_string function

 26 28  0  0  0  0  0  0  0  0999 V2000
   12.4616    8.6700   19.4180 N   0  0  0  0  0  0  0  0  0  0  0  0
   11.8329   10.8148   18.6769 N   0  0  0  0  0  0  0  0  0  0  0  0
    6.1021    2.5564   21.0678 C   0  0  0  0  0  0  0  0  0  0  0  0
   10.9097   11.8051   18.4804 C   0  0  0  0  0  0  0  0  0  0  0  0
   11.2280   12.9135   17.5669 C   0  0  0  0  0  0  0  0  0  0  0  0
   12.3782    5.4231   20.7777 C   0  0  0  0  0  0  0  0  0  0  0  0
    7.7365    4.6508   21.6987 C   0  0  0  0  0  0  0  0  0  0  0  0
   13.0186   11.0102   18.0020 C   0  0  0  0  0  0  0  0  0  0  0  0
    8.6628    5.7088   21.8871 N   0  0  0  0  0  0  0  0  0  0  0  0
    5.6516    3.5258   21.9140 C   0  0  0  0  0  0  0  0  0  0  0  0
   11.5863    9.6815   19.4539 C   0  0  0  0  0  0  0  0  0  0  0  0
   12.9648    4.1543   20.9205 C   0  0  0  0  0  0  0  0  0  0  0  0
    8.2089    3.6265   20.8929 C   0  0  0  0  0  0  0  0  0  0  0  0
    7.3827    2.5724   20.5432 C   0  0  0  0  0  0  0  0  0  0  0  0
   11.1529    7.2750   20.8025 C   0  0  0  0  0  0  0  0  0  0  0  0
   10.2573    8.3215   20.9827 C   0  0  0  0  0  0  0  0  0  0  0  0
   11.1606    5.9378   21.2366 N   0  0  0  0  0  0  0  0  0  0  0  0
    9.8932   11.6736   19.0677 O   0  0  0  0  0  0  0  0  0  0  0  0
    6.4470    4.5850   22.2321 C   0  0  0  0  0  0  0  0  0  0  0  0
    8.4619    6.9895   22.2968 C   0  0  0  0  0  0  0  0  0  0  0  0
   12.2747    7.5102   20.0420 C   0  0  0  0  0  0  0  0  0  0  0  0
   14.2544    6.2142   19.4191 C   0  0  0  0  0  0  0  0  0  0  0  0
   13.0695    6.3705   20.0375 N   0  0  0  0  0  0  0  0  0  0  0  0
    9.1913    8.0876   21.8361 N   0  0  0  0  0  0  0  0  0  0  0  0
   10.4739    9.4813   20.2889 C   0  0  0  0  0  0  0  0  0  0  0  0
    7.5551    7.1270   23.1200 O   0  0  0  0  0  0  0  0  0  0  0  0
  1 11  4  0
  1 21  4  0
  2  4  1  0
  2  8  1  0
  2 11  1  0
  3 10  4  0
  3 14  4  0
  4  5  1  0
  4 18  2  0
  6 12  1  0
  6 17  4  0
  6 23  4  0
  7  9  1  0
  7 13  4  0
  7 19  4  0
  9 20  1  0
 10 19  4  0
 11 25  4  0
 13 14  4  0
 15 16  4  0
 15 17  4  0
 15 21  4  0
 16 24  1  0
 16 25  4  0
 20 24  1  0
 20 26  2  0
 21 23  4  0
 22 23  1  0
M  END
$$$$

 Created by Python create_sdf_string function

 26 28  0  0  0  0  0  0  0  0999 V2000
   12.4616    8.6700   19.4180 N   0  0  0  0  0  0  0  0  0  0  0  0
   11.8329   10.8148   18.6769 N   0  0  0  0  0  0  0  0  0  0  0  0
    6.1021    2.5564   21.0678 C   0  0  0  0  0  0  0  0  0  0  0  0
   10.9097   11.8051   18.4804 C   0  0  0  0  0  0  0  0  0  0  0  0
   11.2280   12.9135   17.5669 C   0  0  0  0  0  0  0  0  0  0  0  0
   12.3782    5.4231   20.7777 C   0  0  0  0  0  0  0  0  0  0  0  0
    7.7365    4.6508   21.6987 C   0  0  0  0  0  0  0  0  0  0  0  0
   13.0186   11.0102   18.0020 C   0  0  0  0  0  0  0  0  0  0  0  0
    8.6628    5.7088   21.8871 N   0  0  0  0  0  0  0  0  0  0  0  0
    5.6516    3.5258   21.9140 C   0  0  0  0  0  0  0  0  0  0  0  0
   11.5863    9.6815   19.4539 C   0  0  0  0  0  0  0  0  0  0  0  0
   12.9648    4.1543   20.9205 C   0  0  0  0  0  0  0  0  0  0  0  0
    8.2089    3.6265   20.8929 C   0  0  0  0  0  0  0  0  0  0  0  0
    7.3827    2.5724   20.5432 C   0  0  0  0  0  0  0  0  0  0  0  0
   11.1529    7.2750   20.8025 C   0  0  0  0  0  0  0  0  0  0  0  0
   10.2573    8.3215   20.9827 C   0  0  0  0  0  0  0  0  0  0  0  0
   11.1606    5.9378   21.2366 N   0  0  0  0  0  0  0  0  0  0  0  0
    9.8932   11.6736   19.0677 O   0  0  0  0  0  0  0  0  0  0  0  0
    6.4470    4.5850   22.2321 C   0  0  0  0  0  0  0  0  0  0  0  0
    8.4619    6.9895   22.2968 C   0  0  0  0  0  0  0  0  0  0  0  0
   12.2747    7.5102   20.0420 C   0  0  0  0  0  0  0  0  0  0  0  0
   14.2544    6.2142   19.4191 C   0  0  0  0  0  0  0  0  0  0  0  0
   13.0695    6.3705   20.0375 N   0  0  0  0  0  0  0  0  0  0  0  0
    9.1913    8.0876   21.8361 N   0  0  0  0  0  0  0  0  0  0  0  0
   10.4739    9.4813   20.2889 C   0  0  0  0  0  0  0  0  0  0  0  0
    7.5551    7.1270   23.1200 O   0  0  0  0  0  0  0  0  0  0  0  0
  1 11  4  0
  1 21  4  0
  2  4  1  0
  2  8  1  0
  2 11  1  0
  3 10  4  0
  3 14  4  0
  4  5  1  0
  4 18  2  0
  6 12  1  0
  6 17  4  0
  6 23  4  0
  7  9  1  0
  7 13  4  0
  7 19  4  0
  9 20  1  0
 10 19  4  0
 11 25  4  0
 13 14  4  0
 15 16  4  0
 15 17  4  0
 15 21  4  0
 16 24  1  0
 16 25  4  0
 20 24  1  0
 20 26  2  0
 21 23  4  0
 22 23  1  0
M  END
$$$$

 Created by Python create_sdf_string function

 26 28  0  0  0  0  0  0  0  0999 V2000
   12.4616    8.6700   19.4180 N   0  0  0  0  0  0  0  0  0  0  0  0
   11.8329   10.8148   18.6769 N   0  0  0  0  0  0  0  0  0  0  0  0
    6.1021    2.5564   21.0678 C   0  0  0  0  0  0  0  0  0  0  0  0
   10.9097   11.8051   18.4804 C   0  0  0  0  0  0  0  0  0  0  0  0
   11.2280   12.9135   17.5669 C   0  0  0  0  0  0  0  0  0  0  0  0
   12.3782    5.4231   20.7777 C   0  0  0  0  0  0  0  0  0  0  0  0
    7.7365    4.6508   21.6987 C   0  0  0  0  0  0  0  0  0  0  0  0
   13.0186   11.0102   18.0020 C   0  0  0  0  0  0  0  0  0  0  0  0
    8.6628    5.7088   21.8871 N   0  0  0  0  0  0  0  0  0  0  0  0
    5.6516    3.5258   21.9140 C   0  0  0  0  0  0  0  0  0  0  0  0
   11.5863    9.6815   19.4539 C   0  0  0  0  0  0  0  0  0  0  0  0
   12.9648    4.1543   20.9205 C   0  0  0  0  0  0  0  0  0  0  0  0
    8.2089    3.6265   20.8929 C   0  0  0  0  0  0  0  0  0  0  0  0
    7.3827    2.5724   20.5432 C   0  0  0  0  0  0  0  0  0  0  0  0
   11.1529    7.2750   20.8025 C   0  0  0  0  0  0  0  0  0  0  0  0
   10.2573    8.3215   20.9827 C   0  0  0  0  0  0  0  0  0  0  0  0
   11.1606    5.9378   21.2366 N   0  0  0  0  0  0  0  0  0  0  0  0
    9.8932   11.6736   19.0677 O   0  0  0  0  0  0  0  0  0  0  0  0
    6.4470    4.5850   22.2321 C   0  0  0  0  0  0  0  0  0  0  0  0
    8.4619    6.9895   22.2968 C   0  0  0  0  0  0  0  0  0  0  0  0
   12.2747    7.5102   20.0420 C   0  0  0  0  0  0  0  0  0  0  0  0
   14.2544    6.2142   19.4191 C   0  0  0  0  0  0  0  0  0  0  0  0
   13.0695    6.3705   20.0375 N   0  0  0  0  0  0  0  0  0  0  0  0
    9.1913    8.0876   21.8361 N   0  0  0  0  0  0  0  0  0  0  0  0
   10.4739    9.4813   20.2889 C   0  0  0  0  0  0  0  0  0  0  0  0
    7.5551    7.1270   23.1200 O   0  0  0  0  0  0  0  0  0  0  0  0
  1 11  4  0
  1 21  4  0
  2  4  1  0
  2  8  1  0
  2 11  1  0
  3 10  4  0
  3 14  4  0
  4  5  1  0
  4 18  2  0
  6 12  1  0
  6 17  4  0
  6 23  4  0
  7  9  1  0
  7 13  4  0
  7 19  4  0
  9 20  1  0
 10 19  4  0
 11 25  4  0
 13 14  4  0
 15 16  4  0
 15 17  4  0
 15 21  4  0
 16 24  1  0
 16 25  4  0
 20 24  1  0
 20 26  2  0
 21 23  4  0
 22 23  1  0
M  END
$$$$

 Created by Python create_sdf_string function

 26 28  0  0  0  0  0  0  0  0999 V2000
   12.4616    8.6700   19.4180 N   0  0  0  0  0  0  0  0  0  0  0  0
   11.8329   10.8148   18.6769 N   0  0  0  0  0  0  0  0  0  0  0  0
    6.1021    2.5564   21.0678 C   0  0  0  0  0  0  0  0  0  0  0  0
   10.9097   11.8051   18.4804 C   0  0  0  0  0  0  0  0  0  0  0  0
   11.2280   12.9135   17.5669 C   0  0  0  0  0  0  0  0  0  0  0  0
   12.3782    5.4231   20.7777 C   0  0  0  0  0  0  0  0  0  0  0  0
    7.7365    4.6508   21.6987 C   0  0  0  0  0  0  0  0  0  0  0  0
   13.0186   11.0102   18.0020 C   0  0  0  0  0  0  0  0  0  0  0  0
    8.6628    5.7088   21.8871 N   0  0  0  0  0  0  0  0  0  0  0  0
    5.6516    3.5258   21.9140 C   0  0  0  0  0  0  0  0  0  0  0  0
   11.5863    9.6815   19.4539 C   0  0  0  0  0  0  0  0  0  0  0  0
   12.9648    4.1543   20.9205 C   0  0  0  0  0  0  0  0  0  0  0  0
    8.2089    3.6265   20.8929 C   0  0  0  0  0  0  0  0  0  0  0  0
    7.3827    2.5724   20.5432 C   0  0  0  0  0  0  0  0  0  0  0  0
   11.1529    7.2750   20.8025 C   0  0  0  0  0  0  0  0  0  0  0  0
   10.2573    8.3215   20.9827 C   0  0  0  0  0  0  0  0  0  0  0  0
   11.1606    5.9378   21.2366 N   0  0  0  0  0  0  0  0  0  0  0  0
    9.8932   11.6736   19.0677 O   0  0  0  0  0  0  0  0  0  0  0  0
    6.4470    4.5850   22.2321 C   0  0  0  0  0  0  0  0  0  0  0  0
    8.4619    6.9895   22.2968 C   0  0  0  0  0  0  0  0  0  0  0  0
   12.2747    7.5102   20.0420 C   0  0  0  0  0  0  0  0  0  0  0  0
   14.2544    6.2142   19.4191 C   0  0  0  0  0  0  0  0  0  0  0  0
   13.0695    6.3705   20.0375 N   0  0  0  0  0  0  0  0  0  0  0  0
    9.1913    8.0876   21.8361 N   0  0  0  0  0  0  0  0  0  0  0  0
   10.4739    9.4813   20.2889 C   0  0  0  0  0  0  0  0  0  0  0  0
    7.5551    7.1270   23.1200 O   0  0  0  0  0  0  0  0  0  0  0  0
  1 11  4  0
  1 21  4  0
  2  4  1  0
  2  8  1  0
  2 11  1  0
  3 10  4  0
  3 14  4  0
  4  5  1  0
  4 18  2  0
  6 12  1  0
  6 17  4  0
  6 23  4  0
  7  9  1  0
  7 13  4  0
  7 19  4  0
  9 20  1  0
 10 19  4  0
 11 25  4  0
 13 14  4  0
 15 16  4  0
 15 17  4  0
 15 21  4  0
 16 24  1  0
 16 25  4  0
 20 24  1  0
 20 26  2  0
 21 23  4  0
 22 23  1  0
M  END
$$$$

 Created by Python create_sdf_string function

 26 28  0  0  0  0  0  0  0  0999 V2000
   12.4616    8.6700   19.4180 N   0  0  0  0  0  0  0  0  0  0  0  0
   11.8329   10.8148   18.6769 N   0  0  0  0  0  0  0  0  0  0  0  0
    6.1021    2.5564   21.0678 C   0  0  0  0  0  0  0  0  0  0  0  0
   10.9097   11.8051   18.4804 C   0  0  0  0  0  0  0  0  0  0  0  0
   11.2280   12.9135   17.5669 C   0  0  0  0  0  0  0  0  0  0  0  0
   12.3782    5.4231   20.7777 C   0  0  0  0  0  0  0  0  0  0  0  0
    7.7365    4.6508   21.6987 C   0  0  0  0  0  0  0  0  0  0  0  0
   13.0186   11.0102   18.0020 C   0  0  0  0  0  0  0  0  0  0  0  0
    8.6628    5.7088   21.8871 N   0  0  0  0  0  0  0  0  0  0  0  0
    5.6516    3.5258   21.9140 C   0  0  0  0  0  0  0  0  0  0  0  0
   11.5863    9.6815   19.4539 C   0  0  0  0  0  0  0  0  0  0  0  0
   12.9648    4.1543   20.9205 C   0  0  0  0  0  0  0  0  0  0  0  0
    8.2089    3.6265   20.8929 C   0  0  0  0  0  0  0  0  0  0  0  0
    7.3827    2.5724   20.5432 C   0  0  0  0  0  0  0  0  0  0  0  0
   11.1529    7.2750   20.8025 C   0  0  0  0  0  0  0  0  0  0  0  0
   10.2573    8.3215   20.9827 C   0  0  0  0  0  0  0  0  0  0  0  0
   11.1606    5.9378   21.2366 N   0  0  0  0  0  0  0  0  0  0  0  0
    9.8932   11.6736   19.0677 O   0  0  0  0  0  0  0  0  0  0  0  0
    6.4470    4.5850   22.2321 C   0  0  0  0  0  0  0  0  0  0  0  0
    8.4619    6.9895   22.2968 C   0  0  0  0  0  0  0  0  0  0  0  0
   12.2747    7.5102   20.0420 C   0  0  0  0  0  0  0  0  0  0  0  0
   14.2544    6.2142   19.4191 C   0  0  0  0  0  0  0  0  0  0  0  0
   13.0695    6.3705   20.0375 N   0  0  0  0  0  0  0  0  0  0  0  0
    9.1913    8.0876   21.8361 N   0  0  0  0  0  0  0  0  0  0  0  0
   10.4739    9.4813   20.2889 C   0  0  0  0  0  0  0  0  0  0  0  0
    7.5551    7.1270   23.1200 O   0  0  0  0  0  0  0  0  0  0  0  0
  1 11  4  0
  1 21  4  0
  2  4  1  0
  2  8  1  0
  2 11  1  0
  3 10  4  0
  3 14  4  0
  4  5  1  0
  4 18  2  0
  6 12  1  0
  6 17  4  0
  6 23  4  0
  7  9  1  0
  7 13  4  0
  7 19  4  0
  9 20  1  0
 10 19  4  0
 11 25  4  0
 13 14  4  0
 15 16  4  0
 15 17  4  0
 15 21  4  0
 16 24  1  0
 16 25  4  0
 20 24  1  0
 20 26  2  0
 21 23  4  0
 22 23  1  0
M  END
$$$$

 Created by Python create_sdf_string function

 26 28  0  0  0  0  0  0  0  0999 V2000
   12.4616    8.6700   19.4180 N   0  0  0  0  0  0  0  0  0  0  0  0
   11.8329   10.8148   18.6769 N   0  0  0  0  0  0  0  0  0  0  0  0
    6.1021    2.5564   21.0678 C   0  0  0  0  0  0  0  0  0  0  0  0
   10.9097   11.8051   18.4804 C   0  0  0  0  0  0  0  0  0  0  0  0
   11.2280   12.9135   17.5669 C   0  0  0  0  0  0  0  0  0  0  0  0
   12.3782    5.4231   20.7777 C   0  0  0  0  0  0  0  0  0  0  0  0
    7.7365    4.6508   21.6987 C   0  0  0  0  0  0  0  0  0  0  0  0
   13.0186   11.0102   18.0020 C   0  0  0  0  0  0  0  0  0  0  0  0
    8.6628    5.7088   21.8871 N   0  0  0  0  0  0  0  0  0  0  0  0
    5.6516    3.5258   21.9140 C   0  0  0  0  0  0  0  0  0  0  0  0
   11.5863    9.6815   19.4539 C   0  0  0  0  0  0  0  0  0  0  0  0
   12.9648    4.1543   20.9205 C   0  0  0  0  0  0  0  0  0  0  0  0
    8.2089    3.6265   20.8929 C   0  0  0  0  0  0  0  0  0  0  0  0
    7.3827    2.5724   20.5432 C   0  0  0  0  0  0  0  0  0  0  0  0
   11.1529    7.2750   20.8025 C   0  0  0  0  0  0  0  0  0  0  0  0
   10.2573    8.3215   20.9827 C   0  0  0  0  0  0  0  0  0  0  0  0
   11.1606    5.9378   21.2366 N   0  0  0  0  0  0  0  0  0  0  0  0
    9.8932   11.6736   19.0677 O   0  0  0  0  0  0  0  0  0  0  0  0
    6.4470    4.5850   22.2321 C   0  0  0  0  0  0  0  0  0  0  0  0
    8.4619    6.9895   22.2968 C   0  0  0  0  0  0  0  0  0  0  0  0
   12.2747    7.5102   20.0420 C   0  0  0  0  0  0  0  0  0  0  0  0
   14.2544    6.2142   19.4191 C   0  0  0  0  0  0  0  0  0  0  0  0
   13.0695    6.3705   20.0375 N   0  0  0  0  0  0  0  0  0  0  0  0
    9.1913    8.0876   21.8361 N   0  0  0  0  0  0  0  0  0  0  0  0
   10.4739    9.4813   20.2889 C   0  0  0  0  0  0  0  0  0  0  0  0
    7.5551    7.1270   23.1200 O   0  0  0  0  0  0  0  0  0  0  0  0
  1 11  4  0
  1 21  4  0
  2  4  1  0
  2  8  1  0
  2 11  1  0
  3 10  4  0
  3 14  4  0
  4  5  1  0
  4 18  2  0
  6 12  1  0
  6 17  4  0
  6 23  4  0
  7  9  1  0
  7 13  4  0
  7 19  4  0
  9 20  1  0
 10 19  4  0
 11 25  4  0
 13 14  4  0
 15 16  4  0
 15 17  4  0
 15 21  4  0
 16 24  1  0
 16 25  4  0
 20 24  1  0
 20 26  2  0
 21 23  4  0
 22 23  1  0
M  END
$$$$

 Created by Python create_sdf_string function

 26 28  0  0  0  0  0  0  0  0999 V2000
   12.4616    8.6700   19.4180 N   0  0  0  0  0  0  0  0  0  0  0  0
   11.8329   10.8148   18.6769 N   0  0  0  0  0  0  0  0  0  0  0  0
    6.1021    2.5564   21.0678 C   0  0  0  0  0  0  0  0  0  0  0  0
   10.9097   11.8051   18.4804 C   0  0  0  0  0  0  0  0  0  0  0  0
   11.2280   12.9135   17.5669 C   0  0  0  0  0  0  0  0  0  0  0  0
   12.3782    5.4231   20.7777 C   0  0  0  0  0  0  0  0  0  0  0  0
    7.7365    4.6508   21.6987 C   0  0  0  0  0  0  0  0  0  0  0  0
   13.0186   11.0102   18.0020 C   0  0  0  0  0  0  0  0  0  0  0  0
    8.6628    5.7088   21.8871 N   0  0  0  0  0  0  0  0  0  0  0  0
    5.6516    3.5258   21.9140 C   0  0  0  0  0  0  0  0  0  0  0  0
   11.5863    9.6815   19.4539 C   0  0  0  0  0  0  0  0  0  0  0  0
   12.9648    4.1543   20.9205 C   0  0  0  0  0  0  0  0  0  0  0  0
    8.2089    3.6265   20.8929 C   0  0  0  0  0  0  0  0  0  0  0  0
    7.3827    2.5724   20.5432 C   0  0  0  0  0  0  0  0  0  0  0  0
   11.1529    7.2750   20.8025 C   0  0  0  0  0  0  0  0  0  0  0  0
   10.2573    8.3215   20.9827 C   0  0  0  0  0  0  0  0  0  0  0  0
   11.1606    5.9378   21.2366 N   0  0  0  0  0  0  0  0  0  0  0  0
    9.8932   11.6736   19.0677 O   0  0  0  0  0  0  0  0  0  0  0  0
    6.4470    4.5850   22.2321 C   0  0  0  0  0  0  0  0  0  0  0  0
    8.4619    6.9895   22.2968 C   0  0  0  0  0  0  0  0  0  0  0  0
   12.2747    7.5102   20.0420 C   0  0  0  0  0  0  0  0  0  0  0  0
   14.2544    6.2142   19.4191 C   0  0  0  0  0  0  0  0  0  0  0  0
   13.0695    6.3705   20.0375 N   0  0  0  0  0  0  0  0  0  0  0  0
    9.1913    8.0876   21.8361 N   0  0  0  0  0  0  0  0  0  0  0  0
   10.4739    9.4813   20.2889 C   0  0  0  0  0  0  0  0  0  0  0  0
    7.5551    7.1270   23.1200 O   0  0  0  0  0  0  0  0  0  0  0  0
  1 11  4  0
  1 21  4  0
  2  4  1  0
  2  8  1  0
  2 11  1  0
  3 10  4  0
  3 14  4  0
  4  5  1  0
  4 18  2  0
  6 12  1  0
  6 17  4  0
  6 23  4  0
  7  9  1  0
  7 13  4  0
  7 19  4  0
  9 20  1  0
 10 19  4  0
 11 25  4  0
 13 14  4  0
 15 16  4  0
 15 17  4  0
 15 21  4  0
 16 24  1  0
 16 25  4  0
 20 24  1  0
 20 26  2  0
 21 23  4  0
 22 23  1  0
M  END
$$$$

 Created by Python create_sdf_string function

 26 28  0  0  0  0  0  0  0  0999 V2000
   12.4616    8.6700   19.4180 N   0  0  0  0  0  0  0  0  0  0  0  0
   11.8329   10.8148   18.6769 N   0  0  0  0  0  0  0  0  0  0  0  0
    6.1021    2.5564   21.0678 C   0  0  0  0  0  0  0  0  0  0  0  0
   10.9097   11.8051   18.4804 C   0  0  0  0  0  0  0  0  0  0  0  0
   11.2280   12.9135   17.5669 C   0  0  0  0  0  0  0  0  0  0  0  0
   12.3782    5.4231   20.7777 C   0  0  0  0  0  0  0  0  0  0  0  0
    7.7365    4.6508   21.6987 C   0  0  0  0  0  0  0  0  0  0  0  0
   13.0186   11.0102   18.0020 C   0  0  0  0  0  0  0  0  0  0  0  0
    8.6628    5.7088   21.8871 N   0  0  0  0  0  0  0  0  0  0  0  0
    5.6516    3.5258   21.9140 C   0  0  0  0  0  0  0  0  0  0  0  0
   11.5863    9.6815   19.4539 C   0  0  0  0  0  0  0  0  0  0  0  0
   12.9648    4.1543   20.9205 C   0  0  0  0  0  0  0  0  0  0  0  0
    8.2089    3.6265   20.8929 C   0  0  0  0  0  0  0  0  0  0  0  0
    7.3827    2.5724   20.5432 C   0  0  0  0  0  0  0  0  0  0  0  0
   11.1529    7.2750   20.8025 C   0  0  0  0  0  0  0  0  0  0  0  0
   10.2573    8.3215   20.9827 C   0  0  0  0  0  0  0  0  0  0  0  0
   11.1606    5.9378   21.2366 N   0  0  0  0  0  0  0  0  0  0  0  0
    9.8932   11.6736   19.0677 O   0  0  0  0  0  0  0  0  0  0  0  0
    6.4470    4.5850   22.2321 C   0  0  0  0  0  0  0  0  0  0  0  0
    8.4619    6.9895   22.2968 C   0  0  0  0  0  0  0  0  0  0  0  0
   12.2747    7.5102   20.0420 C   0  0  0  0  0  0  0  0  0  0  0  0
   14.2544    6.2142   19.4191 C   0  0  0  0  0  0  0  0  0  0  0  0
   13.0695    6.3705   20.0375 N   0  0  0  0  0  0  0  0  0  0  0  0
    9.1913    8.0876   21.8361 N   0  0  0  0  0  0  0  0  0  0  0  0
   10.4739    9.4813   20.2889 C   0  0  0  0  0  0  0  0  0  0  0  0
    7.5551    7.1270   23.1200 O   0  0  0  0  0  0  0  0  0  0  0  0
  1 11  4  0
  1 21  4  0
  2  4  1  0
  2  8  1  0
  2 11  1  0
  3 10  4  0
  3 14  4  0
  4  5  1  0
  4 18  2  0
  6 12  1  0
  6 17  4  0
  6 23  4  0
  7  9  1  0
  7 13  4  0
  7 19  4  0
  9 20  1  0
 10 19  4  0
 11 25  4  0
 13 14  4  0
 15 16  4  0
 15 17  4  0
 15 21  4  0
 16 24  1  0
 16 25  4  0
 20 24  1  0
 20 26  2  0
 21 23  4  0
 22 23  1  0
M  END
$$$$

 Created by Python create_sdf_string function

 26 28  0  0  0  0  0  0  0  0999 V2000
   12.4616    8.6700   19.4180 N   0  0  0  0  0  0  0  0  0  0  0  0
   11.8329   10.8148   18.6769 N   0  0  0  0  0  0  0  0  0  0  0  0
    6.1021    2.5564   21.0678 C   0  0  0  0  0  0  0  0  0  0  0  0
   10.9097   11.8051   18.4804 C   0  0  0  0  0  0  0  0  0  0  0  0
   11.2280   12.9135   17.5669 C   0  0  0  0  0  0  0  0  0  0  0  0
   12.3782    5.4231   20.7777 C   0  0  0  0  0  0  0  0  0  0  0  0
    7.7365    4.6508   21.6987 C   0  0  0  0  0  0  0  0  0  0  0  0
   13.0186   11.0102   18.0020 C   0  0  0  0  0  0  0  0  0  0  0  0
    8.6628    5.7088   21.8871 N   0  0  0  0  0  0  0  0  0  0  0  0
    5.6516    3.5258   21.9140 C   0  0  0  0  0  0  0  0  0  0  0  0
   11.5863    9.6815   19.4539 C   0  0  0  0  0  0  0  0  0  0  0  0
   12.9648    4.1543   20.9205 C   0  0  0  0  0  0  0  0  0  0  0  0
    8.2089    3.6265   20.8929 C   0  0  0  0  0  0  0  0  0  0  0  0
    7.3827    2.5724   20.5432 C   0  0  0  0  0  0  0  0  0  0  0  0
   11.1529    7.2750   20.8025 C   0  0  0  0  0  0  0  0  0  0  0  0
   10.2573    8.3215   20.9827 C   0  0  0  0  0  0  0  0  0  0  0  0
   11.1606    5.9378   21.2366 N   0  0  0  0  0  0  0  0  0  0  0  0
    9.8932   11.6736   19.0677 O   0  0  0  0  0  0  0  0  0  0  0  0
    6.4470    4.5850   22.2321 C   0  0  0  0  0  0  0  0  0  0  0  0
    8.4619    6.9895   22.2968 C   0  0  0  0  0  0  0  0  0  0  0  0
   12.2747    7.5102   20.0420 C   0  0  0  0  0  0  0  0  0  0  0  0
   14.2544    6.2142   19.4191 C   0  0  0  0  0  0  0  0  0  0  0  0
   13.0695    6.3705   20.0375 N   0  0  0  0  0  0  0  0  0  0  0  0
    9.1913    8.0876   21.8361 N   0  0  0  0  0  0  0  0  0  0  0  0
   10.4739    9.4813   20.2889 C   0  0  0  0  0  0  0  0  0  0  0  0
    7.5551    7.1270   23.1200 O   0  0  0  0  0  0  0  0  0  0  0  0
  1 11  4  0
  1 21  4  0
  2  4  1  0
  2  8  1  0
  2 11  1  0
  3 10  4  0
  3 14  4  0
  4  5  1  0
  4 18  2  0
  6 12  1  0
  6 17  4  0
  6 23  4  0
  7  9  1  0
  7 13  4  0
  7 19  4  0
  9 20  1  0
 10 19  4  0
 11 25  4  0
 13 14  4  0
 15 16  4  0
 15 17  4  0
 15 21  4  0
 16 24  1  0
 16 25  4  0
 20 24  1  0
 20 26  2  0
 21 23  4  0
 22 23  1  0
M  END
$$$$

 Created by Python create_sdf_string function

 26 28  0  0  0  0  0  0  0  0999 V2000
   12.4616    8.6700   19.4180 N   0  0  0  0  0  0  0  0  0  0  0  0
   11.8329   10.8148   18.6769 N   0  0  0  0  0  0  0  0  0  0  0  0
    6.1021    2.5564   21.0678 C   0  0  0  0  0  0  0  0  0  0  0  0
   10.9097   11.8051   18.4804 C   0  0  0  0  0  0  0  0  0  0  0  0
   11.2280   12.9135   17.5669 C   0  0  0  0  0  0  0  0  0  0  0  0
   12.3782    5.4231   20.7777 C   0  0  0  0  0  0  0  0  0  0  0  0
    7.7365    4.6508   21.6987 C   0  0  0  0  0  0  0  0  0  0  0  0
   13.0186   11.0102   18.0020 C   0  0  0  0  0  0  0  0  0  0  0  0
    8.6628    5.7088   21.8871 N   0  0  0  0  0  0  0  0  0  0  0  0
    5.6516    3.5258   21.9140 C   0  0  0  0  0  0  0  0  0  0  0  0
   11.5863    9.6815   19.4539 C   0  0  0  0  0  0  0  0  0  0  0  0
   12.9648    4.1543   20.9205 C   0  0  0  0  0  0  0  0  0  0  0  0
    8.2089    3.6265   20.8929 C   0  0  0  0  0  0  0  0  0  0  0  0
    7.3827    2.5724   20.5432 C   0  0  0  0  0  0  0  0  0  0  0  0
   11.1529    7.2750   20.8025 C   0  0  0  0  0  0  0  0  0  0  0  0
   10.2573    8.3215   20.9827 C   0  0  0  0  0  0  0  0  0  0  0  0
   11.1606    5.9378   21.2366 N   0  0  0  0  0  0  0  0  0  0  0  0
    9.8932   11.6736   19.0677 O   0  0  0  0  0  0  0  0  0  0  0  0
    6.4470    4.5850   22.2321 C   0  0  0  0  0  0  0  0  0  0  0  0
    8.4619    6.9895   22.2968 C   0  0  0  0  0  0  0  0  0  0  0  0
   12.2747    7.5102   20.0420 C   0  0  0  0  0  0  0  0  0  0  0  0
   14.2544    6.2142   19.4191 C   0  0  0  0  0  0  0  0  0  0  0  0
   13.0695    6.3705   20.0375 N   0  0  0  0  0  0  0  0  0  0  0  0
    9.1913    8.0876   21.8361 N   0  0  0  0  0  0  0  0  0  0  0  0
   10.4739    9.4813   20.2889 C   0  0  0  0  0  0  0  0  0  0  0  0
    7.5551    7.1270   23.1200 O   0  0  0  0  0  0  0  0  0  0  0  0
  1 11  4  0
  1 21  4  0
  2  4  1  0
  2  8  1  0
  2 11  1  0
  3 10  4  0
  3 14  4  0
  4  5  1  0
  4 18  2  0
  6 12  1  0
  6 17  4  0
  6 23  4  0
  7  9  1  0
  7 13  4  0
  7 19  4  0
  9 20  1  0
 10 19  4  0
 11 25  4  0
 13 14  4  0
 15 16  4  0
 15 17  4  0
 15 21  4  0
 16 24  1  0
 16 25  4  0
 20 24  1  0
 20 26  2  0
 21 23  4  0
 22 23  1  0
M  END
$$$$

 Created by Python create_sdf_string function

 26 28  0  0  0  0  0  0  0  0999 V2000
   12.4616    8.6700   19.4180 N   0  0  0  0  0  0  0  0  0  0  0  0
   11.8329   10.8148   18.6769 N   0  0  0  0  0  0  0  0  0  0  0  0
    6.1021    2.5564   21.0678 C   0  0  0  0  0  0  0  0  0  0  0  0
   10.9097   11.8051   18.4804 C   0  0  0  0  0  0  0  0  0  0  0  0
   11.2280   12.9135   17.5669 C   0  0  0  0  0  0  0  0  0  0  0  0
   12.3782    5.4231   20.7777 C   0  0  0  0  0  0  0  0  0  0  0  0
    7.7365    4.6508   21.6987 C   0  0  0  0  0  0  0  0  0  0  0  0
   13.0186   11.0102   18.0020 C   0  0  0  0  0  0  0  0  0  0  0  0
    8.6628    5.7088   21.8871 N   0  0  0  0  0  0  0  0  0  0  0  0
    5.6516    3.5258   21.9140 C   0  0  0  0  0  0  0  0  0  0  0  0
   11.5863    9.6815   19.4539 C   0  0  0  0  0  0  0  0  0  0  0  0
   12.9648    4.1543   20.9205 C   0  0  0  0  0  0  0  0  0  0  0  0
    8.2089    3.6265   20.8929 C   0  0  0  0  0  0  0  0  0  0  0  0
    7.3827    2.5724   20.5432 C   0  0  0  0  0  0  0  0  0  0  0  0
   11.1529    7.2750   20.8025 C   0  0  0  0  0  0  0  0  0  0  0  0
   10.2573    8.3215   20.9827 C   0  0  0  0  0  0  0  0  0  0  0  0
   11.1606    5.9378   21.2366 N   0  0  0  0  0  0  0  0  0  0  0  0
    9.8932   11.6736   19.0677 O   0  0  0  0  0  0  0  0  0  0  0  0
    6.4470    4.5850   22.2321 C   0  0  0  0  0  0  0  0  0  0  0  0
    8.4619    6.9895   22.2968 C   0  0  0  0  0  0  0  0  0  0  0  0
   12.2747    7.5102   20.0420 C   0  0  0  0  0  0  0  0  0  0  0  0
   14.2544    6.2142   19.4191 C   0  0  0  0  0  0  0  0  0  0  0  0
   13.0695    6.3705   20.0375 N   0  0  0  0  0  0  0  0  0  0  0  0
    9.1913    8.0876   21.8361 N   0  0  0  0  0  0  0  0  0  0  0  0
   10.4739    9.4813   20.2889 C   0  0  0  0  0  0  0  0  0  0  0  0
    7.5551    7.1270   23.1200 O   0  0  0  0  0  0  0  0  0  0  0  0
  1 11  4  0
  1 21  4  0
  2  4  1  0
  2  8  1  0
  2 11  1  0
  3 10  4  0
  3 14  4  0
  4  5  1  0
  4 18  2  0
  6 12  1  0
  6 17  4  0
  6 23  4  0
  7  9  1  0
  7 13  4  0
  7 19  4  0
  9 20  1  0
 10 19  4  0
 11 25  4  0
 13 14  4  0
 15 16  4  0
 15 17  4  0
 15 21  4  0
 16 24  1  0
 16 25  4  0
 20 24  1  0
 20 26  2  0
 21 23  4  0
 22 23  1  0
M  END
$$$$

 Created by Python create_sdf_string function

 26 28  0  0  0  0  0  0  0  0999 V2000
   12.4616    8.6700   19.4180 N   0  0  0  0  0  0  0  0  0  0  0  0
   11.8329   10.8148   18.6769 N   0  0  0  0  0  0  0  0  0  0  0  0
    6.1021    2.5564   21.0678 C   0  0  0  0  0  0  0  0  0  0  0  0
   10.9097   11.8051   18.4804 C   0  0  0  0  0  0  0  0  0  0  0  0
   11.2280   12.9135   17.5669 C   0  0  0  0  0  0  0  0  0  0  0  0
   12.3782    5.4231   20.7777 C   0  0  0  0  0  0  0  0  0  0  0  0
    7.7365    4.6508   21.6987 C   0  0  0  0  0  0  0  0  0  0  0  0
   13.0186   11.0102   18.0020 C   0  0  0  0  0  0  0  0  0  0  0  0
    8.6628    5.7088   21.8871 N   0  0  0  0  0  0  0  0  0  0  0  0
    5.6516    3.5258   21.9140 C   0  0  0  0  0  0  0  0  0  0  0  0
   11.5863    9.6815   19.4539 C   0  0  0  0  0  0  0  0  0  0  0  0
   12.9648    4.1543   20.9205 C   0  0  0  0  0  0  0  0  0  0  0  0
    8.2089    3.6265   20.8929 C   0  0  0  0  0  0  0  0  0  0  0  0
    7.3827    2.5724   20.5432 C   0  0  0  0  0  0  0  0  0  0  0  0
   11.1529    7.2750   20.8025 C   0  0  0  0  0  0  0  0  0  0  0  0
   10.2573    8.3215   20.9827 C   0  0  0  0  0  0  0  0  0  0  0  0
   11.1606    5.9378   21.2366 N   0  0  0  0  0  0  0  0  0  0  0  0
    9.8932   11.6736   19.0677 O   0  0  0  0  0  0  0  0  0  0  0  0
    6.4470    4.5850   22.2321 C   0  0  0  0  0  0  0  0  0  0  0  0
    8.4619    6.9895   22.2968 C   0  0  0  0  0  0  0  0  0  0  0  0
   12.2747    7.5102   20.0420 C   0  0  0  0  0  0  0  0  0  0  0  0
   14.2544    6.2142   19.4191 C   0  0  0  0  0  0  0  0  0  0  0  0
   13.0695    6.3705   20.0375 N   0  0  0  0  0  0  0  0  0  0  0  0
    9.1913    8.0876   21.8361 N   0  0  0  0  0  0  0  0  0  0  0  0
   10.4739    9.4813   20.2889 C   0  0  0  0  0  0  0  0  0  0  0  0
    7.5551    7.1270   23.1200 O   0  0  0  0  0  0  0  0  0  0  0  0
  1 11  4  0
  1 21  4  0
  2  4  1  0
  2  8  1  0
  2 11  1  0
  3 10  4  0
  3 14  4  0
  4  5  1  0
  4 18  2  0
  6 12  1  0
  6 17  4  0
  6 23  4  0
  7  9  1  0
  7 13  4  0
  7 19  4  0
  9 20  1  0
 10 19  4  0
 11 25  4  0
 13 14  4  0
 15 16  4  0
 15 17  4  0
 15 21  4  0
 16 24  1  0
 16 25  4  0
 20 24  1  0
 20 26  2  0
 21 23  4  0
 22 23  1  0
M  END
$$$$

 Created by Python create_sdf_string function

 26 28  0  0  0  0  0  0  0  0999 V2000
   12.4616    8.6700   19.4180 N   0  0  0  0  0  0  0  0  0  0  0  0
   11.8329   10.8148   18.6769 N   0  0  0  0  0  0  0  0  0  0  0  0
    6.1021    2.5564   21.0678 C   0  0  0  0  0  0  0  0  0  0  0  0
   10.9097   11.8051   18.4804 C   0  0  0  0  0  0  0  0  0  0  0  0
   11.2280   12.9135   17.5669 C   0  0  0  0  0  0  0  0  0  0  0  0
   12.3782    5.4231   20.7777 C   0  0  0  0  0  0  0  0  0  0  0  0
    7.7365    4.6508   21.6987 C   0  0  0  0  0  0  0  0  0  0  0  0
   13.0186   11.0102   18.0020 C   0  0  0  0  0  0  0  0  0  0  0  0
    8.6628    5.7088   21.8871 N   0  0  0  0  0  0  0  0  0  0  0  0
    5.6516    3.5258   21.9140 C   0  0  0  0  0  0  0  0  0  0  0  0
   11.5863    9.6815   19.4539 C   0  0  0  0  0  0  0  0  0  0  0  0
   12.9648    4.1543   20.9205 C   0  0  0  0  0  0  0  0  0  0  0  0
    8.2089    3.6265   20.8929 C   0  0  0  0  0  0  0  0  0  0  0  0
    7.3827    2.5724   20.5432 C   0  0  0  0  0  0  0  0  0  0  0  0
   11.1529    7.2750   20.8025 C   0  0  0  0  0  0  0  0  0  0  0  0
   10.2573    8.3215   20.9827 C   0  0  0  0  0  0  0  0  0  0  0  0
   11.1606    5.9378   21.2366 N   0  0  0  0  0  0  0  0  0  0  0  0
    9.8932   11.6736   19.0677 O   0  0  0  0  0  0  0  0  0  0  0  0
    6.4470    4.5850   22.2321 C   0  0  0  0  0  0  0  0  0  0  0  0
    8.4619    6.9895   22.2968 C   0  0  0  0  0  0  0  0  0  0  0  0
   12.2747    7.5102   20.0420 C   0  0  0  0  0  0  0  0  0  0  0  0
   14.2544    6.2142   19.4191 C   0  0  0  0  0  0  0  0  0  0  0  0
   13.0695    6.3705   20.0375 N   0  0  0  0  0  0  0  0  0  0  0  0
    9.1913    8.0876   21.8361 N   0  0  0  0  0  0  0  0  0  0  0  0
   10.4739    9.4813   20.2889 C   0  0  0  0  0  0  0  0  0  0  0  0
    7.5551    7.1270   23.1200 O   0  0  0  0  0  0  0  0  0  0  0  0
  1 11  4  0
  1 21  4  0
  2  4  1  0
  2  8  1  0
  2 11  1  0
  3 10  4  0
  3 14  4  0
  4  5  1  0
  4 18  2  0
  6 12  1  0
  6 17  4  0
  6 23  4  0
  7  9  1  0
  7 13  4  0
  7 19  4  0
  9 20  1  0
 10 19  4  0
 11 25  4  0
 13 14  4  0
 15 16  4  0
 15 17  4  0
 15 21  4  0
 16 24  1  0
 16 25  4  0
 20 24  1  0
 20 26  2  0
 21 23  4  0
 22 23  1  0
M  END
$$$$

 Created by Python create_sdf_string function

 26 28  0  0  0  0  0  0  0  0999 V2000
   12.4616    8.6700   19.4180 N   0  0  0  0  0  0  0  0  0  0  0  0
   11.8329   10.8148   18.6769 N   0  0  0  0  0  0  0  0  0  0  0  0
    6.1021    2.5564   21.0678 C   0  0  0  0  0  0  0  0  0  0  0  0
   10.9097   11.8051   18.4804 C   0  0  0  0  0  0  0  0  0  0  0  0
   11.2280   12.9135   17.5669 C   0  0  0  0  0  0  0  0  0  0  0  0
   12.3782    5.4231   20.7777 C   0  0  0  0  0  0  0  0  0  0  0  0
    7.7365    4.6508   21.6987 C   0  0  0  0  0  0  0  0  0  0  0  0
   13.0186   11.0102   18.0020 C   0  0  0  0  0  0  0  0  0  0  0  0
    8.6628    5.7088   21.8871 N   0  0  0  0  0  0  0  0  0  0  0  0
    5.6516    3.5258   21.9140 C   0  0  0  0  0  0  0  0  0  0  0  0
   11.5863    9.6815   19.4539 C   0  0  0  0  0  0  0  0  0  0  0  0
   12.9648    4.1543   20.9205 C   0  0  0  0  0  0  0  0  0  0  0  0
    8.2089    3.6265   20.8929 C   0  0  0  0  0  0  0  0  0  0  0  0
    7.3827    2.5724   20.5432 C   0  0  0  0  0  0  0  0  0  0  0  0
   11.1529    7.2750   20.8025 C   0  0  0  0  0  0  0  0  0  0  0  0
   10.2573    8.3215   20.9827 C   0  0  0  0  0  0  0  0  0  0  0  0
   11.1606    5.9378   21.2366 N   0  0  0  0  0  0  0  0  0  0  0  0
    9.8932   11.6736   19.0677 O   0  0  0  0  0  0  0  0  0  0  0  0
    6.4470    4.5850   22.2321 C   0  0  0  0  0  0  0  0  0  0  0  0
    8.4619    6.9895   22.2968 C   0  0  0  0  0  0  0  0  0  0  0  0
   12.2747    7.5102   20.0420 C   0  0  0  0  0  0  0  0  0  0  0  0
   14.2544    6.2142   19.4191 C   0  0  0  0  0  0  0  0  0  0  0  0
   13.0695    6.3705   20.0375 N   0  0  0  0  0  0  0  0  0  0  0  0
    9.1913    8.0876   21.8361 N   0  0  0  0  0  0  0  0  0  0  0  0
   10.4739    9.4813   20.2889 C   0  0  0  0  0  0  0  0  0  0  0  0
    7.5551    7.1270   23.1200 O   0  0  0  0  0  0  0  0  0  0  0  0
  1 11  4  0
  1 21  4  0
  2  4  1  0
  2  8  1  0
  2 11  1  0
  3 10  4  0
  3 14  4  0
  4  5  1  0
  4 18  2  0
  6 12  1  0
  6 17  4  0
  6 23  4  0
  7  9  1  0
  7 13  4  0
  7 19  4  0
  9 20  1  0
 10 19  4  0
 11 25  4  0
 13 14  4  0
 15 16  4  0
 15 17  4  0
 15 21  4  0
 16 24  1  0
 16 25  4  0
 20 24  1  0
 20 26  2  0
 21 23  4  0
 22 23  1  0
M  END
$$$$

 Created by Python create_sdf_string function

 26 28  0  0  0  0  0  0  0  0999 V2000
   12.4616    8.6700   19.4180 N   0  0  0  0  0  0  0  0  0  0  0  0
   11.8329   10.8148   18.6769 N   0  0  0  0  0  0  0  0  0  0  0  0
    6.1021    2.5564   21.0678 C   0  0  0  0  0  0  0  0  0  0  0  0
   10.9097   11.8051   18.4804 C   0  0  0  0  0  0  0  0  0  0  0  0
   11.2280   12.9135   17.5669 C   0  0  0  0  0  0  0  0  0  0  0  0
   12.3782    5.4231   20.7777 C   0  0  0  0  0  0  0  0  0  0  0  0
    7.7365    4.6508   21.6987 C   0  0  0  0  0  0  0  0  0  0  0  0
   13.0186   11.0102   18.0020 C   0  0  0  0  0  0  0  0  0  0  0  0
    8.6628    5.7088   21.8871 N   0  0  0  0  0  0  0  0  0  0  0  0
    5.6516    3.5258   21.9140 C   0  0  0  0  0  0  0  0  0  0  0  0
   11.5863    9.6815   19.4539 C   0  0  0  0  0  0  0  0  0  0  0  0
   12.9648    4.1543   20.9205 C   0  0  0  0  0  0  0  0  0  0  0  0
    8.2089    3.6265   20.8929 C   0  0  0  0  0  0  0  0  0  0  0  0
    7.3827    2.5724   20.5432 C   0  0  0  0  0  0  0  0  0  0  0  0
   11.1529    7.2750   20.8025 C   0  0  0  0  0  0  0  0  0  0  0  0
   10.2573    8.3215   20.9827 C   0  0  0  0  0  0  0  0  0  0  0  0
   11.1606    5.9378   21.2366 N   0  0  0  0  0  0  0  0  0  0  0  0
    9.8932   11.6736   19.0677 O   0  0  0  0  0  0  0  0  0  0  0  0
    6.4470    4.5850   22.2321 C   0  0  0  0  0  0  0  0  0  0  0  0
    8.4619    6.9895   22.2968 C   0  0  0  0  0  0  0  0  0  0  0  0
   12.2747    7.5102   20.0420 C   0  0  0  0  0  0  0  0  0  0  0  0
   14.2544    6.2142   19.4191 C   0  0  0  0  0  0  0  0  0  0  0  0
   13.0695    6.3705   20.0375 N   0  0  0  0  0  0  0  0  0  0  0  0
    9.1913    8.0876   21.8361 N   0  0  0  0  0  0  0  0  0  0  0  0
   10.4739    9.4813   20.2889 C   0  0  0  0  0  0  0  0  0  0  0  0
    7.5551    7.1270   23.1200 O   0  0  0  0  0  0  0  0  0  0  0  0
  1 11  4  0
  1 21  4  0
  2  4  1  0
  2  8  1  0
  2 11  1  0
  3 10  4  0
  3 14  4  0
  4  5  1  0
  4 18  2  0
  6 12  1  0
  6 17  4  0
  6 23  4  0
  7  9  1  0
  7 13  4  0
  7 19  4  0
  9 20  1  0
 10 19  4  0
 11 25  4  0
 13 14  4  0
 15 16  4  0
 15 17  4  0
 15 21  4  0
 16 24  1  0
 16 25  4  0
 20 24  1  0
 20 26  2  0
 21 23  4  0
 22 23  1  0
M  END
$$$$

 Created by Python create_sdf_string function

 26 28  0  0  0  0  0  0  0  0999 V2000
   12.4616    8.6700   19.4180 N   0  0  0  0  0  0  0  0  0  0  0  0
   11.8329   10.8148   18.6769 N   0  0  0  0  0  0  0  0  0  0  0  0
    6.1021    2.5564   21.0678 C   0  0  0  0  0  0  0  0  0  0  0  0
   10.9097   11.8051   18.4804 C   0  0  0  0  0  0  0  0  0  0  0  0
   11.2280   12.9135   17.5669 C   0  0  0  0  0  0  0  0  0  0  0  0
   12.3782    5.4231   20.7777 C   0  0  0  0  0  0  0  0  0  0  0  0
    7.7365    4.6508   21.6987 C   0  0  0  0  0  0  0  0  0  0  0  0
   13.0186   11.0102   18.0020 C   0  0  0  0  0  0  0  0  0  0  0  0
    8.6628    5.7088   21.8871 N   0  0  0  0  0  0  0  0  0  0  0  0
    5.6516    3.5258   21.9140 C   0  0  0  0  0  0  0  0  0  0  0  0
   11.5863    9.6815   19.4539 C   0  0  0  0  0  0  0  0  0  0  0  0
   12.9648    4.1543   20.9205 C   0  0  0  0  0  0  0  0  0  0  0  0
    8.2089    3.6265   20.8929 C   0  0  0  0  0  0  0  0  0  0  0  0
    7.3827    2.5724   20.5432 C   0  0  0  0  0  0  0  0  0  0  0  0
   11.1529    7.2750   20.8025 C   0  0  0  0  0  0  0  0  0  0  0  0
   10.2573    8.3215   20.9827 C   0  0  0  0  0  0  0  0  0  0  0  0
   11.1606    5.9378   21.2366 N   0  0  0  0  0  0  0  0  0  0  0  0
    9.8932   11.6736   19.0677 O   0  0  0  0  0  0  0  0  0  0  0  0
    6.4470    4.5850   22.2321 C   0  0  0  0  0  0  0  0  0  0  0  0
    8.4619    6.9895   22.2968 C   0  0  0  0  0  0  0  0  0  0  0  0
   12.2747    7.5102   20.0420 C   0  0  0  0  0  0  0  0  0  0  0  0
   14.2544    6.2142   19.4191 C   0  0  0  0  0  0  0  0  0  0  0  0
   13.0695    6.3705   20.0375 N   0  0  0  0  0  0  0  0  0  0  0  0
    9.1913    8.0876   21.8361 N   0  0  0  0  0  0  0  0  0  0  0  0
   10.4739    9.4813   20.2889 C   0  0  0  0  0  0  0  0  0  0  0  0
    7.5551    7.1270   23.1200 O   0  0  0  0  0  0  0  0  0  0  0  0
  1 11  4  0
  1 21  4  0
  2  4  1  0
  2  8  1  0
  2 11  1  0
  3 10  4  0
  3 14  4  0
  4  5  1  0
  4 18  2  0
  6 12  1  0
  6 17  4  0
  6 23  4  0
  7  9  1  0
  7 13  4  0
  7 19  4  0
  9 20  1  0
 10 19  4  0
 11 25  4  0
 13 14  4  0
 15 16  4  0
 15 17  4  0
 15 21  4  0
 16 24  1  0
 16 25  4  0
 20 24  1  0
 20 26  2  0
 21 23  4  0
 22 23  1  0
M  END
$$$$

 Created by Python create_sdf_string function

 26 28  0  0  0  0  0  0  0  0999 V2000
   12.4616    8.6700   19.4180 N   0  0  0  0  0  0  0  0  0  0  0  0
   11.8329   10.8148   18.6769 N   0  0  0  0  0  0  0  0  0  0  0  0
    6.1021    2.5564   21.0678 C   0  0  0  0  0  0  0  0  0  0  0  0
   10.9097   11.8051   18.4804 C   0  0  0  0  0  0  0  0  0  0  0  0
   11.2280   12.9135   17.5669 C   0  0  0  0  0  0  0  0  0  0  0  0
   12.3782    5.4231   20.7777 C   0  0  0  0  0  0  0  0  0  0  0  0
    7.7365    4.6508   21.6987 C   0  0  0  0  0  0  0  0  0  0  0  0
   13.0186   11.0102   18.0020 C   0  0  0  0  0  0  0  0  0  0  0  0
    8.6628    5.7088   21.8871 N   0  0  0  0  0  0  0  0  0  0  0  0
    5.6516    3.5258   21.9140 C   0  0  0  0  0  0  0  0  0  0  0  0
   11.5863    9.6815   19.4539 C   0  0  0  0  0  0  0  0  0  0  0  0
   12.9648    4.1543   20.9205 C   0  0  0  0  0  0  0  0  0  0  0  0
    8.2089    3.6265   20.8929 C   0  0  0  0  0  0  0  0  0  0  0  0
    7.3827    2.5724   20.5432 C   0  0  0  0  0  0  0  0  0  0  0  0
   11.1529    7.2750   20.8025 C   0  0  0  0  0  0  0  0  0  0  0  0
   10.2573    8.3215   20.9827 C   0  0  0  0  0  0  0  0  0  0  0  0
   11.1606    5.9378   21.2366 N   0  0  0  0  0  0  0  0  0  0  0  0
    9.8932   11.6736   19.0677 O   0  0  0  0  0  0  0  0  0  0  0  0
    6.4470    4.5850   22.2321 C   0  0  0  0  0  0  0  0  0  0  0  0
    8.4619    6.9895   22.2968 C   0  0  0  0  0  0  0  0  0  0  0  0
   12.2747    7.5102   20.0420 C   0  0  0  0  0  0  0  0  0  0  0  0
   14.2544    6.2142   19.4191 C   0  0  0  0  0  0  0  0  0  0  0  0
   13.0695    6.3705   20.0375 N   0  0  0  0  0  0  0  0  0  0  0  0
    9.1913    8.0876   21.8361 N   0  0  0  0  0  0  0  0  0  0  0  0
   10.4739    9.4813   20.2889 C   0  0  0  0  0  0  0  0  0  0  0  0
    7.5551    7.1270   23.1200 O   0  0  0  0  0  0  0  0  0  0  0  0
  1 11  4  0
  1 21  4  0
  2  4  1  0
  2  8  1  0
  2 11  1  0
  3 10  4  0
  3 14  4  0
  4  5  1  0
  4 18  2  0
  6 12  1  0
  6 17  4  0
  6 23  4  0
  7  9  1  0
  7 13  4  0
  7 19  4  0
  9 20  1  0
 10 19  4  0
 11 25  4  0
 13 14  4  0
 15 16  4  0
 15 17  4  0
 15 21  4  0
 16 24  1  0
 16 25  4  0
 20 24  1  0
 20 26  2  0
 21 23  4  0
 22 23  1  0
M  END
$$$$

 Created by Python create_sdf_string function

 26 28  0  0  0  0  0  0  0  0999 V2000
   12.4616    8.6700   19.4180 N   0  0  0  0  0  0  0  0  0  0  0  0
   11.8329   10.8148   18.6769 N   0  0  0  0  0  0  0  0  0  0  0  0
    6.1021    2.5564   21.0678 C   0  0  0  0  0  0  0  0  0  0  0  0
   10.9097   11.8051   18.4804 C   0  0  0  0  0  0  0  0  0  0  0  0
   11.2280   12.9135   17.5669 C   0  0  0  0  0  0  0  0  0  0  0  0
   12.3782    5.4231   20.7777 C   0  0  0  0  0  0  0  0  0  0  0  0
    7.7365    4.6508   21.6987 C   0  0  0  0  0  0  0  0  0  0  0  0
   13.0186   11.0102   18.0020 C   0  0  0  0  0  0  0  0  0  0  0  0
    8.6628    5.7088   21.8871 N   0  0  0  0  0  0  0  0  0  0  0  0
    5.6516    3.5258   21.9140 C   0  0  0  0  0  0  0  0  0  0  0  0
   11.5863    9.6815   19.4539 C   0  0  0  0  0  0  0  0  0  0  0  0
   12.9648    4.1543   20.9205 C   0  0  0  0  0  0  0  0  0  0  0  0
    8.2089    3.6265   20.8929 C   0  0  0  0  0  0  0  0  0  0  0  0
    7.3827    2.5724   20.5432 C   0  0  0  0  0  0  0  0  0  0  0  0
   11.1529    7.2750   20.8025 C   0  0  0  0  0  0  0  0  0  0  0  0
   10.2573    8.3215   20.9827 C   0  0  0  0  0  0  0  0  0  0  0  0
   11.1606    5.9378   21.2366 N   0  0  0  0  0  0  0  0  0  0  0  0
    9.8932   11.6736   19.0677 O   0  0  0  0  0  0  0  0  0  0  0  0
    6.4470    4.5850   22.2321 C   0  0  0  0  0  0  0  0  0  0  0  0
    8.4619    6.9895   22.2968 C   0  0  0  0  0  0  0  0  0  0  0  0
   12.2747    7.5102   20.0420 C   0  0  0  0  0  0  0  0  0  0  0  0
   14.2544    6.2142   19.4191 C   0  0  0  0  0  0  0  0  0  0  0  0
   13.0695    6.3705   20.0375 N   0  0  0  0  0  0  0  0  0  0  0  0
    9.1913    8.0876   21.8361 N   0  0  0  0  0  0  0  0  0  0  0  0
   10.4739    9.4813   20.2889 C   0  0  0  0  0  0  0  0  0  0  0  0
    7.5551    7.1270   23.1200 O   0  0  0  0  0  0  0  0  0  0  0  0
  1 11  4  0
  1 21  4  0
  2  4  1  0
  2  8  1  0
  2 11  1  0
  3 10  4  0
  3 14  4  0
  4  5  1  0
  4 18  2  0
  6 12  1  0
  6 17  4  0
  6 23  4  0
  7  9  1  0
  7 13  4  0
  7 19  4  0
  9 20  1  0
 10 19  4  0
 11 25  4  0
 13 14  4  0
 15 16  4  0
 15 17  4  0
 15 21  4  0
 16 24  1  0
 16 25  4  0
 20 24  1  0
 20 26  2  0
 21 23  4  0
 22 23  1  0
M  END
$$$$

 Created by Python create_sdf_string function

 26 28  0  0  0  0  0  0  0  0999 V2000
   12.4616    8.6700   19.4180 N   0  0  0  0  0  0  0  0  0  0  0  0
   11.8329   10.8148   18.6769 N   0  0  0  0  0  0  0  0  0  0  0  0
    6.1021    2.5564   21.0678 C   0  0  0  0  0  0  0  0  0  0  0  0
   10.9097   11.8051   18.4804 C   0  0  0  0  0  0  0  0  0  0  0  0
   11.2280   12.9135   17.5669 C   0  0  0  0  0  0  0  0  0  0  0  0
   12.3782    5.4231   20.7777 C   0  0  0  0  0  0  0  0  0  0  0  0
    7.7365    4.6508   21.6987 C   0  0  0  0  0  0  0  0  0  0  0  0
   13.0186   11.0102   18.0020 C   0  0  0  0  0  0  0  0  0  0  0  0
    8.6628    5.7088   21.8871 N   0  0  0  0  0  0  0  0  0  0  0  0
    5.6516    3.5258   21.9140 C   0  0  0  0  0  0  0  0  0  0  0  0
   11.5863    9.6815   19.4539 C   0  0  0  0  0  0  0  0  0  0  0  0
   12.9648    4.1543   20.9205 C   0  0  0  0  0  0  0  0  0  0  0  0
    8.2089    3.6265   20.8929 C   0  0  0  0  0  0  0  0  0  0  0  0
    7.3827    2.5724   20.5432 C   0  0  0  0  0  0  0  0  0  0  0  0
   11.1529    7.2750   20.8025 C   0  0  0  0  0  0  0  0  0  0  0  0
   10.2573    8.3215   20.9827 C   0  0  0  0  0  0  0  0  0  0  0  0
   11.1606    5.9378   21.2366 N   0  0  0  0  0  0  0  0  0  0  0  0
    9.8932   11.6736   19.0677 O   0  0  0  0  0  0  0  0  0  0  0  0
    6.4470    4.5850   22.2321 C   0  0  0  0  0  0  0  0  0  0  0  0
    8.4619    6.9895   22.2968 C   0  0  0  0  0  0  0  0  0  0  0  0
   12.2747    7.5102   20.0420 C   0  0  0  0  0  0  0  0  0  0  0  0
   14.2544    6.2142   19.4191 C   0  0  0  0  0  0  0  0  0  0  0  0
   13.0695    6.3705   20.0375 N   0  0  0  0  0  0  0  0  0  0  0  0
    9.1913    8.0876   21.8361 N   0  0  0  0  0  0  0  0  0  0  0  0
   10.4739    9.4813   20.2889 C   0  0  0  0  0  0  0  0  0  0  0  0
    7.5551    7.1270   23.1200 O   0  0  0  0  0  0  0  0  0  0  0  0
  1 11  4  0
  1 21  4  0
  2  4  1  0
  2  8  1  0
  2 11  1  0
  3 10  4  0
  3 14  4  0
  4  5  1  0
  4 18  2  0
  6 12  1  0
  6 17  4  0
  6 23  4  0
  7  9  1  0
  7 13  4  0
  7 19  4  0
  9 20  1  0
 10 19  4  0
 11 25  4  0
 13 14  4  0
 15 16  4  0
 15 17  4  0
 15 21  4  0
 16 24  1  0
 16 25  4  0
 20 24  1  0
 20 26  2  0
 21 23  4  0
 22 23  1  0
M  END
$$$$

 Created by Python create_sdf_string function

 26 28  0  0  0  0  0  0  0  0999 V2000
   12.4616    8.6700   19.4180 N   0  0  0  0  0  0  0  0  0  0  0  0
   11.8329   10.8148   18.6769 N   0  0  0  0  0  0  0  0  0  0  0  0
    6.1021    2.5564   21.0678 C   0  0  0  0  0  0  0  0  0  0  0  0
   10.9097   11.8051   18.4804 C   0  0  0  0  0  0  0  0  0  0  0  0
   11.2280   12.9135   17.5669 C   0  0  0  0  0  0  0  0  0  0  0  0
   12.3782    5.4231   20.7777 C   0  0  0  0  0  0  0  0  0  0  0  0
    7.7365    4.6508   21.6987 C   0  0  0  0  0  0  0  0  0  0  0  0
   13.0186   11.0102   18.0020 C   0  0  0  0  0  0  0  0  0  0  0  0
    8.6628    5.7088   21.8871 N   0  0  0  0  0  0  0  0  0  0  0  0
    5.6516    3.5258   21.9140 C   0  0  0  0  0  0  0  0  0  0  0  0
   11.5863    9.6815   19.4539 C   0  0  0  0  0  0  0  0  0  0  0  0
   12.9648    4.1543   20.9205 C   0  0  0  0  0  0  0  0  0  0  0  0
    8.2089    3.6265   20.8929 C   0  0  0  0  0  0  0  0  0  0  0  0
    7.3827    2.5724   20.5432 C   0  0  0  0  0  0  0  0  0  0  0  0
   11.1529    7.2750   20.8025 C   0  0  0  0  0  0  0  0  0  0  0  0
   10.2573    8.3215   20.9827 C   0  0  0  0  0  0  0  0  0  0  0  0
   11.1606    5.9378   21.2366 N   0  0  0  0  0  0  0  0  0  0  0  0
    9.8932   11.6736   19.0677 O   0  0  0  0  0  0  0  0  0  0  0  0
    6.4470    4.5850   22.2321 C   0  0  0  0  0  0  0  0  0  0  0  0
    8.4619    6.9895   22.2968 C   0  0  0  0  0  0  0  0  0  0  0  0
   12.2747    7.5102   20.0420 C   0  0  0  0  0  0  0  0  0  0  0  0
   14.2544    6.2142   19.4191 C   0  0  0  0  0  0  0  0  0  0  0  0
   13.0695    6.3705   20.0375 N   0  0  0  0  0  0  0  0  0  0  0  0
    9.1913    8.0876   21.8361 N   0  0  0  0  0  0  0  0  0  0  0  0
   10.4739    9.4813   20.2889 C   0  0  0  0  0  0  0  0  0  0  0  0
    7.5551    7.1270   23.1200 O   0  0  0  0  0  0  0  0  0  0  0  0
  1 11  4  0
  1 21  4  0
  2  4  1  0
  2  8  1  0
  2 11  1  0
  3 10  4  0
  3 14  4  0
  4  5  1  0
  4 18  2  0
  6 12  1  0
  6 17  4  0
  6 23  4  0
  7  9  1  0
  7 13  4  0
  7 19  4  0
  9 20  1  0
 10 19  4  0
 11 25  4  0
 13 14  4  0
 15 16  4  0
 15 17  4  0
 15 21  4  0
 16 24  1  0
 16 25  4  0
 20 24  1  0
 20 26  2  0
 21 23  4  0
 22 23  1  0
M  END
$$$$

 Created by Python create_sdf_string function

 26 28  0  0  0  0  0  0  0  0999 V2000
   12.4616    8.6700   19.4180 N   0  0  0  0  0  0  0  0  0  0  0  0
   11.8329   10.8148   18.6769 N   0  0  0  0  0  0  0  0  0  0  0  0
    6.1021    2.5564   21.0678 C   0  0  0  0  0  0  0  0  0  0  0  0
   10.9097   11.8051   18.4804 C   0  0  0  0  0  0  0  0  0  0  0  0
   11.2280   12.9135   17.5669 C   0  0  0  0  0  0  0  0  0  0  0  0
   12.3782    5.4231   20.7777 C   0  0  0  0  0  0  0  0  0  0  0  0
    7.7365    4.6508   21.6987 C   0  0  0  0  0  0  0  0  0  0  0  0
   13.0186   11.0102   18.0020 C   0  0  0  0  0  0  0  0  0  0  0  0
    8.6628    5.7088   21.8871 N   0  0  0  0  0  0  0  0  0  0  0  0
    5.6516    3.5258   21.9140 C   0  0  0  0  0  0  0  0  0  0  0  0
   11.5863    9.6815   19.4539 C   0  0  0  0  0  0  0  0  0  0  0  0
   12.9648    4.1543   20.9205 C   0  0  0  0  0  0  0  0  0  0  0  0
    8.2089    3.6265   20.8929 C   0  0  0  0  0  0  0  0  0  0  0  0
    7.3827    2.5724   20.5432 C   0  0  0  0  0  0  0  0  0  0  0  0
   11.1529    7.2750   20.8025 C   0  0  0  0  0  0  0  0  0  0  0  0
   10.2573    8.3215   20.9827 C   0  0  0  0  0  0  0  0  0  0  0  0
   11.1606    5.9378   21.2366 N   0  0  0  0  0  0  0  0  0  0  0  0
    9.8932   11.6736   19.0677 O   0  0  0  0  0  0  0  0  0  0  0  0
    6.4470    4.5850   22.2321 C   0  0  0  0  0  0  0  0  0  0  0  0
    8.4619    6.9895   22.2968 C   0  0  0  0  0  0  0  0  0  0  0  0
   12.2747    7.5102   20.0420 C   0  0  0  0  0  0  0  0  0  0  0  0
   14.2544    6.2142   19.4191 C   0  0  0  0  0  0  0  0  0  0  0  0
   13.0695    6.3705   20.0375 N   0  0  0  0  0  0  0  0  0  0  0  0
    9.1913    8.0876   21.8361 N   0  0  0  0  0  0  0  0  0  0  0  0
   10.4739    9.4813   20.2889 C   0  0  0  0  0  0  0  0  0  0  0  0
    7.5551    7.1270   23.1200 O   0  0  0  0  0  0  0  0  0  0  0  0
  1 11  4  0
  1 21  4  0
  2  4  1  0
  2  8  1  0
  2 11  1  0
  3 10  4  0
  3 14  4  0
  4  5  1  0
  4 18  2  0
  6 12  1  0
  6 17  4  0
  6 23  4  0
  7  9  1  0
  7 13  4  0
  7 19  4  0
  9 20  1  0
 10 19  4  0
 11 25  4  0
 13 14  4  0
 15 16  4  0
 15 17  4  0
 15 21  4  0
 16 24  1  0
 16 25  4  0
 20 24  1  0
 20 26  2  0
 21 23  4  0
 22 23  1  0
M  END
$$$$

 Created by Python create_sdf_string function

 26 28  0  0  0  0  0  0  0  0999 V2000
   12.4616    8.6700   19.4180 N   0  0  0  0  0  0  0  0  0  0  0  0
   11.8329   10.8148   18.6769 N   0  0  0  0  0  0  0  0  0  0  0  0
    6.1021    2.5564   21.0678 C   0  0  0  0  0  0  0  0  0  0  0  0
   10.9097   11.8051   18.4804 C   0  0  0  0  0  0  0  0  0  0  0  0
   11.2280   12.9135   17.5669 C   0  0  0  0  0  0  0  0  0  0  0  0
   12.3782    5.4231   20.7777 C   0  0  0  0  0  0  0  0  0  0  0  0
    7.7365    4.6508   21.6987 C   0  0  0  0  0  0  0  0  0  0  0  0
   13.0186   11.0102   18.0020 C   0  0  0  0  0  0  0  0  0  0  0  0
    8.6628    5.7088   21.8871 N   0  0  0  0  0  0  0  0  0  0  0  0
    5.6516    3.5258   21.9140 C   0  0  0  0  0  0  0  0  0  0  0  0
   11.5863    9.6815   19.4539 C   0  0  0  0  0  0  0  0  0  0  0  0
   12.9648    4.1543   20.9205 C   0  0  0  0  0  0  0  0  0  0  0  0
    8.2089    3.6265   20.8929 C   0  0  0  0  0  0  0  0  0  0  0  0
    7.3827    2.5724   20.5432 C   0  0  0  0  0  0  0  0  0  0  0  0
   11.1529    7.2750   20.8025 C   0  0  0  0  0  0  0  0  0  0  0  0
   10.2573    8.3215   20.9827 C   0  0  0  0  0  0  0  0  0  0  0  0
   11.1606    5.9378   21.2366 N   0  0  0  0  0  0  0  0  0  0  0  0
    9.8932   11.6736   19.0677 O   0  0  0  0  0  0  0  0  0  0  0  0
    6.4470    4.5850   22.2321 C   0  0  0  0  0  0  0  0  0  0  0  0
    8.4619    6.9895   22.2968 C   0  0  0  0  0  0  0  0  0  0  0  0
   12.2747    7.5102   20.0420 C   0  0  0  0  0  0  0  0  0  0  0  0
   14.2544    6.2142   19.4191 C   0  0  0  0  0  0  0  0  0  0  0  0
   13.0695    6.3705   20.0375 N   0  0  0  0  0  0  0  0  0  0  0  0
    9.1913    8.0876   21.8361 N   0  0  0  0  0  0  0  0  0  0  0  0
   10.4739    9.4813   20.2889 C   0  0  0  0  0  0  0  0  0  0  0  0
    7.5551    7.1270   23.1200 O   0  0  0  0  0  0  0  0  0  0  0  0
  1 11  4  0
  1 21  4  0
  2  4  1  0
  2  8  1  0
  2 11  1  0
  3 10  4  0
  3 14  4  0
  4  5  1  0
  4 18  2  0
  6 12  1  0
  6 17  4  0
  6 23  4  0
  7  9  1  0
  7 13  4  0
  7 19  4  0
  9 20  1  0
 10 19  4  0
 11 25  4  0
 13 14  4  0
 15 16  4  0
 15 17  4  0
 15 21  4  0
 16 24  1  0
 16 25  4  0
 20 24  1  0
 20 26  2  0
 21 23  4  0
 22 23  1  0
M  END
$$$$

 Created by Python create_sdf_string function

 26 28  0  0  0  0  0  0  0  0999 V2000
   12.4616    8.6700   19.4180 N   0  0  0  0  0  0  0  0  0  0  0  0
   11.8329   10.8148   18.6769 N   0  0  0  0  0  0  0  0  0  0  0  0
    6.1021    2.5564   21.0678 C   0  0  0  0  0  0  0  0  0  0  0  0
   10.9097   11.8051   18.4804 C   0  0  0  0  0  0  0  0  0  0  0  0
   11.2280   12.9135   17.5669 C   0  0  0  0  0  0  0  0  0  0  0  0
   12.3782    5.4231   20.7777 C   0  0  0  0  0  0  0  0  0  0  0  0
    7.7365    4.6508   21.6987 C   0  0  0  0  0  0  0  0  0  0  0  0
   13.0186   11.0102   18.0020 C   0  0  0  0  0  0  0  0  0  0  0  0
    8.6628    5.7088   21.8871 N   0  0  0  0  0  0  0  0  0  0  0  0
    5.6516    3.5258   21.9140 C   0  0  0  0  0  0  0  0  0  0  0  0
   11.5863    9.6815   19.4539 C   0  0  0  0  0  0  0  0  0  0  0  0
   12.9648    4.1543   20.9205 C   0  0  0  0  0  0  0  0  0  0  0  0
    8.2089    3.6265   20.8929 C   0  0  0  0  0  0  0  0  0  0  0  0
    7.3827    2.5724   20.5432 C   0  0  0  0  0  0  0  0  0  0  0  0
   11.1529    7.2750   20.8025 C   0  0  0  0  0  0  0  0  0  0  0  0
   10.2573    8.3215   20.9827 C   0  0  0  0  0  0  0  0  0  0  0  0
   11.1606    5.9378   21.2366 N   0  0  0  0  0  0  0  0  0  0  0  0
    9.8932   11.6736   19.0677 O   0  0  0  0  0  0  0  0  0  0  0  0
    6.4470    4.5850   22.2321 C   0  0  0  0  0  0  0  0  0  0  0  0
    8.4619    6.9895   22.2968 C   0  0  0  0  0  0  0  0  0  0  0  0
   12.2747    7.5102   20.0420 C   0  0  0  0  0  0  0  0  0  0  0  0
   14.2544    6.2142   19.4191 C   0  0  0  0  0  0  0  0  0  0  0  0
   13.0695    6.3705   20.0375 N   0  0  0  0  0  0  0  0  0  0  0  0
    9.1913    8.0876   21.8361 N   0  0  0  0  0  0  0  0  0  0  0  0
   10.4739    9.4813   20.2889 C   0  0  0  0  0  0  0  0  0  0  0  0
    7.5551    7.1270   23.1200 O   0  0  0  0  0  0  0  0  0  0  0  0
  1 11  4  0
  1 21  4  0
  2  4  1  0
  2  8  1  0
  2 11  1  0
  3 10  4  0
  3 14  4  0
  4  5  1  0
  4 18  2  0
  6 12  1  0
  6 17  4  0
  6 23  4  0
  7  9  1  0
  7 13  4  0
  7 19  4  0
  9 20  1  0
 10 19  4  0
 11 25  4  0
 13 14  4  0
 15 16  4  0
 15 17  4  0
 15 21  4  0
 16 24  1  0
 16 25  4  0
 20 24  1  0
 20 26  2  0
 21 23  4  0
 22 23  1  0
M  END
$$$$

 Created by Python create_sdf_string function

 26 28  0  0  0  0  0  0  0  0999 V2000
   12.4616    8.6700   19.4180 N   0  0  0  0  0  0  0  0  0  0  0  0
   11.8329   10.8148   18.6769 N   0  0  0  0  0  0  0  0  0  0  0  0
    6.1021    2.5564   21.0678 C   0  0  0  0  0  0  0  0  0  0  0  0
   10.9097   11.8051   18.4804 C   0  0  0  0  0  0  0  0  0  0  0  0
   11.2280   12.9135   17.5669 C   0  0  0  0  0  0  0  0  0  0  0  0
   12.3782    5.4231   20.7777 C   0  0  0  0  0  0  0  0  0  0  0  0
    7.7365    4.6508   21.6987 C   0  0  0  0  0  0  0  0  0  0  0  0
   13.0186   11.0102   18.0020 C   0  0  0  0  0  0  0  0  0  0  0  0
    8.6628    5.7088   21.8871 N   0  0  0  0  0  0  0  0  0  0  0  0
    5.6516    3.5258   21.9140 C   0  0  0  0  0  0  0  0  0  0  0  0
   11.5863    9.6815   19.4539 C   0  0  0  0  0  0  0  0  0  0  0  0
   12.9648    4.1543   20.9205 C   0  0  0  0  0  0  0  0  0  0  0  0
    8.2089    3.6265   20.8929 C   0  0  0  0  0  0  0  0  0  0  0  0
    7.3827    2.5724   20.5432 C   0  0  0  0  0  0  0  0  0  0  0  0
   11.1529    7.2750   20.8025 C   0  0  0  0  0  0  0  0  0  0  0  0
   10.2573    8.3215   20.9827 C   0  0  0  0  0  0  0  0  0  0  0  0
   11.1606    5.9378   21.2366 N   0  0  0  0  0  0  0  0  0  0  0  0
    9.8932   11.6736   19.0677 O   0  0  0  0  0  0  0  0  0  0  0  0
    6.4470    4.5850   22.2321 C   0  0  0  0  0  0  0  0  0  0  0  0
    8.4619    6.9895   22.2968 C   0  0  0  0  0  0  0  0  0  0  0  0
   12.2747    7.5102   20.0420 C   0  0  0  0  0  0  0  0  0  0  0  0
   14.2544    6.2142   19.4191 C   0  0  0  0  0  0  0  0  0  0  0  0
   13.0695    6.3705   20.0375 N   0  0  0  0  0  0  0  0  0  0  0  0
    9.1913    8.0876   21.8361 N   0  0  0  0  0  0  0  0  0  0  0  0
   10.4739    9.4813   20.2889 C   0  0  0  0  0  0  0  0  0  0  0  0
    7.5551    7.1270   23.1200 O   0  0  0  0  0  0  0  0  0  0  0  0
  1 11  4  0
  1 21  4  0
  2  4  1  0
  2  8  1  0
  2 11  1  0
  3 10  4  0
  3 14  4  0
  4  5  1  0
  4 18  2  0
  6 12  1  0
  6 17  4  0
  6 23  4  0
  7  9  1  0
  7 13  4  0
  7 19  4  0
  9 20  1  0
 10 19  4  0
 11 25  4  0
 13 14  4  0
 15 16  4  0
 15 17  4  0
 15 21  4  0
 16 24  1  0
 16 25  4  0
 20 24  1  0
 20 26  2  0
 21 23  4  0
 22 23  1  0
M  END
$$$$

 Created by Python create_sdf_string function

 26 28  0  0  0  0  0  0  0  0999 V2000
   12.4616    8.6700   19.4180 N   0  0  0  0  0  0  0  0  0  0  0  0
   11.8329   10.8148   18.6769 N   0  0  0  0  0  0  0  0  0  0  0  0
    6.1021    2.5564   21.0678 C   0  0  0  0  0  0  0  0  0  0  0  0
   10.9097   11.8051   18.4804 C   0  0  0  0  0  0  0  0  0  0  0  0
   11.2280   12.9135   17.5669 C   0  0  0  0  0  0  0  0  0  0  0  0
   12.3782    5.4231   20.7777 C   0  0  0  0  0  0  0  0  0  0  0  0
    7.7365    4.6508   21.6987 C   0  0  0  0  0  0  0  0  0  0  0  0
   13.0186   11.0102   18.0020 C   0  0  0  0  0  0  0  0  0  0  0  0
    8.6628    5.7088   21.8871 N   0  0  0  0  0  0  0  0  0  0  0  0
    5.6516    3.5258   21.9140 C   0  0  0  0  0  0  0  0  0  0  0  0
   11.5863    9.6815   19.4539 C   0  0  0  0  0  0  0  0  0  0  0  0
   12.9648    4.1543   20.9205 C   0  0  0  0  0  0  0  0  0  0  0  0
    8.2089    3.6265   20.8929 C   0  0  0  0  0  0  0  0  0  0  0  0
    7.3827    2.5724   20.5432 C   0  0  0  0  0  0  0  0  0  0  0  0
   11.1529    7.2750   20.8025 C   0  0  0  0  0  0  0  0  0  0  0  0
   10.2573    8.3215   20.9827 C   0  0  0  0  0  0  0  0  0  0  0  0
   11.1606    5.9378   21.2366 N   0  0  0  0  0  0  0  0  0  0  0  0
    9.8932   11.6736   19.0677 O   0  0  0  0  0  0  0  0  0  0  0  0
    6.4470    4.5850   22.2321 C   0  0  0  0  0  0  0  0  0  0  0  0
    8.4619    6.9895   22.2968 C   0  0  0  0  0  0  0  0  0  0  0  0
   12.2747    7.5102   20.0420 C   0  0  0  0  0  0  0  0  0  0  0  0
   14.2544    6.2142   19.4191 C   0  0  0  0  0  0  0  0  0  0  0  0
   13.0695    6.3705   20.0375 N   0  0  0  0  0  0  0  0  0  0  0  0
    9.1913    8.0876   21.8361 N   0  0  0  0  0  0  0  0  0  0  0  0
   10.4739    9.4813   20.2889 C   0  0  0  0  0  0  0  0  0  0  0  0
    7.5551    7.1270   23.1200 O   0  0  0  0  0  0  0  0  0  0  0  0
  1 11  4  0
  1 21  4  0
  2  4  1  0
  2  8  1  0
  2 11  1  0
  3 10  4  0
  3 14  4  0
  4  5  1  0
  4 18  2  0
  6 12  1  0
  6 17  4  0
  6 23  4  0
  7  9  1  0
  7 13  4  0
  7 19  4  0
  9 20  1  0
 10 19  4  0
 11 25  4  0
 13 14  4  0
 15 16  4  0
 15 17  4  0
 15 21  4  0
 16 24  1  0
 16 25  4  0
 20 24  1  0
 20 26  2  0
 21 23  4  0
 22 23  1  0
M  END
$$$$

 Created by Python create_sdf_string function

 26 28  0  0  0  0  0  0  0  0999 V2000
   12.4616    8.6700   19.4180 N   0  0  0  0  0  0  0  0  0  0  0  0
   11.8329   10.8148   18.6769 N   0  0  0  0  0  0  0  0  0  0  0  0
    6.1021    2.5564   21.0678 C   0  0  0  0  0  0  0  0  0  0  0  0
   10.9097   11.8051   18.4804 C   0  0  0  0  0  0  0  0  0  0  0  0
   11.2280   12.9135   17.5669 C   0  0  0  0  0  0  0  0  0  0  0  0
   12.3782    5.4231   20.7777 C   0  0  0  0  0  0  0  0  0  0  0  0
    7.7365    4.6508   21.6987 C   0  0  0  0  0  0  0  0  0  0  0  0
   13.0186   11.0102   18.0020 C   0  0  0  0  0  0  0  0  0  0  0  0
    8.6628    5.7088   21.8871 N   0  0  0  0  0  0  0  0  0  0  0  0
    5.6516    3.5258   21.9140 C   0  0  0  0  0  0  0  0  0  0  0  0
   11.5863    9.6815   19.4539 C   0  0  0  0  0  0  0  0  0  0  0  0
   12.9648    4.1543   20.9205 C   0  0  0  0  0  0  0  0  0  0  0  0
    8.2089    3.6265   20.8929 C   0  0  0  0  0  0  0  0  0  0  0  0
    7.3827    2.5724   20.5432 C   0  0  0  0  0  0  0  0  0  0  0  0
   11.1529    7.2750   20.8025 C   0  0  0  0  0  0  0  0  0  0  0  0
   10.2573    8.3215   20.9827 C   0  0  0  0  0  0  0  0  0  0  0  0
   11.1606    5.9378   21.2366 N   0  0  0  0  0  0  0  0  0  0  0  0
    9.8932   11.6736   19.0677 O   0  0  0  0  0  0  0  0  0  0  0  0
    6.4470    4.5850   22.2321 C   0  0  0  0  0  0  0  0  0  0  0  0
    8.4619    6.9895   22.2968 C   0  0  0  0  0  0  0  0  0  0  0  0
   12.2747    7.5102   20.0420 C   0  0  0  0  0  0  0  0  0  0  0  0
   14.2544    6.2142   19.4191 C   0  0  0  0  0  0  0  0  0  0  0  0
   13.0695    6.3705   20.0375 N   0  0  0  0  0  0  0  0  0  0  0  0
    9.1913    8.0876   21.8361 N   0  0  0  0  0  0  0  0  0  0  0  0
   10.4739    9.4813   20.2889 C   0  0  0  0  0  0  0  0  0  0  0  0
    7.5551    7.1270   23.1200 O   0  0  0  0  0  0  0  0  0  0  0  0
  1 11  4  0
  1 21  4  0
  2  4  1  0
  2  8  1  0
  2 11  1  0
  3 10  4  0
  3 14  4  0
  4  5  1  0
  4 18  2  0
  6 12  1  0
  6 17  4  0
  6 23  4  0
  7  9  1  0
  7 13  4  0
  7 19  4  0
  9 20  1  0
 10 19  4  0
 11 25  4  0
 13 14  4  0
 15 16  4  0
 15 17  4  0
 15 21  4  0
 16 24  1  0
 16 25  4  0
 20 24  1  0
 20 26  2  0
 21 23  4  0
 22 23  1  0
M  END
$$$$

 Created by Python create_sdf_string function

 26 28  0  0  0  0  0  0  0  0999 V2000
   12.4616    8.6700   19.4180 N   0  0  0  0  0  0  0  0  0  0  0  0
   11.8329   10.8148   18.6769 N   0  0  0  0  0  0  0  0  0  0  0  0
    6.1021    2.5564   21.0678 C   0  0  0  0  0  0  0  0  0  0  0  0
   10.9097   11.8051   18.4804 C   0  0  0  0  0  0  0  0  0  0  0  0
   11.2280   12.9135   17.5669 C   0  0  0  0  0  0  0  0  0  0  0  0
   12.3782    5.4231   20.7777 C   0  0  0  0  0  0  0  0  0  0  0  0
    7.7365    4.6508   21.6987 C   0  0  0  0  0  0  0  0  0  0  0  0
   13.0186   11.0102   18.0020 C   0  0  0  0  0  0  0  0  0  0  0  0
    8.6628    5.7088   21.8871 N   0  0  0  0  0  0  0  0  0  0  0  0
    5.6516    3.5258   21.9140 C   0  0  0  0  0  0  0  0  0  0  0  0
   11.5863    9.6815   19.4539 C   0  0  0  0  0  0  0  0  0  0  0  0
   12.9648    4.1543   20.9205 C   0  0  0  0  0  0  0  0  0  0  0  0
    8.2089    3.6265   20.8929 C   0  0  0  0  0  0  0  0  0  0  0  0
    7.3827    2.5724   20.5432 C   0  0  0  0  0  0  0  0  0  0  0  0
   11.1529    7.2750   20.8025 C   0  0  0  0  0  0  0  0  0  0  0  0
   10.2573    8.3215   20.9827 C   0  0  0  0  0  0  0  0  0  0  0  0
   11.1606    5.9378   21.2366 N   0  0  0  0  0  0  0  0  0  0  0  0
    9.8932   11.6736   19.0677 O   0  0  0  0  0  0  0  0  0  0  0  0
    6.4470    4.5850   22.2321 C   0  0  0  0  0  0  0  0  0  0  0  0
    8.4619    6.9895   22.2968 C   0  0  0  0  0  0  0  0  0  0  0  0
   12.2747    7.5102   20.0420 C   0  0  0  0  0  0  0  0  0  0  0  0
   14.2544    6.2142   19.4191 C   0  0  0  0  0  0  0  0  0  0  0  0
   13.0695    6.3705   20.0375 N   0  0  0  0  0  0  0  0  0  0  0  0
    9.1913    8.0876   21.8361 N   0  0  0  0  0  0  0  0  0  0  0  0
   10.4739    9.4813   20.2889 C   0  0  0  0  0  0  0  0  0  0  0  0
    7.5551    7.1270   23.1200 O   0  0  0  0  0  0  0  0  0  0  0  0
  1 11  4  0
  1 21  4  0
  2  4  1  0
  2  8  1  0
  2 11  1  0
  3 10  4  0
  3 14  4  0
  4  5  1  0
  4 18  2  0
  6 12  1  0
  6 17  4  0
  6 23  4  0
  7  9  1  0
  7 13  4  0
  7 19  4  0
  9 20  1  0
 10 19  4  0
 11 25  4  0
 13 14  4  0
 15 16  4  0
 15 17  4  0
 15 21  4  0
 16 24  1  0
 16 25  4  0
 20 24  1  0
 20 26  2  0
 21 23  4  0
 22 23  1  0
M  END
$$$$

 Created by Python create_sdf_string function

 26 28  0  0  0  0  0  0  0  0999 V2000
   12.4616    8.6700   19.4180 N   0  0  0  0  0  0  0  0  0  0  0  0
   11.8329   10.8148   18.6769 N   0  0  0  0  0  0  0  0  0  0  0  0
    6.1021    2.5564   21.0678 C   0  0  0  0  0  0  0  0  0  0  0  0
   10.9097   11.8051   18.4804 C   0  0  0  0  0  0  0  0  0  0  0  0
   11.2280   12.9135   17.5669 C   0  0  0  0  0  0  0  0  0  0  0  0
   12.3782    5.4231   20.7777 C   0  0  0  0  0  0  0  0  0  0  0  0
    7.7365    4.6508   21.6987 C   0  0  0  0  0  0  0  0  0  0  0  0
   13.0186   11.0102   18.0020 C   0  0  0  0  0  0  0  0  0  0  0  0
    8.6628    5.7088   21.8871 N   0  0  0  0  0  0  0  0  0  0  0  0
    5.6516    3.5258   21.9140 C   0  0  0  0  0  0  0  0  0  0  0  0
   11.5863    9.6815   19.4539 C   0  0  0  0  0  0  0  0  0  0  0  0
   12.9648    4.1543   20.9205 C   0  0  0  0  0  0  0  0  0  0  0  0
    8.2089    3.6265   20.8929 C   0  0  0  0  0  0  0  0  0  0  0  0
    7.3827    2.5724   20.5432 C   0  0  0  0  0  0  0  0  0  0  0  0
   11.1529    7.2750   20.8025 C   0  0  0  0  0  0  0  0  0  0  0  0
   10.2573    8.3215   20.9827 C   0  0  0  0  0  0  0  0  0  0  0  0
   11.1606    5.9378   21.2366 N   0  0  0  0  0  0  0  0  0  0  0  0
    9.8932   11.6736   19.0677 O   0  0  0  0  0  0  0  0  0  0  0  0
    6.4470    4.5850   22.2321 C   0  0  0  0  0  0  0  0  0  0  0  0
    8.4619    6.9895   22.2968 C   0  0  0  0  0  0  0  0  0  0  0  0
   12.2747    7.5102   20.0420 C   0  0  0  0  0  0  0  0  0  0  0  0
   14.2544    6.2142   19.4191 C   0  0  0  0  0  0  0  0  0  0  0  0
   13.0695    6.3705   20.0375 N   0  0  0  0  0  0  0  0  0  0  0  0
    9.1913    8.0876   21.8361 N   0  0  0  0  0  0  0  0  0  0  0  0
   10.4739    9.4813   20.2889 C   0  0  0  0  0  0  0  0  0  0  0  0
    7.5551    7.1270   23.1200 O   0  0  0  0  0  0  0  0  0  0  0  0
  1 11  4  0
  1 21  4  0
  2  4  1  0
  2  8  1  0
  2 11  1  0
  3 10  4  0
  3 14  4  0
  4  5  1  0
  4 18  2  0
  6 12  1  0
  6 17  4  0
  6 23  4  0
  7  9  1  0
  7 13  4  0
  7 19  4  0
  9 20  1  0
 10 19  4  0
 11 25  4  0
 13 14  4  0
 15 16  4  0
 15 17  4  0
 15 21  4  0
 16 24  1  0
 16 25  4  0
 20 24  1  0
 20 26  2  0
 21 23  4  0
 22 23  1  0
M  END
$$$$

 Created by Python create_sdf_string function

 26 28  0  0  0  0  0  0  0  0999 V2000
   12.4616    8.6700   19.4180 N   0  0  0  0  0  0  0  0  0  0  0  0
   11.8329   10.8148   18.6769 N   0  0  0  0  0  0  0  0  0  0  0  0
    6.1021    2.5564   21.0678 C   0  0  0  0  0  0  0  0  0  0  0  0
   10.9097   11.8051   18.4804 C   0  0  0  0  0  0  0  0  0  0  0  0
   11.2280   12.9135   17.5669 C   0  0  0  0  0  0  0  0  0  0  0  0
   12.3782    5.4231   20.7777 C   0  0  0  0  0  0  0  0  0  0  0  0
    7.7365    4.6508   21.6987 C   0  0  0  0  0  0  0  0  0  0  0  0
   13.0186   11.0102   18.0020 C   0  0  0  0  0  0  0  0  0  0  0  0
    8.6628    5.7088   21.8871 N   0  0  0  0  0  0  0  0  0  0  0  0
    5.6516    3.5258   21.9140 C   0  0  0  0  0  0  0  0  0  0  0  0
   11.5863    9.6815   19.4539 C   0  0  0  0  0  0  0  0  0  0  0  0
   12.9648    4.1543   20.9205 C   0  0  0  0  0  0  0  0  0  0  0  0
    8.2089    3.6265   20.8929 C   0  0  0  0  0  0  0  0  0  0  0  0
    7.3827    2.5724   20.5432 C   0  0  0  0  0  0  0  0  0  0  0  0
   11.1529    7.2750   20.8025 C   0  0  0  0  0  0  0  0  0  0  0  0
   10.2573    8.3215   20.9827 C   0  0  0  0  0  0  0  0  0  0  0  0
   11.1606    5.9378   21.2366 N   0  0  0  0  0  0  0  0  0  0  0  0
    9.8932   11.6736   19.0677 O   0  0  0  0  0  0  0  0  0  0  0  0
    6.4470    4.5850   22.2321 C   0  0  0  0  0  0  0  0  0  0  0  0
    8.4619    6.9895   22.2968 C   0  0  0  0  0  0  0  0  0  0  0  0
   12.2747    7.5102   20.0420 C   0  0  0  0  0  0  0  0  0  0  0  0
   14.2544    6.2142   19.4191 C   0  0  0  0  0  0  0  0  0  0  0  0
   13.0695    6.3705   20.0375 N   0  0  0  0  0  0  0  0  0  0  0  0
    9.1913    8.0876   21.8361 N   0  0  0  0  0  0  0  0  0  0  0  0
   10.4739    9.4813   20.2889 C   0  0  0  0  0  0  0  0  0  0  0  0
    7.5551    7.1270   23.1200 O   0  0  0  0  0  0  0  0  0  0  0  0
  1 11  4  0
  1 21  4  0
  2  4  1  0
  2  8  1  0
  2 11  1  0
  3 10  4  0
  3 14  4  0
  4  5  1  0
  4 18  2  0
  6 12  1  0
  6 17  4  0
  6 23  4  0
  7  9  1  0
  7 13  4  0
  7 19  4  0
  9 20  1  0
 10 19  4  0
 11 25  4  0
 13 14  4  0
 15 16  4  0
 15 17  4  0
 15 21  4  0
 16 24  1  0
 16 25  4  0
 20 24  1  0
 20 26  2  0
 21 23  4  0
 22 23  1  0
M  END
$$$$

 Created by Python create_sdf_string function

 26 28  0  0  0  0  0  0  0  0999 V2000
   12.4616    8.6700   19.4180 N   0  0  0  0  0  0  0  0  0  0  0  0
   11.8329   10.8148   18.6769 N   0  0  0  0  0  0  0  0  0  0  0  0
    6.1021    2.5564   21.0678 C   0  0  0  0  0  0  0  0  0  0  0  0
   10.9097   11.8051   18.4804 C   0  0  0  0  0  0  0  0  0  0  0  0
   11.2280   12.9135   17.5669 C   0  0  0  0  0  0  0  0  0  0  0  0
   12.3782    5.4231   20.7777 C   0  0  0  0  0  0  0  0  0  0  0  0
    7.7365    4.6508   21.6987 C   0  0  0  0  0  0  0  0  0  0  0  0
   13.0186   11.0102   18.0020 C   0  0  0  0  0  0  0  0  0  0  0  0
    8.6628    5.7088   21.8871 N   0  0  0  0  0  0  0  0  0  0  0  0
    5.6516    3.5258   21.9140 C   0  0  0  0  0  0  0  0  0  0  0  0
   11.5863    9.6815   19.4539 C   0  0  0  0  0  0  0  0  0  0  0  0
   12.9648    4.1543   20.9205 C   0  0  0  0  0  0  0  0  0  0  0  0
    8.2089    3.6265   20.8929 C   0  0  0  0  0  0  0  0  0  0  0  0
    7.3827    2.5724   20.5432 C   0  0  0  0  0  0  0  0  0  0  0  0
   11.1529    7.2750   20.8025 C   0  0  0  0  0  0  0  0  0  0  0  0
   10.2573    8.3215   20.9827 C   0  0  0  0  0  0  0  0  0  0  0  0
   11.1606    5.9378   21.2366 N   0  0  0  0  0  0  0  0  0  0  0  0
    9.8932   11.6736   19.0677 O   0  0  0  0  0  0  0  0  0  0  0  0
    6.4470    4.5850   22.2321 C   0  0  0  0  0  0  0  0  0  0  0  0
    8.4619    6.9895   22.2968 C   0  0  0  0  0  0  0  0  0  0  0  0
   12.2747    7.5102   20.0420 C   0  0  0  0  0  0  0  0  0  0  0  0
   14.2544    6.2142   19.4191 C   0  0  0  0  0  0  0  0  0  0  0  0
   13.0695    6.3705   20.0375 N   0  0  0  0  0  0  0  0  0  0  0  0
    9.1913    8.0876   21.8361 N   0  0  0  0  0  0  0  0  0  0  0  0
   10.4739    9.4813   20.2889 C   0  0  0  0  0  0  0  0  0  0  0  0
    7.5551    7.1270   23.1200 O   0  0  0  0  0  0  0  0  0  0  0  0
  1 11  4  0
  1 21  4  0
  2  4  1  0
  2  8  1  0
  2 11  1  0
  3 10  4  0
  3 14  4  0
  4  5  1  0
  4 18  2  0
  6 12  1  0
  6 17  4  0
  6 23  4  0
  7  9  1  0
  7 13  4  0
  7 19  4  0
  9 20  1  0
 10 19  4  0
 11 25  4  0
 13 14  4  0
 15 16  4  0
 15 17  4  0
 15 21  4  0
 16 24  1  0
 16 25  4  0
 20 24  1  0
 20 26  2  0
 21 23  4  0
 22 23  1  0
M  END
$$$$

 Created by Python create_sdf_string function

 26 28  0  0  0  0  0  0  0  0999 V2000
   12.4616    8.6700   19.4180 N   0  0  0  0  0  0  0  0  0  0  0  0
   11.8329   10.8148   18.6769 N   0  0  0  0  0  0  0  0  0  0  0  0
    6.1021    2.5564   21.0678 C   0  0  0  0  0  0  0  0  0  0  0  0
   10.9097   11.8051   18.4804 C   0  0  0  0  0  0  0  0  0  0  0  0
   11.2280   12.9135   17.5669 C   0  0  0  0  0  0  0  0  0  0  0  0
   12.3782    5.4231   20.7777 C   0  0  0  0  0  0  0  0  0  0  0  0
    7.7365    4.6508   21.6987 C   0  0  0  0  0  0  0  0  0  0  0  0
   13.0186   11.0102   18.0020 C   0  0  0  0  0  0  0  0  0  0  0  0
    8.6628    5.7088   21.8871 N   0  0  0  0  0  0  0  0  0  0  0  0
    5.6516    3.5258   21.9140 C   0  0  0  0  0  0  0  0  0  0  0  0
   11.5863    9.6815   19.4539 C   0  0  0  0  0  0  0  0  0  0  0  0
   12.9648    4.1543   20.9205 C   0  0  0  0  0  0  0  0  0  0  0  0
    8.2089    3.6265   20.8929 C   0  0  0  0  0  0  0  0  0  0  0  0
    7.3827    2.5724   20.5432 C   0  0  0  0  0  0  0  0  0  0  0  0
   11.1529    7.2750   20.8025 C   0  0  0  0  0  0  0  0  0  0  0  0
   10.2573    8.3215   20.9827 C   0  0  0  0  0  0  0  0  0  0  0  0
   11.1606    5.9378   21.2366 N   0  0  0  0  0  0  0  0  0  0  0  0
    9.8932   11.6736   19.0677 O   0  0  0  0  0  0  0  0  0  0  0  0
    6.4470    4.5850   22.2321 C   0  0  0  0  0  0  0  0  0  0  0  0
    8.4619    6.9895   22.2968 C   0  0  0  0  0  0  0  0  0  0  0  0
   12.2747    7.5102   20.0420 C   0  0  0  0  0  0  0  0  0  0  0  0
   14.2544    6.2142   19.4191 C   0  0  0  0  0  0  0  0  0  0  0  0
   13.0695    6.3705   20.0375 N   0  0  0  0  0  0  0  0  0  0  0  0
    9.1913    8.0876   21.8361 N   0  0  0  0  0  0  0  0  0  0  0  0
   10.4739    9.4813   20.2889 C   0  0  0  0  0  0  0  0  0  0  0  0
    7.5551    7.1270   23.1200 O   0  0  0  0  0  0  0  0  0  0  0  0
  1 11  4  0
  1 21  4  0
  2  4  1  0
  2  8  1  0
  2 11  1  0
  3 10  4  0
  3 14  4  0
  4  5  1  0
  4 18  2  0
  6 12  1  0
  6 17  4  0
  6 23  4  0
  7  9  1  0
  7 13  4  0
  7 19  4  0
  9 20  1  0
 10 19  4  0
 11 25  4  0
 13 14  4  0
 15 16  4  0
 15 17  4  0
 15 21  4  0
 16 24  1  0
 16 25  4  0
 20 24  1  0
 20 26  2  0
 21 23  4  0
 22 23  1  0
M  END
$$$$

 Created by Python create_sdf_string function

 26 28  0  0  0  0  0  0  0  0999 V2000
   12.4616    8.6700   19.4180 N   0  0  0  0  0  0  0  0  0  0  0  0
   11.8329   10.8148   18.6769 N   0  0  0  0  0  0  0  0  0  0  0  0
    6.1021    2.5564   21.0678 C   0  0  0  0  0  0  0  0  0  0  0  0
   10.9097   11.8051   18.4804 C   0  0  0  0  0  0  0  0  0  0  0  0
   11.2280   12.9135   17.5669 C   0  0  0  0  0  0  0  0  0  0  0  0
   12.3782    5.4231   20.7777 C   0  0  0  0  0  0  0  0  0  0  0  0
    7.7365    4.6508   21.6987 C   0  0  0  0  0  0  0  0  0  0  0  0
   13.0186   11.0102   18.0020 C   0  0  0  0  0  0  0  0  0  0  0  0
    8.6628    5.7088   21.8871 N   0  0  0  0  0  0  0  0  0  0  0  0
    5.6516    3.5258   21.9140 C   0  0  0  0  0  0  0  0  0  0  0  0
   11.5863    9.6815   19.4539 C   0  0  0  0  0  0  0  0  0  0  0  0
   12.9648    4.1543   20.9205 C   0  0  0  0  0  0  0  0  0  0  0  0
    8.2089    3.6265   20.8929 C   0  0  0  0  0  0  0  0  0  0  0  0
    7.3827    2.5724   20.5432 C   0  0  0  0  0  0  0  0  0  0  0  0
   11.1529    7.2750   20.8025 C   0  0  0  0  0  0  0  0  0  0  0  0
   10.2573    8.3215   20.9827 C   0  0  0  0  0  0  0  0  0  0  0  0
   11.1606    5.9378   21.2366 N   0  0  0  0  0  0  0  0  0  0  0  0
    9.8932   11.6736   19.0677 O   0  0  0  0  0  0  0  0  0  0  0  0
    6.4470    4.5850   22.2321 C   0  0  0  0  0  0  0  0  0  0  0  0
    8.4619    6.9895   22.2968 C   0  0  0  0  0  0  0  0  0  0  0  0
   12.2747    7.5102   20.0420 C   0  0  0  0  0  0  0  0  0  0  0  0
   14.2544    6.2142   19.4191 C   0  0  0  0  0  0  0  0  0  0  0  0
   13.0695    6.3705   20.0375 N   0  0  0  0  0  0  0  0  0  0  0  0
    9.1913    8.0876   21.8361 N   0  0  0  0  0  0  0  0  0  0  0  0
   10.4739    9.4813   20.2889 C   0  0  0  0  0  0  0  0  0  0  0  0
    7.5551    7.1270   23.1200 O   0  0  0  0  0  0  0  0  0  0  0  0
  1 11  4  0
  1 21  4  0
  2  4  1  0
  2  8  1  0
  2 11  1  0
  3 10  4  0
  3 14  4  0
  4  5  1  0
  4 18  2  0
  6 12  1  0
  6 17  4  0
  6 23  4  0
  7  9  1  0
  7 13  4  0
  7 19  4  0
  9 20  1  0
 10 19  4  0
 11 25  4  0
 13 14  4  0
 15 16  4  0
 15 17  4  0
 15 21  4  0
 16 24  1  0
 16 25  4  0
 20 24  1  0
 20 26  2  0
 21 23  4  0
 22 23  1  0
M  END
$$$$

 Created by Python create_sdf_string function

 26 28  0  0  0  0  0  0  0  0999 V2000
   12.4616    8.6700   19.4180 N   0  0  0  0  0  0  0  0  0  0  0  0
   11.8329   10.8148   18.6769 N   0  0  0  0  0  0  0  0  0  0  0  0
    6.1021    2.5564   21.0678 C   0  0  0  0  0  0  0  0  0  0  0  0
   10.9097   11.8051   18.4804 C   0  0  0  0  0  0  0  0  0  0  0  0
   11.2280   12.9135   17.5669 C   0  0  0  0  0  0  0  0  0  0  0  0
   12.3782    5.4231   20.7777 C   0  0  0  0  0  0  0  0  0  0  0  0
    7.7365    4.6508   21.6987 C   0  0  0  0  0  0  0  0  0  0  0  0
   13.0186   11.0102   18.0020 C   0  0  0  0  0  0  0  0  0  0  0  0
    8.6628    5.7088   21.8871 N   0  0  0  0  0  0  0  0  0  0  0  0
    5.6516    3.5258   21.9140 C   0  0  0  0  0  0  0  0  0  0  0  0
   11.5863    9.6815   19.4539 C   0  0  0  0  0  0  0  0  0  0  0  0
   12.9648    4.1543   20.9205 C   0  0  0  0  0  0  0  0  0  0  0  0
    8.2089    3.6265   20.8929 C   0  0  0  0  0  0  0  0  0  0  0  0
    7.3827    2.5724   20.5432 C   0  0  0  0  0  0  0  0  0  0  0  0
   11.1529    7.2750   20.8025 C   0  0  0  0  0  0  0  0  0  0  0  0
   10.2573    8.3215   20.9827 C   0  0  0  0  0  0  0  0  0  0  0  0
   11.1606    5.9378   21.2366 N   0  0  0  0  0  0  0  0  0  0  0  0
    9.8932   11.6736   19.0677 O   0  0  0  0  0  0  0  0  0  0  0  0
    6.4470    4.5850   22.2321 C   0  0  0  0  0  0  0  0  0  0  0  0
    8.4619    6.9895   22.2968 C   0  0  0  0  0  0  0  0  0  0  0  0
   12.2747    7.5102   20.0420 C   0  0  0  0  0  0  0  0  0  0  0  0
   14.2544    6.2142   19.4191 C   0  0  0  0  0  0  0  0  0  0  0  0
   13.0695    6.3705   20.0375 N   0  0  0  0  0  0  0  0  0  0  0  0
    9.1913    8.0876   21.8361 N   0  0  0  0  0  0  0  0  0  0  0  0
   10.4739    9.4813   20.2889 C   0  0  0  0  0  0  0  0  0  0  0  0
    7.5551    7.1270   23.1200 O   0  0  0  0  0  0  0  0  0  0  0  0
  1 11  4  0
  1 21  4  0
  2  4  1  0
  2  8  1  0
  2 11  1  0
  3 10  4  0
  3 14  4  0
  4  5  1  0
  4 18  2  0
  6 12  1  0
  6 17  4  0
  6 23  4  0
  7  9  1  0
  7 13  4  0
  7 19  4  0
  9 20  1  0
 10 19  4  0
 11 25  4  0
 13 14  4  0
 15 16  4  0
 15 17  4  0
 15 21  4  0
 16 24  1  0
 16 25  4  0
 20 24  1  0
 20 26  2  0
 21 23  4  0
 22 23  1  0
M  END
$$$$

 Created by Python create_sdf_string function

 26 28  0  0  0  0  0  0  0  0999 V2000
   12.4616    8.6700   19.4180 N   0  0  0  0  0  0  0  0  0  0  0  0
   11.8329   10.8148   18.6769 N   0  0  0  0  0  0  0  0  0  0  0  0
    6.1021    2.5564   21.0678 C   0  0  0  0  0  0  0  0  0  0  0  0
   10.9097   11.8051   18.4804 C   0  0  0  0  0  0  0  0  0  0  0  0
   11.2280   12.9135   17.5669 C   0  0  0  0  0  0  0  0  0  0  0  0
   12.3782    5.4231   20.7777 C   0  0  0  0  0  0  0  0  0  0  0  0
    7.7365    4.6508   21.6987 C   0  0  0  0  0  0  0  0  0  0  0  0
   13.0186   11.0102   18.0020 C   0  0  0  0  0  0  0  0  0  0  0  0
    8.6628    5.7088   21.8871 N   0  0  0  0  0  0  0  0  0  0  0  0
    5.6516    3.5258   21.9140 C   0  0  0  0  0  0  0  0  0  0  0  0
   11.5863    9.6815   19.4539 C   0  0  0  0  0  0  0  0  0  0  0  0
   12.9648    4.1543   20.9205 C   0  0  0  0  0  0  0  0  0  0  0  0
    8.2089    3.6265   20.8929 C   0  0  0  0  0  0  0  0  0  0  0  0
    7.3827    2.5724   20.5432 C   0  0  0  0  0  0  0  0  0  0  0  0
   11.1529    7.2750   20.8025 C   0  0  0  0  0  0  0  0  0  0  0  0
   10.2573    8.3215   20.9827 C   0  0  0  0  0  0  0  0  0  0  0  0
   11.1606    5.9378   21.2366 N   0  0  0  0  0  0  0  0  0  0  0  0
    9.8932   11.6736   19.0677 O   0  0  0  0  0  0  0  0  0  0  0  0
    6.4470    4.5850   22.2321 C   0  0  0  0  0  0  0  0  0  0  0  0
    8.4619    6.9895   22.2968 C   0  0  0  0  0  0  0  0  0  0  0  0
   12.2747    7.5102   20.0420 C   0  0  0  0  0  0  0  0  0  0  0  0
   14.2544    6.2142   19.4191 C   0  0  0  0  0  0  0  0  0  0  0  0
   13.0695    6.3705   20.0375 N   0  0  0  0  0  0  0  0  0  0  0  0
    9.1913    8.0876   21.8361 N   0  0  0  0  0  0  0  0  0  0  0  0
   10.4739    9.4813   20.2889 C   0  0  0  0  0  0  0  0  0  0  0  0
    7.5551    7.1270   23.1200 O   0  0  0  0  0  0  0  0  0  0  0  0
  1 11  4  0
  1 21  4  0
  2  4  1  0
  2  8  1  0
  2 11  1  0
  3 10  4  0
  3 14  4  0
  4  5  1  0
  4 18  2  0
  6 12  1  0
  6 17  4  0
  6 23  4  0
  7  9  1  0
  7 13  4  0
  7 19  4  0
  9 20  1  0
 10 19  4  0
 11 25  4  0
 13 14  4  0
 15 16  4  0
 15 17  4  0
 15 21  4  0
 16 24  1  0
 16 25  4  0
 20 24  1  0
 20 26  2  0
 21 23  4  0
 22 23  1  0
M  END
$$$$

 Created by Python create_sdf_string function

 26 28  0  0  0  0  0  0  0  0999 V2000
   12.4616    8.6700   19.4180 N   0  0  0  0  0  0  0  0  0  0  0  0
   11.8329   10.8148   18.6769 N   0  0  0  0  0  0  0  0  0  0  0  0
    6.1021    2.5564   21.0678 C   0  0  0  0  0  0  0  0  0  0  0  0
   10.9097   11.8051   18.4804 C   0  0  0  0  0  0  0  0  0  0  0  0
   11.2280   12.9135   17.5669 C   0  0  0  0  0  0  0  0  0  0  0  0
   12.3782    5.4231   20.7777 C   0  0  0  0  0  0  0  0  0  0  0  0
    7.7365    4.6508   21.6987 C   0  0  0  0  0  0  0  0  0  0  0  0
   13.0186   11.0102   18.0020 C   0  0  0  0  0  0  0  0  0  0  0  0
    8.6628    5.7088   21.8871 N   0  0  0  0  0  0  0  0  0  0  0  0
    5.6516    3.5258   21.9140 C   0  0  0  0  0  0  0  0  0  0  0  0
   11.5863    9.6815   19.4539 C   0  0  0  0  0  0  0  0  0  0  0  0
   12.9648    4.1543   20.9205 C   0  0  0  0  0  0  0  0  0  0  0  0
    8.2089    3.6265   20.8929 C   0  0  0  0  0  0  0  0  0  0  0  0
    7.3827    2.5724   20.5432 C   0  0  0  0  0  0  0  0  0  0  0  0
   11.1529    7.2750   20.8025 C   0  0  0  0  0  0  0  0  0  0  0  0
   10.2573    8.3215   20.9827 C   0  0  0  0  0  0  0  0  0  0  0  0
   11.1606    5.9378   21.2366 N   0  0  0  0  0  0  0  0  0  0  0  0
    9.8932   11.6736   19.0677 O   0  0  0  0  0  0  0  0  0  0  0  0
    6.4470    4.5850   22.2321 C   0  0  0  0  0  0  0  0  0  0  0  0
    8.4619    6.9895   22.2968 C   0  0  0  0  0  0  0  0  0  0  0  0
   12.2747    7.5102   20.0420 C   0  0  0  0  0  0  0  0  0  0  0  0
   14.2544    6.2142   19.4191 C   0  0  0  0  0  0  0  0  0  0  0  0
   13.0695    6.3705   20.0375 N   0  0  0  0  0  0  0  0  0  0  0  0
    9.1913    8.0876   21.8361 N   0  0  0  0  0  0  0  0  0  0  0  0
   10.4739    9.4813   20.2889 C   0  0  0  0  0  0  0  0  0  0  0  0
    7.5551    7.1270   23.1200 O   0  0  0  0  0  0  0  0  0  0  0  0
  1 11  4  0
  1 21  4  0
  2  4  1  0
  2  8  1  0
  2 11  1  0
  3 10  4  0
  3 14  4  0
  4  5  1  0
  4 18  2  0
  6 12  1  0
  6 17  4  0
  6 23  4  0
  7  9  1  0
  7 13  4  0
  7 19  4  0
  9 20  1  0
 10 19  4  0
 11 25  4  0
 13 14  4  0
 15 16  4  0
 15 17  4  0
 15 21  4  0
 16 24  1  0
 16 25  4  0
 20 24  1  0
 20 26  2  0
 21 23  4  0
 22 23  1  0
M  END
$$$$

 Created by Python create_sdf_string function

 26 28  0  0  0  0  0  0  0  0999 V2000
   12.4616    8.6700   19.4180 N   0  0  0  0  0  0  0  0  0  0  0  0
   11.8329   10.8148   18.6769 N   0  0  0  0  0  0  0  0  0  0  0  0
    6.1021    2.5564   21.0678 C   0  0  0  0  0  0  0  0  0  0  0  0
   10.9097   11.8051   18.4804 C   0  0  0  0  0  0  0  0  0  0  0  0
   11.2280   12.9135   17.5669 C   0  0  0  0  0  0  0  0  0  0  0  0
   12.3782    5.4231   20.7777 C   0  0  0  0  0  0  0  0  0  0  0  0
    7.7365    4.6508   21.6987 C   0  0  0  0  0  0  0  0  0  0  0  0
   13.0186   11.0102   18.0020 C   0  0  0  0  0  0  0  0  0  0  0  0
    8.6628    5.7088   21.8871 N   0  0  0  0  0  0  0  0  0  0  0  0
    5.6516    3.5258   21.9140 C   0  0  0  0  0  0  0  0  0  0  0  0
   11.5863    9.6815   19.4539 C   0  0  0  0  0  0  0  0  0  0  0  0
   12.9648    4.1543   20.9205 C   0  0  0  0  0  0  0  0  0  0  0  0
    8.2089    3.6265   20.8929 C   0  0  0  0  0  0  0  0  0  0  0  0
    7.3827    2.5724   20.5432 C   0  0  0  0  0  0  0  0  0  0  0  0
   11.1529    7.2750   20.8025 C   0  0  0  0  0  0  0  0  0  0  0  0
   10.2573    8.3215   20.9827 C   0  0  0  0  0  0  0  0  0  0  0  0
   11.1606    5.9378   21.2366 N   0  0  0  0  0  0  0  0  0  0  0  0
    9.8932   11.6736   19.0677 O   0  0  0  0  0  0  0  0  0  0  0  0
    6.4470    4.5850   22.2321 C   0  0  0  0  0  0  0  0  0  0  0  0
    8.4619    6.9895   22.2968 C   0  0  0  0  0  0  0  0  0  0  0  0
   12.2747    7.5102   20.0420 C   0  0  0  0  0  0  0  0  0  0  0  0
   14.2544    6.2142   19.4191 C   0  0  0  0  0  0  0  0  0  0  0  0
   13.0695    6.3705   20.0375 N   0  0  0  0  0  0  0  0  0  0  0  0
    9.1913    8.0876   21.8361 N   0  0  0  0  0  0  0  0  0  0  0  0
   10.4739    9.4813   20.2889 C   0  0  0  0  0  0  0  0  0  0  0  0
    7.5551    7.1270   23.1200 O   0  0  0  0  0  0  0  0  0  0  0  0
  1 11  4  0
  1 21  4  0
  2  4  1  0
  2  8  1  0
  2 11  1  0
  3 10  4  0
  3 14  4  0
  4  5  1  0
  4 18  2  0
  6 12  1  0
  6 17  4  0
  6 23  4  0
  7  9  1  0
  7 13  4  0
  7 19  4  0
  9 20  1  0
 10 19  4  0
 11 25  4  0
 13 14  4  0
 15 16  4  0
 15 17  4  0
 15 21  4  0
 16 24  1  0
 16 25  4  0
 20 24  1  0
 20 26  2  0
 21 23  4  0
 22 23  1  0
M  END
$$$$

 Created by Python create_sdf_string function

 26 28  0  0  0  0  0  0  0  0999 V2000
   12.4616    8.6700   19.4180 N   0  0  0  0  0  0  0  0  0  0  0  0
   11.8329   10.8148   18.6769 N   0  0  0  0  0  0  0  0  0  0  0  0
    6.1021    2.5564   21.0678 C   0  0  0  0  0  0  0  0  0  0  0  0
   10.9097   11.8051   18.4804 C   0  0  0  0  0  0  0  0  0  0  0  0
   11.2280   12.9135   17.5669 C   0  0  0  0  0  0  0  0  0  0  0  0
   12.3782    5.4231   20.7777 C   0  0  0  0  0  0  0  0  0  0  0  0
    7.7365    4.6508   21.6987 C   0  0  0  0  0  0  0  0  0  0  0  0
   13.0186   11.0102   18.0020 C   0  0  0  0  0  0  0  0  0  0  0  0
    8.6628    5.7088   21.8871 N   0  0  0  0  0  0  0  0  0  0  0  0
    5.6516    3.5258   21.9140 C   0  0  0  0  0  0  0  0  0  0  0  0
   11.5863    9.6815   19.4539 C   0  0  0  0  0  0  0  0  0  0  0  0
   12.9648    4.1543   20.9205 C   0  0  0  0  0  0  0  0  0  0  0  0
    8.2089    3.6265   20.8929 C   0  0  0  0  0  0  0  0  0  0  0  0
    7.3827    2.5724   20.5432 C   0  0  0  0  0  0  0  0  0  0  0  0
   11.1529    7.2750   20.8025 C   0  0  0  0  0  0  0  0  0  0  0  0
   10.2573    8.3215   20.9827 C   0  0  0  0  0  0  0  0  0  0  0  0
   11.1606    5.9378   21.2366 N   0  0  0  0  0  0  0  0  0  0  0  0
    9.8932   11.6736   19.0677 O   0  0  0  0  0  0  0  0  0  0  0  0
    6.4470    4.5850   22.2321 C   0  0  0  0  0  0  0  0  0  0  0  0
    8.4619    6.9895   22.2968 C   0  0  0  0  0  0  0  0  0  0  0  0
   12.2747    7.5102   20.0420 C   0  0  0  0  0  0  0  0  0  0  0  0
   14.2544    6.2142   19.4191 C   0  0  0  0  0  0  0  0  0  0  0  0
   13.0695    6.3705   20.0375 N   0  0  0  0  0  0  0  0  0  0  0  0
    9.1913    8.0876   21.8361 N   0  0  0  0  0  0  0  0  0  0  0  0
   10.4739    9.4813   20.2889 C   0  0  0  0  0  0  0  0  0  0  0  0
    7.5551    7.1270   23.1200 O   0  0  0  0  0  0  0  0  0  0  0  0
  1 11  4  0
  1 21  4  0
  2  4  1  0
  2  8  1  0
  2 11  1  0
  3 10  4  0
  3 14  4  0
  4  5  1  0
  4 18  2  0
  6 12  1  0
  6 17  4  0
  6 23  4  0
  7  9  1  0
  7 13  4  0
  7 19  4  0
  9 20  1  0
 10 19  4  0
 11 25  4  0
 13 14  4  0
 15 16  4  0
 15 17  4  0
 15 21  4  0
 16 24  1  0
 16 25  4  0
 20 24  1  0
 20 26  2  0
 21 23  4  0
 22 23  1  0
M  END
$$$$

 Created by Python create_sdf_string function

 26 28  0  0  0  0  0  0  0  0999 V2000
   12.4616    8.6700   19.4180 N   0  0  0  0  0  0  0  0  0  0  0  0
   11.8329   10.8148   18.6769 N   0  0  0  0  0  0  0  0  0  0  0  0
    6.1021    2.5564   21.0678 C   0  0  0  0  0  0  0  0  0  0  0  0
   10.9097   11.8051   18.4804 C   0  0  0  0  0  0  0  0  0  0  0  0
   11.2280   12.9135   17.5669 C   0  0  0  0  0  0  0  0  0  0  0  0
   12.3782    5.4231   20.7777 C   0  0  0  0  0  0  0  0  0  0  0  0
    7.7365    4.6508   21.6987 C   0  0  0  0  0  0  0  0  0  0  0  0
   13.0186   11.0102   18.0020 C   0  0  0  0  0  0  0  0  0  0  0  0
    8.6628    5.7088   21.8871 N   0  0  0  0  0  0  0  0  0  0  0  0
    5.6516    3.5258   21.9140 C   0  0  0  0  0  0  0  0  0  0  0  0
   11.5863    9.6815   19.4539 C   0  0  0  0  0  0  0  0  0  0  0  0
   12.9648    4.1543   20.9205 C   0  0  0  0  0  0  0  0  0  0  0  0
    8.2089    3.6265   20.8929 C   0  0  0  0  0  0  0  0  0  0  0  0
    7.3827    2.5724   20.5432 C   0  0  0  0  0  0  0  0  0  0  0  0
   11.1529    7.2750   20.8025 C   0  0  0  0  0  0  0  0  0  0  0  0
   10.2573    8.3215   20.9827 C   0  0  0  0  0  0  0  0  0  0  0  0
   11.1606    5.9378   21.2366 N   0  0  0  0  0  0  0  0  0  0  0  0
    9.8932   11.6736   19.0677 O   0  0  0  0  0  0  0  0  0  0  0  0
    6.4470    4.5850   22.2321 C   0  0  0  0  0  0  0  0  0  0  0  0
    8.4619    6.9895   22.2968 C   0  0  0  0  0  0  0  0  0  0  0  0
   12.2747    7.5102   20.0420 C   0  0  0  0  0  0  0  0  0  0  0  0
   14.2544    6.2142   19.4191 C   0  0  0  0  0  0  0  0  0  0  0  0
   13.0695    6.3705   20.0375 N   0  0  0  0  0  0  0  0  0  0  0  0
    9.1913    8.0876   21.8361 N   0  0  0  0  0  0  0  0  0  0  0  0
   10.4739    9.4813   20.2889 C   0  0  0  0  0  0  0  0  0  0  0  0
    7.5551    7.1270   23.1200 O   0  0  0  0  0  0  0  0  0  0  0  0
  1 11  4  0
  1 21  4  0
  2  4  1  0
  2  8  1  0
  2 11  1  0
  3 10  4  0
  3 14  4  0
  4  5  1  0
  4 18  2  0
  6 12  1  0
  6 17  4  0
  6 23  4  0
  7  9  1  0
  7 13  4  0
  7 19  4  0
  9 20  1  0
 10 19  4  0
 11 25  4  0
 13 14  4  0
 15 16  4  0
 15 17  4  0
 15 21  4  0
 16 24  1  0
 16 25  4  0
 20 24  1  0
 20 26  2  0
 21 23  4  0
 22 23  1  0
M  END
$$$$

 Created by Python create_sdf_string function

 26 28  0  0  0  0  0  0  0  0999 V2000
   12.4616    8.6700   19.4180 N   0  0  0  0  0  0  0  0  0  0  0  0
   11.8329   10.8148   18.6769 N   0  0  0  0  0  0  0  0  0  0  0  0
    6.1021    2.5564   21.0678 C   0  0  0  0  0  0  0  0  0  0  0  0
   10.9097   11.8051   18.4804 C   0  0  0  0  0  0  0  0  0  0  0  0
   11.2280   12.9135   17.5669 C   0  0  0  0  0  0  0  0  0  0  0  0
   12.3782    5.4231   20.7777 C   0  0  0  0  0  0  0  0  0  0  0  0
    7.7365    4.6508   21.6987 C   0  0  0  0  0  0  0  0  0  0  0  0
   13.0186   11.0102   18.0020 C   0  0  0  0  0  0  0  0  0  0  0  0
    8.6628    5.7088   21.8871 N   0  0  0  0  0  0  0  0  0  0  0  0
    5.6516    3.5258   21.9140 C   0  0  0  0  0  0  0  0  0  0  0  0
   11.5863    9.6815   19.4539 C   0  0  0  0  0  0  0  0  0  0  0  0
   12.9648    4.1543   20.9205 C   0  0  0  0  0  0  0  0  0  0  0  0
    8.2089    3.6265   20.8929 C   0  0  0  0  0  0  0  0  0  0  0  0
    7.3827    2.5724   20.5432 C   0  0  0  0  0  0  0  0  0  0  0  0
   11.1529    7.2750   20.8025 C   0  0  0  0  0  0  0  0  0  0  0  0
   10.2573    8.3215   20.9827 C   0  0  0  0  0  0  0  0  0  0  0  0
   11.1606    5.9378   21.2366 N   0  0  0  0  0  0  0  0  0  0  0  0
    9.8932   11.6736   19.0677 O   0  0  0  0  0  0  0  0  0  0  0  0
    6.4470    4.5850   22.2321 C   0  0  0  0  0  0  0  0  0  0  0  0
    8.4619    6.9895   22.2968 C   0  0  0  0  0  0  0  0  0  0  0  0
   12.2747    7.5102   20.0420 C   0  0  0  0  0  0  0  0  0  0  0  0
   14.2544    6.2142   19.4191 C   0  0  0  0  0  0  0  0  0  0  0  0
   13.0695    6.3705   20.0375 N   0  0  0  0  0  0  0  0  0  0  0  0
    9.1913    8.0876   21.8361 N   0  0  0  0  0  0  0  0  0  0  0  0
   10.4739    9.4813   20.2889 C   0  0  0  0  0  0  0  0  0  0  0  0
    7.5551    7.1270   23.1200 O   0  0  0  0  0  0  0  0  0  0  0  0
  1 11  4  0
  1 21  4  0
  2  4  1  0
  2  8  1  0
  2 11  1  0
  3 10  4  0
  3 14  4  0
  4  5  1  0
  4 18  2  0
  6 12  1  0
  6 17  4  0
  6 23  4  0
  7  9  1  0
  7 13  4  0
  7 19  4  0
  9 20  1  0
 10 19  4  0
 11 25  4  0
 13 14  4  0
 15 16  4  0
 15 17  4  0
 15 21  4  0
 16 24  1  0
 16 25  4  0
 20 24  1  0
 20 26  2  0
 21 23  4  0
 22 23  1  0
M  END
$$$$

 Created by Python create_sdf_string function

 26 28  0  0  0  0  0  0  0  0999 V2000
   12.4616    8.6700   19.4180 N   0  0  0  0  0  0  0  0  0  0  0  0
   11.8329   10.8148   18.6769 N   0  0  0  0  0  0  0  0  0  0  0  0
    6.1021    2.5564   21.0678 C   0  0  0  0  0  0  0  0  0  0  0  0
   10.9097   11.8051   18.4804 C   0  0  0  0  0  0  0  0  0  0  0  0
   11.2280   12.9135   17.5669 C   0  0  0  0  0  0  0  0  0  0  0  0
   12.3782    5.4231   20.7777 C   0  0  0  0  0  0  0  0  0  0  0  0
    7.7365    4.6508   21.6987 C   0  0  0  0  0  0  0  0  0  0  0  0
   13.0186   11.0102   18.0020 C   0  0  0  0  0  0  0  0  0  0  0  0
    8.6628    5.7088   21.8871 N   0  0  0  0  0  0  0  0  0  0  0  0
    5.6516    3.5258   21.9140 C   0  0  0  0  0  0  0  0  0  0  0  0
   11.5863    9.6815   19.4539 C   0  0  0  0  0  0  0  0  0  0  0  0
   12.9648    4.1543   20.9205 C   0  0  0  0  0  0  0  0  0  0  0  0
    8.2089    3.6265   20.8929 C   0  0  0  0  0  0  0  0  0  0  0  0
    7.3827    2.5724   20.5432 C   0  0  0  0  0  0  0  0  0  0  0  0
   11.1529    7.2750   20.8025 C   0  0  0  0  0  0  0  0  0  0  0  0
   10.2573    8.3215   20.9827 C   0  0  0  0  0  0  0  0  0  0  0  0
   11.1606    5.9378   21.2366 N   0  0  0  0  0  0  0  0  0  0  0  0
    9.8932   11.6736   19.0677 O   0  0  0  0  0  0  0  0  0  0  0  0
    6.4470    4.5850   22.2321 C   0  0  0  0  0  0  0  0  0  0  0  0
    8.4619    6.9895   22.2968 C   0  0  0  0  0  0  0  0  0  0  0  0
   12.2747    7.5102   20.0420 C   0  0  0  0  0  0  0  0  0  0  0  0
   14.2544    6.2142   19.4191 C   0  0  0  0  0  0  0  0  0  0  0  0
   13.0695    6.3705   20.0375 N   0  0  0  0  0  0  0  0  0  0  0  0
    9.1913    8.0876   21.8361 N   0  0  0  0  0  0  0  0  0  0  0  0
   10.4739    9.4813   20.2889 C   0  0  0  0  0  0  0  0  0  0  0  0
    7.5551    7.1270   23.1200 O   0  0  0  0  0  0  0  0  0  0  0  0
  1 11  4  0
  1 21  4  0
  2  4  1  0
  2  8  1  0
  2 11  1  0
  3 10  4  0
  3 14  4  0
  4  5  1  0
  4 18  2  0
  6 12  1  0
  6 17  4  0
  6 23  4  0
  7  9  1  0
  7 13  4  0
  7 19  4  0
  9 20  1  0
 10 19  4  0
 11 25  4  0
 13 14  4  0
 15 16  4  0
 15 17  4  0
 15 21  4  0
 16 24  1  0
 16 25  4  0
 20 24  1  0
 20 26  2  0
 21 23  4  0
 22 23  1  0
M  END
$$$$

 Created by Python create_sdf_string function

 26 28  0  0  0  0  0  0  0  0999 V2000
   12.4616    8.6700   19.4180 N   0  0  0  0  0  0  0  0  0  0  0  0
   11.8329   10.8148   18.6769 N   0  0  0  0  0  0  0  0  0  0  0  0
    6.1021    2.5564   21.0678 C   0  0  0  0  0  0  0  0  0  0  0  0
   10.9097   11.8051   18.4804 C   0  0  0  0  0  0  0  0  0  0  0  0
   11.2280   12.9135   17.5669 C   0  0  0  0  0  0  0  0  0  0  0  0
   12.3782    5.4231   20.7777 C   0  0  0  0  0  0  0  0  0  0  0  0
    7.7365    4.6508   21.6987 C   0  0  0  0  0  0  0  0  0  0  0  0
   13.0186   11.0102   18.0020 C   0  0  0  0  0  0  0  0  0  0  0  0
    8.6628    5.7088   21.8871 N   0  0  0  0  0  0  0  0  0  0  0  0
    5.6516    3.5258   21.9140 C   0  0  0  0  0  0  0  0  0  0  0  0
   11.5863    9.6815   19.4539 C   0  0  0  0  0  0  0  0  0  0  0  0
   12.9648    4.1543   20.9205 C   0  0  0  0  0  0  0  0  0  0  0  0
    8.2089    3.6265   20.8929 C   0  0  0  0  0  0  0  0  0  0  0  0
    7.3827    2.5724   20.5432 C   0  0  0  0  0  0  0  0  0  0  0  0
   11.1529    7.2750   20.8025 C   0  0  0  0  0  0  0  0  0  0  0  0
   10.2573    8.3215   20.9827 C   0  0  0  0  0  0  0  0  0  0  0  0
   11.1606    5.9378   21.2366 N   0  0  0  0  0  0  0  0  0  0  0  0
    9.8932   11.6736   19.0677 O   0  0  0  0  0  0  0  0  0  0  0  0
    6.4470    4.5850   22.2321 C   0  0  0  0  0  0  0  0  0  0  0  0
    8.4619    6.9895   22.2968 C   0  0  0  0  0  0  0  0  0  0  0  0
   12.2747    7.5102   20.0420 C   0  0  0  0  0  0  0  0  0  0  0  0
   14.2544    6.2142   19.4191 C   0  0  0  0  0  0  0  0  0  0  0  0
   13.0695    6.3705   20.0375 N   0  0  0  0  0  0  0  0  0  0  0  0
    9.1913    8.0876   21.8361 N   0  0  0  0  0  0  0  0  0  0  0  0
   10.4739    9.4813   20.2889 C   0  0  0  0  0  0  0  0  0  0  0  0
    7.5551    7.1270   23.1200 O   0  0  0  0  0  0  0  0  0  0  0  0
  1 11  4  0
  1 21  4  0
  2  4  1  0
  2  8  1  0
  2 11  1  0
  3 10  4  0
  3 14  4  0
  4  5  1  0
  4 18  2  0
  6 12  1  0
  6 17  4  0
  6 23  4  0
  7  9  1  0
  7 13  4  0
  7 19  4  0
  9 20  1  0
 10 19  4  0
 11 25  4  0
 13 14  4  0
 15 16  4  0
 15 17  4  0
 15 21  4  0
 16 24  1  0
 16 25  4  0
 20 24  1  0
 20 26  2  0
 21 23  4  0
 22 23  1  0
M  END
$$$$

 Created by Python create_sdf_string function

 26 28  0  0  0  0  0  0  0  0999 V2000
   12.4616    8.6700   19.4180 N   0  0  0  0  0  0  0  0  0  0  0  0
   11.8329   10.8148   18.6769 N   0  0  0  0  0  0  0  0  0  0  0  0
    6.1021    2.5564   21.0678 C   0  0  0  0  0  0  0  0  0  0  0  0
   10.9097   11.8051   18.4804 C   0  0  0  0  0  0  0  0  0  0  0  0
   11.2280   12.9135   17.5669 C   0  0  0  0  0  0  0  0  0  0  0  0
   12.3782    5.4231   20.7777 C   0  0  0  0  0  0  0  0  0  0  0  0
    7.7365    4.6508   21.6987 C   0  0  0  0  0  0  0  0  0  0  0  0
   13.0186   11.0102   18.0020 C   0  0  0  0  0  0  0  0  0  0  0  0
    8.6628    5.7088   21.8871 N   0  0  0  0  0  0  0  0  0  0  0  0
    5.6516    3.5258   21.9140 C   0  0  0  0  0  0  0  0  0  0  0  0
   11.5863    9.6815   19.4539 C   0  0  0  0  0  0  0  0  0  0  0  0
   12.9648    4.1543   20.9205 C   0  0  0  0  0  0  0  0  0  0  0  0
    8.2089    3.6265   20.8929 C   0  0  0  0  0  0  0  0  0  0  0  0
    7.3827    2.5724   20.5432 C   0  0  0  0  0  0  0  0  0  0  0  0
   11.1529    7.2750   20.8025 C   0  0  0  0  0  0  0  0  0  0  0  0
   10.2573    8.3215   20.9827 C   0  0  0  0  0  0  0  0  0  0  0  0
   11.1606    5.9378   21.2366 N   0  0  0  0  0  0  0  0  0  0  0  0
    9.8932   11.6736   19.0677 O   0  0  0  0  0  0  0  0  0  0  0  0
    6.4470    4.5850   22.2321 C   0  0  0  0  0  0  0  0  0  0  0  0
    8.4619    6.9895   22.2968 C   0  0  0  0  0  0  0  0  0  0  0  0
   12.2747    7.5102   20.0420 C   0  0  0  0  0  0  0  0  0  0  0  0
   14.2544    6.2142   19.4191 C   0  0  0  0  0  0  0  0  0  0  0  0
   13.0695    6.3705   20.0375 N   0  0  0  0  0  0  0  0  0  0  0  0
    9.1913    8.0876   21.8361 N   0  0  0  0  0  0  0  0  0  0  0  0
   10.4739    9.4813   20.2889 C   0  0  0  0  0  0  0  0  0  0  0  0
    7.5551    7.1270   23.1200 O   0  0  0  0  0  0  0  0  0  0  0  0
  1 11  4  0
  1 21  4  0
  2  4  1  0
  2  8  1  0
  2 11  1  0
  3 10  4  0
  3 14  4  0
  4  5  1  0
  4 18  2  0
  6 12  1  0
  6 17  4  0
  6 23  4  0
  7  9  1  0
  7 13  4  0
  7 19  4  0
  9 20  1  0
 10 19  4  0
 11 25  4  0
 13 14  4  0
 15 16  4  0
 15 17  4  0
 15 21  4  0
 16 24  1  0
 16 25  4  0
 20 24  1  0
 20 26  2  0
 21 23  4  0
 22 23  1  0
M  END
$$$$

 Created by Python create_sdf_string function

 26 28  0  0  0  0  0  0  0  0999 V2000
   12.4616    8.6700   19.4180 N   0  0  0  0  0  0  0  0  0  0  0  0
   11.8329   10.8148   18.6769 N   0  0  0  0  0  0  0  0  0  0  0  0
    6.1021    2.5564   21.0678 C   0  0  0  0  0  0  0  0  0  0  0  0
   10.9097   11.8051   18.4804 C   0  0  0  0  0  0  0  0  0  0  0  0
   11.2280   12.9135   17.5669 C   0  0  0  0  0  0  0  0  0  0  0  0
   12.3782    5.4231   20.7777 C   0  0  0  0  0  0  0  0  0  0  0  0
    7.7365    4.6508   21.6987 C   0  0  0  0  0  0  0  0  0  0  0  0
   13.0186   11.0102   18.0020 C   0  0  0  0  0  0  0  0  0  0  0  0
    8.6628    5.7088   21.8871 N   0  0  0  0  0  0  0  0  0  0  0  0
    5.6516    3.5258   21.9140 C   0  0  0  0  0  0  0  0  0  0  0  0
   11.5863    9.6815   19.4539 C   0  0  0  0  0  0  0  0  0  0  0  0
   12.9648    4.1543   20.9205 C   0  0  0  0  0  0  0  0  0  0  0  0
    8.2089    3.6265   20.8929 C   0  0  0  0  0  0  0  0  0  0  0  0
    7.3827    2.5724   20.5432 C   0  0  0  0  0  0  0  0  0  0  0  0
   11.1529    7.2750   20.8025 C   0  0  0  0  0  0  0  0  0  0  0  0
   10.2573    8.3215   20.9827 C   0  0  0  0  0  0  0  0  0  0  0  0
   11.1606    5.9378   21.2366 N   0  0  0  0  0  0  0  0  0  0  0  0
    9.8932   11.6736   19.0677 O   0  0  0  0  0  0  0  0  0  0  0  0
    6.4470    4.5850   22.2321 C   0  0  0  0  0  0  0  0  0  0  0  0
    8.4619    6.9895   22.2968 C   0  0  0  0  0  0  0  0  0  0  0  0
   12.2747    7.5102   20.0420 C   0  0  0  0  0  0  0  0  0  0  0  0
   14.2544    6.2142   19.4191 C   0  0  0  0  0  0  0  0  0  0  0  0
   13.0695    6.3705   20.0375 N   0  0  0  0  0  0  0  0  0  0  0  0
    9.1913    8.0876   21.8361 N   0  0  0  0  0  0  0  0  0  0  0  0
   10.4739    9.4813   20.2889 C   0  0  0  0  0  0  0  0  0  0  0  0
    7.5551    7.1270   23.1200 O   0  0  0  0  0  0  0  0  0  0  0  0
  1 11  4  0
  1 21  4  0
  2  4  1  0
  2  8  1  0
  2 11  1  0
  3 10  4  0
  3 14  4  0
  4  5  1  0
  4 18  2  0
  6 12  1  0
  6 17  4  0
  6 23  4  0
  7  9  1  0
  7 13  4  0
  7 19  4  0
  9 20  1  0
 10 19  4  0
 11 25  4  0
 13 14  4  0
 15 16  4  0
 15 17  4  0
 15 21  4  0
 16 24  1  0
 16 25  4  0
 20 24  1  0
 20 26  2  0
 21 23  4  0
 22 23  1  0
M  END
$$$$

 Created by Python create_sdf_string function

 26 28  0  0  0  0  0  0  0  0999 V2000
   12.4616    8.6700   19.4180 N   0  0  0  0  0  0  0  0  0  0  0  0
   11.8329   10.8148   18.6769 N   0  0  0  0  0  0  0  0  0  0  0  0
    6.1021    2.5564   21.0678 C   0  0  0  0  0  0  0  0  0  0  0  0
   10.9097   11.8051   18.4804 C   0  0  0  0  0  0  0  0  0  0  0  0
   11.2280   12.9135   17.5669 C   0  0  0  0  0  0  0  0  0  0  0  0
   12.3782    5.4231   20.7777 C   0  0  0  0  0  0  0  0  0  0  0  0
    7.7365    4.6508   21.6987 C   0  0  0  0  0  0  0  0  0  0  0  0
   13.0186   11.0102   18.0020 C   0  0  0  0  0  0  0  0  0  0  0  0
    8.6628    5.7088   21.8871 N   0  0  0  0  0  0  0  0  0  0  0  0
    5.6516    3.5258   21.9140 C   0  0  0  0  0  0  0  0  0  0  0  0
   11.5863    9.6815   19.4539 C   0  0  0  0  0  0  0  0  0  0  0  0
   12.9648    4.1543   20.9205 C   0  0  0  0  0  0  0  0  0  0  0  0
    8.2089    3.6265   20.8929 C   0  0  0  0  0  0  0  0  0  0  0  0
    7.3827    2.5724   20.5432 C   0  0  0  0  0  0  0  0  0  0  0  0
   11.1529    7.2750   20.8025 C   0  0  0  0  0  0  0  0  0  0  0  0
   10.2573    8.3215   20.9827 C   0  0  0  0  0  0  0  0  0  0  0  0
   11.1606    5.9378   21.2366 N   0  0  0  0  0  0  0  0  0  0  0  0
    9.8932   11.6736   19.0677 O   0  0  0  0  0  0  0  0  0  0  0  0
    6.4470    4.5850   22.2321 C   0  0  0  0  0  0  0  0  0  0  0  0
    8.4619    6.9895   22.2968 C   0  0  0  0  0  0  0  0  0  0  0  0
   12.2747    7.5102   20.0420 C   0  0  0  0  0  0  0  0  0  0  0  0
   14.2544    6.2142   19.4191 C   0  0  0  0  0  0  0  0  0  0  0  0
   13.0695    6.3705   20.0375 N   0  0  0  0  0  0  0  0  0  0  0  0
    9.1913    8.0876   21.8361 N   0  0  0  0  0  0  0  0  0  0  0  0
   10.4739    9.4813   20.2889 C   0  0  0  0  0  0  0  0  0  0  0  0
    7.5551    7.1270   23.1200 O   0  0  0  0  0  0  0  0  0  0  0  0
  1 11  4  0
  1 21  4  0
  2  4  1  0
  2  8  1  0
  2 11  1  0
  3 10  4  0
  3 14  4  0
  4  5  1  0
  4 18  2  0
  6 12  1  0
  6 17  4  0
  6 23  4  0
  7  9  1  0
  7 13  4  0
  7 19  4  0
  9 20  1  0
 10 19  4  0
 11 25  4  0
 13 14  4  0
 15 16  4  0
 15 17  4  0
 15 21  4  0
 16 24  1  0
 16 25  4  0
 20 24  1  0
 20 26  2  0
 21 23  4  0
 22 23  1  0
M  END
$$$$

 Created by Python create_sdf_string function

 26 28  0  0  0  0  0  0  0  0999 V2000
   12.4616    8.6700   19.4180 N   0  0  0  0  0  0  0  0  0  0  0  0
   11.8329   10.8148   18.6769 N   0  0  0  0  0  0  0  0  0  0  0  0
    6.1021    2.5564   21.0678 C   0  0  0  0  0  0  0  0  0  0  0  0
   10.9097   11.8051   18.4804 C   0  0  0  0  0  0  0  0  0  0  0  0
   11.2280   12.9135   17.5669 C   0  0  0  0  0  0  0  0  0  0  0  0
   12.3782    5.4231   20.7777 C   0  0  0  0  0  0  0  0  0  0  0  0
    7.7365    4.6508   21.6987 C   0  0  0  0  0  0  0  0  0  0  0  0
   13.0186   11.0102   18.0020 C   0  0  0  0  0  0  0  0  0  0  0  0
    8.6628    5.7088   21.8871 N   0  0  0  0  0  0  0  0  0  0  0  0
    5.6516    3.5258   21.9140 C   0  0  0  0  0  0  0  0  0  0  0  0
   11.5863    9.6815   19.4539 C   0  0  0  0  0  0  0  0  0  0  0  0
   12.9648    4.1543   20.9205 C   0  0  0  0  0  0  0  0  0  0  0  0
    8.2089    3.6265   20.8929 C   0  0  0  0  0  0  0  0  0  0  0  0
    7.3827    2.5724   20.5432 C   0  0  0  0  0  0  0  0  0  0  0  0
   11.1529    7.2750   20.8025 C   0  0  0  0  0  0  0  0  0  0  0  0
   10.2573    8.3215   20.9827 C   0  0  0  0  0  0  0  0  0  0  0  0
   11.1606    5.9378   21.2366 N   0  0  0  0  0  0  0  0  0  0  0  0
    9.8932   11.6736   19.0677 O   0  0  0  0  0  0  0  0  0  0  0  0
    6.4470    4.5850   22.2321 C   0  0  0  0  0  0  0  0  0  0  0  0
    8.4619    6.9895   22.2968 C   0  0  0  0  0  0  0  0  0  0  0  0
   12.2747    7.5102   20.0420 C   0  0  0  0  0  0  0  0  0  0  0  0
   14.2544    6.2142   19.4191 C   0  0  0  0  0  0  0  0  0  0  0  0
   13.0695    6.3705   20.0375 N   0  0  0  0  0  0  0  0  0  0  0  0
    9.1913    8.0876   21.8361 N   0  0  0  0  0  0  0  0  0  0  0  0
   10.4739    9.4813   20.2889 C   0  0  0  0  0  0  0  0  0  0  0  0
    7.5551    7.1270   23.1200 O   0  0  0  0  0  0  0  0  0  0  0  0
  1 11  4  0
  1 21  4  0
  2  4  1  0
  2  8  1  0
  2 11  1  0
  3 10  4  0
  3 14  4  0
  4  5  1  0
  4 18  2  0
  6 12  1  0
  6 17  4  0
  6 23  4  0
  7  9  1  0
  7 13  4  0
  7 19  4  0
  9 20  1  0
 10 19  4  0
 11 25  4  0
 13 14  4  0
 15 16  4  0
 15 17  4  0
 15 21  4  0
 16 24  1  0
 16 25  4  0
 20 24  1  0
 20 26  2  0
 21 23  4  0
 22 23  1  0
M  END
$$$$

 Created by Python create_sdf_string function

 26 28  0  0  0  0  0  0  0  0999 V2000
   12.4616    8.6700   19.4180 N   0  0  0  0  0  0  0  0  0  0  0  0
   11.8329   10.8148   18.6769 N   0  0  0  0  0  0  0  0  0  0  0  0
    6.1021    2.5564   21.0678 C   0  0  0  0  0  0  0  0  0  0  0  0
   10.9097   11.8051   18.4804 C   0  0  0  0  0  0  0  0  0  0  0  0
   11.2280   12.9135   17.5669 C   0  0  0  0  0  0  0  0  0  0  0  0
   12.3782    5.4231   20.7777 C   0  0  0  0  0  0  0  0  0  0  0  0
    7.7365    4.6508   21.6987 C   0  0  0  0  0  0  0  0  0  0  0  0
   13.0186   11.0102   18.0020 C   0  0  0  0  0  0  0  0  0  0  0  0
    8.6628    5.7088   21.8871 N   0  0  0  0  0  0  0  0  0  0  0  0
    5.6516    3.5258   21.9140 C   0  0  0  0  0  0  0  0  0  0  0  0
   11.5863    9.6815   19.4539 C   0  0  0  0  0  0  0  0  0  0  0  0
   12.9648    4.1543   20.9205 C   0  0  0  0  0  0  0  0  0  0  0  0
    8.2089    3.6265   20.8929 C   0  0  0  0  0  0  0  0  0  0  0  0
    7.3827    2.5724   20.5432 C   0  0  0  0  0  0  0  0  0  0  0  0
   11.1529    7.2750   20.8025 C   0  0  0  0  0  0  0  0  0  0  0  0
   10.2573    8.3215   20.9827 C   0  0  0  0  0  0  0  0  0  0  0  0
   11.1606    5.9378   21.2366 N   0  0  0  0  0  0  0  0  0  0  0  0
    9.8932   11.6736   19.0677 O   0  0  0  0  0  0  0  0  0  0  0  0
    6.4470    4.5850   22.2321 C   0  0  0  0  0  0  0  0  0  0  0  0
    8.4619    6.9895   22.2968 C   0  0  0  0  0  0  0  0  0  0  0  0
   12.2747    7.5102   20.0420 C   0  0  0  0  0  0  0  0  0  0  0  0
   14.2544    6.2142   19.4191 C   0  0  0  0  0  0  0  0  0  0  0  0
   13.0695    6.3705   20.0375 N   0  0  0  0  0  0  0  0  0  0  0  0
    9.1913    8.0876   21.8361 N   0  0  0  0  0  0  0  0  0  0  0  0
   10.4739    9.4813   20.2889 C   0  0  0  0  0  0  0  0  0  0  0  0
    7.5551    7.1270   23.1200 O   0  0  0  0  0  0  0  0  0  0  0  0
  1 11  4  0
  1 21  4  0
  2  4  1  0
  2  8  1  0
  2 11  1  0
  3 10  4  0
  3 14  4  0
  4  5  1  0
  4 18  2  0
  6 12  1  0
  6 17  4  0
  6 23  4  0
  7  9  1  0
  7 13  4  0
  7 19  4  0
  9 20  1  0
 10 19  4  0
 11 25  4  0
 13 14  4  0
 15 16  4  0
 15 17  4  0
 15 21  4  0
 16 24  1  0
 16 25  4  0
 20 24  1  0
 20 26  2  0
 21 23  4  0
 22 23  1  0
M  END
$$$$

 Created by Python create_sdf_string function

 26 28  0  0  0  0  0  0  0  0999 V2000
   12.4616    8.6700   19.4180 N   0  0  0  0  0  0  0  0  0  0  0  0
   11.8329   10.8148   18.6769 N   0  0  0  0  0  0  0  0  0  0  0  0
    6.1021    2.5564   21.0678 C   0  0  0  0  0  0  0  0  0  0  0  0
   10.9097   11.8051   18.4804 C   0  0  0  0  0  0  0  0  0  0  0  0
   11.2280   12.9135   17.5669 C   0  0  0  0  0  0  0  0  0  0  0  0
   12.3782    5.4231   20.7777 C   0  0  0  0  0  0  0  0  0  0  0  0
    7.7365    4.6508   21.6987 C   0  0  0  0  0  0  0  0  0  0  0  0
   13.0186   11.0102   18.0020 C   0  0  0  0  0  0  0  0  0  0  0  0
    8.6628    5.7088   21.8871 N   0  0  0  0  0  0  0  0  0  0  0  0
    5.6516    3.5258   21.9140 C   0  0  0  0  0  0  0  0  0  0  0  0
   11.5863    9.6815   19.4539 C   0  0  0  0  0  0  0  0  0  0  0  0
   12.9648    4.1543   20.9205 C   0  0  0  0  0  0  0  0  0  0  0  0
    8.2089    3.6265   20.8929 C   0  0  0  0  0  0  0  0  0  0  0  0
    7.3827    2.5724   20.5432 C   0  0  0  0  0  0  0  0  0  0  0  0
   11.1529    7.2750   20.8025 C   0  0  0  0  0  0  0  0  0  0  0  0
   10.2573    8.3215   20.9827 C   0  0  0  0  0  0  0  0  0  0  0  0
   11.1606    5.9378   21.2366 N   0  0  0  0  0  0  0  0  0  0  0  0
    9.8932   11.6736   19.0677 O   0  0  0  0  0  0  0  0  0  0  0  0
    6.4470    4.5850   22.2321 C   0  0  0  0  0  0  0  0  0  0  0  0
    8.4619    6.9895   22.2968 C   0  0  0  0  0  0  0  0  0  0  0  0
   12.2747    7.5102   20.0420 C   0  0  0  0  0  0  0  0  0  0  0  0
   14.2544    6.2142   19.4191 C   0  0  0  0  0  0  0  0  0  0  0  0
   13.0695    6.3705   20.0375 N   0  0  0  0  0  0  0  0  0  0  0  0
    9.1913    8.0876   21.8361 N   0  0  0  0  0  0  0  0  0  0  0  0
   10.4739    9.4813   20.2889 C   0  0  0  0  0  0  0  0  0  0  0  0
    7.5551    7.1270   23.1200 O   0  0  0  0  0  0  0  0  0  0  0  0
  1 11  4  0
  1 21  4  0
  2  4  1  0
  2  8  1  0
  2 11  1  0
  3 10  4  0
  3 14  4  0
  4  5  1  0
  4 18  2  0
  6 12  1  0
  6 17  4  0
  6 23  4  0
  7  9  1  0
  7 13  4  0
  7 19  4  0
  9 20  1  0
 10 19  4  0
 11 25  4  0
 13 14  4  0
 15 16  4  0
 15 17  4  0
 15 21  4  0
 16 24  1  0
 16 25  4  0
 20 24  1  0
 20 26  2  0
 21 23  4  0
 22 23  1  0
M  END
$$$$

 Created by Python create_sdf_string function

 26 28  0  0  0  0  0  0  0  0999 V2000
   12.4616    8.6700   19.4180 N   0  0  0  0  0  0  0  0  0  0  0  0
   11.8329   10.8148   18.6769 N   0  0  0  0  0  0  0  0  0  0  0  0
    6.1021    2.5564   21.0678 C   0  0  0  0  0  0  0  0  0  0  0  0
   10.9097   11.8051   18.4804 C   0  0  0  0  0  0  0  0  0  0  0  0
   11.2280   12.9135   17.5669 C   0  0  0  0  0  0  0  0  0  0  0  0
   12.3782    5.4231   20.7777 C   0  0  0  0  0  0  0  0  0  0  0  0
    7.7365    4.6508   21.6987 C   0  0  0  0  0  0  0  0  0  0  0  0
   13.0186   11.0102   18.0020 C   0  0  0  0  0  0  0  0  0  0  0  0
    8.6628    5.7088   21.8871 N   0  0  0  0  0  0  0  0  0  0  0  0
    5.6516    3.5258   21.9140 C   0  0  0  0  0  0  0  0  0  0  0  0
   11.5863    9.6815   19.4539 C   0  0  0  0  0  0  0  0  0  0  0  0
   12.9648    4.1543   20.9205 C   0  0  0  0  0  0  0  0  0  0  0  0
    8.2089    3.6265   20.8929 C   0  0  0  0  0  0  0  0  0  0  0  0
    7.3827    2.5724   20.5432 C   0  0  0  0  0  0  0  0  0  0  0  0
   11.1529    7.2750   20.8025 C   0  0  0  0  0  0  0  0  0  0  0  0
   10.2573    8.3215   20.9827 C   0  0  0  0  0  0  0  0  0  0  0  0
   11.1606    5.9378   21.2366 N   0  0  0  0  0  0  0  0  0  0  0  0
    9.8932   11.6736   19.0677 O   0  0  0  0  0  0  0  0  0  0  0  0
    6.4470    4.5850   22.2321 C   0  0  0  0  0  0  0  0  0  0  0  0
    8.4619    6.9895   22.2968 C   0  0  0  0  0  0  0  0  0  0  0  0
   12.2747    7.5102   20.0420 C   0  0  0  0  0  0  0  0  0  0  0  0
   14.2544    6.2142   19.4191 C   0  0  0  0  0  0  0  0  0  0  0  0
   13.0695    6.3705   20.0375 N   0  0  0  0  0  0  0  0  0  0  0  0
    9.1913    8.0876   21.8361 N   0  0  0  0  0  0  0  0  0  0  0  0
   10.4739    9.4813   20.2889 C   0  0  0  0  0  0  0  0  0  0  0  0
    7.5551    7.1270   23.1200 O   0  0  0  0  0  0  0  0  0  0  0  0
  1 11  4  0
  1 21  4  0
  2  4  1  0
  2  8  1  0
  2 11  1  0
  3 10  4  0
  3 14  4  0
  4  5  1  0
  4 18  2  0
  6 12  1  0
  6 17  4  0
  6 23  4  0
  7  9  1  0
  7 13  4  0
  7 19  4  0
  9 20  1  0
 10 19  4  0
 11 25  4  0
 13 14  4  0
 15 16  4  0
 15 17  4  0
 15 21  4  0
 16 24  1  0
 16 25  4  0
 20 24  1  0
 20 26  2  0
 21 23  4  0
 22 23  1  0
M  END
$$$$

 Created by Python create_sdf_string function

 26 28  0  0  0  0  0  0  0  0999 V2000
   12.4616    8.6700   19.4180 N   0  0  0  0  0  0  0  0  0  0  0  0
   11.8329   10.8148   18.6769 N   0  0  0  0  0  0  0  0  0  0  0  0
    6.1021    2.5564   21.0678 C   0  0  0  0  0  0  0  0  0  0  0  0
   10.9097   11.8051   18.4804 C   0  0  0  0  0  0  0  0  0  0  0  0
   11.2280   12.9135   17.5669 C   0  0  0  0  0  0  0  0  0  0  0  0
   12.3782    5.4231   20.7777 C   0  0  0  0  0  0  0  0  0  0  0  0
    7.7365    4.6508   21.6987 C   0  0  0  0  0  0  0  0  0  0  0  0
   13.0186   11.0102   18.0020 C   0  0  0  0  0  0  0  0  0  0  0  0
    8.6628    5.7088   21.8871 N   0  0  0  0  0  0  0  0  0  0  0  0
    5.6516    3.5258   21.9140 C   0  0  0  0  0  0  0  0  0  0  0  0
   11.5863    9.6815   19.4539 C   0  0  0  0  0  0  0  0  0  0  0  0
   12.9648    4.1543   20.9205 C   0  0  0  0  0  0  0  0  0  0  0  0
    8.2089    3.6265   20.8929 C   0  0  0  0  0  0  0  0  0  0  0  0
    7.3827    2.5724   20.5432 C   0  0  0  0  0  0  0  0  0  0  0  0
   11.1529    7.2750   20.8025 C   0  0  0  0  0  0  0  0  0  0  0  0
   10.2573    8.3215   20.9827 C   0  0  0  0  0  0  0  0  0  0  0  0
   11.1606    5.9378   21.2366 N   0  0  0  0  0  0  0  0  0  0  0  0
    9.8932   11.6736   19.0677 O   0  0  0  0  0  0  0  0  0  0  0  0
    6.4470    4.5850   22.2321 C   0  0  0  0  0  0  0  0  0  0  0  0
    8.4619    6.9895   22.2968 C   0  0  0  0  0  0  0  0  0  0  0  0
   12.2747    7.5102   20.0420 C   0  0  0  0  0  0  0  0  0  0  0  0
   14.2544    6.2142   19.4191 C   0  0  0  0  0  0  0  0  0  0  0  0
   13.0695    6.3705   20.0375 N   0  0  0  0  0  0  0  0  0  0  0  0
    9.1913    8.0876   21.8361 N   0  0  0  0  0  0  0  0  0  0  0  0
   10.4739    9.4813   20.2889 C   0  0  0  0  0  0  0  0  0  0  0  0
    7.5551    7.1270   23.1200 O   0  0  0  0  0  0  0  0  0  0  0  0
  1 11  4  0
  1 21  4  0
  2  4  1  0
  2  8  1  0
  2 11  1  0
  3 10  4  0
  3 14  4  0
  4  5  1  0
  4 18  2  0
  6 12  1  0
  6 17  4  0
  6 23  4  0
  7  9  1  0
  7 13  4  0
  7 19  4  0
  9 20  1  0
 10 19  4  0
 11 25  4  0
 13 14  4  0
 15 16  4  0
 15 17  4  0
 15 21  4  0
 16 24  1  0
 16 25  4  0
 20 24  1  0
 20 26  2  0
 21 23  4  0
 22 23  1  0
M  END
$$$$

 Created by Python create_sdf_string function

 26 28  0  0  0  0  0  0  0  0999 V2000
   12.4616    8.6700   19.4180 N   0  0  0  0  0  0  0  0  0  0  0  0
   11.8329   10.8148   18.6769 N   0  0  0  0  0  0  0  0  0  0  0  0
    6.1021    2.5564   21.0678 C   0  0  0  0  0  0  0  0  0  0  0  0
   10.9097   11.8051   18.4804 C   0  0  0  0  0  0  0  0  0  0  0  0
   11.2280   12.9135   17.5669 C   0  0  0  0  0  0  0  0  0  0  0  0
   12.3782    5.4231   20.7777 C   0  0  0  0  0  0  0  0  0  0  0  0
    7.7365    4.6508   21.6987 C   0  0  0  0  0  0  0  0  0  0  0  0
   13.0186   11.0102   18.0020 C   0  0  0  0  0  0  0  0  0  0  0  0
    8.6628    5.7088   21.8871 N   0  0  0  0  0  0  0  0  0  0  0  0
    5.6516    3.5258   21.9140 C   0  0  0  0  0  0  0  0  0  0  0  0
   11.5863    9.6815   19.4539 C   0  0  0  0  0  0  0  0  0  0  0  0
   12.9648    4.1543   20.9205 C   0  0  0  0  0  0  0  0  0  0  0  0
    8.2089    3.6265   20.8929 C   0  0  0  0  0  0  0  0  0  0  0  0
    7.3827    2.5724   20.5432 C   0  0  0  0  0  0  0  0  0  0  0  0
   11.1529    7.2750   20.8025 C   0  0  0  0  0  0  0  0  0  0  0  0
   10.2573    8.3215   20.9827 C   0  0  0  0  0  0  0  0  0  0  0  0
   11.1606    5.9378   21.2366 N   0  0  0  0  0  0  0  0  0  0  0  0
    9.8932   11.6736   19.0677 O   0  0  0  0  0  0  0  0  0  0  0  0
    6.4470    4.5850   22.2321 C   0  0  0  0  0  0  0  0  0  0  0  0
    8.4619    6.9895   22.2968 C   0  0  0  0  0  0  0  0  0  0  0  0
   12.2747    7.5102   20.0420 C   0  0  0  0  0  0  0  0  0  0  0  0
   14.2544    6.2142   19.4191 C   0  0  0  0  0  0  0  0  0  0  0  0
   13.0695    6.3705   20.0375 N   0  0  0  0  0  0  0  0  0  0  0  0
    9.1913    8.0876   21.8361 N   0  0  0  0  0  0  0  0  0  0  0  0
   10.4739    9.4813   20.2889 C   0  0  0  0  0  0  0  0  0  0  0  0
    7.5551    7.1270   23.1200 O   0  0  0  0  0  0  0  0  0  0  0  0
  1 11  4  0
  1 21  4  0
  2  4  1  0
  2  8  1  0
  2 11  1  0
  3 10  4  0
  3 14  4  0
  4  5  1  0
  4 18  2  0
  6 12  1  0
  6 17  4  0
  6 23  4  0
  7  9  1  0
  7 13  4  0
  7 19  4  0
  9 20  1  0
 10 19  4  0
 11 25  4  0
 13 14  4  0
 15 16  4  0
 15 17  4  0
 15 21  4  0
 16 24  1  0
 16 25  4  0
 20 24  1  0
 20 26  2  0
 21 23  4  0
 22 23  1  0
M  END
$$$$

 Created by Python create_sdf_string function

 26 28  0  0  0  0  0  0  0  0999 V2000
   12.4616    8.6700   19.4180 N   0  0  0  0  0  0  0  0  0  0  0  0
   11.8329   10.8148   18.6769 N   0  0  0  0  0  0  0  0  0  0  0  0
    6.1021    2.5564   21.0678 C   0  0  0  0  0  0  0  0  0  0  0  0
   10.9097   11.8051   18.4804 C   0  0  0  0  0  0  0  0  0  0  0  0
   11.2280   12.9135   17.5669 C   0  0  0  0  0  0  0  0  0  0  0  0
   12.3782    5.4231   20.7777 C   0  0  0  0  0  0  0  0  0  0  0  0
    7.7365    4.6508   21.6987 C   0  0  0  0  0  0  0  0  0  0  0  0
   13.0186   11.0102   18.0020 C   0  0  0  0  0  0  0  0  0  0  0  0
    8.6628    5.7088   21.8871 N   0  0  0  0  0  0  0  0  0  0  0  0
    5.6516    3.5258   21.9140 C   0  0  0  0  0  0  0  0  0  0  0  0
   11.5863    9.6815   19.4539 C   0  0  0  0  0  0  0  0  0  0  0  0
   12.9648    4.1543   20.9205 C   0  0  0  0  0  0  0  0  0  0  0  0
    8.2089    3.6265   20.8929 C   0  0  0  0  0  0  0  0  0  0  0  0
    7.3827    2.5724   20.5432 C   0  0  0  0  0  0  0  0  0  0  0  0
   11.1529    7.2750   20.8025 C   0  0  0  0  0  0  0  0  0  0  0  0
   10.2573    8.3215   20.9827 C   0  0  0  0  0  0  0  0  0  0  0  0
   11.1606    5.9378   21.2366 N   0  0  0  0  0  0  0  0  0  0  0  0
    9.8932   11.6736   19.0677 O   0  0  0  0  0  0  0  0  0  0  0  0
    6.4470    4.5850   22.2321 C   0  0  0  0  0  0  0  0  0  0  0  0
    8.4619    6.9895   22.2968 C   0  0  0  0  0  0  0  0  0  0  0  0
   12.2747    7.5102   20.0420 C   0  0  0  0  0  0  0  0  0  0  0  0
   14.2544    6.2142   19.4191 C   0  0  0  0  0  0  0  0  0  0  0  0
   13.0695    6.3705   20.0375 N   0  0  0  0  0  0  0  0  0  0  0  0
    9.1913    8.0876   21.8361 N   0  0  0  0  0  0  0  0  0  0  0  0
   10.4739    9.4813   20.2889 C   0  0  0  0  0  0  0  0  0  0  0  0
    7.5551    7.1270   23.1200 O   0  0  0  0  0  0  0  0  0  0  0  0
  1 11  4  0
  1 21  4  0
  2  4  1  0
  2  8  1  0
  2 11  1  0
  3 10  4  0
  3 14  4  0
  4  5  1  0
  4 18  2  0
  6 12  1  0
  6 17  4  0
  6 23  4  0
  7  9  1  0
  7 13  4  0
  7 19  4  0
  9 20  1  0
 10 19  4  0
 11 25  4  0
 13 14  4  0
 15 16  4  0
 15 17  4  0
 15 21  4  0
 16 24  1  0
 16 25  4  0
 20 24  1  0
 20 26  2  0
 21 23  4  0
 22 23  1  0
M  END
$$$$

 Created by Python create_sdf_string function

 26 28  0  0  0  0  0  0  0  0999 V2000
   12.4616    8.6700   19.4180 N   0  0  0  0  0  0  0  0  0  0  0  0
   11.8329   10.8148   18.6769 N   0  0  0  0  0  0  0  0  0  0  0  0
    6.1021    2.5564   21.0678 C   0  0  0  0  0  0  0  0  0  0  0  0
   10.9097   11.8051   18.4804 C   0  0  0  0  0  0  0  0  0  0  0  0
   11.2280   12.9135   17.5669 C   0  0  0  0  0  0  0  0  0  0  0  0
   12.3782    5.4231   20.7777 C   0  0  0  0  0  0  0  0  0  0  0  0
    7.7365    4.6508   21.6987 C   0  0  0  0  0  0  0  0  0  0  0  0
   13.0186   11.0102   18.0020 C   0  0  0  0  0  0  0  0  0  0  0  0
    8.6628    5.7088   21.8871 N   0  0  0  0  0  0  0  0  0  0  0  0
    5.6516    3.5258   21.9140 C   0  0  0  0  0  0  0  0  0  0  0  0
   11.5863    9.6815   19.4539 C   0  0  0  0  0  0  0  0  0  0  0  0
   12.9648    4.1543   20.9205 C   0  0  0  0  0  0  0  0  0  0  0  0
    8.2089    3.6265   20.8929 C   0  0  0  0  0  0  0  0  0  0  0  0
    7.3827    2.5724   20.5432 C   0  0  0  0  0  0  0  0  0  0  0  0
   11.1529    7.2750   20.8025 C   0  0  0  0  0  0  0  0  0  0  0  0
   10.2573    8.3215   20.9827 C   0  0  0  0  0  0  0  0  0  0  0  0
   11.1606    5.9378   21.2366 N   0  0  0  0  0  0  0  0  0  0  0  0
    9.8932   11.6736   19.0677 O   0  0  0  0  0  0  0  0  0  0  0  0
    6.4470    4.5850   22.2321 C   0  0  0  0  0  0  0  0  0  0  0  0
    8.4619    6.9895   22.2968 C   0  0  0  0  0  0  0  0  0  0  0  0
   12.2747    7.5102   20.0420 C   0  0  0  0  0  0  0  0  0  0  0  0
   14.2544    6.2142   19.4191 C   0  0  0  0  0  0  0  0  0  0  0  0
   13.0695    6.3705   20.0375 N   0  0  0  0  0  0  0  0  0  0  0  0
    9.1913    8.0876   21.8361 N   0  0  0  0  0  0  0  0  0  0  0  0
   10.4739    9.4813   20.2889 C   0  0  0  0  0  0  0  0  0  0  0  0
    7.5551    7.1270   23.1200 O   0  0  0  0  0  0  0  0  0  0  0  0
  1 11  4  0
  1 21  4  0
  2  4  1  0
  2  8  1  0
  2 11  1  0
  3 10  4  0
  3 14  4  0
  4  5  1  0
  4 18  2  0
  6 12  1  0
  6 17  4  0
  6 23  4  0
  7  9  1  0
  7 13  4  0
  7 19  4  0
  9 20  1  0
 10 19  4  0
 11 25  4  0
 13 14  4  0
 15 16  4  0
 15 17  4  0
 15 21  4  0
 16 24  1  0
 16 25  4  0
 20 24  1  0
 20 26  2  0
 21 23  4  0
 22 23  1  0
M  END
$$$$

 Created by Python create_sdf_string function

 26 28  0  0  0  0  0  0  0  0999 V2000
   12.4616    8.6700   19.4180 N   0  0  0  0  0  0  0  0  0  0  0  0
   11.8329   10.8148   18.6769 N   0  0  0  0  0  0  0  0  0  0  0  0
    6.1021    2.5564   21.0678 C   0  0  0  0  0  0  0  0  0  0  0  0
   10.9097   11.8051   18.4804 C   0  0  0  0  0  0  0  0  0  0  0  0
   11.2280   12.9135   17.5669 C   0  0  0  0  0  0  0  0  0  0  0  0
   12.3782    5.4231   20.7777 C   0  0  0  0  0  0  0  0  0  0  0  0
    7.7365    4.6508   21.6987 C   0  0  0  0  0  0  0  0  0  0  0  0
   13.0186   11.0102   18.0020 C   0  0  0  0  0  0  0  0  0  0  0  0
    8.6628    5.7088   21.8871 N   0  0  0  0  0  0  0  0  0  0  0  0
    5.6516    3.5258   21.9140 C   0  0  0  0  0  0  0  0  0  0  0  0
   11.5863    9.6815   19.4539 C   0  0  0  0  0  0  0  0  0  0  0  0
   12.9648    4.1543   20.9205 C   0  0  0  0  0  0  0  0  0  0  0  0
    8.2089    3.6265   20.8929 C   0  0  0  0  0  0  0  0  0  0  0  0
    7.3827    2.5724   20.5432 C   0  0  0  0  0  0  0  0  0  0  0  0
   11.1529    7.2750   20.8025 C   0  0  0  0  0  0  0  0  0  0  0  0
   10.2573    8.3215   20.9827 C   0  0  0  0  0  0  0  0  0  0  0  0
   11.1606    5.9378   21.2366 N   0  0  0  0  0  0  0  0  0  0  0  0
    9.8932   11.6736   19.0677 O   0  0  0  0  0  0  0  0  0  0  0  0
    6.4470    4.5850   22.2321 C   0  0  0  0  0  0  0  0  0  0  0  0
    8.4619    6.9895   22.2968 C   0  0  0  0  0  0  0  0  0  0  0  0
   12.2747    7.5102   20.0420 C   0  0  0  0  0  0  0  0  0  0  0  0
   14.2544    6.2142   19.4191 C   0  0  0  0  0  0  0  0  0  0  0  0
   13.0695    6.3705   20.0375 N   0  0  0  0  0  0  0  0  0  0  0  0
    9.1913    8.0876   21.8361 N   0  0  0  0  0  0  0  0  0  0  0  0
   10.4739    9.4813   20.2889 C   0  0  0  0  0  0  0  0  0  0  0  0
    7.5551    7.1270   23.1200 O   0  0  0  0  0  0  0  0  0  0  0  0
  1 11  4  0
  1 21  4  0
  2  4  1  0
  2  8  1  0
  2 11  1  0
  3 10  4  0
  3 14  4  0
  4  5  1  0
  4 18  2  0
  6 12  1  0
  6 17  4  0
  6 23  4  0
  7  9  1  0
  7 13  4  0
  7 19  4  0
  9 20  1  0
 10 19  4  0
 11 25  4  0
 13 14  4  0
 15 16  4  0
 15 17  4  0
 15 21  4  0
 16 24  1  0
 16 25  4  0
 20 24  1  0
 20 26  2  0
 21 23  4  0
 22 23  1  0
M  END
$$$$

 Created by Python create_sdf_string function

 26 28  0  0  0  0  0  0  0  0999 V2000
   12.4616    8.6700   19.4180 N   0  0  0  0  0  0  0  0  0  0  0  0
   11.8329   10.8148   18.6769 N   0  0  0  0  0  0  0  0  0  0  0  0
    6.1021    2.5564   21.0678 C   0  0  0  0  0  0  0  0  0  0  0  0
   10.9097   11.8051   18.4804 C   0  0  0  0  0  0  0  0  0  0  0  0
   11.2280   12.9135   17.5669 C   0  0  0  0  0  0  0  0  0  0  0  0
   12.3782    5.4231   20.7777 C   0  0  0  0  0  0  0  0  0  0  0  0
    7.7365    4.6508   21.6987 C   0  0  0  0  0  0  0  0  0  0  0  0
   13.0186   11.0102   18.0020 C   0  0  0  0  0  0  0  0  0  0  0  0
    8.6628    5.7088   21.8871 N   0  0  0  0  0  0  0  0  0  0  0  0
    5.6516    3.5258   21.9140 C   0  0  0  0  0  0  0  0  0  0  0  0
   11.5863    9.6815   19.4539 C   0  0  0  0  0  0  0  0  0  0  0  0
   12.9648    4.1543   20.9205 C   0  0  0  0  0  0  0  0  0  0  0  0
    8.2089    3.6265   20.8929 C   0  0  0  0  0  0  0  0  0  0  0  0
    7.3827    2.5724   20.5432 C   0  0  0  0  0  0  0  0  0  0  0  0
   11.1529    7.2750   20.8025 C   0  0  0  0  0  0  0  0  0  0  0  0
   10.2573    8.3215   20.9827 C   0  0  0  0  0  0  0  0  0  0  0  0
   11.1606    5.9378   21.2366 N   0  0  0  0  0  0  0  0  0  0  0  0
    9.8932   11.6736   19.0677 O   0  0  0  0  0  0  0  0  0  0  0  0
    6.4470    4.5850   22.2321 C   0  0  0  0  0  0  0  0  0  0  0  0
    8.4619    6.9895   22.2968 C   0  0  0  0  0  0  0  0  0  0  0  0
   12.2747    7.5102   20.0420 C   0  0  0  0  0  0  0  0  0  0  0  0
   14.2544    6.2142   19.4191 C   0  0  0  0  0  0  0  0  0  0  0  0
   13.0695    6.3705   20.0375 N   0  0  0  0  0  0  0  0  0  0  0  0
    9.1913    8.0876   21.8361 N   0  0  0  0  0  0  0  0  0  0  0  0
   10.4739    9.4813   20.2889 C   0  0  0  0  0  0  0  0  0  0  0  0
    7.5551    7.1270   23.1200 O   0  0  0  0  0  0  0  0  0  0  0  0
  1 11  4  0
  1 21  4  0
  2  4  1  0
  2  8  1  0
  2 11  1  0
  3 10  4  0
  3 14  4  0
  4  5  1  0
  4 18  2  0
  6 12  1  0
  6 17  4  0
  6 23  4  0
  7  9  1  0
  7 13  4  0
  7 19  4  0
  9 20  1  0
 10 19  4  0
 11 25  4  0
 13 14  4  0
 15 16  4  0
 15 17  4  0
 15 21  4  0
 16 24  1  0
 16 25  4  0
 20 24  1  0
 20 26  2  0
 21 23  4  0
 22 23  1  0
M  END
$$$$

 Created by Python create_sdf_string function

 26 28  0  0  0  0  0  0  0  0999 V2000
   12.4616    8.6700   19.4180 N   0  0  0  0  0  0  0  0  0  0  0  0
   11.8329   10.8148   18.6769 N   0  0  0  0  0  0  0  0  0  0  0  0
    6.1021    2.5564   21.0678 C   0  0  0  0  0  0  0  0  0  0  0  0
   10.9097   11.8051   18.4804 C   0  0  0  0  0  0  0  0  0  0  0  0
   11.2280   12.9135   17.5669 C   0  0  0  0  0  0  0  0  0  0  0  0
   12.3782    5.4231   20.7777 C   0  0  0  0  0  0  0  0  0  0  0  0
    7.7365    4.6508   21.6987 C   0  0  0  0  0  0  0  0  0  0  0  0
   13.0186   11.0102   18.0020 C   0  0  0  0  0  0  0  0  0  0  0  0
    8.6628    5.7088   21.8871 N   0  0  0  0  0  0  0  0  0  0  0  0
    5.6516    3.5258   21.9140 C   0  0  0  0  0  0  0  0  0  0  0  0
   11.5863    9.6815   19.4539 C   0  0  0  0  0  0  0  0  0  0  0  0
   12.9648    4.1543   20.9205 C   0  0  0  0  0  0  0  0  0  0  0  0
    8.2089    3.6265   20.8929 C   0  0  0  0  0  0  0  0  0  0  0  0
    7.3827    2.5724   20.5432 C   0  0  0  0  0  0  0  0  0  0  0  0
   11.1529    7.2750   20.8025 C   0  0  0  0  0  0  0  0  0  0  0  0
   10.2573    8.3215   20.9827 C   0  0  0  0  0  0  0  0  0  0  0  0
   11.1606    5.9378   21.2366 N   0  0  0  0  0  0  0  0  0  0  0  0
    9.8932   11.6736   19.0677 O   0  0  0  0  0  0  0  0  0  0  0  0
    6.4470    4.5850   22.2321 C   0  0  0  0  0  0  0  0  0  0  0  0
    8.4619    6.9895   22.2968 C   0  0  0  0  0  0  0  0  0  0  0  0
   12.2747    7.5102   20.0420 C   0  0  0  0  0  0  0  0  0  0  0  0
   14.2544    6.2142   19.4191 C   0  0  0  0  0  0  0  0  0  0  0  0
   13.0695    6.3705   20.0375 N   0  0  0  0  0  0  0  0  0  0  0  0
    9.1913    8.0876   21.8361 N   0  0  0  0  0  0  0  0  0  0  0  0
   10.4739    9.4813   20.2889 C   0  0  0  0  0  0  0  0  0  0  0  0
    7.5551    7.1270   23.1200 O   0  0  0  0  0  0  0  0  0  0  0  0
  1 11  4  0
  1 21  4  0
  2  4  1  0
  2  8  1  0
  2 11  1  0
  3 10  4  0
  3 14  4  0
  4  5  1  0
  4 18  2  0
  6 12  1  0
  6 17  4  0
  6 23  4  0
  7  9  1  0
  7 13  4  0
  7 19  4  0
  9 20  1  0
 10 19  4  0
 11 25  4  0
 13 14  4  0
 15 16  4  0
 15 17  4  0
 15 21  4  0
 16 24  1  0
 16 25  4  0
 20 24  1  0
 20 26  2  0
 21 23  4  0
 22 23  1  0
M  END
$$$$

 Created by Python create_sdf_string function

 26 28  0  0  0  0  0  0  0  0999 V2000
   12.4616    8.6700   19.4180 N   0  0  0  0  0  0  0  0  0  0  0  0
   11.8329   10.8148   18.6769 N   0  0  0  0  0  0  0  0  0  0  0  0
    6.1021    2.5564   21.0678 C   0  0  0  0  0  0  0  0  0  0  0  0
   10.9097   11.8051   18.4804 C   0  0  0  0  0  0  0  0  0  0  0  0
   11.2280   12.9135   17.5669 C   0  0  0  0  0  0  0  0  0  0  0  0
   12.3782    5.4231   20.7777 C   0  0  0  0  0  0  0  0  0  0  0  0
    7.7365    4.6508   21.6987 C   0  0  0  0  0  0  0  0  0  0  0  0
   13.0186   11.0102   18.0020 C   0  0  0  0  0  0  0  0  0  0  0  0
    8.6628    5.7088   21.8871 N   0  0  0  0  0  0  0  0  0  0  0  0
    5.6516    3.5258   21.9140 C   0  0  0  0  0  0  0  0  0  0  0  0
   11.5863    9.6815   19.4539 C   0  0  0  0  0  0  0  0  0  0  0  0
   12.9648    4.1543   20.9205 C   0  0  0  0  0  0  0  0  0  0  0  0
    8.2089    3.6265   20.8929 C   0  0  0  0  0  0  0  0  0  0  0  0
    7.3827    2.5724   20.5432 C   0  0  0  0  0  0  0  0  0  0  0  0
   11.1529    7.2750   20.8025 C   0  0  0  0  0  0  0  0  0  0  0  0
   10.2573    8.3215   20.9827 C   0  0  0  0  0  0  0  0  0  0  0  0
   11.1606    5.9378   21.2366 N   0  0  0  0  0  0  0  0  0  0  0  0
    9.8932   11.6736   19.0677 O   0  0  0  0  0  0  0  0  0  0  0  0
    6.4470    4.5850   22.2321 C   0  0  0  0  0  0  0  0  0  0  0  0
    8.4619    6.9895   22.2968 C   0  0  0  0  0  0  0  0  0  0  0  0
   12.2747    7.5102   20.0420 C   0  0  0  0  0  0  0  0  0  0  0  0
   14.2544    6.2142   19.4191 C   0  0  0  0  0  0  0  0  0  0  0  0
   13.0695    6.3705   20.0375 N   0  0  0  0  0  0  0  0  0  0  0  0
    9.1913    8.0876   21.8361 N   0  0  0  0  0  0  0  0  0  0  0  0
   10.4739    9.4813   20.2889 C   0  0  0  0  0  0  0  0  0  0  0  0
    7.5551    7.1270   23.1200 O   0  0  0  0  0  0  0  0  0  0  0  0
  1 11  4  0
  1 21  4  0
  2  4  1  0
  2  8  1  0
  2 11  1  0
  3 10  4  0
  3 14  4  0
  4  5  1  0
  4 18  2  0
  6 12  1  0
  6 17  4  0
  6 23  4  0
  7  9  1  0
  7 13  4  0
  7 19  4  0
  9 20  1  0
 10 19  4  0
 11 25  4  0
 13 14  4  0
 15 16  4  0
 15 17  4  0
 15 21  4  0
 16 24  1  0
 16 25  4  0
 20 24  1  0
 20 26  2  0
 21 23  4  0
 22 23  1  0
M  END
$$$$

 Created by Python create_sdf_string function

 26 28  0  0  0  0  0  0  0  0999 V2000
   12.4616    8.6700   19.4180 N   0  0  0  0  0  0  0  0  0  0  0  0
   11.8329   10.8148   18.6769 N   0  0  0  0  0  0  0  0  0  0  0  0
    6.1021    2.5564   21.0678 C   0  0  0  0  0  0  0  0  0  0  0  0
   10.9097   11.8051   18.4804 C   0  0  0  0  0  0  0  0  0  0  0  0
   11.2280   12.9135   17.5669 C   0  0  0  0  0  0  0  0  0  0  0  0
   12.3782    5.4231   20.7777 C   0  0  0  0  0  0  0  0  0  0  0  0
    7.7365    4.6508   21.6987 C   0  0  0  0  0  0  0  0  0  0  0  0
   13.0186   11.0102   18.0020 C   0  0  0  0  0  0  0  0  0  0  0  0
    8.6628    5.7088   21.8871 N   0  0  0  0  0  0  0  0  0  0  0  0
    5.6516    3.5258   21.9140 C   0  0  0  0  0  0  0  0  0  0  0  0
   11.5863    9.6815   19.4539 C   0  0  0  0  0  0  0  0  0  0  0  0
   12.9648    4.1543   20.9205 C   0  0  0  0  0  0  0  0  0  0  0  0
    8.2089    3.6265   20.8929 C   0  0  0  0  0  0  0  0  0  0  0  0
    7.3827    2.5724   20.5432 C   0  0  0  0  0  0  0  0  0  0  0  0
   11.1529    7.2750   20.8025 C   0  0  0  0  0  0  0  0  0  0  0  0
   10.2573    8.3215   20.9827 C   0  0  0  0  0  0  0  0  0  0  0  0
   11.1606    5.9378   21.2366 N   0  0  0  0  0  0  0  0  0  0  0  0
    9.8932   11.6736   19.0677 O   0  0  0  0  0  0  0  0  0  0  0  0
    6.4470    4.5850   22.2321 C   0  0  0  0  0  0  0  0  0  0  0  0
    8.4619    6.9895   22.2968 C   0  0  0  0  0  0  0  0  0  0  0  0
   12.2747    7.5102   20.0420 C   0  0  0  0  0  0  0  0  0  0  0  0
   14.2544    6.2142   19.4191 C   0  0  0  0  0  0  0  0  0  0  0  0
   13.0695    6.3705   20.0375 N   0  0  0  0  0  0  0  0  0  0  0  0
    9.1913    8.0876   21.8361 N   0  0  0  0  0  0  0  0  0  0  0  0
   10.4739    9.4813   20.2889 C   0  0  0  0  0  0  0  0  0  0  0  0
    7.5551    7.1270   23.1200 O   0  0  0  0  0  0  0  0  0  0  0  0
  1 11  4  0
  1 21  4  0
  2  4  1  0
  2  8  1  0
  2 11  1  0
  3 10  4  0
  3 14  4  0
  4  5  1  0
  4 18  2  0
  6 12  1  0
  6 17  4  0
  6 23  4  0
  7  9  1  0
  7 13  4  0
  7 19  4  0
  9 20  1  0
 10 19  4  0
 11 25  4  0
 13 14  4  0
 15 16  4  0
 15 17  4  0
 15 21  4  0
 16 24  1  0
 16 25  4  0
 20 24  1  0
 20 26  2  0
 21 23  4  0
 22 23  1  0
M  END
$$$$

 Created by Python create_sdf_string function

 26 28  0  0  0  0  0  0  0  0999 V2000
   12.4616    8.6700   19.4180 N   0  0  0  0  0  0  0  0  0  0  0  0
   11.8329   10.8148   18.6769 N   0  0  0  0  0  0  0  0  0  0  0  0
    6.1021    2.5564   21.0678 C   0  0  0  0  0  0  0  0  0  0  0  0
   10.9097   11.8051   18.4804 C   0  0  0  0  0  0  0  0  0  0  0  0
   11.2280   12.9135   17.5669 C   0  0  0  0  0  0  0  0  0  0  0  0
   12.3782    5.4231   20.7777 C   0  0  0  0  0  0  0  0  0  0  0  0
    7.7365    4.6508   21.6987 C   0  0  0  0  0  0  0  0  0  0  0  0
   13.0186   11.0102   18.0020 C   0  0  0  0  0  0  0  0  0  0  0  0
    8.6628    5.7088   21.8871 N   0  0  0  0  0  0  0  0  0  0  0  0
    5.6516    3.5258   21.9140 C   0  0  0  0  0  0  0  0  0  0  0  0
   11.5863    9.6815   19.4539 C   0  0  0  0  0  0  0  0  0  0  0  0
   12.9648    4.1543   20.9205 C   0  0  0  0  0  0  0  0  0  0  0  0
    8.2089    3.6265   20.8929 C   0  0  0  0  0  0  0  0  0  0  0  0
    7.3827    2.5724   20.5432 C   0  0  0  0  0  0  0  0  0  0  0  0
   11.1529    7.2750   20.8025 C   0  0  0  0  0  0  0  0  0  0  0  0
   10.2573    8.3215   20.9827 C   0  0  0  0  0  0  0  0  0  0  0  0
   11.1606    5.9378   21.2366 N   0  0  0  0  0  0  0  0  0  0  0  0
    9.8932   11.6736   19.0677 O   0  0  0  0  0  0  0  0  0  0  0  0
    6.4470    4.5850   22.2321 C   0  0  0  0  0  0  0  0  0  0  0  0
    8.4619    6.9895   22.2968 C   0  0  0  0  0  0  0  0  0  0  0  0
   12.2747    7.5102   20.0420 C   0  0  0  0  0  0  0  0  0  0  0  0
   14.2544    6.2142   19.4191 C   0  0  0  0  0  0  0  0  0  0  0  0
   13.0695    6.3705   20.0375 N   0  0  0  0  0  0  0  0  0  0  0  0
    9.1913    8.0876   21.8361 N   0  0  0  0  0  0  0  0  0  0  0  0
   10.4739    9.4813   20.2889 C   0  0  0  0  0  0  0  0  0  0  0  0
    7.5551    7.1270   23.1200 O   0  0  0  0  0  0  0  0  0  0  0  0
  1 11  4  0
  1 21  4  0
  2  4  1  0
  2  8  1  0
  2 11  1  0
  3 10  4  0
  3 14  4  0
  4  5  1  0
  4 18  2  0
  6 12  1  0
  6 17  4  0
  6 23  4  0
  7  9  1  0
  7 13  4  0
  7 19  4  0
  9 20  1  0
 10 19  4  0
 11 25  4  0
 13 14  4  0
 15 16  4  0
 15 17  4  0
 15 21  4  0
 16 24  1  0
 16 25  4  0
 20 24  1  0
 20 26  2  0
 21 23  4  0
 22 23  1  0
M  END
$$$$

 Created by Python create_sdf_string function

 26 28  0  0  0  0  0  0  0  0999 V2000
   12.4616    8.6700   19.4180 N   0  0  0  0  0  0  0  0  0  0  0  0
   11.8329   10.8148   18.6769 N   0  0  0  0  0  0  0  0  0  0  0  0
    6.1021    2.5564   21.0678 C   0  0  0  0  0  0  0  0  0  0  0  0
   10.9097   11.8051   18.4804 C   0  0  0  0  0  0  0  0  0  0  0  0
   11.2280   12.9135   17.5669 C   0  0  0  0  0  0  0  0  0  0  0  0
   12.3782    5.4231   20.7777 C   0  0  0  0  0  0  0  0  0  0  0  0
    7.7365    4.6508   21.6987 C   0  0  0  0  0  0  0  0  0  0  0  0
   13.0186   11.0102   18.0020 C   0  0  0  0  0  0  0  0  0  0  0  0
    8.6628    5.7088   21.8871 N   0  0  0  0  0  0  0  0  0  0  0  0
    5.6516    3.5258   21.9140 C   0  0  0  0  0  0  0  0  0  0  0  0
   11.5863    9.6815   19.4539 C   0  0  0  0  0  0  0  0  0  0  0  0
   12.9648    4.1543   20.9205 C   0  0  0  0  0  0  0  0  0  0  0  0
    8.2089    3.6265   20.8929 C   0  0  0  0  0  0  0  0  0  0  0  0
    7.3827    2.5724   20.5432 C   0  0  0  0  0  0  0  0  0  0  0  0
   11.1529    7.2750   20.8025 C   0  0  0  0  0  0  0  0  0  0  0  0
   10.2573    8.3215   20.9827 C   0  0  0  0  0  0  0  0  0  0  0  0
   11.1606    5.9378   21.2366 N   0  0  0  0  0  0  0  0  0  0  0  0
    9.8932   11.6736   19.0677 O   0  0  0  0  0  0  0  0  0  0  0  0
    6.4470    4.5850   22.2321 C   0  0  0  0  0  0  0  0  0  0  0  0
    8.4619    6.9895   22.2968 C   0  0  0  0  0  0  0  0  0  0  0  0
   12.2747    7.5102   20.0420 C   0  0  0  0  0  0  0  0  0  0  0  0
   14.2544    6.2142   19.4191 C   0  0  0  0  0  0  0  0  0  0  0  0
   13.0695    6.3705   20.0375 N   0  0  0  0  0  0  0  0  0  0  0  0
    9.1913    8.0876   21.8361 N   0  0  0  0  0  0  0  0  0  0  0  0
   10.4739    9.4813   20.2889 C   0  0  0  0  0  0  0  0  0  0  0  0
    7.5551    7.1270   23.1200 O   0  0  0  0  0  0  0  0  0  0  0  0
  1 11  4  0
  1 21  4  0
  2  4  1  0
  2  8  1  0
  2 11  1  0
  3 10  4  0
  3 14  4  0
  4  5  1  0
  4 18  2  0
  6 12  1  0
  6 17  4  0
  6 23  4  0
  7  9  1  0
  7 13  4  0
  7 19  4  0
  9 20  1  0
 10 19  4  0
 11 25  4  0
 13 14  4  0
 15 16  4  0
 15 17  4  0
 15 21  4  0
 16 24  1  0
 16 25  4  0
 20 24  1  0
 20 26  2  0
 21 23  4  0
 22 23  1  0
M  END
$$$$

 Created by Python create_sdf_string function

 26 28  0  0  0  0  0  0  0  0999 V2000
   12.4616    8.6700   19.4180 N   0  0  0  0  0  0  0  0  0  0  0  0
   11.8329   10.8148   18.6769 N   0  0  0  0  0  0  0  0  0  0  0  0
    6.1021    2.5564   21.0678 C   0  0  0  0  0  0  0  0  0  0  0  0
   10.9097   11.8051   18.4804 C   0  0  0  0  0  0  0  0  0  0  0  0
   11.2280   12.9135   17.5669 C   0  0  0  0  0  0  0  0  0  0  0  0
   12.3782    5.4231   20.7777 C   0  0  0  0  0  0  0  0  0  0  0  0
    7.7365    4.6508   21.6987 C   0  0  0  0  0  0  0  0  0  0  0  0
   13.0186   11.0102   18.0020 C   0  0  0  0  0  0  0  0  0  0  0  0
    8.6628    5.7088   21.8871 N   0  0  0  0  0  0  0  0  0  0  0  0
    5.6516    3.5258   21.9140 C   0  0  0  0  0  0  0  0  0  0  0  0
   11.5863    9.6815   19.4539 C   0  0  0  0  0  0  0  0  0  0  0  0
   12.9648    4.1543   20.9205 C   0  0  0  0  0  0  0  0  0  0  0  0
    8.2089    3.6265   20.8929 C   0  0  0  0  0  0  0  0  0  0  0  0
    7.3827    2.5724   20.5432 C   0  0  0  0  0  0  0  0  0  0  0  0
   11.1529    7.2750   20.8025 C   0  0  0  0  0  0  0  0  0  0  0  0
   10.2573    8.3215   20.9827 C   0  0  0  0  0  0  0  0  0  0  0  0
   11.1606    5.9378   21.2366 N   0  0  0  0  0  0  0  0  0  0  0  0
    9.8932   11.6736   19.0677 O   0  0  0  0  0  0  0  0  0  0  0  0
    6.4470    4.5850   22.2321 C   0  0  0  0  0  0  0  0  0  0  0  0
    8.4619    6.9895   22.2968 C   0  0  0  0  0  0  0  0  0  0  0  0
   12.2747    7.5102   20.0420 C   0  0  0  0  0  0  0  0  0  0  0  0
   14.2544    6.2142   19.4191 C   0  0  0  0  0  0  0  0  0  0  0  0
   13.0695    6.3705   20.0375 N   0  0  0  0  0  0  0  0  0  0  0  0
    9.1913    8.0876   21.8361 N   0  0  0  0  0  0  0  0  0  0  0  0
   10.4739    9.4813   20.2889 C   0  0  0  0  0  0  0  0  0  0  0  0
    7.5551    7.1270   23.1200 O   0  0  0  0  0  0  0  0  0  0  0  0
  1 11  4  0
  1 21  4  0
  2  4  1  0
  2  8  1  0
  2 11  1  0
  3 10  4  0
  3 14  4  0
  4  5  1  0
  4 18  2  0
  6 12  1  0
  6 17  4  0
  6 23  4  0
  7  9  1  0
  7 13  4  0
  7 19  4  0
  9 20  1  0
 10 19  4  0
 11 25  4  0
 13 14  4  0
 15 16  4  0
 15 17  4  0
 15 21  4  0
 16 24  1  0
 16 25  4  0
 20 24  1  0
 20 26  2  0
 21 23  4  0
 22 23  1  0
M  END
$$$$

 Created by Python create_sdf_string function

 26 28  0  0  0  0  0  0  0  0999 V2000
   12.4616    8.6700   19.4180 N   0  0  0  0  0  0  0  0  0  0  0  0
   11.8329   10.8148   18.6769 N   0  0  0  0  0  0  0  0  0  0  0  0
    6.1021    2.5564   21.0678 C   0  0  0  0  0  0  0  0  0  0  0  0
   10.9097   11.8051   18.4804 C   0  0  0  0  0  0  0  0  0  0  0  0
   11.2280   12.9135   17.5669 C   0  0  0  0  0  0  0  0  0  0  0  0
   12.3782    5.4231   20.7777 C   0  0  0  0  0  0  0  0  0  0  0  0
    7.7365    4.6508   21.6987 C   0  0  0  0  0  0  0  0  0  0  0  0
   13.0186   11.0102   18.0020 C   0  0  0  0  0  0  0  0  0  0  0  0
    8.6628    5.7088   21.8871 N   0  0  0  0  0  0  0  0  0  0  0  0
    5.6516    3.5258   21.9140 C   0  0  0  0  0  0  0  0  0  0  0  0
   11.5863    9.6815   19.4539 C   0  0  0  0  0  0  0  0  0  0  0  0
   12.9648    4.1543   20.9205 C   0  0  0  0  0  0  0  0  0  0  0  0
    8.2089    3.6265   20.8929 C   0  0  0  0  0  0  0  0  0  0  0  0
    7.3827    2.5724   20.5432 C   0  0  0  0  0  0  0  0  0  0  0  0
   11.1529    7.2750   20.8025 C   0  0  0  0  0  0  0  0  0  0  0  0
   10.2573    8.3215   20.9827 C   0  0  0  0  0  0  0  0  0  0  0  0
   11.1606    5.9378   21.2366 N   0  0  0  0  0  0  0  0  0  0  0  0
    9.8932   11.6736   19.0677 O   0  0  0  0  0  0  0  0  0  0  0  0
    6.4470    4.5850   22.2321 C   0  0  0  0  0  0  0  0  0  0  0  0
    8.4619    6.9895   22.2968 C   0  0  0  0  0  0  0  0  0  0  0  0
   12.2747    7.5102   20.0420 C   0  0  0  0  0  0  0  0  0  0  0  0
   14.2544    6.2142   19.4191 C   0  0  0  0  0  0  0  0  0  0  0  0
   13.0695    6.3705   20.0375 N   0  0  0  0  0  0  0  0  0  0  0  0
    9.1913    8.0876   21.8361 N   0  0  0  0  0  0  0  0  0  0  0  0
   10.4739    9.4813   20.2889 C   0  0  0  0  0  0  0  0  0  0  0  0
    7.5551    7.1270   23.1200 O   0  0  0  0  0  0  0  0  0  0  0  0
  1 11  4  0
  1 21  4  0
  2  4  1  0
  2  8  1  0
  2 11  1  0
  3 10  4  0
  3 14  4  0
  4  5  1  0
  4 18  2  0
  6 12  1  0
  6 17  4  0
  6 23  4  0
  7  9  1  0
  7 13  4  0
  7 19  4  0
  9 20  1  0
 10 19  4  0
 11 25  4  0
 13 14  4  0
 15 16  4  0
 15 17  4  0
 15 21  4  0
 16 24  1  0
 16 25  4  0
 20 24  1  0
 20 26  2  0
 21 23  4  0
 22 23  1  0
M  END
$$$$

 Created by Python create_sdf_string function

 26 28  0  0  0  0  0  0  0  0999 V2000
   12.4616    8.6700   19.4180 N   0  0  0  0  0  0  0  0  0  0  0  0
   11.8329   10.8148   18.6769 N   0  0  0  0  0  0  0  0  0  0  0  0
    6.1021    2.5564   21.0678 C   0  0  0  0  0  0  0  0  0  0  0  0
   10.9097   11.8051   18.4804 C   0  0  0  0  0  0  0  0  0  0  0  0
   11.2280   12.9135   17.5669 C   0  0  0  0  0  0  0  0  0  0  0  0
   12.3782    5.4231   20.7777 C   0  0  0  0  0  0  0  0  0  0  0  0
    7.7365    4.6508   21.6987 C   0  0  0  0  0  0  0  0  0  0  0  0
   13.0186   11.0102   18.0020 C   0  0  0  0  0  0  0  0  0  0  0  0
    8.6628    5.7088   21.8871 N   0  0  0  0  0  0  0  0  0  0  0  0
    5.6516    3.5258   21.9140 C   0  0  0  0  0  0  0  0  0  0  0  0
   11.5863    9.6815   19.4539 C   0  0  0  0  0  0  0  0  0  0  0  0
   12.9648    4.1543   20.9205 C   0  0  0  0  0  0  0  0  0  0  0  0
    8.2089    3.6265   20.8929 C   0  0  0  0  0  0  0  0  0  0  0  0
    7.3827    2.5724   20.5432 C   0  0  0  0  0  0  0  0  0  0  0  0
   11.1529    7.2750   20.8025 C   0  0  0  0  0  0  0  0  0  0  0  0
   10.2573    8.3215   20.9827 C   0  0  0  0  0  0  0  0  0  0  0  0
   11.1606    5.9378   21.2366 N   0  0  0  0  0  0  0  0  0  0  0  0
    9.8932   11.6736   19.0677 O   0  0  0  0  0  0  0  0  0  0  0  0
    6.4470    4.5850   22.2321 C   0  0  0  0  0  0  0  0  0  0  0  0
    8.4619    6.9895   22.2968 C   0  0  0  0  0  0  0  0  0  0  0  0
   12.2747    7.5102   20.0420 C   0  0  0  0  0  0  0  0  0  0  0  0
   14.2544    6.2142   19.4191 C   0  0  0  0  0  0  0  0  0  0  0  0
   13.0695    6.3705   20.0375 N   0  0  0  0  0  0  0  0  0  0  0  0
    9.1913    8.0876   21.8361 N   0  0  0  0  0  0  0  0  0  0  0  0
   10.4739    9.4813   20.2889 C   0  0  0  0  0  0  0  0  0  0  0  0
    7.5551    7.1270   23.1200 O   0  0  0  0  0  0  0  0  0  0  0  0
  1 11  4  0
  1 21  4  0
  2  4  1  0
  2  8  1  0
  2 11  1  0
  3 10  4  0
  3 14  4  0
  4  5  1  0
  4 18  2  0
  6 12  1  0
  6 17  4  0
  6 23  4  0
  7  9  1  0
  7 13  4  0
  7 19  4  0
  9 20  1  0
 10 19  4  0
 11 25  4  0
 13 14  4  0
 15 16  4  0
 15 17  4  0
 15 21  4  0
 16 24  1  0
 16 25  4  0
 20 24  1  0
 20 26  2  0
 21 23  4  0
 22 23  1  0
M  END
$$$$

 Created by Python create_sdf_string function

 26 28  0  0  0  0  0  0  0  0999 V2000
   12.4616    8.6700   19.4180 N   0  0  0  0  0  0  0  0  0  0  0  0
   11.8329   10.8148   18.6769 N   0  0  0  0  0  0  0  0  0  0  0  0
    6.1021    2.5564   21.0678 C   0  0  0  0  0  0  0  0  0  0  0  0
   10.9097   11.8051   18.4804 C   0  0  0  0  0  0  0  0  0  0  0  0
   11.2280   12.9135   17.5669 C   0  0  0  0  0  0  0  0  0  0  0  0
   12.3782    5.4231   20.7777 C   0  0  0  0  0  0  0  0  0  0  0  0
    7.7365    4.6508   21.6987 C   0  0  0  0  0  0  0  0  0  0  0  0
   13.0186   11.0102   18.0020 C   0  0  0  0  0  0  0  0  0  0  0  0
    8.6628    5.7088   21.8871 N   0  0  0  0  0  0  0  0  0  0  0  0
    5.6516    3.5258   21.9140 C   0  0  0  0  0  0  0  0  0  0  0  0
   11.5863    9.6815   19.4539 C   0  0  0  0  0  0  0  0  0  0  0  0
   12.9648    4.1543   20.9205 C   0  0  0  0  0  0  0  0  0  0  0  0
    8.2089    3.6265   20.8929 C   0  0  0  0  0  0  0  0  0  0  0  0
    7.3827    2.5724   20.5432 C   0  0  0  0  0  0  0  0  0  0  0  0
   11.1529    7.2750   20.8025 C   0  0  0  0  0  0  0  0  0  0  0  0
   10.2573    8.3215   20.9827 C   0  0  0  0  0  0  0  0  0  0  0  0
   11.1606    5.9378   21.2366 N   0  0  0  0  0  0  0  0  0  0  0  0
    9.8932   11.6736   19.0677 O   0  0  0  0  0  0  0  0  0  0  0  0
    6.4470    4.5850   22.2321 C   0  0  0  0  0  0  0  0  0  0  0  0
    8.4619    6.9895   22.2968 C   0  0  0  0  0  0  0  0  0  0  0  0
   12.2747    7.5102   20.0420 C   0  0  0  0  0  0  0  0  0  0  0  0
   14.2544    6.2142   19.4191 C   0  0  0  0  0  0  0  0  0  0  0  0
   13.0695    6.3705   20.0375 N   0  0  0  0  0  0  0  0  0  0  0  0
    9.1913    8.0876   21.8361 N   0  0  0  0  0  0  0  0  0  0  0  0
   10.4739    9.4813   20.2889 C   0  0  0  0  0  0  0  0  0  0  0  0
    7.5551    7.1270   23.1200 O   0  0  0  0  0  0  0  0  0  0  0  0
  1 11  4  0
  1 21  4  0
  2  4  1  0
  2  8  1  0
  2 11  1  0
  3 10  4  0
  3 14  4  0
  4  5  1  0
  4 18  2  0
  6 12  1  0
  6 17  4  0
  6 23  4  0
  7  9  1  0
  7 13  4  0
  7 19  4  0
  9 20  1  0
 10 19  4  0
 11 25  4  0
 13 14  4  0
 15 16  4  0
 15 17  4  0
 15 21  4  0
 16 24  1  0
 16 25  4  0
 20 24  1  0
 20 26  2  0
 21 23  4  0
 22 23  1  0
M  END
$$$$

 Created by Python create_sdf_string function

 26 28  0  0  0  0  0  0  0  0999 V2000
   12.4616    8.6700   19.4180 N   0  0  0  0  0  0  0  0  0  0  0  0
   11.8329   10.8148   18.6769 N   0  0  0  0  0  0  0  0  0  0  0  0
    6.1021    2.5564   21.0678 C   0  0  0  0  0  0  0  0  0  0  0  0
   10.9097   11.8051   18.4804 C   0  0  0  0  0  0  0  0  0  0  0  0
   11.2280   12.9135   17.5669 C   0  0  0  0  0  0  0  0  0  0  0  0
   12.3782    5.4231   20.7777 C   0  0  0  0  0  0  0  0  0  0  0  0
    7.7365    4.6508   21.6987 C   0  0  0  0  0  0  0  0  0  0  0  0
   13.0186   11.0102   18.0020 C   0  0  0  0  0  0  0  0  0  0  0  0
    8.6628    5.7088   21.8871 N   0  0  0  0  0  0  0  0  0  0  0  0
    5.6516    3.5258   21.9140 C   0  0  0  0  0  0  0  0  0  0  0  0
   11.5863    9.6815   19.4539 C   0  0  0  0  0  0  0  0  0  0  0  0
   12.9648    4.1543   20.9205 C   0  0  0  0  0  0  0  0  0  0  0  0
    8.2089    3.6265   20.8929 C   0  0  0  0  0  0  0  0  0  0  0  0
    7.3827    2.5724   20.5432 C   0  0  0  0  0  0  0  0  0  0  0  0
   11.1529    7.2750   20.8025 C   0  0  0  0  0  0  0  0  0  0  0  0
   10.2573    8.3215   20.9827 C   0  0  0  0  0  0  0  0  0  0  0  0
   11.1606    5.9378   21.2366 N   0  0  0  0  0  0  0  0  0  0  0  0
    9.8932   11.6736   19.0677 O   0  0  0  0  0  0  0  0  0  0  0  0
    6.4470    4.5850   22.2321 C   0  0  0  0  0  0  0  0  0  0  0  0
    8.4619    6.9895   22.2968 C   0  0  0  0  0  0  0  0  0  0  0  0
   12.2747    7.5102   20.0420 C   0  0  0  0  0  0  0  0  0  0  0  0
   14.2544    6.2142   19.4191 C   0  0  0  0  0  0  0  0  0  0  0  0
   13.0695    6.3705   20.0375 N   0  0  0  0  0  0  0  0  0  0  0  0
    9.1913    8.0876   21.8361 N   0  0  0  0  0  0  0  0  0  0  0  0
   10.4739    9.4813   20.2889 C   0  0  0  0  0  0  0  0  0  0  0  0
    7.5551    7.1270   23.1200 O   0  0  0  0  0  0  0  0  0  0  0  0
  1 11  4  0
  1 21  4  0
  2  4  1  0
  2  8  1  0
  2 11  1  0
  3 10  4  0
  3 14  4  0
  4  5  1  0
  4 18  2  0
  6 12  1  0
  6 17  4  0
  6 23  4  0
  7  9  1  0
  7 13  4  0
  7 19  4  0
  9 20  1  0
 10 19  4  0
 11 25  4  0
 13 14  4  0
 15 16  4  0
 15 17  4  0
 15 21  4  0
 16 24  1  0
 16 25  4  0
 20 24  1  0
 20 26  2  0
 21 23  4  0
 22 23  1  0
M  END
$$$$

 Created by Python create_sdf_string function

 26 28  0  0  0  0  0  0  0  0999 V2000
   12.4616    8.6700   19.4180 N   0  0  0  0  0  0  0  0  0  0  0  0
   11.8329   10.8148   18.6769 N   0  0  0  0  0  0  0  0  0  0  0  0
    6.1021    2.5564   21.0678 C   0  0  0  0  0  0  0  0  0  0  0  0
   10.9097   11.8051   18.4804 C   0  0  0  0  0  0  0  0  0  0  0  0
   11.2280   12.9135   17.5669 C   0  0  0  0  0  0  0  0  0  0  0  0
   12.3782    5.4231   20.7777 C   0  0  0  0  0  0  0  0  0  0  0  0
    7.7365    4.6508   21.6987 C   0  0  0  0  0  0  0  0  0  0  0  0
   13.0186   11.0102   18.0020 C   0  0  0  0  0  0  0  0  0  0  0  0
    8.6628    5.7088   21.8871 N   0  0  0  0  0  0  0  0  0  0  0  0
    5.6516    3.5258   21.9140 C   0  0  0  0  0  0  0  0  0  0  0  0
   11.5863    9.6815   19.4539 C   0  0  0  0  0  0  0  0  0  0  0  0
   12.9648    4.1543   20.9205 C   0  0  0  0  0  0  0  0  0  0  0  0
    8.2089    3.6265   20.8929 C   0  0  0  0  0  0  0  0  0  0  0  0
    7.3827    2.5724   20.5432 C   0  0  0  0  0  0  0  0  0  0  0  0
   11.1529    7.2750   20.8025 C   0  0  0  0  0  0  0  0  0  0  0  0
   10.2573    8.3215   20.9827 C   0  0  0  0  0  0  0  0  0  0  0  0
   11.1606    5.9378   21.2366 N   0  0  0  0  0  0  0  0  0  0  0  0
    9.8932   11.6736   19.0677 O   0  0  0  0  0  0  0  0  0  0  0  0
    6.4470    4.5850   22.2321 C   0  0  0  0  0  0  0  0  0  0  0  0
    8.4619    6.9895   22.2968 C   0  0  0  0  0  0  0  0  0  0  0  0
   12.2747    7.5102   20.0420 C   0  0  0  0  0  0  0  0  0  0  0  0
   14.2544    6.2142   19.4191 C   0  0  0  0  0  0  0  0  0  0  0  0
   13.0695    6.3705   20.0375 N   0  0  0  0  0  0  0  0  0  0  0  0
    9.1913    8.0876   21.8361 N   0  0  0  0  0  0  0  0  0  0  0  0
   10.4739    9.4813   20.2889 C   0  0  0  0  0  0  0  0  0  0  0  0
    7.5551    7.1270   23.1200 O   0  0  0  0  0  0  0  0  0  0  0  0
  1 11  4  0
  1 21  4  0
  2  4  1  0
  2  8  1  0
  2 11  1  0
  3 10  4  0
  3 14  4  0
  4  5  1  0
  4 18  2  0
  6 12  1  0
  6 17  4  0
  6 23  4  0
  7  9  1  0
  7 13  4  0
  7 19  4  0
  9 20  1  0
 10 19  4  0
 11 25  4  0
 13 14  4  0
 15 16  4  0
 15 17  4  0
 15 21  4  0
 16 24  1  0
 16 25  4  0
 20 24  1  0
 20 26  2  0
 21 23  4  0
 22 23  1  0
M  END
$$$$

 Created by Python create_sdf_string function

 26 28  0  0  0  0  0  0  0  0999 V2000
   12.4616    8.6700   19.4180 N   0  0  0  0  0  0  0  0  0  0  0  0
   11.8329   10.8148   18.6769 N   0  0  0  0  0  0  0  0  0  0  0  0
    6.1021    2.5564   21.0678 C   0  0  0  0  0  0  0  0  0  0  0  0
   10.9097   11.8051   18.4804 C   0  0  0  0  0  0  0  0  0  0  0  0
   11.2280   12.9135   17.5669 C   0  0  0  0  0  0  0  0  0  0  0  0
   12.3782    5.4231   20.7777 C   0  0  0  0  0  0  0  0  0  0  0  0
    7.7365    4.6508   21.6987 C   0  0  0  0  0  0  0  0  0  0  0  0
   13.0186   11.0102   18.0020 C   0  0  0  0  0  0  0  0  0  0  0  0
    8.6628    5.7088   21.8871 N   0  0  0  0  0  0  0  0  0  0  0  0
    5.6516    3.5258   21.9140 C   0  0  0  0  0  0  0  0  0  0  0  0
   11.5863    9.6815   19.4539 C   0  0  0  0  0  0  0  0  0  0  0  0
   12.9648    4.1543   20.9205 C   0  0  0  0  0  0  0  0  0  0  0  0
    8.2089    3.6265   20.8929 C   0  0  0  0  0  0  0  0  0  0  0  0
    7.3827    2.5724   20.5432 C   0  0  0  0  0  0  0  0  0  0  0  0
   11.1529    7.2750   20.8025 C   0  0  0  0  0  0  0  0  0  0  0  0
   10.2573    8.3215   20.9827 C   0  0  0  0  0  0  0  0  0  0  0  0
   11.1606    5.9378   21.2366 N   0  0  0  0  0  0  0  0  0  0  0  0
    9.8932   11.6736   19.0677 O   0  0  0  0  0  0  0  0  0  0  0  0
    6.4470    4.5850   22.2321 C   0  0  0  0  0  0  0  0  0  0  0  0
    8.4619    6.9895   22.2968 C   0  0  0  0  0  0  0  0  0  0  0  0
   12.2747    7.5102   20.0420 C   0  0  0  0  0  0  0  0  0  0  0  0
   14.2544    6.2142   19.4191 C   0  0  0  0  0  0  0  0  0  0  0  0
   13.0695    6.3705   20.0375 N   0  0  0  0  0  0  0  0  0  0  0  0
    9.1913    8.0876   21.8361 N   0  0  0  0  0  0  0  0  0  0  0  0
   10.4739    9.4813   20.2889 C   0  0  0  0  0  0  0  0  0  0  0  0
    7.5551    7.1270   23.1200 O   0  0  0  0  0  0  0  0  0  0  0  0
  1 11  4  0
  1 21  4  0
  2  4  1  0
  2  8  1  0
  2 11  1  0
  3 10  4  0
  3 14  4  0
  4  5  1  0
  4 18  2  0
  6 12  1  0
  6 17  4  0
  6 23  4  0
  7  9  1  0
  7 13  4  0
  7 19  4  0
  9 20  1  0
 10 19  4  0
 11 25  4  0
 13 14  4  0
 15 16  4  0
 15 17  4  0
 15 21  4  0
 16 24  1  0
 16 25  4  0
 20 24  1  0
 20 26  2  0
 21 23  4  0
 22 23  1  0
M  END
$$$$

 Created by Python create_sdf_string function

 26 28  0  0  0  0  0  0  0  0999 V2000
   12.4616    8.6700   19.4180 N   0  0  0  0  0  0  0  0  0  0  0  0
   11.8329   10.8148   18.6769 N   0  0  0  0  0  0  0  0  0  0  0  0
    6.1021    2.5564   21.0678 C   0  0  0  0  0  0  0  0  0  0  0  0
   10.9097   11.8051   18.4804 C   0  0  0  0  0  0  0  0  0  0  0  0
   11.2280   12.9135   17.5669 C   0  0  0  0  0  0  0  0  0  0  0  0
   12.3782    5.4231   20.7777 C   0  0  0  0  0  0  0  0  0  0  0  0
    7.7365    4.6508   21.6987 C   0  0  0  0  0  0  0  0  0  0  0  0
   13.0186   11.0102   18.0020 C   0  0  0  0  0  0  0  0  0  0  0  0
    8.6628    5.7088   21.8871 N   0  0  0  0  0  0  0  0  0  0  0  0
    5.6516    3.5258   21.9140 C   0  0  0  0  0  0  0  0  0  0  0  0
   11.5863    9.6815   19.4539 C   0  0  0  0  0  0  0  0  0  0  0  0
   12.9648    4.1543   20.9205 C   0  0  0  0  0  0  0  0  0  0  0  0
    8.2089    3.6265   20.8929 C   0  0  0  0  0  0  0  0  0  0  0  0
    7.3827    2.5724   20.5432 C   0  0  0  0  0  0  0  0  0  0  0  0
   11.1529    7.2750   20.8025 C   0  0  0  0  0  0  0  0  0  0  0  0
   10.2573    8.3215   20.9827 C   0  0  0  0  0  0  0  0  0  0  0  0
   11.1606    5.9378   21.2366 N   0  0  0  0  0  0  0  0  0  0  0  0
    9.8932   11.6736   19.0677 O   0  0  0  0  0  0  0  0  0  0  0  0
    6.4470    4.5850   22.2321 C   0  0  0  0  0  0  0  0  0  0  0  0
    8.4619    6.9895   22.2968 C   0  0  0  0  0  0  0  0  0  0  0  0
   12.2747    7.5102   20.0420 C   0  0  0  0  0  0  0  0  0  0  0  0
   14.2544    6.2142   19.4191 C   0  0  0  0  0  0  0  0  0  0  0  0
   13.0695    6.3705   20.0375 N   0  0  0  0  0  0  0  0  0  0  0  0
    9.1913    8.0876   21.8361 N   0  0  0  0  0  0  0  0  0  0  0  0
   10.4739    9.4813   20.2889 C   0  0  0  0  0  0  0  0  0  0  0  0
    7.5551    7.1270   23.1200 O   0  0  0  0  0  0  0  0  0  0  0  0
  1 11  4  0
  1 21  4  0
  2  4  1  0
  2  8  1  0
  2 11  1  0
  3 10  4  0
  3 14  4  0
  4  5  1  0
  4 18  2  0
  6 12  1  0
  6 17  4  0
  6 23  4  0
  7  9  1  0
  7 13  4  0
  7 19  4  0
  9 20  1  0
 10 19  4  0
 11 25  4  0
 13 14  4  0
 15 16  4  0
 15 17  4  0
 15 21  4  0
 16 24  1  0
 16 25  4  0
 20 24  1  0
 20 26  2  0
 21 23  4  0
 22 23  1  0
M  END
$$$$

 Created by Python create_sdf_string function

 26 28  0  0  0  0  0  0  0  0999 V2000
   12.4616    8.6700   19.4180 N   0  0  0  0  0  0  0  0  0  0  0  0
   11.8329   10.8148   18.6769 N   0  0  0  0  0  0  0  0  0  0  0  0
    6.1021    2.5564   21.0678 C   0  0  0  0  0  0  0  0  0  0  0  0
   10.9097   11.8051   18.4804 C   0  0  0  0  0  0  0  0  0  0  0  0
   11.2280   12.9135   17.5669 C   0  0  0  0  0  0  0  0  0  0  0  0
   12.3782    5.4231   20.7777 C   0  0  0  0  0  0  0  0  0  0  0  0
    7.7365    4.6508   21.6987 C   0  0  0  0  0  0  0  0  0  0  0  0
   13.0186   11.0102   18.0020 C   0  0  0  0  0  0  0  0  0  0  0  0
    8.6628    5.7088   21.8871 N   0  0  0  0  0  0  0  0  0  0  0  0
    5.6516    3.5258   21.9140 C   0  0  0  0  0  0  0  0  0  0  0  0
   11.5863    9.6815   19.4539 C   0  0  0  0  0  0  0  0  0  0  0  0
   12.9648    4.1543   20.9205 C   0  0  0  0  0  0  0  0  0  0  0  0
    8.2089    3.6265   20.8929 C   0  0  0  0  0  0  0  0  0  0  0  0
    7.3827    2.5724   20.5432 C   0  0  0  0  0  0  0  0  0  0  0  0
   11.1529    7.2750   20.8025 C   0  0  0  0  0  0  0  0  0  0  0  0
   10.2573    8.3215   20.9827 C   0  0  0  0  0  0  0  0  0  0  0  0
   11.1606    5.9378   21.2366 N   0  0  0  0  0  0  0  0  0  0  0  0
    9.8932   11.6736   19.0677 O   0  0  0  0  0  0  0  0  0  0  0  0
    6.4470    4.5850   22.2321 C   0  0  0  0  0  0  0  0  0  0  0  0
    8.4619    6.9895   22.2968 C   0  0  0  0  0  0  0  0  0  0  0  0
   12.2747    7.5102   20.0420 C   0  0  0  0  0  0  0  0  0  0  0  0
   14.2544    6.2142   19.4191 C   0  0  0  0  0  0  0  0  0  0  0  0
   13.0695    6.3705   20.0375 N   0  0  0  0  0  0  0  0  0  0  0  0
    9.1913    8.0876   21.8361 N   0  0  0  0  0  0  0  0  0  0  0  0
   10.4739    9.4813   20.2889 C   0  0  0  0  0  0  0  0  0  0  0  0
    7.5551    7.1270   23.1200 O   0  0  0  0  0  0  0  0  0  0  0  0
  1 11  4  0
  1 21  4  0
  2  4  1  0
  2  8  1  0
  2 11  1  0
  3 10  4  0
  3 14  4  0
  4  5  1  0
  4 18  2  0
  6 12  1  0
  6 17  4  0
  6 23  4  0
  7  9  1  0
  7 13  4  0
  7 19  4  0
  9 20  1  0
 10 19  4  0
 11 25  4  0
 13 14  4  0
 15 16  4  0
 15 17  4  0
 15 21  4  0
 16 24  1  0
 16 25  4  0
 20 24  1  0
 20 26  2  0
 21 23  4  0
 22 23  1  0
M  END
$$$$

 Created by Python create_sdf_string function

 26 28  0  0  0  0  0  0  0  0999 V2000
   12.4616    8.6700   19.4180 N   0  0  0  0  0  0  0  0  0  0  0  0
   11.8329   10.8148   18.6769 N   0  0  0  0  0  0  0  0  0  0  0  0
    6.1021    2.5564   21.0678 C   0  0  0  0  0  0  0  0  0  0  0  0
   10.9097   11.8051   18.4804 C   0  0  0  0  0  0  0  0  0  0  0  0
   11.2280   12.9135   17.5669 C   0  0  0  0  0  0  0  0  0  0  0  0
   12.3782    5.4231   20.7777 C   0  0  0  0  0  0  0  0  0  0  0  0
    7.7365    4.6508   21.6987 C   0  0  0  0  0  0  0  0  0  0  0  0
   13.0186   11.0102   18.0020 C   0  0  0  0  0  0  0  0  0  0  0  0
    8.6628    5.7088   21.8871 N   0  0  0  0  0  0  0  0  0  0  0  0
    5.6516    3.5258   21.9140 C   0  0  0  0  0  0  0  0  0  0  0  0
   11.5863    9.6815   19.4539 C   0  0  0  0  0  0  0  0  0  0  0  0
   12.9648    4.1543   20.9205 C   0  0  0  0  0  0  0  0  0  0  0  0
    8.2089    3.6265   20.8929 C   0  0  0  0  0  0  0  0  0  0  0  0
    7.3827    2.5724   20.5432 C   0  0  0  0  0  0  0  0  0  0  0  0
   11.1529    7.2750   20.8025 C   0  0  0  0  0  0  0  0  0  0  0  0
   10.2573    8.3215   20.9827 C   0  0  0  0  0  0  0  0  0  0  0  0
   11.1606    5.9378   21.2366 N   0  0  0  0  0  0  0  0  0  0  0  0
    9.8932   11.6736   19.0677 O   0  0  0  0  0  0  0  0  0  0  0  0
    6.4470    4.5850   22.2321 C   0  0  0  0  0  0  0  0  0  0  0  0
    8.4619    6.9895   22.2968 C   0  0  0  0  0  0  0  0  0  0  0  0
   12.2747    7.5102   20.0420 C   0  0  0  0  0  0  0  0  0  0  0  0
   14.2544    6.2142   19.4191 C   0  0  0  0  0  0  0  0  0  0  0  0
   13.0695    6.3705   20.0375 N   0  0  0  0  0  0  0  0  0  0  0  0
    9.1913    8.0876   21.8361 N   0  0  0  0  0  0  0  0  0  0  0  0
   10.4739    9.4813   20.2889 C   0  0  0  0  0  0  0  0  0  0  0  0
    7.5551    7.1270   23.1200 O   0  0  0  0  0  0  0  0  0  0  0  0
  1 11  4  0
  1 21  4  0
  2  4  1  0
  2  8  1  0
  2 11  1  0
  3 10  4  0
  3 14  4  0
  4  5  1  0
  4 18  2  0
  6 12  1  0
  6 17  4  0
  6 23  4  0
  7  9  1  0
  7 13  4  0
  7 19  4  0
  9 20  1  0
 10 19  4  0
 11 25  4  0
 13 14  4  0
 15 16  4  0
 15 17  4  0
 15 21  4  0
 16 24  1  0
 16 25  4  0
 20 24  1  0
 20 26  2  0
 21 23  4  0
 22 23  1  0
M  END
$$$$

 Created by Python create_sdf_string function

 26 28  0  0  0  0  0  0  0  0999 V2000
   12.4616    8.6700   19.4180 N   0  0  0  0  0  0  0  0  0  0  0  0
   11.8329   10.8148   18.6769 N   0  0  0  0  0  0  0  0  0  0  0  0
    6.1021    2.5564   21.0678 C   0  0  0  0  0  0  0  0  0  0  0  0
   10.9097   11.8051   18.4804 C   0  0  0  0  0  0  0  0  0  0  0  0
   11.2280   12.9135   17.5669 C   0  0  0  0  0  0  0  0  0  0  0  0
   12.3782    5.4231   20.7777 C   0  0  0  0  0  0  0  0  0  0  0  0
    7.7365    4.6508   21.6987 C   0  0  0  0  0  0  0  0  0  0  0  0
   13.0186   11.0102   18.0020 C   0  0  0  0  0  0  0  0  0  0  0  0
    8.6628    5.7088   21.8871 N   0  0  0  0  0  0  0  0  0  0  0  0
    5.6516    3.5258   21.9140 C   0  0  0  0  0  0  0  0  0  0  0  0
   11.5863    9.6815   19.4539 C   0  0  0  0  0  0  0  0  0  0  0  0
   12.9648    4.1543   20.9205 C   0  0  0  0  0  0  0  0  0  0  0  0
    8.2089    3.6265   20.8929 C   0  0  0  0  0  0  0  0  0  0  0  0
    7.3827    2.5724   20.5432 C   0  0  0  0  0  0  0  0  0  0  0  0
   11.1529    7.2750   20.8025 C   0  0  0  0  0  0  0  0  0  0  0  0
   10.2573    8.3215   20.9827 C   0  0  0  0  0  0  0  0  0  0  0  0
   11.1606    5.9378   21.2366 N   0  0  0  0  0  0  0  0  0  0  0  0
    9.8932   11.6736   19.0677 O   0  0  0  0  0  0  0  0  0  0  0  0
    6.4470    4.5850   22.2321 C   0  0  0  0  0  0  0  0  0  0  0  0
    8.4619    6.9895   22.2968 C   0  0  0  0  0  0  0  0  0  0  0  0
   12.2747    7.5102   20.0420 C   0  0  0  0  0  0  0  0  0  0  0  0
   14.2544    6.2142   19.4191 C   0  0  0  0  0  0  0  0  0  0  0  0
   13.0695    6.3705   20.0375 N   0  0  0  0  0  0  0  0  0  0  0  0
    9.1913    8.0876   21.8361 N   0  0  0  0  0  0  0  0  0  0  0  0
   10.4739    9.4813   20.2889 C   0  0  0  0  0  0  0  0  0  0  0  0
    7.5551    7.1270   23.1200 O   0  0  0  0  0  0  0  0  0  0  0  0
  1 11  4  0
  1 21  4  0
  2  4  1  0
  2  8  1  0
  2 11  1  0
  3 10  4  0
  3 14  4  0
  4  5  1  0
  4 18  2  0
  6 12  1  0
  6 17  4  0
  6 23  4  0
  7  9  1  0
  7 13  4  0
  7 19  4  0
  9 20  1  0
 10 19  4  0
 11 25  4  0
 13 14  4  0
 15 16  4  0
 15 17  4  0
 15 21  4  0
 16 24  1  0
 16 25  4  0
 20 24  1  0
 20 26  2  0
 21 23  4  0
 22 23  1  0
M  END
$$$$

 Created by Python create_sdf_string function

 26 28  0  0  0  0  0  0  0  0999 V2000
   12.4616    8.6700   19.4180 N   0  0  0  0  0  0  0  0  0  0  0  0
   11.8329   10.8148   18.6769 N   0  0  0  0  0  0  0  0  0  0  0  0
    6.1021    2.5564   21.0678 C   0  0  0  0  0  0  0  0  0  0  0  0
   10.9097   11.8051   18.4804 C   0  0  0  0  0  0  0  0  0  0  0  0
   11.2280   12.9135   17.5669 C   0  0  0  0  0  0  0  0  0  0  0  0
   12.3782    5.4231   20.7777 C   0  0  0  0  0  0  0  0  0  0  0  0
    7.7365    4.6508   21.6987 C   0  0  0  0  0  0  0  0  0  0  0  0
   13.0186   11.0102   18.0020 C   0  0  0  0  0  0  0  0  0  0  0  0
    8.6628    5.7088   21.8871 N   0  0  0  0  0  0  0  0  0  0  0  0
    5.6516    3.5258   21.9140 C   0  0  0  0  0  0  0  0  0  0  0  0
   11.5863    9.6815   19.4539 C   0  0  0  0  0  0  0  0  0  0  0  0
   12.9648    4.1543   20.9205 C   0  0  0  0  0  0  0  0  0  0  0  0
    8.2089    3.6265   20.8929 C   0  0  0  0  0  0  0  0  0  0  0  0
    7.3827    2.5724   20.5432 C   0  0  0  0  0  0  0  0  0  0  0  0
   11.1529    7.2750   20.8025 C   0  0  0  0  0  0  0  0  0  0  0  0
   10.2573    8.3215   20.9827 C   0  0  0  0  0  0  0  0  0  0  0  0
   11.1606    5.9378   21.2366 N   0  0  0  0  0  0  0  0  0  0  0  0
    9.8932   11.6736   19.0677 O   0  0  0  0  0  0  0  0  0  0  0  0
    6.4470    4.5850   22.2321 C   0  0  0  0  0  0  0  0  0  0  0  0
    8.4619    6.9895   22.2968 C   0  0  0  0  0  0  0  0  0  0  0  0
   12.2747    7.5102   20.0420 C   0  0  0  0  0  0  0  0  0  0  0  0
   14.2544    6.2142   19.4191 C   0  0  0  0  0  0  0  0  0  0  0  0
   13.0695    6.3705   20.0375 N   0  0  0  0  0  0  0  0  0  0  0  0
    9.1913    8.0876   21.8361 N   0  0  0  0  0  0  0  0  0  0  0  0
   10.4739    9.4813   20.2889 C   0  0  0  0  0  0  0  0  0  0  0  0
    7.5551    7.1270   23.1200 O   0  0  0  0  0  0  0  0  0  0  0  0
  1 11  4  0
  1 21  4  0
  2  4  1  0
  2  8  1  0
  2 11  1  0
  3 10  4  0
  3 14  4  0
  4  5  1  0
  4 18  2  0
  6 12  1  0
  6 17  4  0
  6 23  4  0
  7  9  1  0
  7 13  4  0
  7 19  4  0
  9 20  1  0
 10 19  4  0
 11 25  4  0
 13 14  4  0
 15 16  4  0
 15 17  4  0
 15 21  4  0
 16 24  1  0
 16 25  4  0
 20 24  1  0
 20 26  2  0
 21 23  4  0
 22 23  1  0
M  END
$$$$

 Created by Python create_sdf_string function

 26 28  0  0  0  0  0  0  0  0999 V2000
   12.4616    8.6700   19.4180 N   0  0  0  0  0  0  0  0  0  0  0  0
   11.8329   10.8148   18.6769 N   0  0  0  0  0  0  0  0  0  0  0  0
    6.1021    2.5564   21.0678 C   0  0  0  0  0  0  0  0  0  0  0  0
   10.9097   11.8051   18.4804 C   0  0  0  0  0  0  0  0  0  0  0  0
   11.2280   12.9135   17.5669 C   0  0  0  0  0  0  0  0  0  0  0  0
   12.3782    5.4231   20.7777 C   0  0  0  0  0  0  0  0  0  0  0  0
    7.7365    4.6508   21.6987 C   0  0  0  0  0  0  0  0  0  0  0  0
   13.0186   11.0102   18.0020 C   0  0  0  0  0  0  0  0  0  0  0  0
    8.6628    5.7088   21.8871 N   0  0  0  0  0  0  0  0  0  0  0  0
    5.6516    3.5258   21.9140 C   0  0  0  0  0  0  0  0  0  0  0  0
   11.5863    9.6815   19.4539 C   0  0  0  0  0  0  0  0  0  0  0  0
   12.9648    4.1543   20.9205 C   0  0  0  0  0  0  0  0  0  0  0  0
    8.2089    3.6265   20.8929 C   0  0  0  0  0  0  0  0  0  0  0  0
    7.3827    2.5724   20.5432 C   0  0  0  0  0  0  0  0  0  0  0  0
   11.1529    7.2750   20.8025 C   0  0  0  0  0  0  0  0  0  0  0  0
   10.2573    8.3215   20.9827 C   0  0  0  0  0  0  0  0  0  0  0  0
   11.1606    5.9378   21.2366 N   0  0  0  0  0  0  0  0  0  0  0  0
    9.8932   11.6736   19.0677 O   0  0  0  0  0  0  0  0  0  0  0  0
    6.4470    4.5850   22.2321 C   0  0  0  0  0  0  0  0  0  0  0  0
    8.4619    6.9895   22.2968 C   0  0  0  0  0  0  0  0  0  0  0  0
   12.2747    7.5102   20.0420 C   0  0  0  0  0  0  0  0  0  0  0  0
   14.2544    6.2142   19.4191 C   0  0  0  0  0  0  0  0  0  0  0  0
   13.0695    6.3705   20.0375 N   0  0  0  0  0  0  0  0  0  0  0  0
    9.1913    8.0876   21.8361 N   0  0  0  0  0  0  0  0  0  0  0  0
   10.4739    9.4813   20.2889 C   0  0  0  0  0  0  0  0  0  0  0  0
    7.5551    7.1270   23.1200 O   0  0  0  0  0  0  0  0  0  0  0  0
  1 11  4  0
  1 21  4  0
  2  4  1  0
  2  8  1  0
  2 11  1  0
  3 10  4  0
  3 14  4  0
  4  5  1  0
  4 18  2  0
  6 12  1  0
  6 17  4  0
  6 23  4  0
  7  9  1  0
  7 13  4  0
  7 19  4  0
  9 20  1  0
 10 19  4  0
 11 25  4  0
 13 14  4  0
 15 16  4  0
 15 17  4  0
 15 21  4  0
 16 24  1  0
 16 25  4  0
 20 24  1  0
 20 26  2  0
 21 23  4  0
 22 23  1  0
M  END
$$$$

 Created by Python create_sdf_string function

 26 28  0  0  0  0  0  0  0  0999 V2000
   12.4616    8.6700   19.4180 N   0  0  0  0  0  0  0  0  0  0  0  0
   11.8329   10.8148   18.6769 N   0  0  0  0  0  0  0  0  0  0  0  0
    6.1021    2.5564   21.0678 C   0  0  0  0  0  0  0  0  0  0  0  0
   10.9097   11.8051   18.4804 C   0  0  0  0  0  0  0  0  0  0  0  0
   11.2280   12.9135   17.5669 C   0  0  0  0  0  0  0  0  0  0  0  0
   12.3782    5.4231   20.7777 C   0  0  0  0  0  0  0  0  0  0  0  0
    7.7365    4.6508   21.6987 C   0  0  0  0  0  0  0  0  0  0  0  0
   13.0186   11.0102   18.0020 C   0  0  0  0  0  0  0  0  0  0  0  0
    8.6628    5.7088   21.8871 N   0  0  0  0  0  0  0  0  0  0  0  0
    5.6516    3.5258   21.9140 C   0  0  0  0  0  0  0  0  0  0  0  0
   11.5863    9.6815   19.4539 C   0  0  0  0  0  0  0  0  0  0  0  0
   12.9648    4.1543   20.9205 C   0  0  0  0  0  0  0  0  0  0  0  0
    8.2089    3.6265   20.8929 C   0  0  0  0  0  0  0  0  0  0  0  0
    7.3827    2.5724   20.5432 C   0  0  0  0  0  0  0  0  0  0  0  0
   11.1529    7.2750   20.8025 C   0  0  0  0  0  0  0  0  0  0  0  0
   10.2573    8.3215   20.9827 C   0  0  0  0  0  0  0  0  0  0  0  0
   11.1606    5.9378   21.2366 N   0  0  0  0  0  0  0  0  0  0  0  0
    9.8932   11.6736   19.0677 O   0  0  0  0  0  0  0  0  0  0  0  0
    6.4470    4.5850   22.2321 C   0  0  0  0  0  0  0  0  0  0  0  0
    8.4619    6.9895   22.2968 C   0  0  0  0  0  0  0  0  0  0  0  0
   12.2747    7.5102   20.0420 C   0  0  0  0  0  0  0  0  0  0  0  0
   14.2544    6.2142   19.4191 C   0  0  0  0  0  0  0  0  0  0  0  0
   13.0695    6.3705   20.0375 N   0  0  0  0  0  0  0  0  0  0  0  0
    9.1913    8.0876   21.8361 N   0  0  0  0  0  0  0  0  0  0  0  0
   10.4739    9.4813   20.2889 C   0  0  0  0  0  0  0  0  0  0  0  0
    7.5551    7.1270   23.1200 O   0  0  0  0  0  0  0  0  0  0  0  0
  1 11  4  0
  1 21  4  0
  2  4  1  0
  2  8  1  0
  2 11  1  0
  3 10  4  0
  3 14  4  0
  4  5  1  0
  4 18  2  0
  6 12  1  0
  6 17  4  0
  6 23  4  0
  7  9  1  0
  7 13  4  0
  7 19  4  0
  9 20  1  0
 10 19  4  0
 11 25  4  0
 13 14  4  0
 15 16  4  0
 15 17  4  0
 15 21  4  0
 16 24  1  0
 16 25  4  0
 20 24  1  0
 20 26  2  0
 21 23  4  0
 22 23  1  0
M  END
$$$$

 Created by Python create_sdf_string function

 26 28  0  0  0  0  0  0  0  0999 V2000
   12.4616    8.6700   19.4180 N   0  0  0  0  0  0  0  0  0  0  0  0
   11.8329   10.8148   18.6769 N   0  0  0  0  0  0  0  0  0  0  0  0
    6.1021    2.5564   21.0678 C   0  0  0  0  0  0  0  0  0  0  0  0
   10.9097   11.8051   18.4804 C   0  0  0  0  0  0  0  0  0  0  0  0
   11.2280   12.9135   17.5669 C   0  0  0  0  0  0  0  0  0  0  0  0
   12.3782    5.4231   20.7777 C   0  0  0  0  0  0  0  0  0  0  0  0
    7.7365    4.6508   21.6987 C   0  0  0  0  0  0  0  0  0  0  0  0
   13.0186   11.0102   18.0020 C   0  0  0  0  0  0  0  0  0  0  0  0
    8.6628    5.7088   21.8871 N   0  0  0  0  0  0  0  0  0  0  0  0
    5.6516    3.5258   21.9140 C   0  0  0  0  0  0  0  0  0  0  0  0
   11.5863    9.6815   19.4539 C   0  0  0  0  0  0  0  0  0  0  0  0
   12.9648    4.1543   20.9205 C   0  0  0  0  0  0  0  0  0  0  0  0
    8.2089    3.6265   20.8929 C   0  0  0  0  0  0  0  0  0  0  0  0
    7.3827    2.5724   20.5432 C   0  0  0  0  0  0  0  0  0  0  0  0
   11.1529    7.2750   20.8025 C   0  0  0  0  0  0  0  0  0  0  0  0
   10.2573    8.3215   20.9827 C   0  0  0  0  0  0  0  0  0  0  0  0
   11.1606    5.9378   21.2366 N   0  0  0  0  0  0  0  0  0  0  0  0
    9.8932   11.6736   19.0677 O   0  0  0  0  0  0  0  0  0  0  0  0
    6.4470    4.5850   22.2321 C   0  0  0  0  0  0  0  0  0  0  0  0
    8.4619    6.9895   22.2968 C   0  0  0  0  0  0  0  0  0  0  0  0
   12.2747    7.5102   20.0420 C   0  0  0  0  0  0  0  0  0  0  0  0
   14.2544    6.2142   19.4191 C   0  0  0  0  0  0  0  0  0  0  0  0
   13.0695    6.3705   20.0375 N   0  0  0  0  0  0  0  0  0  0  0  0
    9.1913    8.0876   21.8361 N   0  0  0  0  0  0  0  0  0  0  0  0
   10.4739    9.4813   20.2889 C   0  0  0  0  0  0  0  0  0  0  0  0
    7.5551    7.1270   23.1200 O   0  0  0  0  0  0  0  0  0  0  0  0
  1 11  4  0
  1 21  4  0
  2  4  1  0
  2  8  1  0
  2 11  1  0
  3 10  4  0
  3 14  4  0
  4  5  1  0
  4 18  2  0
  6 12  1  0
  6 17  4  0
  6 23  4  0
  7  9  1  0
  7 13  4  0
  7 19  4  0
  9 20  1  0
 10 19  4  0
 11 25  4  0
 13 14  4  0
 15 16  4  0
 15 17  4  0
 15 21  4  0
 16 24  1  0
 16 25  4  0
 20 24  1  0
 20 26  2  0
 21 23  4  0
 22 23  1  0
M  END
$$$$

 Created by Python create_sdf_string function

 26 28  0  0  0  0  0  0  0  0999 V2000
   12.4616    8.6700   19.4180 N   0  0  0  0  0  0  0  0  0  0  0  0
   11.8329   10.8148   18.6769 N   0  0  0  0  0  0  0  0  0  0  0  0
    6.1021    2.5564   21.0678 C   0  0  0  0  0  0  0  0  0  0  0  0
   10.9097   11.8051   18.4804 C   0  0  0  0  0  0  0  0  0  0  0  0
   11.2280   12.9135   17.5669 C   0  0  0  0  0  0  0  0  0  0  0  0
   12.3782    5.4231   20.7777 C   0  0  0  0  0  0  0  0  0  0  0  0
    7.7365    4.6508   21.6987 C   0  0  0  0  0  0  0  0  0  0  0  0
   13.0186   11.0102   18.0020 C   0  0  0  0  0  0  0  0  0  0  0  0
    8.6628    5.7088   21.8871 N   0  0  0  0  0  0  0  0  0  0  0  0
    5.6516    3.5258   21.9140 C   0  0  0  0  0  0  0  0  0  0  0  0
   11.5863    9.6815   19.4539 C   0  0  0  0  0  0  0  0  0  0  0  0
   12.9648    4.1543   20.9205 C   0  0  0  0  0  0  0  0  0  0  0  0
    8.2089    3.6265   20.8929 C   0  0  0  0  0  0  0  0  0  0  0  0
    7.3827    2.5724   20.5432 C   0  0  0  0  0  0  0  0  0  0  0  0
   11.1529    7.2750   20.8025 C   0  0  0  0  0  0  0  0  0  0  0  0
   10.2573    8.3215   20.9827 C   0  0  0  0  0  0  0  0  0  0  0  0
   11.1606    5.9378   21.2366 N   0  0  0  0  0  0  0  0  0  0  0  0
    9.8932   11.6736   19.0677 O   0  0  0  0  0  0  0  0  0  0  0  0
    6.4470    4.5850   22.2321 C   0  0  0  0  0  0  0  0  0  0  0  0
    8.4619    6.9895   22.2968 C   0  0  0  0  0  0  0  0  0  0  0  0
   12.2747    7.5102   20.0420 C   0  0  0  0  0  0  0  0  0  0  0  0
   14.2544    6.2142   19.4191 C   0  0  0  0  0  0  0  0  0  0  0  0
   13.0695    6.3705   20.0375 N   0  0  0  0  0  0  0  0  0  0  0  0
    9.1913    8.0876   21.8361 N   0  0  0  0  0  0  0  0  0  0  0  0
   10.4739    9.4813   20.2889 C   0  0  0  0  0  0  0  0  0  0  0  0
    7.5551    7.1270   23.1200 O   0  0  0  0  0  0  0  0  0  0  0  0
  1 11  4  0
  1 21  4  0
  2  4  1  0
  2  8  1  0
  2 11  1  0
  3 10  4  0
  3 14  4  0
  4  5  1  0
  4 18  2  0
  6 12  1  0
  6 17  4  0
  6 23  4  0
  7  9  1  0
  7 13  4  0
  7 19  4  0
  9 20  1  0
 10 19  4  0
 11 25  4  0
 13 14  4  0
 15 16  4  0
 15 17  4  0
 15 21  4  0
 16 24  1  0
 16 25  4  0
 20 24  1  0
 20 26  2  0
 21 23  4  0
 22 23  1  0
M  END
$$$$

 Created by Python create_sdf_string function

 26 28  0  0  0  0  0  0  0  0999 V2000
   12.4616    8.6700   19.4180 N   0  0  0  0  0  0  0  0  0  0  0  0
   11.8329   10.8148   18.6769 N   0  0  0  0  0  0  0  0  0  0  0  0
    6.1021    2.5564   21.0678 C   0  0  0  0  0  0  0  0  0  0  0  0
   10.9097   11.8051   18.4804 C   0  0  0  0  0  0  0  0  0  0  0  0
   11.2280   12.9135   17.5669 C   0  0  0  0  0  0  0  0  0  0  0  0
   12.3782    5.4231   20.7777 C   0  0  0  0  0  0  0  0  0  0  0  0
    7.7365    4.6508   21.6987 C   0  0  0  0  0  0  0  0  0  0  0  0
   13.0186   11.0102   18.0020 C   0  0  0  0  0  0  0  0  0  0  0  0
    8.6628    5.7088   21.8871 N   0  0  0  0  0  0  0  0  0  0  0  0
    5.6516    3.5258   21.9140 C   0  0  0  0  0  0  0  0  0  0  0  0
   11.5863    9.6815   19.4539 C   0  0  0  0  0  0  0  0  0  0  0  0
   12.9648    4.1543   20.9205 C   0  0  0  0  0  0  0  0  0  0  0  0
    8.2089    3.6265   20.8929 C   0  0  0  0  0  0  0  0  0  0  0  0
    7.3827    2.5724   20.5432 C   0  0  0  0  0  0  0  0  0  0  0  0
   11.1529    7.2750   20.8025 C   0  0  0  0  0  0  0  0  0  0  0  0
   10.2573    8.3215   20.9827 C   0  0  0  0  0  0  0  0  0  0  0  0
   11.1606    5.9378   21.2366 N   0  0  0  0  0  0  0  0  0  0  0  0
    9.8932   11.6736   19.0677 O   0  0  0  0  0  0  0  0  0  0  0  0
    6.4470    4.5850   22.2321 C   0  0  0  0  0  0  0  0  0  0  0  0
    8.4619    6.9895   22.2968 C   0  0  0  0  0  0  0  0  0  0  0  0
   12.2747    7.5102   20.0420 C   0  0  0  0  0  0  0  0  0  0  0  0
   14.2544    6.2142   19.4191 C   0  0  0  0  0  0  0  0  0  0  0  0
   13.0695    6.3705   20.0375 N   0  0  0  0  0  0  0  0  0  0  0  0
    9.1913    8.0876   21.8361 N   0  0  0  0  0  0  0  0  0  0  0  0
   10.4739    9.4813   20.2889 C   0  0  0  0  0  0  0  0  0  0  0  0
    7.5551    7.1270   23.1200 O   0  0  0  0  0  0  0  0  0  0  0  0
  1 11  4  0
  1 21  4  0
  2  4  1  0
  2  8  1  0
  2 11  1  0
  3 10  4  0
  3 14  4  0
  4  5  1  0
  4 18  2  0
  6 12  1  0
  6 17  4  0
  6 23  4  0
  7  9  1  0
  7 13  4  0
  7 19  4  0
  9 20  1  0
 10 19  4  0
 11 25  4  0
 13 14  4  0
 15 16  4  0
 15 17  4  0
 15 21  4  0
 16 24  1  0
 16 25  4  0
 20 24  1  0
 20 26  2  0
 21 23  4  0
 22 23  1  0
M  END
$$$$

 Created by Python create_sdf_string function

 26 28  0  0  0  0  0  0  0  0999 V2000
   12.4616    8.6700   19.4180 N   0  0  0  0  0  0  0  0  0  0  0  0
   11.8329   10.8148   18.6769 N   0  0  0  0  0  0  0  0  0  0  0  0
    6.1021    2.5564   21.0678 C   0  0  0  0  0  0  0  0  0  0  0  0
   10.9097   11.8051   18.4804 C   0  0  0  0  0  0  0  0  0  0  0  0
   11.2280   12.9135   17.5669 C   0  0  0  0  0  0  0  0  0  0  0  0
   12.3782    5.4231   20.7777 C   0  0  0  0  0  0  0  0  0  0  0  0
    7.7365    4.6508   21.6987 C   0  0  0  0  0  0  0  0  0  0  0  0
   13.0186   11.0102   18.0020 C   0  0  0  0  0  0  0  0  0  0  0  0
    8.6628    5.7088   21.8871 N   0  0  0  0  0  0  0  0  0  0  0  0
    5.6516    3.5258   21.9140 C   0  0  0  0  0  0  0  0  0  0  0  0
   11.5863    9.6815   19.4539 C   0  0  0  0  0  0  0  0  0  0  0  0
   12.9648    4.1543   20.9205 C   0  0  0  0  0  0  0  0  0  0  0  0
    8.2089    3.6265   20.8929 C   0  0  0  0  0  0  0  0  0  0  0  0
    7.3827    2.5724   20.5432 C   0  0  0  0  0  0  0  0  0  0  0  0
   11.1529    7.2750   20.8025 C   0  0  0  0  0  0  0  0  0  0  0  0
   10.2573    8.3215   20.9827 C   0  0  0  0  0  0  0  0  0  0  0  0
   11.1606    5.9378   21.2366 N   0  0  0  0  0  0  0  0  0  0  0  0
    9.8932   11.6736   19.0677 O   0  0  0  0  0  0  0  0  0  0  0  0
    6.4470    4.5850   22.2321 C   0  0  0  0  0  0  0  0  0  0  0  0
    8.4619    6.9895   22.2968 C   0  0  0  0  0  0  0  0  0  0  0  0
   12.2747    7.5102   20.0420 C   0  0  0  0  0  0  0  0  0  0  0  0
   14.2544    6.2142   19.4191 C   0  0  0  0  0  0  0  0  0  0  0  0
   13.0695    6.3705   20.0375 N   0  0  0  0  0  0  0  0  0  0  0  0
    9.1913    8.0876   21.8361 N   0  0  0  0  0  0  0  0  0  0  0  0
   10.4739    9.4813   20.2889 C   0  0  0  0  0  0  0  0  0  0  0  0
    7.5551    7.1270   23.1200 O   0  0  0  0  0  0  0  0  0  0  0  0
  1 11  4  0
  1 21  4  0
  2  4  1  0
  2  8  1  0
  2 11  1  0
  3 10  4  0
  3 14  4  0
  4  5  1  0
  4 18  2  0
  6 12  1  0
  6 17  4  0
  6 23  4  0
  7  9  1  0
  7 13  4  0
  7 19  4  0
  9 20  1  0
 10 19  4  0
 11 25  4  0
 13 14  4  0
 15 16  4  0
 15 17  4  0
 15 21  4  0
 16 24  1  0
 16 25  4  0
 20 24  1  0
 20 26  2  0
 21 23  4  0
 22 23  1  0
M  END
$$$$

 Created by Python create_sdf_string function

 26 28  0  0  0  0  0  0  0  0999 V2000
   12.4616    8.6700   19.4180 N   0  0  0  0  0  0  0  0  0  0  0  0
   11.8329   10.8148   18.6769 N   0  0  0  0  0  0  0  0  0  0  0  0
    6.1021    2.5564   21.0678 C   0  0  0  0  0  0  0  0  0  0  0  0
   10.9097   11.8051   18.4804 C   0  0  0  0  0  0  0  0  0  0  0  0
   11.2280   12.9135   17.5669 C   0  0  0  0  0  0  0  0  0  0  0  0
   12.3782    5.4231   20.7777 C   0  0  0  0  0  0  0  0  0  0  0  0
    7.7365    4.6508   21.6987 C   0  0  0  0  0  0  0  0  0  0  0  0
   13.0186   11.0102   18.0020 C   0  0  0  0  0  0  0  0  0  0  0  0
    8.6628    5.7088   21.8871 N   0  0  0  0  0  0  0  0  0  0  0  0
    5.6516    3.5258   21.9140 C   0  0  0  0  0  0  0  0  0  0  0  0
   11.5863    9.6815   19.4539 C   0  0  0  0  0  0  0  0  0  0  0  0
   12.9648    4.1543   20.9205 C   0  0  0  0  0  0  0  0  0  0  0  0
    8.2089    3.6265   20.8929 C   0  0  0  0  0  0  0  0  0  0  0  0
    7.3827    2.5724   20.5432 C   0  0  0  0  0  0  0  0  0  0  0  0
   11.1529    7.2750   20.8025 C   0  0  0  0  0  0  0  0  0  0  0  0
   10.2573    8.3215   20.9827 C   0  0  0  0  0  0  0  0  0  0  0  0
   11.1606    5.9378   21.2366 N   0  0  0  0  0  0  0  0  0  0  0  0
    9.8932   11.6736   19.0677 O   0  0  0  0  0  0  0  0  0  0  0  0
    6.4470    4.5850   22.2321 C   0  0  0  0  0  0  0  0  0  0  0  0
    8.4619    6.9895   22.2968 C   0  0  0  0  0  0  0  0  0  0  0  0
   12.2747    7.5102   20.0420 C   0  0  0  0  0  0  0  0  0  0  0  0
   14.2544    6.2142   19.4191 C   0  0  0  0  0  0  0  0  0  0  0  0
   13.0695    6.3705   20.0375 N   0  0  0  0  0  0  0  0  0  0  0  0
    9.1913    8.0876   21.8361 N   0  0  0  0  0  0  0  0  0  0  0  0
   10.4739    9.4813   20.2889 C   0  0  0  0  0  0  0  0  0  0  0  0
    7.5551    7.1270   23.1200 O   0  0  0  0  0  0  0  0  0  0  0  0
  1 11  4  0
  1 21  4  0
  2  4  1  0
  2  8  1  0
  2 11  1  0
  3 10  4  0
  3 14  4  0
  4  5  1  0
  4 18  2  0
  6 12  1  0
  6 17  4  0
  6 23  4  0
  7  9  1  0
  7 13  4  0
  7 19  4  0
  9 20  1  0
 10 19  4  0
 11 25  4  0
 13 14  4  0
 15 16  4  0
 15 17  4  0
 15 21  4  0
 16 24  1  0
 16 25  4  0
 20 24  1  0
 20 26  2  0
 21 23  4  0
 22 23  1  0
M  END
$$$$

 Created by Python create_sdf_string function

 26 28  0  0  0  0  0  0  0  0999 V2000
   12.4616    8.6700   19.4180 N   0  0  0  0  0  0  0  0  0  0  0  0
   11.8329   10.8148   18.6769 N   0  0  0  0  0  0  0  0  0  0  0  0
    6.1021    2.5564   21.0678 C   0  0  0  0  0  0  0  0  0  0  0  0
   10.9097   11.8051   18.4804 C   0  0  0  0  0  0  0  0  0  0  0  0
   11.2280   12.9135   17.5669 C   0  0  0  0  0  0  0  0  0  0  0  0
   12.3782    5.4231   20.7777 C   0  0  0  0  0  0  0  0  0  0  0  0
    7.7365    4.6508   21.6987 C   0  0  0  0  0  0  0  0  0  0  0  0
   13.0186   11.0102   18.0020 C   0  0  0  0  0  0  0  0  0  0  0  0
    8.6628    5.7088   21.8871 N   0  0  0  0  0  0  0  0  0  0  0  0
    5.6516    3.5258   21.9140 C   0  0  0  0  0  0  0  0  0  0  0  0
   11.5863    9.6815   19.4539 C   0  0  0  0  0  0  0  0  0  0  0  0
   12.9648    4.1543   20.9205 C   0  0  0  0  0  0  0  0  0  0  0  0
    8.2089    3.6265   20.8929 C   0  0  0  0  0  0  0  0  0  0  0  0
    7.3827    2.5724   20.5432 C   0  0  0  0  0  0  0  0  0  0  0  0
   11.1529    7.2750   20.8025 C   0  0  0  0  0  0  0  0  0  0  0  0
   10.2573    8.3215   20.9827 C   0  0  0  0  0  0  0  0  0  0  0  0
   11.1606    5.9378   21.2366 N   0  0  0  0  0  0  0  0  0  0  0  0
    9.8932   11.6736   19.0677 O   0  0  0  0  0  0  0  0  0  0  0  0
    6.4470    4.5850   22.2321 C   0  0  0  0  0  0  0  0  0  0  0  0
    8.4619    6.9895   22.2968 C   0  0  0  0  0  0  0  0  0  0  0  0
   12.2747    7.5102   20.0420 C   0  0  0  0  0  0  0  0  0  0  0  0
   14.2544    6.2142   19.4191 C   0  0  0  0  0  0  0  0  0  0  0  0
   13.0695    6.3705   20.0375 N   0  0  0  0  0  0  0  0  0  0  0  0
    9.1913    8.0876   21.8361 N   0  0  0  0  0  0  0  0  0  0  0  0
   10.4739    9.4813   20.2889 C   0  0  0  0  0  0  0  0  0  0  0  0
    7.5551    7.1270   23.1200 O   0  0  0  0  0  0  0  0  0  0  0  0
  1 11  4  0
  1 21  4  0
  2  4  1  0
  2  8  1  0
  2 11  1  0
  3 10  4  0
  3 14  4  0
  4  5  1  0
  4 18  2  0
  6 12  1  0
  6 17  4  0
  6 23  4  0
  7  9  1  0
  7 13  4  0
  7 19  4  0
  9 20  1  0
 10 19  4  0
 11 25  4  0
 13 14  4  0
 15 16  4  0
 15 17  4  0
 15 21  4  0
 16 24  1  0
 16 25  4  0
 20 24  1  0
 20 26  2  0
 21 23  4  0
 22 23  1  0
M  END
$$$$

 Created by Python create_sdf_string function

 26 28  0  0  0  0  0  0  0  0999 V2000
   12.4616    8.6700   19.4180 N   0  0  0  0  0  0  0  0  0  0  0  0
   11.8329   10.8148   18.6769 N   0  0  0  0  0  0  0  0  0  0  0  0
    6.1021    2.5564   21.0678 C   0  0  0  0  0  0  0  0  0  0  0  0
   10.9097   11.8051   18.4804 C   0  0  0  0  0  0  0  0  0  0  0  0
   11.2280   12.9135   17.5669 C   0  0  0  0  0  0  0  0  0  0  0  0
   12.3782    5.4231   20.7777 C   0  0  0  0  0  0  0  0  0  0  0  0
    7.7365    4.6508   21.6987 C   0  0  0  0  0  0  0  0  0  0  0  0
   13.0186   11.0102   18.0020 C   0  0  0  0  0  0  0  0  0  0  0  0
    8.6628    5.7088   21.8871 N   0  0  0  0  0  0  0  0  0  0  0  0
    5.6516    3.5258   21.9140 C   0  0  0  0  0  0  0  0  0  0  0  0
   11.5863    9.6815   19.4539 C   0  0  0  0  0  0  0  0  0  0  0  0
   12.9648    4.1543   20.9205 C   0  0  0  0  0  0  0  0  0  0  0  0
    8.2089    3.6265   20.8929 C   0  0  0  0  0  0  0  0  0  0  0  0
    7.3827    2.5724   20.5432 C   0  0  0  0  0  0  0  0  0  0  0  0
   11.1529    7.2750   20.8025 C   0  0  0  0  0  0  0  0  0  0  0  0
   10.2573    8.3215   20.9827 C   0  0  0  0  0  0  0  0  0  0  0  0
   11.1606    5.9378   21.2366 N   0  0  0  0  0  0  0  0  0  0  0  0
    9.8932   11.6736   19.0677 O   0  0  0  0  0  0  0  0  0  0  0  0
    6.4470    4.5850   22.2321 C   0  0  0  0  0  0  0  0  0  0  0  0
    8.4619    6.9895   22.2968 C   0  0  0  0  0  0  0  0  0  0  0  0
   12.2747    7.5102   20.0420 C   0  0  0  0  0  0  0  0  0  0  0  0
   14.2544    6.2142   19.4191 C   0  0  0  0  0  0  0  0  0  0  0  0
   13.0695    6.3705   20.0375 N   0  0  0  0  0  0  0  0  0  0  0  0
    9.1913    8.0876   21.8361 N   0  0  0  0  0  0  0  0  0  0  0  0
   10.4739    9.4813   20.2889 C   0  0  0  0  0  0  0  0  0  0  0  0
    7.5551    7.1270   23.1200 O   0  0  0  0  0  0  0  0  0  0  0  0
  1 11  4  0
  1 21  4  0
  2  4  1  0
  2  8  1  0
  2 11  1  0
  3 10  4  0
  3 14  4  0
  4  5  1  0
  4 18  2  0
  6 12  1  0
  6 17  4  0
  6 23  4  0
  7  9  1  0
  7 13  4  0
  7 19  4  0
  9 20  1  0
 10 19  4  0
 11 25  4  0
 13 14  4  0
 15 16  4  0
 15 17  4  0
 15 21  4  0
 16 24  1  0
 16 25  4  0
 20 24  1  0
 20 26  2  0
 21 23  4  0
 22 23  1  0
M  END
$$$$

 Created by Python create_sdf_string function

 26 28  0  0  0  0  0  0  0  0999 V2000
   12.4616    8.6700   19.4180 N   0  0  0  0  0  0  0  0  0  0  0  0
   11.8329   10.8148   18.6769 N   0  0  0  0  0  0  0  0  0  0  0  0
    6.1021    2.5564   21.0678 C   0  0  0  0  0  0  0  0  0  0  0  0
   10.9097   11.8051   18.4804 C   0  0  0  0  0  0  0  0  0  0  0  0
   11.2280   12.9135   17.5669 C   0  0  0  0  0  0  0  0  0  0  0  0
   12.3782    5.4231   20.7777 C   0  0  0  0  0  0  0  0  0  0  0  0
    7.7365    4.6508   21.6987 C   0  0  0  0  0  0  0  0  0  0  0  0
   13.0186   11.0102   18.0020 C   0  0  0  0  0  0  0  0  0  0  0  0
    8.6628    5.7088   21.8871 N   0  0  0  0  0  0  0  0  0  0  0  0
    5.6516    3.5258   21.9140 C   0  0  0  0  0  0  0  0  0  0  0  0
   11.5863    9.6815   19.4539 C   0  0  0  0  0  0  0  0  0  0  0  0
   12.9648    4.1543   20.9205 C   0  0  0  0  0  0  0  0  0  0  0  0
    8.2089    3.6265   20.8929 C   0  0  0  0  0  0  0  0  0  0  0  0
    7.3827    2.5724   20.5432 C   0  0  0  0  0  0  0  0  0  0  0  0
   11.1529    7.2750   20.8025 C   0  0  0  0  0  0  0  0  0  0  0  0
   10.2573    8.3215   20.9827 C   0  0  0  0  0  0  0  0  0  0  0  0
   11.1606    5.9378   21.2366 N   0  0  0  0  0  0  0  0  0  0  0  0
    9.8932   11.6736   19.0677 O   0  0  0  0  0  0  0  0  0  0  0  0
    6.4470    4.5850   22.2321 C   0  0  0  0  0  0  0  0  0  0  0  0
    8.4619    6.9895   22.2968 C   0  0  0  0  0  0  0  0  0  0  0  0
   12.2747    7.5102   20.0420 C   0  0  0  0  0  0  0  0  0  0  0  0
   14.2544    6.2142   19.4191 C   0  0  0  0  0  0  0  0  0  0  0  0
   13.0695    6.3705   20.0375 N   0  0  0  0  0  0  0  0  0  0  0  0
    9.1913    8.0876   21.8361 N   0  0  0  0  0  0  0  0  0  0  0  0
   10.4739    9.4813   20.2889 C   0  0  0  0  0  0  0  0  0  0  0  0
    7.5551    7.1270   23.1200 O   0  0  0  0  0  0  0  0  0  0  0  0
  1 11  4  0
  1 21  4  0
  2  4  1  0
  2  8  1  0
  2 11  1  0
  3 10  4  0
  3 14  4  0
  4  5  1  0
  4 18  2  0
  6 12  1  0
  6 17  4  0
  6 23  4  0
  7  9  1  0
  7 13  4  0
  7 19  4  0
  9 20  1  0
 10 19  4  0
 11 25  4  0
 13 14  4  0
 15 16  4  0
 15 17  4  0
 15 21  4  0
 16 24  1  0
 16 25  4  0
 20 24  1  0
 20 26  2  0
 21 23  4  0
 22 23  1  0
M  END
$$$$

 Created by Python create_sdf_string function

 26 28  0  0  0  0  0  0  0  0999 V2000
   12.4616    8.6700   19.4180 N   0  0  0  0  0  0  0  0  0  0  0  0
   11.8329   10.8148   18.6769 N   0  0  0  0  0  0  0  0  0  0  0  0
    6.1021    2.5564   21.0678 C   0  0  0  0  0  0  0  0  0  0  0  0
   10.9097   11.8051   18.4804 C   0  0  0  0  0  0  0  0  0  0  0  0
   11.2280   12.9135   17.5669 C   0  0  0  0  0  0  0  0  0  0  0  0
   12.3782    5.4231   20.7777 C   0  0  0  0  0  0  0  0  0  0  0  0
    7.7365    4.6508   21.6987 C   0  0  0  0  0  0  0  0  0  0  0  0
   13.0186   11.0102   18.0020 C   0  0  0  0  0  0  0  0  0  0  0  0
    8.6628    5.7088   21.8871 N   0  0  0  0  0  0  0  0  0  0  0  0
    5.6516    3.5258   21.9140 C   0  0  0  0  0  0  0  0  0  0  0  0
   11.5863    9.6815   19.4539 C   0  0  0  0  0  0  0  0  0  0  0  0
   12.9648    4.1543   20.9205 C   0  0  0  0  0  0  0  0  0  0  0  0
    8.2089    3.6265   20.8929 C   0  0  0  0  0  0  0  0  0  0  0  0
    7.3827    2.5724   20.5432 C   0  0  0  0  0  0  0  0  0  0  0  0
   11.1529    7.2750   20.8025 C   0  0  0  0  0  0  0  0  0  0  0  0
   10.2573    8.3215   20.9827 C   0  0  0  0  0  0  0  0  0  0  0  0
   11.1606    5.9378   21.2366 N   0  0  0  0  0  0  0  0  0  0  0  0
    9.8932   11.6736   19.0677 O   0  0  0  0  0  0  0  0  0  0  0  0
    6.4470    4.5850   22.2321 C   0  0  0  0  0  0  0  0  0  0  0  0
    8.4619    6.9895   22.2968 C   0  0  0  0  0  0  0  0  0  0  0  0
   12.2747    7.5102   20.0420 C   0  0  0  0  0  0  0  0  0  0  0  0
   14.2544    6.2142   19.4191 C   0  0  0  0  0  0  0  0  0  0  0  0
   13.0695    6.3705   20.0375 N   0  0  0  0  0  0  0  0  0  0  0  0
    9.1913    8.0876   21.8361 N   0  0  0  0  0  0  0  0  0  0  0  0
   10.4739    9.4813   20.2889 C   0  0  0  0  0  0  0  0  0  0  0  0
    7.5551    7.1270   23.1200 O   0  0  0  0  0  0  0  0  0  0  0  0
  1 11  4  0
  1 21  4  0
  2  4  1  0
  2  8  1  0
  2 11  1  0
  3 10  4  0
  3 14  4  0
  4  5  1  0
  4 18  2  0
  6 12  1  0
  6 17  4  0
  6 23  4  0
  7  9  1  0
  7 13  4  0
  7 19  4  0
  9 20  1  0
 10 19  4  0
 11 25  4  0
 13 14  4  0
 15 16  4  0
 15 17  4  0
 15 21  4  0
 16 24  1  0
 16 25  4  0
 20 24  1  0
 20 26  2  0
 21 23  4  0
 22 23  1  0
M  END
$$$$

 Created by Python create_sdf_string function

 26 28  0  0  0  0  0  0  0  0999 V2000
   12.4616    8.6700   19.4180 N   0  0  0  0  0  0  0  0  0  0  0  0
   11.8329   10.8148   18.6769 N   0  0  0  0  0  0  0  0  0  0  0  0
    6.1021    2.5564   21.0678 C   0  0  0  0  0  0  0  0  0  0  0  0
   10.9097   11.8051   18.4804 C   0  0  0  0  0  0  0  0  0  0  0  0
   11.2280   12.9135   17.5669 C   0  0  0  0  0  0  0  0  0  0  0  0
   12.3782    5.4231   20.7777 C   0  0  0  0  0  0  0  0  0  0  0  0
    7.7365    4.6508   21.6987 C   0  0  0  0  0  0  0  0  0  0  0  0
   13.0186   11.0102   18.0020 C   0  0  0  0  0  0  0  0  0  0  0  0
    8.6628    5.7088   21.8871 N   0  0  0  0  0  0  0  0  0  0  0  0
    5.6516    3.5258   21.9140 C   0  0  0  0  0  0  0  0  0  0  0  0
   11.5863    9.6815   19.4539 C   0  0  0  0  0  0  0  0  0  0  0  0
   12.9648    4.1543   20.9205 C   0  0  0  0  0  0  0  0  0  0  0  0
    8.2089    3.6265   20.8929 C   0  0  0  0  0  0  0  0  0  0  0  0
    7.3827    2.5724   20.5432 C   0  0  0  0  0  0  0  0  0  0  0  0
   11.1529    7.2750   20.8025 C   0  0  0  0  0  0  0  0  0  0  0  0
   10.2573    8.3215   20.9827 C   0  0  0  0  0  0  0  0  0  0  0  0
   11.1606    5.9378   21.2366 N   0  0  0  0  0  0  0  0  0  0  0  0
    9.8932   11.6736   19.0677 O   0  0  0  0  0  0  0  0  0  0  0  0
    6.4470    4.5850   22.2321 C   0  0  0  0  0  0  0  0  0  0  0  0
    8.4619    6.9895   22.2968 C   0  0  0  0  0  0  0  0  0  0  0  0
   12.2747    7.5102   20.0420 C   0  0  0  0  0  0  0  0  0  0  0  0
   14.2544    6.2142   19.4191 C   0  0  0  0  0  0  0  0  0  0  0  0
   13.0695    6.3705   20.0375 N   0  0  0  0  0  0  0  0  0  0  0  0
    9.1913    8.0876   21.8361 N   0  0  0  0  0  0  0  0  0  0  0  0
   10.4739    9.4813   20.2889 C   0  0  0  0  0  0  0  0  0  0  0  0
    7.5551    7.1270   23.1200 O   0  0  0  0  0  0  0  0  0  0  0  0
  1 11  4  0
  1 21  4  0
  2  4  1  0
  2  8  1  0
  2 11  1  0
  3 10  4  0
  3 14  4  0
  4  5  1  0
  4 18  2  0
  6 12  1  0
  6 17  4  0
  6 23  4  0
  7  9  1  0
  7 13  4  0
  7 19  4  0
  9 20  1  0
 10 19  4  0
 11 25  4  0
 13 14  4  0
 15 16  4  0
 15 17  4  0
 15 21  4  0
 16 24  1  0
 16 25  4  0
 20 24  1  0
 20 26  2  0
 21 23  4  0
 22 23  1  0
M  END
$$$$

 Created by Python create_sdf_string function

 26 28  0  0  0  0  0  0  0  0999 V2000
   12.4616    8.6700   19.4180 N   0  0  0  0  0  0  0  0  0  0  0  0
   11.8329   10.8148   18.6769 N   0  0  0  0  0  0  0  0  0  0  0  0
    6.1021    2.5564   21.0678 C   0  0  0  0  0  0  0  0  0  0  0  0
   10.9097   11.8051   18.4804 C   0  0  0  0  0  0  0  0  0  0  0  0
   11.2280   12.9135   17.5669 C   0  0  0  0  0  0  0  0  0  0  0  0
   12.3782    5.4231   20.7777 C   0  0  0  0  0  0  0  0  0  0  0  0
    7.7365    4.6508   21.6987 C   0  0  0  0  0  0  0  0  0  0  0  0
   13.0186   11.0102   18.0020 C   0  0  0  0  0  0  0  0  0  0  0  0
    8.6628    5.7088   21.8871 N   0  0  0  0  0  0  0  0  0  0  0  0
    5.6516    3.5258   21.9140 C   0  0  0  0  0  0  0  0  0  0  0  0
   11.5863    9.6815   19.4539 C   0  0  0  0  0  0  0  0  0  0  0  0
   12.9648    4.1543   20.9205 C   0  0  0  0  0  0  0  0  0  0  0  0
    8.2089    3.6265   20.8929 C   0  0  0  0  0  0  0  0  0  0  0  0
    7.3827    2.5724   20.5432 C   0  0  0  0  0  0  0  0  0  0  0  0
   11.1529    7.2750   20.8025 C   0  0  0  0  0  0  0  0  0  0  0  0
   10.2573    8.3215   20.9827 C   0  0  0  0  0  0  0  0  0  0  0  0
   11.1606    5.9378   21.2366 N   0  0  0  0  0  0  0  0  0  0  0  0
    9.8932   11.6736   19.0677 O   0  0  0  0  0  0  0  0  0  0  0  0
    6.4470    4.5850   22.2321 C   0  0  0  0  0  0  0  0  0  0  0  0
    8.4619    6.9895   22.2968 C   0  0  0  0  0  0  0  0  0  0  0  0
   12.2747    7.5102   20.0420 C   0  0  0  0  0  0  0  0  0  0  0  0
   14.2544    6.2142   19.4191 C   0  0  0  0  0  0  0  0  0  0  0  0
   13.0695    6.3705   20.0375 N   0  0  0  0  0  0  0  0  0  0  0  0
    9.1913    8.0876   21.8361 N   0  0  0  0  0  0  0  0  0  0  0  0
   10.4739    9.4813   20.2889 C   0  0  0  0  0  0  0  0  0  0  0  0
    7.5551    7.1270   23.1200 O   0  0  0  0  0  0  0  0  0  0  0  0
  1 11  4  0
  1 21  4  0
  2  4  1  0
  2  8  1  0
  2 11  1  0
  3 10  4  0
  3 14  4  0
  4  5  1  0
  4 18  2  0
  6 12  1  0
  6 17  4  0
  6 23  4  0
  7  9  1  0
  7 13  4  0
  7 19  4  0
  9 20  1  0
 10 19  4  0
 11 25  4  0
 13 14  4  0
 15 16  4  0
 15 17  4  0
 15 21  4  0
 16 24  1  0
 16 25  4  0
 20 24  1  0
 20 26  2  0
 21 23  4  0
 22 23  1  0
M  END
$$$$

 Created by Python create_sdf_string function

 26 28  0  0  0  0  0  0  0  0999 V2000
   12.4616    8.6700   19.4180 N   0  0  0  0  0  0  0  0  0  0  0  0
   11.8329   10.8148   18.6769 N   0  0  0  0  0  0  0  0  0  0  0  0
    6.1021    2.5564   21.0678 C   0  0  0  0  0  0  0  0  0  0  0  0
   10.9097   11.8051   18.4804 C   0  0  0  0  0  0  0  0  0  0  0  0
   11.2280   12.9135   17.5669 C   0  0  0  0  0  0  0  0  0  0  0  0
   12.3782    5.4231   20.7777 C   0  0  0  0  0  0  0  0  0  0  0  0
    7.7365    4.6508   21.6987 C   0  0  0  0  0  0  0  0  0  0  0  0
   13.0186   11.0102   18.0020 C   0  0  0  0  0  0  0  0  0  0  0  0
    8.6628    5.7088   21.8871 N   0  0  0  0  0  0  0  0  0  0  0  0
    5.6516    3.5258   21.9140 C   0  0  0  0  0  0  0  0  0  0  0  0
   11.5863    9.6815   19.4539 C   0  0  0  0  0  0  0  0  0  0  0  0
   12.9648    4.1543   20.9205 C   0  0  0  0  0  0  0  0  0  0  0  0
    8.2089    3.6265   20.8929 C   0  0  0  0  0  0  0  0  0  0  0  0
    7.3827    2.5724   20.5432 C   0  0  0  0  0  0  0  0  0  0  0  0
   11.1529    7.2750   20.8025 C   0  0  0  0  0  0  0  0  0  0  0  0
   10.2573    8.3215   20.9827 C   0  0  0  0  0  0  0  0  0  0  0  0
   11.1606    5.9378   21.2366 N   0  0  0  0  0  0  0  0  0  0  0  0
    9.8932   11.6736   19.0677 O   0  0  0  0  0  0  0  0  0  0  0  0
    6.4470    4.5850   22.2321 C   0  0  0  0  0  0  0  0  0  0  0  0
    8.4619    6.9895   22.2968 C   0  0  0  0  0  0  0  0  0  0  0  0
   12.2747    7.5102   20.0420 C   0  0  0  0  0  0  0  0  0  0  0  0
   14.2544    6.2142   19.4191 C   0  0  0  0  0  0  0  0  0  0  0  0
   13.0695    6.3705   20.0375 N   0  0  0  0  0  0  0  0  0  0  0  0
    9.1913    8.0876   21.8361 N   0  0  0  0  0  0  0  0  0  0  0  0
   10.4739    9.4813   20.2889 C   0  0  0  0  0  0  0  0  0  0  0  0
    7.5551    7.1270   23.1200 O   0  0  0  0  0  0  0  0  0  0  0  0
  1 11  4  0
  1 21  4  0
  2  4  1  0
  2  8  1  0
  2 11  1  0
  3 10  4  0
  3 14  4  0
  4  5  1  0
  4 18  2  0
  6 12  1  0
  6 17  4  0
  6 23  4  0
  7  9  1  0
  7 13  4  0
  7 19  4  0
  9 20  1  0
 10 19  4  0
 11 25  4  0
 13 14  4  0
 15 16  4  0
 15 17  4  0
 15 21  4  0
 16 24  1  0
 16 25  4  0
 20 24  1  0
 20 26  2  0
 21 23  4  0
 22 23  1  0
M  END
$$$$

 Created by Python create_sdf_string function

 26 28  0  0  0  0  0  0  0  0999 V2000
   12.4616    8.6700   19.4180 N   0  0  0  0  0  0  0  0  0  0  0  0
   11.8329   10.8148   18.6769 N   0  0  0  0  0  0  0  0  0  0  0  0
    6.1021    2.5564   21.0678 C   0  0  0  0  0  0  0  0  0  0  0  0
   10.9097   11.8051   18.4804 C   0  0  0  0  0  0  0  0  0  0  0  0
   11.2280   12.9135   17.5669 C   0  0  0  0  0  0  0  0  0  0  0  0
   12.3782    5.4231   20.7777 C   0  0  0  0  0  0  0  0  0  0  0  0
    7.7365    4.6508   21.6987 C   0  0  0  0  0  0  0  0  0  0  0  0
   13.0186   11.0102   18.0020 C   0  0  0  0  0  0  0  0  0  0  0  0
    8.6628    5.7088   21.8871 N   0  0  0  0  0  0  0  0  0  0  0  0
    5.6516    3.5258   21.9140 C   0  0  0  0  0  0  0  0  0  0  0  0
   11.5863    9.6815   19.4539 C   0  0  0  0  0  0  0  0  0  0  0  0
   12.9648    4.1543   20.9205 C   0  0  0  0  0  0  0  0  0  0  0  0
    8.2089    3.6265   20.8929 C   0  0  0  0  0  0  0  0  0  0  0  0
    7.3827    2.5724   20.5432 C   0  0  0  0  0  0  0  0  0  0  0  0
   11.1529    7.2750   20.8025 C   0  0  0  0  0  0  0  0  0  0  0  0
   10.2573    8.3215   20.9827 C   0  0  0  0  0  0  0  0  0  0  0  0
   11.1606    5.9378   21.2366 N   0  0  0  0  0  0  0  0  0  0  0  0
    9.8932   11.6736   19.0677 O   0  0  0  0  0  0  0  0  0  0  0  0
    6.4470    4.5850   22.2321 C   0  0  0  0  0  0  0  0  0  0  0  0
    8.4619    6.9895   22.2968 C   0  0  0  0  0  0  0  0  0  0  0  0
   12.2747    7.5102   20.0420 C   0  0  0  0  0  0  0  0  0  0  0  0
   14.2544    6.2142   19.4191 C   0  0  0  0  0  0  0  0  0  0  0  0
   13.0695    6.3705   20.0375 N   0  0  0  0  0  0  0  0  0  0  0  0
    9.1913    8.0876   21.8361 N   0  0  0  0  0  0  0  0  0  0  0  0
   10.4739    9.4813   20.2889 C   0  0  0  0  0  0  0  0  0  0  0  0
    7.5551    7.1270   23.1200 O   0  0  0  0  0  0  0  0  0  0  0  0
  1 11  4  0
  1 21  4  0
  2  4  1  0
  2  8  1  0
  2 11  1  0
  3 10  4  0
  3 14  4  0
  4  5  1  0
  4 18  2  0
  6 12  1  0
  6 17  4  0
  6 23  4  0
  7  9  1  0
  7 13  4  0
  7 19  4  0
  9 20  1  0
 10 19  4  0
 11 25  4  0
 13 14  4  0
 15 16  4  0
 15 17  4  0
 15 21  4  0
 16 24  1  0
 16 25  4  0
 20 24  1  0
 20 26  2  0
 21 23  4  0
 22 23  1  0
M  END
$$$$

 Created by Python create_sdf_string function

 26 28  0  0  0  0  0  0  0  0999 V2000
   12.4616    8.6700   19.4180 N   0  0  0  0  0  0  0  0  0  0  0  0
   11.8329   10.8148   18.6769 N   0  0  0  0  0  0  0  0  0  0  0  0
    6.1021    2.5564   21.0678 C   0  0  0  0  0  0  0  0  0  0  0  0
   10.9097   11.8051   18.4804 C   0  0  0  0  0  0  0  0  0  0  0  0
   11.2280   12.9135   17.5669 C   0  0  0  0  0  0  0  0  0  0  0  0
   12.3782    5.4231   20.7777 C   0  0  0  0  0  0  0  0  0  0  0  0
    7.7365    4.6508   21.6987 C   0  0  0  0  0  0  0  0  0  0  0  0
   13.0186   11.0102   18.0020 C   0  0  0  0  0  0  0  0  0  0  0  0
    8.6628    5.7088   21.8871 N   0  0  0  0  0  0  0  0  0  0  0  0
    5.6516    3.5258   21.9140 C   0  0  0  0  0  0  0  0  0  0  0  0
   11.5863    9.6815   19.4539 C   0  0  0  0  0  0  0  0  0  0  0  0
   12.9648    4.1543   20.9205 C   0  0  0  0  0  0  0  0  0  0  0  0
    8.2089    3.6265   20.8929 C   0  0  0  0  0  0  0  0  0  0  0  0
    7.3827    2.5724   20.5432 C   0  0  0  0  0  0  0  0  0  0  0  0
   11.1529    7.2750   20.8025 C   0  0  0  0  0  0  0  0  0  0  0  0
   10.2573    8.3215   20.9827 C   0  0  0  0  0  0  0  0  0  0  0  0
   11.1606    5.9378   21.2366 N   0  0  0  0  0  0  0  0  0  0  0  0
    9.8932   11.6736   19.0677 O   0  0  0  0  0  0  0  0  0  0  0  0
    6.4470    4.5850   22.2321 C   0  0  0  0  0  0  0  0  0  0  0  0
    8.4619    6.9895   22.2968 C   0  0  0  0  0  0  0  0  0  0  0  0
   12.2747    7.5102   20.0420 C   0  0  0  0  0  0  0  0  0  0  0  0
   14.2544    6.2142   19.4191 C   0  0  0  0  0  0  0  0  0  0  0  0
   13.0695    6.3705   20.0375 N   0  0  0  0  0  0  0  0  0  0  0  0
    9.1913    8.0876   21.8361 N   0  0  0  0  0  0  0  0  0  0  0  0
   10.4739    9.4813   20.2889 C   0  0  0  0  0  0  0  0  0  0  0  0
    7.5551    7.1270   23.1200 O   0  0  0  0  0  0  0  0  0  0  0  0
  1 11  4  0
  1 21  4  0
  2  4  1  0
  2  8  1  0
  2 11  1  0
  3 10  4  0
  3 14  4  0
  4  5  1  0
  4 18  2  0
  6 12  1  0
  6 17  4  0
  6 23  4  0
  7  9  1  0
  7 13  4  0
  7 19  4  0
  9 20  1  0
 10 19  4  0
 11 25  4  0
 13 14  4  0
 15 16  4  0
 15 17  4  0
 15 21  4  0
 16 24  1  0
 16 25  4  0
 20 24  1  0
 20 26  2  0
 21 23  4  0
 22 23  1  0
M  END
$$$$

 Created by Python create_sdf_string function

 26 28  0  0  0  0  0  0  0  0999 V2000
   12.4616    8.6700   19.4180 N   0  0  0  0  0  0  0  0  0  0  0  0
   11.8329   10.8148   18.6769 N   0  0  0  0  0  0  0  0  0  0  0  0
    6.1021    2.5564   21.0678 C   0  0  0  0  0  0  0  0  0  0  0  0
   10.9097   11.8051   18.4804 C   0  0  0  0  0  0  0  0  0  0  0  0
   11.2280   12.9135   17.5669 C   0  0  0  0  0  0  0  0  0  0  0  0
   12.3782    5.4231   20.7777 C   0  0  0  0  0  0  0  0  0  0  0  0
    7.7365    4.6508   21.6987 C   0  0  0  0  0  0  0  0  0  0  0  0
   13.0186   11.0102   18.0020 C   0  0  0  0  0  0  0  0  0  0  0  0
    8.6628    5.7088   21.8871 N   0  0  0  0  0  0  0  0  0  0  0  0
    5.6516    3.5258   21.9140 C   0  0  0  0  0  0  0  0  0  0  0  0
   11.5863    9.6815   19.4539 C   0  0  0  0  0  0  0  0  0  0  0  0
   12.9648    4.1543   20.9205 C   0  0  0  0  0  0  0  0  0  0  0  0
    8.2089    3.6265   20.8929 C   0  0  0  0  0  0  0  0  0  0  0  0
    7.3827    2.5724   20.5432 C   0  0  0  0  0  0  0  0  0  0  0  0
   11.1529    7.2750   20.8025 C   0  0  0  0  0  0  0  0  0  0  0  0
   10.2573    8.3215   20.9827 C   0  0  0  0  0  0  0  0  0  0  0  0
   11.1606    5.9378   21.2366 N   0  0  0  0  0  0  0  0  0  0  0  0
    9.8932   11.6736   19.0677 O   0  0  0  0  0  0  0  0  0  0  0  0
    6.4470    4.5850   22.2321 C   0  0  0  0  0  0  0  0  0  0  0  0
    8.4619    6.9895   22.2968 C   0  0  0  0  0  0  0  0  0  0  0  0
   12.2747    7.5102   20.0420 C   0  0  0  0  0  0  0  0  0  0  0  0
   14.2544    6.2142   19.4191 C   0  0  0  0  0  0  0  0  0  0  0  0
   13.0695    6.3705   20.0375 N   0  0  0  0  0  0  0  0  0  0  0  0
    9.1913    8.0876   21.8361 N   0  0  0  0  0  0  0  0  0  0  0  0
   10.4739    9.4813   20.2889 C   0  0  0  0  0  0  0  0  0  0  0  0
    7.5551    7.1270   23.1200 O   0  0  0  0  0  0  0  0  0  0  0  0
  1 11  4  0
  1 21  4  0
  2  4  1  0
  2  8  1  0
  2 11  1  0
  3 10  4  0
  3 14  4  0
  4  5  1  0
  4 18  2  0
  6 12  1  0
  6 17  4  0
  6 23  4  0
  7  9  1  0
  7 13  4  0
  7 19  4  0
  9 20  1  0
 10 19  4  0
 11 25  4  0
 13 14  4  0
 15 16  4  0
 15 17  4  0
 15 21  4  0
 16 24  1  0
 16 25  4  0
 20 24  1  0
 20 26  2  0
 21 23  4  0
 22 23  1  0
M  END
$$$$

 Created by Python create_sdf_string function

 26 28  0  0  0  0  0  0  0  0999 V2000
   12.4616    8.6700   19.4180 N   0  0  0  0  0  0  0  0  0  0  0  0
   11.8329   10.8148   18.6769 N   0  0  0  0  0  0  0  0  0  0  0  0
    6.1021    2.5564   21.0678 C   0  0  0  0  0  0  0  0  0  0  0  0
   10.9097   11.8051   18.4804 C   0  0  0  0  0  0  0  0  0  0  0  0
   11.2280   12.9135   17.5669 C   0  0  0  0  0  0  0  0  0  0  0  0
   12.3782    5.4231   20.7777 C   0  0  0  0  0  0  0  0  0  0  0  0
    7.7365    4.6508   21.6987 C   0  0  0  0  0  0  0  0  0  0  0  0
   13.0186   11.0102   18.0020 C   0  0  0  0  0  0  0  0  0  0  0  0
    8.6628    5.7088   21.8871 N   0  0  0  0  0  0  0  0  0  0  0  0
    5.6516    3.5258   21.9140 C   0  0  0  0  0  0  0  0  0  0  0  0
   11.5863    9.6815   19.4539 C   0  0  0  0  0  0  0  0  0  0  0  0
   12.9648    4.1543   20.9205 C   0  0  0  0  0  0  0  0  0  0  0  0
    8.2089    3.6265   20.8929 C   0  0  0  0  0  0  0  0  0  0  0  0
    7.3827    2.5724   20.5432 C   0  0  0  0  0  0  0  0  0  0  0  0
   11.1529    7.2750   20.8025 C   0  0  0  0  0  0  0  0  0  0  0  0
   10.2573    8.3215   20.9827 C   0  0  0  0  0  0  0  0  0  0  0  0
   11.1606    5.9378   21.2366 N   0  0  0  0  0  0  0  0  0  0  0  0
    9.8932   11.6736   19.0677 O   0  0  0  0  0  0  0  0  0  0  0  0
    6.4470    4.5850   22.2321 C   0  0  0  0  0  0  0  0  0  0  0  0
    8.4619    6.9895   22.2968 C   0  0  0  0  0  0  0  0  0  0  0  0
   12.2747    7.5102   20.0420 C   0  0  0  0  0  0  0  0  0  0  0  0
   14.2544    6.2142   19.4191 C   0  0  0  0  0  0  0  0  0  0  0  0
   13.0695    6.3705   20.0375 N   0  0  0  0  0  0  0  0  0  0  0  0
    9.1913    8.0876   21.8361 N   0  0  0  0  0  0  0  0  0  0  0  0
   10.4739    9.4813   20.2889 C   0  0  0  0  0  0  0  0  0  0  0  0
    7.5551    7.1270   23.1200 O   0  0  0  0  0  0  0  0  0  0  0  0
  1 11  4  0
  1 21  4  0
  2  4  1  0
  2  8  1  0
  2 11  1  0
  3 10  4  0
  3 14  4  0
  4  5  1  0
  4 18  2  0
  6 12  1  0
  6 17  4  0
  6 23  4  0
  7  9  1  0
  7 13  4  0
  7 19  4  0
  9 20  1  0
 10 19  4  0
 11 25  4  0
 13 14  4  0
 15 16  4  0
 15 17  4  0
 15 21  4  0
 16 24  1  0
 16 25  4  0
 20 24  1  0
 20 26  2  0
 21 23  4  0
 22 23  1  0
M  END
$$$$

 Created by Python create_sdf_string function

 26 28  0  0  0  0  0  0  0  0999 V2000
   12.4616    8.6700   19.4180 N   0  0  0  0  0  0  0  0  0  0  0  0
   11.8329   10.8148   18.6769 N   0  0  0  0  0  0  0  0  0  0  0  0
    6.1021    2.5564   21.0678 C   0  0  0  0  0  0  0  0  0  0  0  0
   10.9097   11.8051   18.4804 C   0  0  0  0  0  0  0  0  0  0  0  0
   11.2280   12.9135   17.5669 C   0  0  0  0  0  0  0  0  0  0  0  0
   12.3782    5.4231   20.7777 C   0  0  0  0  0  0  0  0  0  0  0  0
    7.7365    4.6508   21.6987 C   0  0  0  0  0  0  0  0  0  0  0  0
   13.0186   11.0102   18.0020 C   0  0  0  0  0  0  0  0  0  0  0  0
    8.6628    5.7088   21.8871 N   0  0  0  0  0  0  0  0  0  0  0  0
    5.6516    3.5258   21.9140 C   0  0  0  0  0  0  0  0  0  0  0  0
   11.5863    9.6815   19.4539 C   0  0  0  0  0  0  0  0  0  0  0  0
   12.9648    4.1543   20.9205 C   0  0  0  0  0  0  0  0  0  0  0  0
    8.2089    3.6265   20.8929 C   0  0  0  0  0  0  0  0  0  0  0  0
    7.3827    2.5724   20.5432 C   0  0  0  0  0  0  0  0  0  0  0  0
   11.1529    7.2750   20.8025 C   0  0  0  0  0  0  0  0  0  0  0  0
   10.2573    8.3215   20.9827 C   0  0  0  0  0  0  0  0  0  0  0  0
   11.1606    5.9378   21.2366 N   0  0  0  0  0  0  0  0  0  0  0  0
    9.8932   11.6736   19.0677 O   0  0  0  0  0  0  0  0  0  0  0  0
    6.4470    4.5850   22.2321 C   0  0  0  0  0  0  0  0  0  0  0  0
    8.4619    6.9895   22.2968 C   0  0  0  0  0  0  0  0  0  0  0  0
   12.2747    7.5102   20.0420 C   0  0  0  0  0  0  0  0  0  0  0  0
   14.2544    6.2142   19.4191 C   0  0  0  0  0  0  0  0  0  0  0  0
   13.0695    6.3705   20.0375 N   0  0  0  0  0  0  0  0  0  0  0  0
    9.1913    8.0876   21.8361 N   0  0  0  0  0  0  0  0  0  0  0  0
   10.4739    9.4813   20.2889 C   0  0  0  0  0  0  0  0  0  0  0  0
    7.5551    7.1270   23.1200 O   0  0  0  0  0  0  0  0  0  0  0  0
  1 11  4  0
  1 21  4  0
  2  4  1  0
  2  8  1  0
  2 11  1  0
  3 10  4  0
  3 14  4  0
  4  5  1  0
  4 18  2  0
  6 12  1  0
  6 17  4  0
  6 23  4  0
  7  9  1  0
  7 13  4  0
  7 19  4  0
  9 20  1  0
 10 19  4  0
 11 25  4  0
 13 14  4  0
 15 16  4  0
 15 17  4  0
 15 21  4  0
 16 24  1  0
 16 25  4  0
 20 24  1  0
 20 26  2  0
 21 23  4  0
 22 23  1  0
M  END
$$$$

 Created by Python create_sdf_string function

 26 28  0  0  0  0  0  0  0  0999 V2000
   12.4616    8.6700   19.4180 N   0  0  0  0  0  0  0  0  0  0  0  0
   11.8329   10.8148   18.6769 N   0  0  0  0  0  0  0  0  0  0  0  0
    6.1021    2.5564   21.0678 C   0  0  0  0  0  0  0  0  0  0  0  0
   10.9097   11.8051   18.4804 C   0  0  0  0  0  0  0  0  0  0  0  0
   11.2280   12.9135   17.5669 C   0  0  0  0  0  0  0  0  0  0  0  0
   12.3782    5.4231   20.7777 C   0  0  0  0  0  0  0  0  0  0  0  0
    7.7365    4.6508   21.6987 C   0  0  0  0  0  0  0  0  0  0  0  0
   13.0186   11.0102   18.0020 C   0  0  0  0  0  0  0  0  0  0  0  0
    8.6628    5.7088   21.8871 N   0  0  0  0  0  0  0  0  0  0  0  0
    5.6516    3.5258   21.9140 C   0  0  0  0  0  0  0  0  0  0  0  0
   11.5863    9.6815   19.4539 C   0  0  0  0  0  0  0  0  0  0  0  0
   12.9648    4.1543   20.9205 C   0  0  0  0  0  0  0  0  0  0  0  0
    8.2089    3.6265   20.8929 C   0  0  0  0  0  0  0  0  0  0  0  0
    7.3827    2.5724   20.5432 C   0  0  0  0  0  0  0  0  0  0  0  0
   11.1529    7.2750   20.8025 C   0  0  0  0  0  0  0  0  0  0  0  0
   10.2573    8.3215   20.9827 C   0  0  0  0  0  0  0  0  0  0  0  0
   11.1606    5.9378   21.2366 N   0  0  0  0  0  0  0  0  0  0  0  0
    9.8932   11.6736   19.0677 O   0  0  0  0  0  0  0  0  0  0  0  0
    6.4470    4.5850   22.2321 C   0  0  0  0  0  0  0  0  0  0  0  0
    8.4619    6.9895   22.2968 C   0  0  0  0  0  0  0  0  0  0  0  0
   12.2747    7.5102   20.0420 C   0  0  0  0  0  0  0  0  0  0  0  0
   14.2544    6.2142   19.4191 C   0  0  0  0  0  0  0  0  0  0  0  0
   13.0695    6.3705   20.0375 N   0  0  0  0  0  0  0  0  0  0  0  0
    9.1913    8.0876   21.8361 N   0  0  0  0  0  0  0  0  0  0  0  0
   10.4739    9.4813   20.2889 C   0  0  0  0  0  0  0  0  0  0  0  0
    7.5551    7.1270   23.1200 O   0  0  0  0  0  0  0  0  0  0  0  0
  1 11  4  0
  1 21  4  0
  2  4  1  0
  2  8  1  0
  2 11  1  0
  3 10  4  0
  3 14  4  0
  4  5  1  0
  4 18  2  0
  6 12  1  0
  6 17  4  0
  6 23  4  0
  7  9  1  0
  7 13  4  0
  7 19  4  0
  9 20  1  0
 10 19  4  0
 11 25  4  0
 13 14  4  0
 15 16  4  0
 15 17  4  0
 15 21  4  0
 16 24  1  0
 16 25  4  0
 20 24  1  0
 20 26  2  0
 21 23  4  0
 22 23  1  0
M  END
$$$$

 Created by Python create_sdf_string function

 26 28  0  0  0  0  0  0  0  0999 V2000
   12.4616    8.6700   19.4180 N   0  0  0  0  0  0  0  0  0  0  0  0
   11.8329   10.8148   18.6769 N   0  0  0  0  0  0  0  0  0  0  0  0
    6.1021    2.5564   21.0678 C   0  0  0  0  0  0  0  0  0  0  0  0
   10.9097   11.8051   18.4804 C   0  0  0  0  0  0  0  0  0  0  0  0
   11.2280   12.9135   17.5669 C   0  0  0  0  0  0  0  0  0  0  0  0
   12.3782    5.4231   20.7777 C   0  0  0  0  0  0  0  0  0  0  0  0
    7.7365    4.6508   21.6987 C   0  0  0  0  0  0  0  0  0  0  0  0
   13.0186   11.0102   18.0020 C   0  0  0  0  0  0  0  0  0  0  0  0
    8.6628    5.7088   21.8871 N   0  0  0  0  0  0  0  0  0  0  0  0
    5.6516    3.5258   21.9140 C   0  0  0  0  0  0  0  0  0  0  0  0
   11.5863    9.6815   19.4539 C   0  0  0  0  0  0  0  0  0  0  0  0
   12.9648    4.1543   20.9205 C   0  0  0  0  0  0  0  0  0  0  0  0
    8.2089    3.6265   20.8929 C   0  0  0  0  0  0  0  0  0  0  0  0
    7.3827    2.5724   20.5432 C   0  0  0  0  0  0  0  0  0  0  0  0
   11.1529    7.2750   20.8025 C   0  0  0  0  0  0  0  0  0  0  0  0
   10.2573    8.3215   20.9827 C   0  0  0  0  0  0  0  0  0  0  0  0
   11.1606    5.9378   21.2366 N   0  0  0  0  0  0  0  0  0  0  0  0
    9.8932   11.6736   19.0677 O   0  0  0  0  0  0  0  0  0  0  0  0
    6.4470    4.5850   22.2321 C   0  0  0  0  0  0  0  0  0  0  0  0
    8.4619    6.9895   22.2968 C   0  0  0  0  0  0  0  0  0  0  0  0
   12.2747    7.5102   20.0420 C   0  0  0  0  0  0  0  0  0  0  0  0
   14.2544    6.2142   19.4191 C   0  0  0  0  0  0  0  0  0  0  0  0
   13.0695    6.3705   20.0375 N   0  0  0  0  0  0  0  0  0  0  0  0
    9.1913    8.0876   21.8361 N   0  0  0  0  0  0  0  0  0  0  0  0
   10.4739    9.4813   20.2889 C   0  0  0  0  0  0  0  0  0  0  0  0
    7.5551    7.1270   23.1200 O   0  0  0  0  0  0  0  0  0  0  0  0
  1 11  4  0
  1 21  4  0
  2  4  1  0
  2  8  1  0
  2 11  1  0
  3 10  4  0
  3 14  4  0
  4  5  1  0
  4 18  2  0
  6 12  1  0
  6 17  4  0
  6 23  4  0
  7  9  1  0
  7 13  4  0
  7 19  4  0
  9 20  1  0
 10 19  4  0
 11 25  4  0
 13 14  4  0
 15 16  4  0
 15 17  4  0
 15 21  4  0
 16 24  1  0
 16 25  4  0
 20 24  1  0
 20 26  2  0
 21 23  4  0
 22 23  1  0
M  END
$$$$

 Created by Python create_sdf_string function

 26 28  0  0  0  0  0  0  0  0999 V2000
   12.4616    8.6700   19.4180 N   0  0  0  0  0  0  0  0  0  0  0  0
   11.8329   10.8148   18.6769 N   0  0  0  0  0  0  0  0  0  0  0  0
    6.1021    2.5564   21.0678 C   0  0  0  0  0  0  0  0  0  0  0  0
   10.9097   11.8051   18.4804 C   0  0  0  0  0  0  0  0  0  0  0  0
   11.2280   12.9135   17.5669 C   0  0  0  0  0  0  0  0  0  0  0  0
   12.3782    5.4231   20.7777 C   0  0  0  0  0  0  0  0  0  0  0  0
    7.7365    4.6508   21.6987 C   0  0  0  0  0  0  0  0  0  0  0  0
   13.0186   11.0102   18.0020 C   0  0  0  0  0  0  0  0  0  0  0  0
    8.6628    5.7088   21.8871 N   0  0  0  0  0  0  0  0  0  0  0  0
    5.6516    3.5258   21.9140 C   0  0  0  0  0  0  0  0  0  0  0  0
   11.5863    9.6815   19.4539 C   0  0  0  0  0  0  0  0  0  0  0  0
   12.9648    4.1543   20.9205 C   0  0  0  0  0  0  0  0  0  0  0  0
    8.2089    3.6265   20.8929 C   0  0  0  0  0  0  0  0  0  0  0  0
    7.3827    2.5724   20.5432 C   0  0  0  0  0  0  0  0  0  0  0  0
   11.1529    7.2750   20.8025 C   0  0  0  0  0  0  0  0  0  0  0  0
   10.2573    8.3215   20.9827 C   0  0  0  0  0  0  0  0  0  0  0  0
   11.1606    5.9378   21.2366 N   0  0  0  0  0  0  0  0  0  0  0  0
    9.8932   11.6736   19.0677 O   0  0  0  0  0  0  0  0  0  0  0  0
    6.4470    4.5850   22.2321 C   0  0  0  0  0  0  0  0  0  0  0  0
    8.4619    6.9895   22.2968 C   0  0  0  0  0  0  0  0  0  0  0  0
   12.2747    7.5102   20.0420 C   0  0  0  0  0  0  0  0  0  0  0  0
   14.2544    6.2142   19.4191 C   0  0  0  0  0  0  0  0  0  0  0  0
   13.0695    6.3705   20.0375 N   0  0  0  0  0  0  0  0  0  0  0  0
    9.1913    8.0876   21.8361 N   0  0  0  0  0  0  0  0  0  0  0  0
   10.4739    9.4813   20.2889 C   0  0  0  0  0  0  0  0  0  0  0  0
    7.5551    7.1270   23.1200 O   0  0  0  0  0  0  0  0  0  0  0  0
  1 11  4  0
  1 21  4  0
  2  4  1  0
  2  8  1  0
  2 11  1  0
  3 10  4  0
  3 14  4  0
  4  5  1  0
  4 18  2  0
  6 12  1  0
  6 17  4  0
  6 23  4  0
  7  9  1  0
  7 13  4  0
  7 19  4  0
  9 20  1  0
 10 19  4  0
 11 25  4  0
 13 14  4  0
 15 16  4  0
 15 17  4  0
 15 21  4  0
 16 24  1  0
 16 25  4  0
 20 24  1  0
 20 26  2  0
 21 23  4  0
 22 23  1  0
M  END
$$$$

 Created by Python create_sdf_string function

 26 28  0  0  0  0  0  0  0  0999 V2000
   12.4616    8.6700   19.4180 N   0  0  0  0  0  0  0  0  0  0  0  0
   11.8329   10.8148   18.6769 N   0  0  0  0  0  0  0  0  0  0  0  0
    6.1021    2.5564   21.0678 C   0  0  0  0  0  0  0  0  0  0  0  0
   10.9097   11.8051   18.4804 C   0  0  0  0  0  0  0  0  0  0  0  0
   11.2280   12.9135   17.5669 C   0  0  0  0  0  0  0  0  0  0  0  0
   12.3782    5.4231   20.7777 C   0  0  0  0  0  0  0  0  0  0  0  0
    7.7365    4.6508   21.6987 C   0  0  0  0  0  0  0  0  0  0  0  0
   13.0186   11.0102   18.0020 C   0  0  0  0  0  0  0  0  0  0  0  0
    8.6628    5.7088   21.8871 N   0  0  0  0  0  0  0  0  0  0  0  0
    5.6516    3.5258   21.9140 C   0  0  0  0  0  0  0  0  0  0  0  0
   11.5863    9.6815   19.4539 C   0  0  0  0  0  0  0  0  0  0  0  0
   12.9648    4.1543   20.9205 C   0  0  0  0  0  0  0  0  0  0  0  0
    8.2089    3.6265   20.8929 C   0  0  0  0  0  0  0  0  0  0  0  0
    7.3827    2.5724   20.5432 C   0  0  0  0  0  0  0  0  0  0  0  0
   11.1529    7.2750   20.8025 C   0  0  0  0  0  0  0  0  0  0  0  0
   10.2573    8.3215   20.9827 C   0  0  0  0  0  0  0  0  0  0  0  0
   11.1606    5.9378   21.2366 N   0  0  0  0  0  0  0  0  0  0  0  0
    9.8932   11.6736   19.0677 O   0  0  0  0  0  0  0  0  0  0  0  0
    6.4470    4.5850   22.2321 C   0  0  0  0  0  0  0  0  0  0  0  0
    8.4619    6.9895   22.2968 C   0  0  0  0  0  0  0  0  0  0  0  0
   12.2747    7.5102   20.0420 C   0  0  0  0  0  0  0  0  0  0  0  0
   14.2544    6.2142   19.4191 C   0  0  0  0  0  0  0  0  0  0  0  0
   13.0695    6.3705   20.0375 N   0  0  0  0  0  0  0  0  0  0  0  0
    9.1913    8.0876   21.8361 N   0  0  0  0  0  0  0  0  0  0  0  0
   10.4739    9.4813   20.2889 C   0  0  0  0  0  0  0  0  0  0  0  0
    7.5551    7.1270   23.1200 O   0  0  0  0  0  0  0  0  0  0  0  0
  1 11  4  0
  1 21  4  0
  2  4  1  0
  2  8  1  0
  2 11  1  0
  3 10  4  0
  3 14  4  0
  4  5  1  0
  4 18  2  0
  6 12  1  0
  6 17  4  0
  6 23  4  0
  7  9  1  0
  7 13  4  0
  7 19  4  0
  9 20  1  0
 10 19  4  0
 11 25  4  0
 13 14  4  0
 15 16  4  0
 15 17  4  0
 15 21  4  0
 16 24  1  0
 16 25  4  0
 20 24  1  0
 20 26  2  0
 21 23  4  0
 22 23  1  0
M  END
$$$$

 Created by Python create_sdf_string function

 26 28  0  0  0  0  0  0  0  0999 V2000
   12.4616    8.6700   19.4180 N   0  0  0  0  0  0  0  0  0  0  0  0
   11.8329   10.8148   18.6769 N   0  0  0  0  0  0  0  0  0  0  0  0
    6.1021    2.5564   21.0678 C   0  0  0  0  0  0  0  0  0  0  0  0
   10.9097   11.8051   18.4804 C   0  0  0  0  0  0  0  0  0  0  0  0
   11.2280   12.9135   17.5669 C   0  0  0  0  0  0  0  0  0  0  0  0
   12.3782    5.4231   20.7777 C   0  0  0  0  0  0  0  0  0  0  0  0
    7.7365    4.6508   21.6987 C   0  0  0  0  0  0  0  0  0  0  0  0
   13.0186   11.0102   18.0020 C   0  0  0  0  0  0  0  0  0  0  0  0
    8.6628    5.7088   21.8871 N   0  0  0  0  0  0  0  0  0  0  0  0
    5.6516    3.5258   21.9140 C   0  0  0  0  0  0  0  0  0  0  0  0
   11.5863    9.6815   19.4539 C   0  0  0  0  0  0  0  0  0  0  0  0
   12.9648    4.1543   20.9205 C   0  0  0  0  0  0  0  0  0  0  0  0
    8.2089    3.6265   20.8929 C   0  0  0  0  0  0  0  0  0  0  0  0
    7.3827    2.5724   20.5432 C   0  0  0  0  0  0  0  0  0  0  0  0
   11.1529    7.2750   20.8025 C   0  0  0  0  0  0  0  0  0  0  0  0
   10.2573    8.3215   20.9827 C   0  0  0  0  0  0  0  0  0  0  0  0
   11.1606    5.9378   21.2366 N   0  0  0  0  0  0  0  0  0  0  0  0
    9.8932   11.6736   19.0677 O   0  0  0  0  0  0  0  0  0  0  0  0
    6.4470    4.5850   22.2321 C   0  0  0  0  0  0  0  0  0  0  0  0
    8.4619    6.9895   22.2968 C   0  0  0  0  0  0  0  0  0  0  0  0
   12.2747    7.5102   20.0420 C   0  0  0  0  0  0  0  0  0  0  0  0
   14.2544    6.2142   19.4191 C   0  0  0  0  0  0  0  0  0  0  0  0
   13.0695    6.3705   20.0375 N   0  0  0  0  0  0  0  0  0  0  0  0
    9.1913    8.0876   21.8361 N   0  0  0  0  0  0  0  0  0  0  0  0
   10.4739    9.4813   20.2889 C   0  0  0  0  0  0  0  0  0  0  0  0
    7.5551    7.1270   23.1200 O   0  0  0  0  0  0  0  0  0  0  0  0
  1 11  4  0
  1 21  4  0
  2  4  1  0
  2  8  1  0
  2 11  1  0
  3 10  4  0
  3 14  4  0
  4  5  1  0
  4 18  2  0
  6 12  1  0
  6 17  4  0
  6 23  4  0
  7  9  1  0
  7 13  4  0
  7 19  4  0
  9 20  1  0
 10 19  4  0
 11 25  4  0
 13 14  4  0
 15 16  4  0
 15 17  4  0
 15 21  4  0
 16 24  1  0
 16 25  4  0
 20 24  1  0
 20 26  2  0
 21 23  4  0
 22 23  1  0
M  END
$$$$

 Created by Python create_sdf_string function

 26 28  0  0  0  0  0  0  0  0999 V2000
   12.4616    8.6700   19.4180 N   0  0  0  0  0  0  0  0  0  0  0  0
   11.8329   10.8148   18.6769 N   0  0  0  0  0  0  0  0  0  0  0  0
    6.1021    2.5564   21.0678 C   0  0  0  0  0  0  0  0  0  0  0  0
   10.9097   11.8051   18.4804 C   0  0  0  0  0  0  0  0  0  0  0  0
   11.2280   12.9135   17.5669 C   0  0  0  0  0  0  0  0  0  0  0  0
   12.3782    5.4231   20.7777 C   0  0  0  0  0  0  0  0  0  0  0  0
    7.7365    4.6508   21.6987 C   0  0  0  0  0  0  0  0  0  0  0  0
   13.0186   11.0102   18.0020 C   0  0  0  0  0  0  0  0  0  0  0  0
    8.6628    5.7088   21.8871 N   0  0  0  0  0  0  0  0  0  0  0  0
    5.6516    3.5258   21.9140 C   0  0  0  0  0  0  0  0  0  0  0  0
   11.5863    9.6815   19.4539 C   0  0  0  0  0  0  0  0  0  0  0  0
   12.9648    4.1543   20.9205 C   0  0  0  0  0  0  0  0  0  0  0  0
    8.2089    3.6265   20.8929 C   0  0  0  0  0  0  0  0  0  0  0  0
    7.3827    2.5724   20.5432 C   0  0  0  0  0  0  0  0  0  0  0  0
   11.1529    7.2750   20.8025 C   0  0  0  0  0  0  0  0  0  0  0  0
   10.2573    8.3215   20.9827 C   0  0  0  0  0  0  0  0  0  0  0  0
   11.1606    5.9378   21.2366 N   0  0  0  0  0  0  0  0  0  0  0  0
    9.8932   11.6736   19.0677 O   0  0  0  0  0  0  0  0  0  0  0  0
    6.4470    4.5850   22.2321 C   0  0  0  0  0  0  0  0  0  0  0  0
    8.4619    6.9895   22.2968 C   0  0  0  0  0  0  0  0  0  0  0  0
   12.2747    7.5102   20.0420 C   0  0  0  0  0  0  0  0  0  0  0  0
   14.2544    6.2142   19.4191 C   0  0  0  0  0  0  0  0  0  0  0  0
   13.0695    6.3705   20.0375 N   0  0  0  0  0  0  0  0  0  0  0  0
    9.1913    8.0876   21.8361 N   0  0  0  0  0  0  0  0  0  0  0  0
   10.4739    9.4813   20.2889 C   0  0  0  0  0  0  0  0  0  0  0  0
    7.5551    7.1270   23.1200 O   0  0  0  0  0  0  0  0  0  0  0  0
  1 11  4  0
  1 21  4  0
  2  4  1  0
  2  8  1  0
  2 11  1  0
  3 10  4  0
  3 14  4  0
  4  5  1  0
  4 18  2  0
  6 12  1  0
  6 17  4  0
  6 23  4  0
  7  9  1  0
  7 13  4  0
  7 19  4  0
  9 20  1  0
 10 19  4  0
 11 25  4  0
 13 14  4  0
 15 16  4  0
 15 17  4  0
 15 21  4  0
 16 24  1  0
 16 25  4  0
 20 24  1  0
 20 26  2  0
 21 23  4  0
 22 23  1  0
M  END
$$$$

 Created by Python create_sdf_string function

 26 28  0  0  0  0  0  0  0  0999 V2000
   12.4616    8.6700   19.4180 N   0  0  0  0  0  0  0  0  0  0  0  0
   11.8329   10.8148   18.6769 N   0  0  0  0  0  0  0  0  0  0  0  0
    6.1021    2.5564   21.0678 C   0  0  0  0  0  0  0  0  0  0  0  0
   10.9097   11.8051   18.4804 C   0  0  0  0  0  0  0  0  0  0  0  0
   11.2280   12.9135   17.5669 C   0  0  0  0  0  0  0  0  0  0  0  0
   12.3782    5.4231   20.7777 C   0  0  0  0  0  0  0  0  0  0  0  0
    7.7365    4.6508   21.6987 C   0  0  0  0  0  0  0  0  0  0  0  0
   13.0186   11.0102   18.0020 C   0  0  0  0  0  0  0  0  0  0  0  0
    8.6628    5.7088   21.8871 N   0  0  0  0  0  0  0  0  0  0  0  0
    5.6516    3.5258   21.9140 C   0  0  0  0  0  0  0  0  0  0  0  0
   11.5863    9.6815   19.4539 C   0  0  0  0  0  0  0  0  0  0  0  0
   12.9648    4.1543   20.9205 C   0  0  0  0  0  0  0  0  0  0  0  0
    8.2089    3.6265   20.8929 C   0  0  0  0  0  0  0  0  0  0  0  0
    7.3827    2.5724   20.5432 C   0  0  0  0  0  0  0  0  0  0  0  0
   11.1529    7.2750   20.8025 C   0  0  0  0  0  0  0  0  0  0  0  0
   10.2573    8.3215   20.9827 C   0  0  0  0  0  0  0  0  0  0  0  0
   11.1606    5.9378   21.2366 N   0  0  0  0  0  0  0  0  0  0  0  0
    9.8932   11.6736   19.0677 O   0  0  0  0  0  0  0  0  0  0  0  0
    6.4470    4.5850   22.2321 C   0  0  0  0  0  0  0  0  0  0  0  0
    8.4619    6.9895   22.2968 C   0  0  0  0  0  0  0  0  0  0  0  0
   12.2747    7.5102   20.0420 C   0  0  0  0  0  0  0  0  0  0  0  0
   14.2544    6.2142   19.4191 C   0  0  0  0  0  0  0  0  0  0  0  0
   13.0695    6.3705   20.0375 N   0  0  0  0  0  0  0  0  0  0  0  0
    9.1913    8.0876   21.8361 N   0  0  0  0  0  0  0  0  0  0  0  0
   10.4739    9.4813   20.2889 C   0  0  0  0  0  0  0  0  0  0  0  0
    7.5551    7.1270   23.1200 O   0  0  0  0  0  0  0  0  0  0  0  0
  1 11  4  0
  1 21  4  0
  2  4  1  0
  2  8  1  0
  2 11  1  0
  3 10  4  0
  3 14  4  0
  4  5  1  0
  4 18  2  0
  6 12  1  0
  6 17  4  0
  6 23  4  0
  7  9  1  0
  7 13  4  0
  7 19  4  0
  9 20  1  0
 10 19  4  0
 11 25  4  0
 13 14  4  0
 15 16  4  0
 15 17  4  0
 15 21  4  0
 16 24  1  0
 16 25  4  0
 20 24  1  0
 20 26  2  0
 21 23  4  0
 22 23  1  0
M  END
$$$$

 Created by Python create_sdf_string function

 26 28  0  0  0  0  0  0  0  0999 V2000
   12.4616    8.6700   19.4180 N   0  0  0  0  0  0  0  0  0  0  0  0
   11.8329   10.8148   18.6769 N   0  0  0  0  0  0  0  0  0  0  0  0
    6.1021    2.5564   21.0678 C   0  0  0  0  0  0  0  0  0  0  0  0
   10.9097   11.8051   18.4804 C   0  0  0  0  0  0  0  0  0  0  0  0
   11.2280   12.9135   17.5669 C   0  0  0  0  0  0  0  0  0  0  0  0
   12.3782    5.4231   20.7777 C   0  0  0  0  0  0  0  0  0  0  0  0
    7.7365    4.6508   21.6987 C   0  0  0  0  0  0  0  0  0  0  0  0
   13.0186   11.0102   18.0020 C   0  0  0  0  0  0  0  0  0  0  0  0
    8.6628    5.7088   21.8871 N   0  0  0  0  0  0  0  0  0  0  0  0
    5.6516    3.5258   21.9140 C   0  0  0  0  0  0  0  0  0  0  0  0
   11.5863    9.6815   19.4539 C   0  0  0  0  0  0  0  0  0  0  0  0
   12.9648    4.1543   20.9205 C   0  0  0  0  0  0  0  0  0  0  0  0
    8.2089    3.6265   20.8929 C   0  0  0  0  0  0  0  0  0  0  0  0
    7.3827    2.5724   20.5432 C   0  0  0  0  0  0  0  0  0  0  0  0
   11.1529    7.2750   20.8025 C   0  0  0  0  0  0  0  0  0  0  0  0
   10.2573    8.3215   20.9827 C   0  0  0  0  0  0  0  0  0  0  0  0
   11.1606    5.9378   21.2366 N   0  0  0  0  0  0  0  0  0  0  0  0
    9.8932   11.6736   19.0677 O   0  0  0  0  0  0  0  0  0  0  0  0
    6.4470    4.5850   22.2321 C   0  0  0  0  0  0  0  0  0  0  0  0
    8.4619    6.9895   22.2968 C   0  0  0  0  0  0  0  0  0  0  0  0
   12.2747    7.5102   20.0420 C   0  0  0  0  0  0  0  0  0  0  0  0
   14.2544    6.2142   19.4191 C   0  0  0  0  0  0  0  0  0  0  0  0
   13.0695    6.3705   20.0375 N   0  0  0  0  0  0  0  0  0  0  0  0
    9.1913    8.0876   21.8361 N   0  0  0  0  0  0  0  0  0  0  0  0
   10.4739    9.4813   20.2889 C   0  0  0  0  0  0  0  0  0  0  0  0
    7.5551    7.1270   23.1200 O   0  0  0  0  0  0  0  0  0  0  0  0
  1 11  4  0
  1 21  4  0
  2  4  1  0
  2  8  1  0
  2 11  1  0
  3 10  4  0
  3 14  4  0
  4  5  1  0
  4 18  2  0
  6 12  1  0
  6 17  4  0
  6 23  4  0
  7  9  1  0
  7 13  4  0
  7 19  4  0
  9 20  1  0
 10 19  4  0
 11 25  4  0
 13 14  4  0
 15 16  4  0
 15 17  4  0
 15 21  4  0
 16 24  1  0
 16 25  4  0
 20 24  1  0
 20 26  2  0
 21 23  4  0
 22 23  1  0
M  END
$$$$

 Created by Python create_sdf_string function

 26 28  0  0  0  0  0  0  0  0999 V2000
   12.4616    8.6700   19.4180 N   0  0  0  0  0  0  0  0  0  0  0  0
   11.8329   10.8148   18.6769 N   0  0  0  0  0  0  0  0  0  0  0  0
    6.1021    2.5564   21.0678 C   0  0  0  0  0  0  0  0  0  0  0  0
   10.9097   11.8051   18.4804 C   0  0  0  0  0  0  0  0  0  0  0  0
   11.2280   12.9135   17.5669 C   0  0  0  0  0  0  0  0  0  0  0  0
   12.3782    5.4231   20.7777 C   0  0  0  0  0  0  0  0  0  0  0  0
    7.7365    4.6508   21.6987 C   0  0  0  0  0  0  0  0  0  0  0  0
   13.0186   11.0102   18.0020 C   0  0  0  0  0  0  0  0  0  0  0  0
    8.6628    5.7088   21.8871 N   0  0  0  0  0  0  0  0  0  0  0  0
    5.6516    3.5258   21.9140 C   0  0  0  0  0  0  0  0  0  0  0  0
   11.5863    9.6815   19.4539 C   0  0  0  0  0  0  0  0  0  0  0  0
   12.9648    4.1543   20.9205 C   0  0  0  0  0  0  0  0  0  0  0  0
    8.2089    3.6265   20.8929 C   0  0  0  0  0  0  0  0  0  0  0  0
    7.3827    2.5724   20.5432 C   0  0  0  0  0  0  0  0  0  0  0  0
   11.1529    7.2750   20.8025 C   0  0  0  0  0  0  0  0  0  0  0  0
   10.2573    8.3215   20.9827 C   0  0  0  0  0  0  0  0  0  0  0  0
   11.1606    5.9378   21.2366 N   0  0  0  0  0  0  0  0  0  0  0  0
    9.8932   11.6736   19.0677 O   0  0  0  0  0  0  0  0  0  0  0  0
    6.4470    4.5850   22.2321 C   0  0  0  0  0  0  0  0  0  0  0  0
    8.4619    6.9895   22.2968 C   0  0  0  0  0  0  0  0  0  0  0  0
   12.2747    7.5102   20.0420 C   0  0  0  0  0  0  0  0  0  0  0  0
   14.2544    6.2142   19.4191 C   0  0  0  0  0  0  0  0  0  0  0  0
   13.0695    6.3705   20.0375 N   0  0  0  0  0  0  0  0  0  0  0  0
    9.1913    8.0876   21.8361 N   0  0  0  0  0  0  0  0  0  0  0  0
   10.4739    9.4813   20.2889 C   0  0  0  0  0  0  0  0  0  0  0  0
    7.5551    7.1270   23.1200 O   0  0  0  0  0  0  0  0  0  0  0  0
  1 11  4  0
  1 21  4  0
  2  4  1  0
  2  8  1  0
  2 11  1  0
  3 10  4  0
  3 14  4  0
  4  5  1  0
  4 18  2  0
  6 12  1  0
  6 17  4  0
  6 23  4  0
  7  9  1  0
  7 13  4  0
  7 19  4  0
  9 20  1  0
 10 19  4  0
 11 25  4  0
 13 14  4  0
 15 16  4  0
 15 17  4  0
 15 21  4  0
 16 24  1  0
 16 25  4  0
 20 24  1  0
 20 26  2  0
 21 23  4  0
 22 23  1  0
M  END
$$$$

 Created by Python create_sdf_string function

 26 28  0  0  0  0  0  0  0  0999 V2000
   12.4616    8.6700   19.4180 N   0  0  0  0  0  0  0  0  0  0  0  0
   11.8329   10.8148   18.6769 N   0  0  0  0  0  0  0  0  0  0  0  0
    6.1021    2.5564   21.0678 C   0  0  0  0  0  0  0  0  0  0  0  0
   10.9097   11.8051   18.4804 C   0  0  0  0  0  0  0  0  0  0  0  0
   11.2280   12.9135   17.5669 C   0  0  0  0  0  0  0  0  0  0  0  0
   12.3782    5.4231   20.7777 C   0  0  0  0  0  0  0  0  0  0  0  0
    7.7365    4.6508   21.6987 C   0  0  0  0  0  0  0  0  0  0  0  0
   13.0186   11.0102   18.0020 C   0  0  0  0  0  0  0  0  0  0  0  0
    8.6628    5.7088   21.8871 N   0  0  0  0  0  0  0  0  0  0  0  0
    5.6516    3.5258   21.9140 C   0  0  0  0  0  0  0  0  0  0  0  0
   11.5863    9.6815   19.4539 C   0  0  0  0  0  0  0  0  0  0  0  0
   12.9648    4.1543   20.9205 C   0  0  0  0  0  0  0  0  0  0  0  0
    8.2089    3.6265   20.8929 C   0  0  0  0  0  0  0  0  0  0  0  0
    7.3827    2.5724   20.5432 C   0  0  0  0  0  0  0  0  0  0  0  0
   11.1529    7.2750   20.8025 C   0  0  0  0  0  0  0  0  0  0  0  0
   10.2573    8.3215   20.9827 C   0  0  0  0  0  0  0  0  0  0  0  0
   11.1606    5.9378   21.2366 N   0  0  0  0  0  0  0  0  0  0  0  0
    9.8932   11.6736   19.0677 O   0  0  0  0  0  0  0  0  0  0  0  0
    6.4470    4.5850   22.2321 C   0  0  0  0  0  0  0  0  0  0  0  0
    8.4619    6.9895   22.2968 C   0  0  0  0  0  0  0  0  0  0  0  0
   12.2747    7.5102   20.0420 C   0  0  0  0  0  0  0  0  0  0  0  0
   14.2544    6.2142   19.4191 C   0  0  0  0  0  0  0  0  0  0  0  0
   13.0695    6.3705   20.0375 N   0  0  0  0  0  0  0  0  0  0  0  0
    9.1913    8.0876   21.8361 N   0  0  0  0  0  0  0  0  0  0  0  0
   10.4739    9.4813   20.2889 C   0  0  0  0  0  0  0  0  0  0  0  0
    7.5551    7.1270   23.1200 O   0  0  0  0  0  0  0  0  0  0  0  0
  1 11  4  0
  1 21  4  0
  2  4  1  0
  2  8  1  0
  2 11  1  0
  3 10  4  0
  3 14  4  0
  4  5  1  0
  4 18  2  0
  6 12  1  0
  6 17  4  0
  6 23  4  0
  7  9  1  0
  7 13  4  0
  7 19  4  0
  9 20  1  0
 10 19  4  0
 11 25  4  0
 13 14  4  0
 15 16  4  0
 15 17  4  0
 15 21  4  0
 16 24  1  0
 16 25  4  0
 20 24  1  0
 20 26  2  0
 21 23  4  0
 22 23  1  0
M  END
$$$$

 Created by Python create_sdf_string function

 26 28  0  0  0  0  0  0  0  0999 V2000
   12.4616    8.6700   19.4180 N   0  0  0  0  0  0  0  0  0  0  0  0
   11.8329   10.8148   18.6769 N   0  0  0  0  0  0  0  0  0  0  0  0
    6.1021    2.5564   21.0678 C   0  0  0  0  0  0  0  0  0  0  0  0
   10.9097   11.8051   18.4804 C   0  0  0  0  0  0  0  0  0  0  0  0
   11.2280   12.9135   17.5669 C   0  0  0  0  0  0  0  0  0  0  0  0
   12.3782    5.4231   20.7777 C   0  0  0  0  0  0  0  0  0  0  0  0
    7.7365    4.6508   21.6987 C   0  0  0  0  0  0  0  0  0  0  0  0
   13.0186   11.0102   18.0020 C   0  0  0  0  0  0  0  0  0  0  0  0
    8.6628    5.7088   21.8871 N   0  0  0  0  0  0  0  0  0  0  0  0
    5.6516    3.5258   21.9140 C   0  0  0  0  0  0  0  0  0  0  0  0
   11.5863    9.6815   19.4539 C   0  0  0  0  0  0  0  0  0  0  0  0
   12.9648    4.1543   20.9205 C   0  0  0  0  0  0  0  0  0  0  0  0
    8.2089    3.6265   20.8929 C   0  0  0  0  0  0  0  0  0  0  0  0
    7.3827    2.5724   20.5432 C   0  0  0  0  0  0  0  0  0  0  0  0
   11.1529    7.2750   20.8025 C   0  0  0  0  0  0  0  0  0  0  0  0
   10.2573    8.3215   20.9827 C   0  0  0  0  0  0  0  0  0  0  0  0
   11.1606    5.9378   21.2366 N   0  0  0  0  0  0  0  0  0  0  0  0
    9.8932   11.6736   19.0677 O   0  0  0  0  0  0  0  0  0  0  0  0
    6.4470    4.5850   22.2321 C   0  0  0  0  0  0  0  0  0  0  0  0
    8.4619    6.9895   22.2968 C   0  0  0  0  0  0  0  0  0  0  0  0
   12.2747    7.5102   20.0420 C   0  0  0  0  0  0  0  0  0  0  0  0
   14.2544    6.2142   19.4191 C   0  0  0  0  0  0  0  0  0  0  0  0
   13.0695    6.3705   20.0375 N   0  0  0  0  0  0  0  0  0  0  0  0
    9.1913    8.0876   21.8361 N   0  0  0  0  0  0  0  0  0  0  0  0
   10.4739    9.4813   20.2889 C   0  0  0  0  0  0  0  0  0  0  0  0
    7.5551    7.1270   23.1200 O   0  0  0  0  0  0  0  0  0  0  0  0
  1 11  4  0
  1 21  4  0
  2  4  1  0
  2  8  1  0
  2 11  1  0
  3 10  4  0
  3 14  4  0
  4  5  1  0
  4 18  2  0
  6 12  1  0
  6 17  4  0
  6 23  4  0
  7  9  1  0
  7 13  4  0
  7 19  4  0
  9 20  1  0
 10 19  4  0
 11 25  4  0
 13 14  4  0
 15 16  4  0
 15 17  4  0
 15 21  4  0
 16 24  1  0
 16 25  4  0
 20 24  1  0
 20 26  2  0
 21 23  4  0
 22 23  1  0
M  END
$$$$

 Created by Python create_sdf_string function

 26 28  0  0  0  0  0  0  0  0999 V2000
   12.4616    8.6700   19.4180 N   0  0  0  0  0  0  0  0  0  0  0  0
   11.8329   10.8148   18.6769 N   0  0  0  0  0  0  0  0  0  0  0  0
    6.1021    2.5564   21.0678 C   0  0  0  0  0  0  0  0  0  0  0  0
   10.9097   11.8051   18.4804 C   0  0  0  0  0  0  0  0  0  0  0  0
   11.2280   12.9135   17.5669 C   0  0  0  0  0  0  0  0  0  0  0  0
   12.3782    5.4231   20.7777 C   0  0  0  0  0  0  0  0  0  0  0  0
    7.7365    4.6508   21.6987 C   0  0  0  0  0  0  0  0  0  0  0  0
   13.0186   11.0102   18.0020 C   0  0  0  0  0  0  0  0  0  0  0  0
    8.6628    5.7088   21.8871 N   0  0  0  0  0  0  0  0  0  0  0  0
    5.6516    3.5258   21.9140 C   0  0  0  0  0  0  0  0  0  0  0  0
   11.5863    9.6815   19.4539 C   0  0  0  0  0  0  0  0  0  0  0  0
   12.9648    4.1543   20.9205 C   0  0  0  0  0  0  0  0  0  0  0  0
    8.2089    3.6265   20.8929 C   0  0  0  0  0  0  0  0  0  0  0  0
    7.3827    2.5724   20.5432 C   0  0  0  0  0  0  0  0  0  0  0  0
   11.1529    7.2750   20.8025 C   0  0  0  0  0  0  0  0  0  0  0  0
   10.2573    8.3215   20.9827 C   0  0  0  0  0  0  0  0  0  0  0  0
   11.1606    5.9378   21.2366 N   0  0  0  0  0  0  0  0  0  0  0  0
    9.8932   11.6736   19.0677 O   0  0  0  0  0  0  0  0  0  0  0  0
    6.4470    4.5850   22.2321 C   0  0  0  0  0  0  0  0  0  0  0  0
    8.4619    6.9895   22.2968 C   0  0  0  0  0  0  0  0  0  0  0  0
   12.2747    7.5102   20.0420 C   0  0  0  0  0  0  0  0  0  0  0  0
   14.2544    6.2142   19.4191 C   0  0  0  0  0  0  0  0  0  0  0  0
   13.0695    6.3705   20.0375 N   0  0  0  0  0  0  0  0  0  0  0  0
    9.1913    8.0876   21.8361 N   0  0  0  0  0  0  0  0  0  0  0  0
   10.4739    9.4813   20.2889 C   0  0  0  0  0  0  0  0  0  0  0  0
    7.5551    7.1270   23.1200 O   0  0  0  0  0  0  0  0  0  0  0  0
  1 11  4  0
  1 21  4  0
  2  4  1  0
  2  8  1  0
  2 11  1  0
  3 10  4  0
  3 14  4  0
  4  5  1  0
  4 18  2  0
  6 12  1  0
  6 17  4  0
  6 23  4  0
  7  9  1  0
  7 13  4  0
  7 19  4  0
  9 20  1  0
 10 19  4  0
 11 25  4  0
 13 14  4  0
 15 16  4  0
 15 17  4  0
 15 21  4  0
 16 24  1  0
 16 25  4  0
 20 24  1  0
 20 26  2  0
 21 23  4  0
 22 23  1  0
M  END
$$$$

 Created by Python create_sdf_string function

 26 28  0  0  0  0  0  0  0  0999 V2000
   12.4616    8.6700   19.4180 N   0  0  0  0  0  0  0  0  0  0  0  0
   11.8329   10.8148   18.6769 N   0  0  0  0  0  0  0  0  0  0  0  0
    6.1021    2.5564   21.0678 C   0  0  0  0  0  0  0  0  0  0  0  0
   10.9097   11.8051   18.4804 C   0  0  0  0  0  0  0  0  0  0  0  0
   11.2280   12.9135   17.5669 C   0  0  0  0  0  0  0  0  0  0  0  0
   12.3782    5.4231   20.7777 C   0  0  0  0  0  0  0  0  0  0  0  0
    7.7365    4.6508   21.6987 C   0  0  0  0  0  0  0  0  0  0  0  0
   13.0186   11.0102   18.0020 C   0  0  0  0  0  0  0  0  0  0  0  0
    8.6628    5.7088   21.8871 N   0  0  0  0  0  0  0  0  0  0  0  0
    5.6516    3.5258   21.9140 C   0  0  0  0  0  0  0  0  0  0  0  0
   11.5863    9.6815   19.4539 C   0  0  0  0  0  0  0  0  0  0  0  0
   12.9648    4.1543   20.9205 C   0  0  0  0  0  0  0  0  0  0  0  0
    8.2089    3.6265   20.8929 C   0  0  0  0  0  0  0  0  0  0  0  0
    7.3827    2.5724   20.5432 C   0  0  0  0  0  0  0  0  0  0  0  0
   11.1529    7.2750   20.8025 C   0  0  0  0  0  0  0  0  0  0  0  0
   10.2573    8.3215   20.9827 C   0  0  0  0  0  0  0  0  0  0  0  0
   11.1606    5.9378   21.2366 N   0  0  0  0  0  0  0  0  0  0  0  0
    9.8932   11.6736   19.0677 O   0  0  0  0  0  0  0  0  0  0  0  0
    6.4470    4.5850   22.2321 C   0  0  0  0  0  0  0  0  0  0  0  0
    8.4619    6.9895   22.2968 C   0  0  0  0  0  0  0  0  0  0  0  0
   12.2747    7.5102   20.0420 C   0  0  0  0  0  0  0  0  0  0  0  0
   14.2544    6.2142   19.4191 C   0  0  0  0  0  0  0  0  0  0  0  0
   13.0695    6.3705   20.0375 N   0  0  0  0  0  0  0  0  0  0  0  0
    9.1913    8.0876   21.8361 N   0  0  0  0  0  0  0  0  0  0  0  0
   10.4739    9.4813   20.2889 C   0  0  0  0  0  0  0  0  0  0  0  0
    7.5551    7.1270   23.1200 O   0  0  0  0  0  0  0  0  0  0  0  0
  1 11  4  0
  1 21  4  0
  2  4  1  0
  2  8  1  0
  2 11  1  0
  3 10  4  0
  3 14  4  0
  4  5  1  0
  4 18  2  0
  6 12  1  0
  6 17  4  0
  6 23  4  0
  7  9  1  0
  7 13  4  0
  7 19  4  0
  9 20  1  0
 10 19  4  0
 11 25  4  0
 13 14  4  0
 15 16  4  0
 15 17  4  0
 15 21  4  0
 16 24  1  0
 16 25  4  0
 20 24  1  0
 20 26  2  0
 21 23  4  0
 22 23  1  0
M  END
$$$$

 Created by Python create_sdf_string function

 26 28  0  0  0  0  0  0  0  0999 V2000
   12.4616    8.6700   19.4180 N   0  0  0  0  0  0  0  0  0  0  0  0
   11.8329   10.8148   18.6769 N   0  0  0  0  0  0  0  0  0  0  0  0
    6.1021    2.5564   21.0678 C   0  0  0  0  0  0  0  0  0  0  0  0
   10.9097   11.8051   18.4804 C   0  0  0  0  0  0  0  0  0  0  0  0
   11.2280   12.9135   17.5669 C   0  0  0  0  0  0  0  0  0  0  0  0
   12.3782    5.4231   20.7777 C   0  0  0  0  0  0  0  0  0  0  0  0
    7.7365    4.6508   21.6987 C   0  0  0  0  0  0  0  0  0  0  0  0
   13.0186   11.0102   18.0020 C   0  0  0  0  0  0  0  0  0  0  0  0
    8.6628    5.7088   21.8871 N   0  0  0  0  0  0  0  0  0  0  0  0
    5.6516    3.5258   21.9140 C   0  0  0  0  0  0  0  0  0  0  0  0
   11.5863    9.6815   19.4539 C   0  0  0  0  0  0  0  0  0  0  0  0
   12.9648    4.1543   20.9205 C   0  0  0  0  0  0  0  0  0  0  0  0
    8.2089    3.6265   20.8929 C   0  0  0  0  0  0  0  0  0  0  0  0
    7.3827    2.5724   20.5432 C   0  0  0  0  0  0  0  0  0  0  0  0
   11.1529    7.2750   20.8025 C   0  0  0  0  0  0  0  0  0  0  0  0
   10.2573    8.3215   20.9827 C   0  0  0  0  0  0  0  0  0  0  0  0
   11.1606    5.9378   21.2366 N   0  0  0  0  0  0  0  0  0  0  0  0
    9.8932   11.6736   19.0677 O   0  0  0  0  0  0  0  0  0  0  0  0
    6.4470    4.5850   22.2321 C   0  0  0  0  0  0  0  0  0  0  0  0
    8.4619    6.9895   22.2968 C   0  0  0  0  0  0  0  0  0  0  0  0
   12.2747    7.5102   20.0420 C   0  0  0  0  0  0  0  0  0  0  0  0
   14.2544    6.2142   19.4191 C   0  0  0  0  0  0  0  0  0  0  0  0
   13.0695    6.3705   20.0375 N   0  0  0  0  0  0  0  0  0  0  0  0
    9.1913    8.0876   21.8361 N   0  0  0  0  0  0  0  0  0  0  0  0
   10.4739    9.4813   20.2889 C   0  0  0  0  0  0  0  0  0  0  0  0
    7.5551    7.1270   23.1200 O   0  0  0  0  0  0  0  0  0  0  0  0
  1 11  4  0
  1 21  4  0
  2  4  1  0
  2  8  1  0
  2 11  1  0
  3 10  4  0
  3 14  4  0
  4  5  1  0
  4 18  2  0
  6 12  1  0
  6 17  4  0
  6 23  4  0
  7  9  1  0
  7 13  4  0
  7 19  4  0
  9 20  1  0
 10 19  4  0
 11 25  4  0
 13 14  4  0
 15 16  4  0
 15 17  4  0
 15 21  4  0
 16 24  1  0
 16 25  4  0
 20 24  1  0
 20 26  2  0
 21 23  4  0
 22 23  1  0
M  END
$$$$

 Created by Python create_sdf_string function

 26 28  0  0  0  0  0  0  0  0999 V2000
   12.4616    8.6700   19.4180 N   0  0  0  0  0  0  0  0  0  0  0  0
   11.8329   10.8148   18.6769 N   0  0  0  0  0  0  0  0  0  0  0  0
    6.1021    2.5564   21.0678 C   0  0  0  0  0  0  0  0  0  0  0  0
   10.9097   11.8051   18.4804 C   0  0  0  0  0  0  0  0  0  0  0  0
   11.2280   12.9135   17.5669 C   0  0  0  0  0  0  0  0  0  0  0  0
   12.3782    5.4231   20.7777 C   0  0  0  0  0  0  0  0  0  0  0  0
    7.7365    4.6508   21.6987 C   0  0  0  0  0  0  0  0  0  0  0  0
   13.0186   11.0102   18.0020 C   0  0  0  0  0  0  0  0  0  0  0  0
    8.6628    5.7088   21.8871 N   0  0  0  0  0  0  0  0  0  0  0  0
    5.6516    3.5258   21.9140 C   0  0  0  0  0  0  0  0  0  0  0  0
   11.5863    9.6815   19.4539 C   0  0  0  0  0  0  0  0  0  0  0  0
   12.9648    4.1543   20.9205 C   0  0  0  0  0  0  0  0  0  0  0  0
    8.2089    3.6265   20.8929 C   0  0  0  0  0  0  0  0  0  0  0  0
    7.3827    2.5724   20.5432 C   0  0  0  0  0  0  0  0  0  0  0  0
   11.1529    7.2750   20.8025 C   0  0  0  0  0  0  0  0  0  0  0  0
   10.2573    8.3215   20.9827 C   0  0  0  0  0  0  0  0  0  0  0  0
   11.1606    5.9378   21.2366 N   0  0  0  0  0  0  0  0  0  0  0  0
    9.8932   11.6736   19.0677 O   0  0  0  0  0  0  0  0  0  0  0  0
    6.4470    4.5850   22.2321 C   0  0  0  0  0  0  0  0  0  0  0  0
    8.4619    6.9895   22.2968 C   0  0  0  0  0  0  0  0  0  0  0  0
   12.2747    7.5102   20.0420 C   0  0  0  0  0  0  0  0  0  0  0  0
   14.2544    6.2142   19.4191 C   0  0  0  0  0  0  0  0  0  0  0  0
   13.0695    6.3705   20.0375 N   0  0  0  0  0  0  0  0  0  0  0  0
    9.1913    8.0876   21.8361 N   0  0  0  0  0  0  0  0  0  0  0  0
   10.4739    9.4813   20.2889 C   0  0  0  0  0  0  0  0  0  0  0  0
    7.5551    7.1270   23.1200 O   0  0  0  0  0  0  0  0  0  0  0  0
  1 11  4  0
  1 21  4  0
  2  4  1  0
  2  8  1  0
  2 11  1  0
  3 10  4  0
  3 14  4  0
  4  5  1  0
  4 18  2  0
  6 12  1  0
  6 17  4  0
  6 23  4  0
  7  9  1  0
  7 13  4  0
  7 19  4  0
  9 20  1  0
 10 19  4  0
 11 25  4  0
 13 14  4  0
 15 16  4  0
 15 17  4  0
 15 21  4  0
 16 24  1  0
 16 25  4  0
 20 24  1  0
 20 26  2  0
 21 23  4  0
 22 23  1  0
M  END
$$$$

 Created by Python create_sdf_string function

 26 28  0  0  0  0  0  0  0  0999 V2000
   12.4616    8.6700   19.4180 N   0  0  0  0  0  0  0  0  0  0  0  0
   11.8329   10.8148   18.6769 N   0  0  0  0  0  0  0  0  0  0  0  0
    6.1021    2.5564   21.0678 C   0  0  0  0  0  0  0  0  0  0  0  0
   10.9097   11.8051   18.4804 C   0  0  0  0  0  0  0  0  0  0  0  0
   11.2280   12.9135   17.5669 C   0  0  0  0  0  0  0  0  0  0  0  0
   12.3782    5.4231   20.7777 C   0  0  0  0  0  0  0  0  0  0  0  0
    7.7365    4.6508   21.6987 C   0  0  0  0  0  0  0  0  0  0  0  0
   13.0186   11.0102   18.0020 C   0  0  0  0  0  0  0  0  0  0  0  0
    8.6628    5.7088   21.8871 N   0  0  0  0  0  0  0  0  0  0  0  0
    5.6516    3.5258   21.9140 C   0  0  0  0  0  0  0  0  0  0  0  0
   11.5863    9.6815   19.4539 C   0  0  0  0  0  0  0  0  0  0  0  0
   12.9648    4.1543   20.9205 C   0  0  0  0  0  0  0  0  0  0  0  0
    8.2089    3.6265   20.8929 C   0  0  0  0  0  0  0  0  0  0  0  0
    7.3827    2.5724   20.5432 C   0  0  0  0  0  0  0  0  0  0  0  0
   11.1529    7.2750   20.8025 C   0  0  0  0  0  0  0  0  0  0  0  0
   10.2573    8.3215   20.9827 C   0  0  0  0  0  0  0  0  0  0  0  0
   11.1606    5.9378   21.2366 N   0  0  0  0  0  0  0  0  0  0  0  0
    9.8932   11.6736   19.0677 O   0  0  0  0  0  0  0  0  0  0  0  0
    6.4470    4.5850   22.2321 C   0  0  0  0  0  0  0  0  0  0  0  0
    8.4619    6.9895   22.2968 C   0  0  0  0  0  0  0  0  0  0  0  0
   12.2747    7.5102   20.0420 C   0  0  0  0  0  0  0  0  0  0  0  0
   14.2544    6.2142   19.4191 C   0  0  0  0  0  0  0  0  0  0  0  0
   13.0695    6.3705   20.0375 N   0  0  0  0  0  0  0  0  0  0  0  0
    9.1913    8.0876   21.8361 N   0  0  0  0  0  0  0  0  0  0  0  0
   10.4739    9.4813   20.2889 C   0  0  0  0  0  0  0  0  0  0  0  0
    7.5551    7.1270   23.1200 O   0  0  0  0  0  0  0  0  0  0  0  0
  1 11  4  0
  1 21  4  0
  2  4  1  0
  2  8  1  0
  2 11  1  0
  3 10  4  0
  3 14  4  0
  4  5  1  0
  4 18  2  0
  6 12  1  0
  6 17  4  0
  6 23  4  0
  7  9  1  0
  7 13  4  0
  7 19  4  0
  9 20  1  0
 10 19  4  0
 11 25  4  0
 13 14  4  0
 15 16  4  0
 15 17  4  0
 15 21  4  0
 16 24  1  0
 16 25  4  0
 20 24  1  0
 20 26  2  0
 21 23  4  0
 22 23  1  0
M  END
$$$$

 Created by Python create_sdf_string function

 26 28  0  0  0  0  0  0  0  0999 V2000
   12.4616    8.6700   19.4180 N   0  0  0  0  0  0  0  0  0  0  0  0
   11.8329   10.8148   18.6769 N   0  0  0  0  0  0  0  0  0  0  0  0
    6.1021    2.5564   21.0678 C   0  0  0  0  0  0  0  0  0  0  0  0
   10.9097   11.8051   18.4804 C   0  0  0  0  0  0  0  0  0  0  0  0
   11.2280   12.9135   17.5669 C   0  0  0  0  0  0  0  0  0  0  0  0
   12.3782    5.4231   20.7777 C   0  0  0  0  0  0  0  0  0  0  0  0
    7.7365    4.6508   21.6987 C   0  0  0  0  0  0  0  0  0  0  0  0
   13.0186   11.0102   18.0020 C   0  0  0  0  0  0  0  0  0  0  0  0
    8.6628    5.7088   21.8871 N   0  0  0  0  0  0  0  0  0  0  0  0
    5.6516    3.5258   21.9140 C   0  0  0  0  0  0  0  0  0  0  0  0
   11.5863    9.6815   19.4539 C   0  0  0  0  0  0  0  0  0  0  0  0
   12.9648    4.1543   20.9205 C   0  0  0  0  0  0  0  0  0  0  0  0
    8.2089    3.6265   20.8929 C   0  0  0  0  0  0  0  0  0  0  0  0
    7.3827    2.5724   20.5432 C   0  0  0  0  0  0  0  0  0  0  0  0
   11.1529    7.2750   20.8025 C   0  0  0  0  0  0  0  0  0  0  0  0
   10.2573    8.3215   20.9827 C   0  0  0  0  0  0  0  0  0  0  0  0
   11.1606    5.9378   21.2366 N   0  0  0  0  0  0  0  0  0  0  0  0
    9.8932   11.6736   19.0677 O   0  0  0  0  0  0  0  0  0  0  0  0
    6.4470    4.5850   22.2321 C   0  0  0  0  0  0  0  0  0  0  0  0
    8.4619    6.9895   22.2968 C   0  0  0  0  0  0  0  0  0  0  0  0
   12.2747    7.5102   20.0420 C   0  0  0  0  0  0  0  0  0  0  0  0
   14.2544    6.2142   19.4191 C   0  0  0  0  0  0  0  0  0  0  0  0
   13.0695    6.3705   20.0375 N   0  0  0  0  0  0  0  0  0  0  0  0
    9.1913    8.0876   21.8361 N   0  0  0  0  0  0  0  0  0  0  0  0
   10.4739    9.4813   20.2889 C   0  0  0  0  0  0  0  0  0  0  0  0
    7.5551    7.1270   23.1200 O   0  0  0  0  0  0  0  0  0  0  0  0
  1 11  4  0
  1 21  4  0
  2  4  1  0
  2  8  1  0
  2 11  1  0
  3 10  4  0
  3 14  4  0
  4  5  1  0
  4 18  2  0
  6 12  1  0
  6 17  4  0
  6 23  4  0
  7  9  1  0
  7 13  4  0
  7 19  4  0
  9 20  1  0
 10 19  4  0
 11 25  4  0
 13 14  4  0
 15 16  4  0
 15 17  4  0
 15 21  4  0
 16 24  1  0
 16 25  4  0
 20 24  1  0
 20 26  2  0
 21 23  4  0
 22 23  1  0
M  END
$$$$

 Created by Python create_sdf_string function

 26 28  0  0  0  0  0  0  0  0999 V2000
   12.4616    8.6700   19.4180 N   0  0  0  0  0  0  0  0  0  0  0  0
   11.8329   10.8148   18.6769 N   0  0  0  0  0  0  0  0  0  0  0  0
    6.1021    2.5564   21.0678 C   0  0  0  0  0  0  0  0  0  0  0  0
   10.9097   11.8051   18.4804 C   0  0  0  0  0  0  0  0  0  0  0  0
   11.2280   12.9135   17.5669 C   0  0  0  0  0  0  0  0  0  0  0  0
   12.3782    5.4231   20.7777 C   0  0  0  0  0  0  0  0  0  0  0  0
    7.7365    4.6508   21.6987 C   0  0  0  0  0  0  0  0  0  0  0  0
   13.0186   11.0102   18.0020 C   0  0  0  0  0  0  0  0  0  0  0  0
    8.6628    5.7088   21.8871 N   0  0  0  0  0  0  0  0  0  0  0  0
    5.6516    3.5258   21.9140 C   0  0  0  0  0  0  0  0  0  0  0  0
   11.5863    9.6815   19.4539 C   0  0  0  0  0  0  0  0  0  0  0  0
   12.9648    4.1543   20.9205 C   0  0  0  0  0  0  0  0  0  0  0  0
    8.2089    3.6265   20.8929 C   0  0  0  0  0  0  0  0  0  0  0  0
    7.3827    2.5724   20.5432 C   0  0  0  0  0  0  0  0  0  0  0  0
   11.1529    7.2750   20.8025 C   0  0  0  0  0  0  0  0  0  0  0  0
   10.2573    8.3215   20.9827 C   0  0  0  0  0  0  0  0  0  0  0  0
   11.1606    5.9378   21.2366 N   0  0  0  0  0  0  0  0  0  0  0  0
    9.8932   11.6736   19.0677 O   0  0  0  0  0  0  0  0  0  0  0  0
    6.4470    4.5850   22.2321 C   0  0  0  0  0  0  0  0  0  0  0  0
    8.4619    6.9895   22.2968 C   0  0  0  0  0  0  0  0  0  0  0  0
   12.2747    7.5102   20.0420 C   0  0  0  0  0  0  0  0  0  0  0  0
   14.2544    6.2142   19.4191 C   0  0  0  0  0  0  0  0  0  0  0  0
   13.0695    6.3705   20.0375 N   0  0  0  0  0  0  0  0  0  0  0  0
    9.1913    8.0876   21.8361 N   0  0  0  0  0  0  0  0  0  0  0  0
   10.4739    9.4813   20.2889 C   0  0  0  0  0  0  0  0  0  0  0  0
    7.5551    7.1270   23.1200 O   0  0  0  0  0  0  0  0  0  0  0  0
  1 11  4  0
  1 21  4  0
  2  4  1  0
  2  8  1  0
  2 11  1  0
  3 10  4  0
  3 14  4  0
  4  5  1  0
  4 18  2  0
  6 12  1  0
  6 17  4  0
  6 23  4  0
  7  9  1  0
  7 13  4  0
  7 19  4  0
  9 20  1  0
 10 19  4  0
 11 25  4  0
 13 14  4  0
 15 16  4  0
 15 17  4  0
 15 21  4  0
 16 24  1  0
 16 25  4  0
 20 24  1  0
 20 26  2  0
 21 23  4  0
 22 23  1  0
M  END
$$$$

 Created by Python create_sdf_string function

 26 28  0  0  0  0  0  0  0  0999 V2000
   12.4616    8.6700   19.4180 N   0  0  0  0  0  0  0  0  0  0  0  0
   11.8329   10.8148   18.6769 N   0  0  0  0  0  0  0  0  0  0  0  0
    6.1021    2.5564   21.0678 C   0  0  0  0  0  0  0  0  0  0  0  0
   10.9097   11.8051   18.4804 C   0  0  0  0  0  0  0  0  0  0  0  0
   11.2280   12.9135   17.5669 C   0  0  0  0  0  0  0  0  0  0  0  0
   12.3782    5.4231   20.7777 C   0  0  0  0  0  0  0  0  0  0  0  0
    7.7365    4.6508   21.6987 C   0  0  0  0  0  0  0  0  0  0  0  0
   13.0186   11.0102   18.0020 C   0  0  0  0  0  0  0  0  0  0  0  0
    8.6628    5.7088   21.8871 N   0  0  0  0  0  0  0  0  0  0  0  0
    5.6516    3.5258   21.9140 C   0  0  0  0  0  0  0  0  0  0  0  0
   11.5863    9.6815   19.4539 C   0  0  0  0  0  0  0  0  0  0  0  0
   12.9648    4.1543   20.9205 C   0  0  0  0  0  0  0  0  0  0  0  0
    8.2089    3.6265   20.8929 C   0  0  0  0  0  0  0  0  0  0  0  0
    7.3827    2.5724   20.5432 C   0  0  0  0  0  0  0  0  0  0  0  0
   11.1529    7.2750   20.8025 C   0  0  0  0  0  0  0  0  0  0  0  0
   10.2573    8.3215   20.9827 C   0  0  0  0  0  0  0  0  0  0  0  0
   11.1606    5.9378   21.2366 N   0  0  0  0  0  0  0  0  0  0  0  0
    9.8932   11.6736   19.0677 O   0  0  0  0  0  0  0  0  0  0  0  0
    6.4470    4.5850   22.2321 C   0  0  0  0  0  0  0  0  0  0  0  0
    8.4619    6.9895   22.2968 C   0  0  0  0  0  0  0  0  0  0  0  0
   12.2747    7.5102   20.0420 C   0  0  0  0  0  0  0  0  0  0  0  0
   14.2544    6.2142   19.4191 C   0  0  0  0  0  0  0  0  0  0  0  0
   13.0695    6.3705   20.0375 N   0  0  0  0  0  0  0  0  0  0  0  0
    9.1913    8.0876   21.8361 N   0  0  0  0  0  0  0  0  0  0  0  0
   10.4739    9.4813   20.2889 C   0  0  0  0  0  0  0  0  0  0  0  0
    7.5551    7.1270   23.1200 O   0  0  0  0  0  0  0  0  0  0  0  0
  1 11  4  0
  1 21  4  0
  2  4  1  0
  2  8  1  0
  2 11  1  0
  3 10  4  0
  3 14  4  0
  4  5  1  0
  4 18  2  0
  6 12  1  0
  6 17  4  0
  6 23  4  0
  7  9  1  0
  7 13  4  0
  7 19  4  0
  9 20  1  0
 10 19  4  0
 11 25  4  0
 13 14  4  0
 15 16  4  0
 15 17  4  0
 15 21  4  0
 16 24  1  0
 16 25  4  0
 20 24  1  0
 20 26  2  0
 21 23  4  0
 22 23  1  0
M  END
$$$$

 Created by Python create_sdf_string function

 26 28  0  0  0  0  0  0  0  0999 V2000
   12.4616    8.6700   19.4180 N   0  0  0  0  0  0  0  0  0  0  0  0
   11.8329   10.8148   18.6769 N   0  0  0  0  0  0  0  0  0  0  0  0
    6.1021    2.5564   21.0678 C   0  0  0  0  0  0  0  0  0  0  0  0
   10.9097   11.8051   18.4804 C   0  0  0  0  0  0  0  0  0  0  0  0
   11.2280   12.9135   17.5669 C   0  0  0  0  0  0  0  0  0  0  0  0
   12.3782    5.4231   20.7777 C   0  0  0  0  0  0  0  0  0  0  0  0
    7.7365    4.6508   21.6987 C   0  0  0  0  0  0  0  0  0  0  0  0
   13.0186   11.0102   18.0020 C   0  0  0  0  0  0  0  0  0  0  0  0
    8.6628    5.7088   21.8871 N   0  0  0  0  0  0  0  0  0  0  0  0
    5.6516    3.5258   21.9140 C   0  0  0  0  0  0  0  0  0  0  0  0
   11.5863    9.6815   19.4539 C   0  0  0  0  0  0  0  0  0  0  0  0
   12.9648    4.1543   20.9205 C   0  0  0  0  0  0  0  0  0  0  0  0
    8.2089    3.6265   20.8929 C   0  0  0  0  0  0  0  0  0  0  0  0
    7.3827    2.5724   20.5432 C   0  0  0  0  0  0  0  0  0  0  0  0
   11.1529    7.2750   20.8025 C   0  0  0  0  0  0  0  0  0  0  0  0
   10.2573    8.3215   20.9827 C   0  0  0  0  0  0  0  0  0  0  0  0
   11.1606    5.9378   21.2366 N   0  0  0  0  0  0  0  0  0  0  0  0
    9.8932   11.6736   19.0677 O   0  0  0  0  0  0  0  0  0  0  0  0
    6.4470    4.5850   22.2321 C   0  0  0  0  0  0  0  0  0  0  0  0
    8.4619    6.9895   22.2968 C   0  0  0  0  0  0  0  0  0  0  0  0
   12.2747    7.5102   20.0420 C   0  0  0  0  0  0  0  0  0  0  0  0
   14.2544    6.2142   19.4191 C   0  0  0  0  0  0  0  0  0  0  0  0
   13.0695    6.3705   20.0375 N   0  0  0  0  0  0  0  0  0  0  0  0
    9.1913    8.0876   21.8361 N   0  0  0  0  0  0  0  0  0  0  0  0
   10.4739    9.4813   20.2889 C   0  0  0  0  0  0  0  0  0  0  0  0
    7.5551    7.1270   23.1200 O   0  0  0  0  0  0  0  0  0  0  0  0
  1 11  4  0
  1 21  4  0
  2  4  1  0
  2  8  1  0
  2 11  1  0
  3 10  4  0
  3 14  4  0
  4  5  1  0
  4 18  2  0
  6 12  1  0
  6 17  4  0
  6 23  4  0
  7  9  1  0
  7 13  4  0
  7 19  4  0
  9 20  1  0
 10 19  4  0
 11 25  4  0
 13 14  4  0
 15 16  4  0
 15 17  4  0
 15 21  4  0
 16 24  1  0
 16 25  4  0
 20 24  1  0
 20 26  2  0
 21 23  4  0
 22 23  1  0
M  END
$$$$

 Created by Python create_sdf_string function

 26 28  0  0  0  0  0  0  0  0999 V2000
   12.4616    8.6700   19.4180 N   0  0  0  0  0  0  0  0  0  0  0  0
   11.8329   10.8148   18.6769 N   0  0  0  0  0  0  0  0  0  0  0  0
    6.1021    2.5564   21.0678 C   0  0  0  0  0  0  0  0  0  0  0  0
   10.9097   11.8051   18.4804 C   0  0  0  0  0  0  0  0  0  0  0  0
   11.2280   12.9135   17.5669 C   0  0  0  0  0  0  0  0  0  0  0  0
   12.3782    5.4231   20.7777 C   0  0  0  0  0  0  0  0  0  0  0  0
    7.7365    4.6508   21.6987 C   0  0  0  0  0  0  0  0  0  0  0  0
   13.0186   11.0102   18.0020 C   0  0  0  0  0  0  0  0  0  0  0  0
    8.6628    5.7088   21.8871 N   0  0  0  0  0  0  0  0  0  0  0  0
    5.6516    3.5258   21.9140 C   0  0  0  0  0  0  0  0  0  0  0  0
   11.5863    9.6815   19.4539 C   0  0  0  0  0  0  0  0  0  0  0  0
   12.9648    4.1543   20.9205 C   0  0  0  0  0  0  0  0  0  0  0  0
    8.2089    3.6265   20.8929 C   0  0  0  0  0  0  0  0  0  0  0  0
    7.3827    2.5724   20.5432 C   0  0  0  0  0  0  0  0  0  0  0  0
   11.1529    7.2750   20.8025 C   0  0  0  0  0  0  0  0  0  0  0  0
   10.2573    8.3215   20.9827 C   0  0  0  0  0  0  0  0  0  0  0  0
   11.1606    5.9378   21.2366 N   0  0  0  0  0  0  0  0  0  0  0  0
    9.8932   11.6736   19.0677 O   0  0  0  0  0  0  0  0  0  0  0  0
    6.4470    4.5850   22.2321 C   0  0  0  0  0  0  0  0  0  0  0  0
    8.4619    6.9895   22.2968 C   0  0  0  0  0  0  0  0  0  0  0  0
   12.2747    7.5102   20.0420 C   0  0  0  0  0  0  0  0  0  0  0  0
   14.2544    6.2142   19.4191 C   0  0  0  0  0  0  0  0  0  0  0  0
   13.0695    6.3705   20.0375 N   0  0  0  0  0  0  0  0  0  0  0  0
    9.1913    8.0876   21.8361 N   0  0  0  0  0  0  0  0  0  0  0  0
   10.4739    9.4813   20.2889 C   0  0  0  0  0  0  0  0  0  0  0  0
    7.5551    7.1270   23.1200 O   0  0  0  0  0  0  0  0  0  0  0  0
  1 11  4  0
  1 21  4  0
  2  4  1  0
  2  8  1  0
  2 11  1  0
  3 10  4  0
  3 14  4  0
  4  5  1  0
  4 18  2  0
  6 12  1  0
  6 17  4  0
  6 23  4  0
  7  9  1  0
  7 13  4  0
  7 19  4  0
  9 20  1  0
 10 19  4  0
 11 25  4  0
 13 14  4  0
 15 16  4  0
 15 17  4  0
 15 21  4  0
 16 24  1  0
 16 25  4  0
 20 24  1  0
 20 26  2  0
 21 23  4  0
 22 23  1  0
M  END
$$$$

 Created by Python create_sdf_string function

 26 28  0  0  0  0  0  0  0  0999 V2000
   12.4616    8.6700   19.4180 N   0  0  0  0  0  0  0  0  0  0  0  0
   11.8329   10.8148   18.6769 N   0  0  0  0  0  0  0  0  0  0  0  0
    6.1021    2.5564   21.0678 C   0  0  0  0  0  0  0  0  0  0  0  0
   10.9097   11.8051   18.4804 C   0  0  0  0  0  0  0  0  0  0  0  0
   11.2280   12.9135   17.5669 C   0  0  0  0  0  0  0  0  0  0  0  0
   12.3782    5.4231   20.7777 C   0  0  0  0  0  0  0  0  0  0  0  0
    7.7365    4.6508   21.6987 C   0  0  0  0  0  0  0  0  0  0  0  0
   13.0186   11.0102   18.0020 C   0  0  0  0  0  0  0  0  0  0  0  0
    8.6628    5.7088   21.8871 N   0  0  0  0  0  0  0  0  0  0  0  0
    5.6516    3.5258   21.9140 C   0  0  0  0  0  0  0  0  0  0  0  0
   11.5863    9.6815   19.4539 C   0  0  0  0  0  0  0  0  0  0  0  0
   12.9648    4.1543   20.9205 C   0  0  0  0  0  0  0  0  0  0  0  0
    8.2089    3.6265   20.8929 C   0  0  0  0  0  0  0  0  0  0  0  0
    7.3827    2.5724   20.5432 C   0  0  0  0  0  0  0  0  0  0  0  0
   11.1529    7.2750   20.8025 C   0  0  0  0  0  0  0  0  0  0  0  0
   10.2573    8.3215   20.9827 C   0  0  0  0  0  0  0  0  0  0  0  0
   11.1606    5.9378   21.2366 N   0  0  0  0  0  0  0  0  0  0  0  0
    9.8932   11.6736   19.0677 O   0  0  0  0  0  0  0  0  0  0  0  0
    6.4470    4.5850   22.2321 C   0  0  0  0  0  0  0  0  0  0  0  0
    8.4619    6.9895   22.2968 C   0  0  0  0  0  0  0  0  0  0  0  0
   12.2747    7.5102   20.0420 C   0  0  0  0  0  0  0  0  0  0  0  0
   14.2544    6.2142   19.4191 C   0  0  0  0  0  0  0  0  0  0  0  0
   13.0695    6.3705   20.0375 N   0  0  0  0  0  0  0  0  0  0  0  0
    9.1913    8.0876   21.8361 N   0  0  0  0  0  0  0  0  0  0  0  0
   10.4739    9.4813   20.2889 C   0  0  0  0  0  0  0  0  0  0  0  0
    7.5551    7.1270   23.1200 O   0  0  0  0  0  0  0  0  0  0  0  0
  1 11  4  0
  1 21  4  0
  2  4  1  0
  2  8  1  0
  2 11  1  0
  3 10  4  0
  3 14  4  0
  4  5  1  0
  4 18  2  0
  6 12  1  0
  6 17  4  0
  6 23  4  0
  7  9  1  0
  7 13  4  0
  7 19  4  0
  9 20  1  0
 10 19  4  0
 11 25  4  0
 13 14  4  0
 15 16  4  0
 15 17  4  0
 15 21  4  0
 16 24  1  0
 16 25  4  0
 20 24  1  0
 20 26  2  0
 21 23  4  0
 22 23  1  0
M  END
$$$$

 Created by Python create_sdf_string function

 26 28  0  0  0  0  0  0  0  0999 V2000
   12.4616    8.6700   19.4180 N   0  0  0  0  0  0  0  0  0  0  0  0
   11.8329   10.8148   18.6769 N   0  0  0  0  0  0  0  0  0  0  0  0
    6.1021    2.5564   21.0678 C   0  0  0  0  0  0  0  0  0  0  0  0
   10.9097   11.8051   18.4804 C   0  0  0  0  0  0  0  0  0  0  0  0
   11.2280   12.9135   17.5669 C   0  0  0  0  0  0  0  0  0  0  0  0
   12.3782    5.4231   20.7777 C   0  0  0  0  0  0  0  0  0  0  0  0
    7.7365    4.6508   21.6987 C   0  0  0  0  0  0  0  0  0  0  0  0
   13.0186   11.0102   18.0020 C   0  0  0  0  0  0  0  0  0  0  0  0
    8.6628    5.7088   21.8871 N   0  0  0  0  0  0  0  0  0  0  0  0
    5.6516    3.5258   21.9140 C   0  0  0  0  0  0  0  0  0  0  0  0
   11.5863    9.6815   19.4539 C   0  0  0  0  0  0  0  0  0  0  0  0
   12.9648    4.1543   20.9205 C   0  0  0  0  0  0  0  0  0  0  0  0
    8.2089    3.6265   20.8929 C   0  0  0  0  0  0  0  0  0  0  0  0
    7.3827    2.5724   20.5432 C   0  0  0  0  0  0  0  0  0  0  0  0
   11.1529    7.2750   20.8025 C   0  0  0  0  0  0  0  0  0  0  0  0
   10.2573    8.3215   20.9827 C   0  0  0  0  0  0  0  0  0  0  0  0
   11.1606    5.9378   21.2366 N   0  0  0  0  0  0  0  0  0  0  0  0
    9.8932   11.6736   19.0677 O   0  0  0  0  0  0  0  0  0  0  0  0
    6.4470    4.5850   22.2321 C   0  0  0  0  0  0  0  0  0  0  0  0
    8.4619    6.9895   22.2968 C   0  0  0  0  0  0  0  0  0  0  0  0
   12.2747    7.5102   20.0420 C   0  0  0  0  0  0  0  0  0  0  0  0
   14.2544    6.2142   19.4191 C   0  0  0  0  0  0  0  0  0  0  0  0
   13.0695    6.3705   20.0375 N   0  0  0  0  0  0  0  0  0  0  0  0
    9.1913    8.0876   21.8361 N   0  0  0  0  0  0  0  0  0  0  0  0
   10.4739    9.4813   20.2889 C   0  0  0  0  0  0  0  0  0  0  0  0
    7.5551    7.1270   23.1200 O   0  0  0  0  0  0  0  0  0  0  0  0
  1 11  4  0
  1 21  4  0
  2  4  1  0
  2  8  1  0
  2 11  1  0
  3 10  4  0
  3 14  4  0
  4  5  1  0
  4 18  2  0
  6 12  1  0
  6 17  4  0
  6 23  4  0
  7  9  1  0
  7 13  4  0
  7 19  4  0
  9 20  1  0
 10 19  4  0
 11 25  4  0
 13 14  4  0
 15 16  4  0
 15 17  4  0
 15 21  4  0
 16 24  1  0
 16 25  4  0
 20 24  1  0
 20 26  2  0
 21 23  4  0
 22 23  1  0
M  END
$$$$

 Created by Python create_sdf_string function

 26 28  0  0  0  0  0  0  0  0999 V2000
   12.4616    8.6700   19.4180 N   0  0  0  0  0  0  0  0  0  0  0  0
   11.8329   10.8148   18.6769 N   0  0  0  0  0  0  0  0  0  0  0  0
    6.1021    2.5564   21.0678 C   0  0  0  0  0  0  0  0  0  0  0  0
   10.9097   11.8051   18.4804 C   0  0  0  0  0  0  0  0  0  0  0  0
   11.2280   12.9135   17.5669 C   0  0  0  0  0  0  0  0  0  0  0  0
   12.3782    5.4231   20.7777 C   0  0  0  0  0  0  0  0  0  0  0  0
    7.7365    4.6508   21.6987 C   0  0  0  0  0  0  0  0  0  0  0  0
   13.0186   11.0102   18.0020 C   0  0  0  0  0  0  0  0  0  0  0  0
    8.6628    5.7088   21.8871 N   0  0  0  0  0  0  0  0  0  0  0  0
    5.6516    3.5258   21.9140 C   0  0  0  0  0  0  0  0  0  0  0  0
   11.5863    9.6815   19.4539 C   0  0  0  0  0  0  0  0  0  0  0  0
   12.9648    4.1543   20.9205 C   0  0  0  0  0  0  0  0  0  0  0  0
    8.2089    3.6265   20.8929 C   0  0  0  0  0  0  0  0  0  0  0  0
    7.3827    2.5724   20.5432 C   0  0  0  0  0  0  0  0  0  0  0  0
   11.1529    7.2750   20.8025 C   0  0  0  0  0  0  0  0  0  0  0  0
   10.2573    8.3215   20.9827 C   0  0  0  0  0  0  0  0  0  0  0  0
   11.1606    5.9378   21.2366 N   0  0  0  0  0  0  0  0  0  0  0  0
    9.8932   11.6736   19.0677 O   0  0  0  0  0  0  0  0  0  0  0  0
    6.4470    4.5850   22.2321 C   0  0  0  0  0  0  0  0  0  0  0  0
    8.4619    6.9895   22.2968 C   0  0  0  0  0  0  0  0  0  0  0  0
   12.2747    7.5102   20.0420 C   0  0  0  0  0  0  0  0  0  0  0  0
   14.2544    6.2142   19.4191 C   0  0  0  0  0  0  0  0  0  0  0  0
   13.0695    6.3705   20.0375 N   0  0  0  0  0  0  0  0  0  0  0  0
    9.1913    8.0876   21.8361 N   0  0  0  0  0  0  0  0  0  0  0  0
   10.4739    9.4813   20.2889 C   0  0  0  0  0  0  0  0  0  0  0  0
    7.5551    7.1270   23.1200 O   0  0  0  0  0  0  0  0  0  0  0  0
  1 11  4  0
  1 21  4  0
  2  4  1  0
  2  8  1  0
  2 11  1  0
  3 10  4  0
  3 14  4  0
  4  5  1  0
  4 18  2  0
  6 12  1  0
  6 17  4  0
  6 23  4  0
  7  9  1  0
  7 13  4  0
  7 19  4  0
  9 20  1  0
 10 19  4  0
 11 25  4  0
 13 14  4  0
 15 16  4  0
 15 17  4  0
 15 21  4  0
 16 24  1  0
 16 25  4  0
 20 24  1  0
 20 26  2  0
 21 23  4  0
 22 23  1  0
M  END
$$$$

 Created by Python create_sdf_string function

 26 28  0  0  0  0  0  0  0  0999 V2000
   12.4616    8.6700   19.4180 N   0  0  0  0  0  0  0  0  0  0  0  0
   11.8329   10.8148   18.6769 N   0  0  0  0  0  0  0  0  0  0  0  0
    6.1021    2.5564   21.0678 C   0  0  0  0  0  0  0  0  0  0  0  0
   10.9097   11.8051   18.4804 C   0  0  0  0  0  0  0  0  0  0  0  0
   11.2280   12.9135   17.5669 C   0  0  0  0  0  0  0  0  0  0  0  0
   12.3782    5.4231   20.7777 C   0  0  0  0  0  0  0  0  0  0  0  0
    7.7365    4.6508   21.6987 C   0  0  0  0  0  0  0  0  0  0  0  0
   13.0186   11.0102   18.0020 C   0  0  0  0  0  0  0  0  0  0  0  0
    8.6628    5.7088   21.8871 N   0  0  0  0  0  0  0  0  0  0  0  0
    5.6516    3.5258   21.9140 C   0  0  0  0  0  0  0  0  0  0  0  0
   11.5863    9.6815   19.4539 C   0  0  0  0  0  0  0  0  0  0  0  0
   12.9648    4.1543   20.9205 C   0  0  0  0  0  0  0  0  0  0  0  0
    8.2089    3.6265   20.8929 C   0  0  0  0  0  0  0  0  0  0  0  0
    7.3827    2.5724   20.5432 C   0  0  0  0  0  0  0  0  0  0  0  0
   11.1529    7.2750   20.8025 C   0  0  0  0  0  0  0  0  0  0  0  0
   10.2573    8.3215   20.9827 C   0  0  0  0  0  0  0  0  0  0  0  0
   11.1606    5.9378   21.2366 N   0  0  0  0  0  0  0  0  0  0  0  0
    9.8932   11.6736   19.0677 O   0  0  0  0  0  0  0  0  0  0  0  0
    6.4470    4.5850   22.2321 C   0  0  0  0  0  0  0  0  0  0  0  0
    8.4619    6.9895   22.2968 C   0  0  0  0  0  0  0  0  0  0  0  0
   12.2747    7.5102   20.0420 C   0  0  0  0  0  0  0  0  0  0  0  0
   14.2544    6.2142   19.4191 C   0  0  0  0  0  0  0  0  0  0  0  0
   13.0695    6.3705   20.0375 N   0  0  0  0  0  0  0  0  0  0  0  0
    9.1913    8.0876   21.8361 N   0  0  0  0  0  0  0  0  0  0  0  0
   10.4739    9.4813   20.2889 C   0  0  0  0  0  0  0  0  0  0  0  0
    7.5551    7.1270   23.1200 O   0  0  0  0  0  0  0  0  0  0  0  0
  1 11  4  0
  1 21  4  0
  2  4  1  0
  2  8  1  0
  2 11  1  0
  3 10  4  0
  3 14  4  0
  4  5  1  0
  4 18  2  0
  6 12  1  0
  6 17  4  0
  6 23  4  0
  7  9  1  0
  7 13  4  0
  7 19  4  0
  9 20  1  0
 10 19  4  0
 11 25  4  0
 13 14  4  0
 15 16  4  0
 15 17  4  0
 15 21  4  0
 16 24  1  0
 16 25  4  0
 20 24  1  0
 20 26  2  0
 21 23  4  0
 22 23  1  0
M  END
$$$$

 Created by Python create_sdf_string function

 26 28  0  0  0  0  0  0  0  0999 V2000
   12.4616    8.6700   19.4180 N   0  0  0  0  0  0  0  0  0  0  0  0
   11.8329   10.8148   18.6769 N   0  0  0  0  0  0  0  0  0  0  0  0
    6.1021    2.5564   21.0678 C   0  0  0  0  0  0  0  0  0  0  0  0
   10.9097   11.8051   18.4804 C   0  0  0  0  0  0  0  0  0  0  0  0
   11.2280   12.9135   17.5669 C   0  0  0  0  0  0  0  0  0  0  0  0
   12.3782    5.4231   20.7777 C   0  0  0  0  0  0  0  0  0  0  0  0
    7.7365    4.6508   21.6987 C   0  0  0  0  0  0  0  0  0  0  0  0
   13.0186   11.0102   18.0020 C   0  0  0  0  0  0  0  0  0  0  0  0
    8.6628    5.7088   21.8871 N   0  0  0  0  0  0  0  0  0  0  0  0
    5.6516    3.5258   21.9140 C   0  0  0  0  0  0  0  0  0  0  0  0
   11.5863    9.6815   19.4539 C   0  0  0  0  0  0  0  0  0  0  0  0
   12.9648    4.1543   20.9205 C   0  0  0  0  0  0  0  0  0  0  0  0
    8.2089    3.6265   20.8929 C   0  0  0  0  0  0  0  0  0  0  0  0
    7.3827    2.5724   20.5432 C   0  0  0  0  0  0  0  0  0  0  0  0
   11.1529    7.2750   20.8025 C   0  0  0  0  0  0  0  0  0  0  0  0
   10.2573    8.3215   20.9827 C   0  0  0  0  0  0  0  0  0  0  0  0
   11.1606    5.9378   21.2366 N   0  0  0  0  0  0  0  0  0  0  0  0
    9.8932   11.6736   19.0677 O   0  0  0  0  0  0  0  0  0  0  0  0
    6.4470    4.5850   22.2321 C   0  0  0  0  0  0  0  0  0  0  0  0
    8.4619    6.9895   22.2968 C   0  0  0  0  0  0  0  0  0  0  0  0
   12.2747    7.5102   20.0420 C   0  0  0  0  0  0  0  0  0  0  0  0
   14.2544    6.2142   19.4191 C   0  0  0  0  0  0  0  0  0  0  0  0
   13.0695    6.3705   20.0375 N   0  0  0  0  0  0  0  0  0  0  0  0
    9.1913    8.0876   21.8361 N   0  0  0  0  0  0  0  0  0  0  0  0
   10.4739    9.4813   20.2889 C   0  0  0  0  0  0  0  0  0  0  0  0
    7.5551    7.1270   23.1200 O   0  0  0  0  0  0  0  0  0  0  0  0
  1 11  4  0
  1 21  4  0
  2  4  1  0
  2  8  1  0
  2 11  1  0
  3 10  4  0
  3 14  4  0
  4  5  1  0
  4 18  2  0
  6 12  1  0
  6 17  4  0
  6 23  4  0
  7  9  1  0
  7 13  4  0
  7 19  4  0
  9 20  1  0
 10 19  4  0
 11 25  4  0
 13 14  4  0
 15 16  4  0
 15 17  4  0
 15 21  4  0
 16 24  1  0
 16 25  4  0
 20 24  1  0
 20 26  2  0
 21 23  4  0
 22 23  1  0
M  END
$$$$

 Created by Python create_sdf_string function

 26 28  0  0  0  0  0  0  0  0999 V2000
   12.4616    8.6700   19.4180 N   0  0  0  0  0  0  0  0  0  0  0  0
   11.8329   10.8148   18.6769 N   0  0  0  0  0  0  0  0  0  0  0  0
    6.1021    2.5564   21.0678 C   0  0  0  0  0  0  0  0  0  0  0  0
   10.9097   11.8051   18.4804 C   0  0  0  0  0  0  0  0  0  0  0  0
   11.2280   12.9135   17.5669 C   0  0  0  0  0  0  0  0  0  0  0  0
   12.3782    5.4231   20.7777 C   0  0  0  0  0  0  0  0  0  0  0  0
    7.7365    4.6508   21.6987 C   0  0  0  0  0  0  0  0  0  0  0  0
   13.0186   11.0102   18.0020 C   0  0  0  0  0  0  0  0  0  0  0  0
    8.6628    5.7088   21.8871 N   0  0  0  0  0  0  0  0  0  0  0  0
    5.6516    3.5258   21.9140 C   0  0  0  0  0  0  0  0  0  0  0  0
   11.5863    9.6815   19.4539 C   0  0  0  0  0  0  0  0  0  0  0  0
   12.9648    4.1543   20.9205 C   0  0  0  0  0  0  0  0  0  0  0  0
    8.2089    3.6265   20.8929 C   0  0  0  0  0  0  0  0  0  0  0  0
    7.3827    2.5724   20.5432 C   0  0  0  0  0  0  0  0  0  0  0  0
   11.1529    7.2750   20.8025 C   0  0  0  0  0  0  0  0  0  0  0  0
   10.2573    8.3215   20.9827 C   0  0  0  0  0  0  0  0  0  0  0  0
   11.1606    5.9378   21.2366 N   0  0  0  0  0  0  0  0  0  0  0  0
    9.8932   11.6736   19.0677 O   0  0  0  0  0  0  0  0  0  0  0  0
    6.4470    4.5850   22.2321 C   0  0  0  0  0  0  0  0  0  0  0  0
    8.4619    6.9895   22.2968 C   0  0  0  0  0  0  0  0  0  0  0  0
   12.2747    7.5102   20.0420 C   0  0  0  0  0  0  0  0  0  0  0  0
   14.2544    6.2142   19.4191 C   0  0  0  0  0  0  0  0  0  0  0  0
   13.0695    6.3705   20.0375 N   0  0  0  0  0  0  0  0  0  0  0  0
    9.1913    8.0876   21.8361 N   0  0  0  0  0  0  0  0  0  0  0  0
   10.4739    9.4813   20.2889 C   0  0  0  0  0  0  0  0  0  0  0  0
    7.5551    7.1270   23.1200 O   0  0  0  0  0  0  0  0  0  0  0  0
  1 11  4  0
  1 21  4  0
  2  4  1  0
  2  8  1  0
  2 11  1  0
  3 10  4  0
  3 14  4  0
  4  5  1  0
  4 18  2  0
  6 12  1  0
  6 17  4  0
  6 23  4  0
  7  9  1  0
  7 13  4  0
  7 19  4  0
  9 20  1  0
 10 19  4  0
 11 25  4  0
 13 14  4  0
 15 16  4  0
 15 17  4  0
 15 21  4  0
 16 24  1  0
 16 25  4  0
 20 24  1  0
 20 26  2  0
 21 23  4  0
 22 23  1  0
M  END
$$$$

 Created by Python create_sdf_string function

 26 28  0  0  0  0  0  0  0  0999 V2000
   12.4616    8.6700   19.4180 N   0  0  0  0  0  0  0  0  0  0  0  0
   11.8329   10.8148   18.6769 N   0  0  0  0  0  0  0  0  0  0  0  0
    6.1021    2.5564   21.0678 C   0  0  0  0  0  0  0  0  0  0  0  0
   10.9097   11.8051   18.4804 C   0  0  0  0  0  0  0  0  0  0  0  0
   11.2280   12.9135   17.5669 C   0  0  0  0  0  0  0  0  0  0  0  0
   12.3782    5.4231   20.7777 C   0  0  0  0  0  0  0  0  0  0  0  0
    7.7365    4.6508   21.6987 C   0  0  0  0  0  0  0  0  0  0  0  0
   13.0186   11.0102   18.0020 C   0  0  0  0  0  0  0  0  0  0  0  0
    8.6628    5.7088   21.8871 N   0  0  0  0  0  0  0  0  0  0  0  0
    5.6516    3.5258   21.9140 C   0  0  0  0  0  0  0  0  0  0  0  0
   11.5863    9.6815   19.4539 C   0  0  0  0  0  0  0  0  0  0  0  0
   12.9648    4.1543   20.9205 C   0  0  0  0  0  0  0  0  0  0  0  0
    8.2089    3.6265   20.8929 C   0  0  0  0  0  0  0  0  0  0  0  0
    7.3827    2.5724   20.5432 C   0  0  0  0  0  0  0  0  0  0  0  0
   11.1529    7.2750   20.8025 C   0  0  0  0  0  0  0  0  0  0  0  0
   10.2573    8.3215   20.9827 C   0  0  0  0  0  0  0  0  0  0  0  0
   11.1606    5.9378   21.2366 N   0  0  0  0  0  0  0  0  0  0  0  0
    9.8932   11.6736   19.0677 O   0  0  0  0  0  0  0  0  0  0  0  0
    6.4470    4.5850   22.2321 C   0  0  0  0  0  0  0  0  0  0  0  0
    8.4619    6.9895   22.2968 C   0  0  0  0  0  0  0  0  0  0  0  0
   12.2747    7.5102   20.0420 C   0  0  0  0  0  0  0  0  0  0  0  0
   14.2544    6.2142   19.4191 C   0  0  0  0  0  0  0  0  0  0  0  0
   13.0695    6.3705   20.0375 N   0  0  0  0  0  0  0  0  0  0  0  0
    9.1913    8.0876   21.8361 N   0  0  0  0  0  0  0  0  0  0  0  0
   10.4739    9.4813   20.2889 C   0  0  0  0  0  0  0  0  0  0  0  0
    7.5551    7.1270   23.1200 O   0  0  0  0  0  0  0  0  0  0  0  0
  1 11  4  0
  1 21  4  0
  2  4  1  0
  2  8  1  0
  2 11  1  0
  3 10  4  0
  3 14  4  0
  4  5  1  0
  4 18  2  0
  6 12  1  0
  6 17  4  0
  6 23  4  0
  7  9  1  0
  7 13  4  0
  7 19  4  0
  9 20  1  0
 10 19  4  0
 11 25  4  0
 13 14  4  0
 15 16  4  0
 15 17  4  0
 15 21  4  0
 16 24  1  0
 16 25  4  0
 20 24  1  0
 20 26  2  0
 21 23  4  0
 22 23  1  0
M  END
$$$$

 Created by Python create_sdf_string function

 26 28  0  0  0  0  0  0  0  0999 V2000
   12.4616    8.6700   19.4180 N   0  0  0  0  0  0  0  0  0  0  0  0
   11.8329   10.8148   18.6769 N   0  0  0  0  0  0  0  0  0  0  0  0
    6.1021    2.5564   21.0678 C   0  0  0  0  0  0  0  0  0  0  0  0
   10.9097   11.8051   18.4804 C   0  0  0  0  0  0  0  0  0  0  0  0
   11.2280   12.9135   17.5669 C   0  0  0  0  0  0  0  0  0  0  0  0
   12.3782    5.4231   20.7777 C   0  0  0  0  0  0  0  0  0  0  0  0
    7.7365    4.6508   21.6987 C   0  0  0  0  0  0  0  0  0  0  0  0
   13.0186   11.0102   18.0020 C   0  0  0  0  0  0  0  0  0  0  0  0
    8.6628    5.7088   21.8871 N   0  0  0  0  0  0  0  0  0  0  0  0
    5.6516    3.5258   21.9140 C   0  0  0  0  0  0  0  0  0  0  0  0
   11.5863    9.6815   19.4539 C   0  0  0  0  0  0  0  0  0  0  0  0
   12.9648    4.1543   20.9205 C   0  0  0  0  0  0  0  0  0  0  0  0
    8.2089    3.6265   20.8929 C   0  0  0  0  0  0  0  0  0  0  0  0
    7.3827    2.5724   20.5432 C   0  0  0  0  0  0  0  0  0  0  0  0
   11.1529    7.2750   20.8025 C   0  0  0  0  0  0  0  0  0  0  0  0
   10.2573    8.3215   20.9827 C   0  0  0  0  0  0  0  0  0  0  0  0
   11.1606    5.9378   21.2366 N   0  0  0  0  0  0  0  0  0  0  0  0
    9.8932   11.6736   19.0677 O   0  0  0  0  0  0  0  0  0  0  0  0
    6.4470    4.5850   22.2321 C   0  0  0  0  0  0  0  0  0  0  0  0
    8.4619    6.9895   22.2968 C   0  0  0  0  0  0  0  0  0  0  0  0
   12.2747    7.5102   20.0420 C   0  0  0  0  0  0  0  0  0  0  0  0
   14.2544    6.2142   19.4191 C   0  0  0  0  0  0  0  0  0  0  0  0
   13.0695    6.3705   20.0375 N   0  0  0  0  0  0  0  0  0  0  0  0
    9.1913    8.0876   21.8361 N   0  0  0  0  0  0  0  0  0  0  0  0
   10.4739    9.4813   20.2889 C   0  0  0  0  0  0  0  0  0  0  0  0
    7.5551    7.1270   23.1200 O   0  0  0  0  0  0  0  0  0  0  0  0
  1 11  4  0
  1 21  4  0
  2  4  1  0
  2  8  1  0
  2 11  1  0
  3 10  4  0
  3 14  4  0
  4  5  1  0
  4 18  2  0
  6 12  1  0
  6 17  4  0
  6 23  4  0
  7  9  1  0
  7 13  4  0
  7 19  4  0
  9 20  1  0
 10 19  4  0
 11 25  4  0
 13 14  4  0
 15 16  4  0
 15 17  4  0
 15 21  4  0
 16 24  1  0
 16 25  4  0
 20 24  1  0
 20 26  2  0
 21 23  4  0
 22 23  1  0
M  END
$$$$

 Created by Python create_sdf_string function

 26 28  0  0  0  0  0  0  0  0999 V2000
   12.4616    8.6700   19.4180 N   0  0  0  0  0  0  0  0  0  0  0  0
   11.8329   10.8148   18.6769 N   0  0  0  0  0  0  0  0  0  0  0  0
    6.1021    2.5564   21.0678 C   0  0  0  0  0  0  0  0  0  0  0  0
   10.9097   11.8051   18.4804 C   0  0  0  0  0  0  0  0  0  0  0  0
   11.2280   12.9135   17.5669 C   0  0  0  0  0  0  0  0  0  0  0  0
   12.3782    5.4231   20.7777 C   0  0  0  0  0  0  0  0  0  0  0  0
    7.7365    4.6508   21.6987 C   0  0  0  0  0  0  0  0  0  0  0  0
   13.0186   11.0102   18.0020 C   0  0  0  0  0  0  0  0  0  0  0  0
    8.6628    5.7088   21.8871 N   0  0  0  0  0  0  0  0  0  0  0  0
    5.6516    3.5258   21.9140 C   0  0  0  0  0  0  0  0  0  0  0  0
   11.5863    9.6815   19.4539 C   0  0  0  0  0  0  0  0  0  0  0  0
   12.9648    4.1543   20.9205 C   0  0  0  0  0  0  0  0  0  0  0  0
    8.2089    3.6265   20.8929 C   0  0  0  0  0  0  0  0  0  0  0  0
    7.3827    2.5724   20.5432 C   0  0  0  0  0  0  0  0  0  0  0  0
   11.1529    7.2750   20.8025 C   0  0  0  0  0  0  0  0  0  0  0  0
   10.2573    8.3215   20.9827 C   0  0  0  0  0  0  0  0  0  0  0  0
   11.1606    5.9378   21.2366 N   0  0  0  0  0  0  0  0  0  0  0  0
    9.8932   11.6736   19.0677 O   0  0  0  0  0  0  0  0  0  0  0  0
    6.4470    4.5850   22.2321 C   0  0  0  0  0  0  0  0  0  0  0  0
    8.4619    6.9895   22.2968 C   0  0  0  0  0  0  0  0  0  0  0  0
   12.2747    7.5102   20.0420 C   0  0  0  0  0  0  0  0  0  0  0  0
   14.2544    6.2142   19.4191 C   0  0  0  0  0  0  0  0  0  0  0  0
   13.0695    6.3705   20.0375 N   0  0  0  0  0  0  0  0  0  0  0  0
    9.1913    8.0876   21.8361 N   0  0  0  0  0  0  0  0  0  0  0  0
   10.4739    9.4813   20.2889 C   0  0  0  0  0  0  0  0  0  0  0  0
    7.5551    7.1270   23.1200 O   0  0  0  0  0  0  0  0  0  0  0  0
  1 11  4  0
  1 21  4  0
  2  4  1  0
  2  8  1  0
  2 11  1  0
  3 10  4  0
  3 14  4  0
  4  5  1  0
  4 18  2  0
  6 12  1  0
  6 17  4  0
  6 23  4  0
  7  9  1  0
  7 13  4  0
  7 19  4  0
  9 20  1  0
 10 19  4  0
 11 25  4  0
 13 14  4  0
 15 16  4  0
 15 17  4  0
 15 21  4  0
 16 24  1  0
 16 25  4  0
 20 24  1  0
 20 26  2  0
 21 23  4  0
 22 23  1  0
M  END
$$$$

 Created by Python create_sdf_string function

 26 28  0  0  0  0  0  0  0  0999 V2000
   12.4616    8.6700   19.4180 N   0  0  0  0  0  0  0  0  0  0  0  0
   11.8329   10.8148   18.6769 N   0  0  0  0  0  0  0  0  0  0  0  0
    6.1021    2.5564   21.0678 C   0  0  0  0  0  0  0  0  0  0  0  0
   10.9097   11.8051   18.4804 C   0  0  0  0  0  0  0  0  0  0  0  0
   11.2280   12.9135   17.5669 C   0  0  0  0  0  0  0  0  0  0  0  0
   12.3782    5.4231   20.7777 C   0  0  0  0  0  0  0  0  0  0  0  0
    7.7365    4.6508   21.6987 C   0  0  0  0  0  0  0  0  0  0  0  0
   13.0186   11.0102   18.0020 C   0  0  0  0  0  0  0  0  0  0  0  0
    8.6628    5.7088   21.8871 N   0  0  0  0  0  0  0  0  0  0  0  0
    5.6516    3.5258   21.9140 C   0  0  0  0  0  0  0  0  0  0  0  0
   11.5863    9.6815   19.4539 C   0  0  0  0  0  0  0  0  0  0  0  0
   12.9648    4.1543   20.9205 C   0  0  0  0  0  0  0  0  0  0  0  0
    8.2089    3.6265   20.8929 C   0  0  0  0  0  0  0  0  0  0  0  0
    7.3827    2.5724   20.5432 C   0  0  0  0  0  0  0  0  0  0  0  0
   11.1529    7.2750   20.8025 C   0  0  0  0  0  0  0  0  0  0  0  0
   10.2573    8.3215   20.9827 C   0  0  0  0  0  0  0  0  0  0  0  0
   11.1606    5.9378   21.2366 N   0  0  0  0  0  0  0  0  0  0  0  0
    9.8932   11.6736   19.0677 O   0  0  0  0  0  0  0  0  0  0  0  0
    6.4470    4.5850   22.2321 C   0  0  0  0  0  0  0  0  0  0  0  0
    8.4619    6.9895   22.2968 C   0  0  0  0  0  0  0  0  0  0  0  0
   12.2747    7.5102   20.0420 C   0  0  0  0  0  0  0  0  0  0  0  0
   14.2544    6.2142   19.4191 C   0  0  0  0  0  0  0  0  0  0  0  0
   13.0695    6.3705   20.0375 N   0  0  0  0  0  0  0  0  0  0  0  0
    9.1913    8.0876   21.8361 N   0  0  0  0  0  0  0  0  0  0  0  0
   10.4739    9.4813   20.2889 C   0  0  0  0  0  0  0  0  0  0  0  0
    7.5551    7.1270   23.1200 O   0  0  0  0  0  0  0  0  0  0  0  0
  1 11  4  0
  1 21  4  0
  2  4  1  0
  2  8  1  0
  2 11  1  0
  3 10  4  0
  3 14  4  0
  4  5  1  0
  4 18  2  0
  6 12  1  0
  6 17  4  0
  6 23  4  0
  7  9  1  0
  7 13  4  0
  7 19  4  0
  9 20  1  0
 10 19  4  0
 11 25  4  0
 13 14  4  0
 15 16  4  0
 15 17  4  0
 15 21  4  0
 16 24  1  0
 16 25  4  0
 20 24  1  0
 20 26  2  0
 21 23  4  0
 22 23  1  0
M  END
$$$$

 Created by Python create_sdf_string function

 26 28  0  0  0  0  0  0  0  0999 V2000
   12.4616    8.6700   19.4180 N   0  0  0  0  0  0  0  0  0  0  0  0
   11.8329   10.8148   18.6769 N   0  0  0  0  0  0  0  0  0  0  0  0
    6.1021    2.5564   21.0678 C   0  0  0  0  0  0  0  0  0  0  0  0
   10.9097   11.8051   18.4804 C   0  0  0  0  0  0  0  0  0  0  0  0
   11.2280   12.9135   17.5669 C   0  0  0  0  0  0  0  0  0  0  0  0
   12.3782    5.4231   20.7777 C   0  0  0  0  0  0  0  0  0  0  0  0
    7.7365    4.6508   21.6987 C   0  0  0  0  0  0  0  0  0  0  0  0
   13.0186   11.0102   18.0020 C   0  0  0  0  0  0  0  0  0  0  0  0
    8.6628    5.7088   21.8871 N   0  0  0  0  0  0  0  0  0  0  0  0
    5.6516    3.5258   21.9140 C   0  0  0  0  0  0  0  0  0  0  0  0
   11.5863    9.6815   19.4539 C   0  0  0  0  0  0  0  0  0  0  0  0
   12.9648    4.1543   20.9205 C   0  0  0  0  0  0  0  0  0  0  0  0
    8.2089    3.6265   20.8929 C   0  0  0  0  0  0  0  0  0  0  0  0
    7.3827    2.5724   20.5432 C   0  0  0  0  0  0  0  0  0  0  0  0
   11.1529    7.2750   20.8025 C   0  0  0  0  0  0  0  0  0  0  0  0
   10.2573    8.3215   20.9827 C   0  0  0  0  0  0  0  0  0  0  0  0
   11.1606    5.9378   21.2366 N   0  0  0  0  0  0  0  0  0  0  0  0
    9.8932   11.6736   19.0677 O   0  0  0  0  0  0  0  0  0  0  0  0
    6.4470    4.5850   22.2321 C   0  0  0  0  0  0  0  0  0  0  0  0
    8.4619    6.9895   22.2968 C   0  0  0  0  0  0  0  0  0  0  0  0
   12.2747    7.5102   20.0420 C   0  0  0  0  0  0  0  0  0  0  0  0
   14.2544    6.2142   19.4191 C   0  0  0  0  0  0  0  0  0  0  0  0
   13.0695    6.3705   20.0375 N   0  0  0  0  0  0  0  0  0  0  0  0
    9.1913    8.0876   21.8361 N   0  0  0  0  0  0  0  0  0  0  0  0
   10.4739    9.4813   20.2889 C   0  0  0  0  0  0  0  0  0  0  0  0
    7.5551    7.1270   23.1200 O   0  0  0  0  0  0  0  0  0  0  0  0
  1 11  4  0
  1 21  4  0
  2  4  1  0
  2  8  1  0
  2 11  1  0
  3 10  4  0
  3 14  4  0
  4  5  1  0
  4 18  2  0
  6 12  1  0
  6 17  4  0
  6 23  4  0
  7  9  1  0
  7 13  4  0
  7 19  4  0
  9 20  1  0
 10 19  4  0
 11 25  4  0
 13 14  4  0
 15 16  4  0
 15 17  4  0
 15 21  4  0
 16 24  1  0
 16 25  4  0
 20 24  1  0
 20 26  2  0
 21 23  4  0
 22 23  1  0
M  END
$$$$

 Created by Python create_sdf_string function

 26 28  0  0  0  0  0  0  0  0999 V2000
   12.4616    8.6700   19.4180 N   0  0  0  0  0  0  0  0  0  0  0  0
   11.8329   10.8148   18.6769 N   0  0  0  0  0  0  0  0  0  0  0  0
    6.1021    2.5564   21.0678 C   0  0  0  0  0  0  0  0  0  0  0  0
   10.9097   11.8051   18.4804 C   0  0  0  0  0  0  0  0  0  0  0  0
   11.2280   12.9135   17.5669 C   0  0  0  0  0  0  0  0  0  0  0  0
   12.3782    5.4231   20.7777 C   0  0  0  0  0  0  0  0  0  0  0  0
    7.7365    4.6508   21.6987 C   0  0  0  0  0  0  0  0  0  0  0  0
   13.0186   11.0102   18.0020 C   0  0  0  0  0  0  0  0  0  0  0  0
    8.6628    5.7088   21.8871 N   0  0  0  0  0  0  0  0  0  0  0  0
    5.6516    3.5258   21.9140 C   0  0  0  0  0  0  0  0  0  0  0  0
   11.5863    9.6815   19.4539 C   0  0  0  0  0  0  0  0  0  0  0  0
   12.9648    4.1543   20.9205 C   0  0  0  0  0  0  0  0  0  0  0  0
    8.2089    3.6265   20.8929 C   0  0  0  0  0  0  0  0  0  0  0  0
    7.3827    2.5724   20.5432 C   0  0  0  0  0  0  0  0  0  0  0  0
   11.1529    7.2750   20.8025 C   0  0  0  0  0  0  0  0  0  0  0  0
   10.2573    8.3215   20.9827 C   0  0  0  0  0  0  0  0  0  0  0  0
   11.1606    5.9378   21.2366 N   0  0  0  0  0  0  0  0  0  0  0  0
    9.8932   11.6736   19.0677 O   0  0  0  0  0  0  0  0  0  0  0  0
    6.4470    4.5850   22.2321 C   0  0  0  0  0  0  0  0  0  0  0  0
    8.4619    6.9895   22.2968 C   0  0  0  0  0  0  0  0  0  0  0  0
   12.2747    7.5102   20.0420 C   0  0  0  0  0  0  0  0  0  0  0  0
   14.2544    6.2142   19.4191 C   0  0  0  0  0  0  0  0  0  0  0  0
   13.0695    6.3705   20.0375 N   0  0  0  0  0  0  0  0  0  0  0  0
    9.1913    8.0876   21.8361 N   0  0  0  0  0  0  0  0  0  0  0  0
   10.4739    9.4813   20.2889 C   0  0  0  0  0  0  0  0  0  0  0  0
    7.5551    7.1270   23.1200 O   0  0  0  0  0  0  0  0  0  0  0  0
  1 11  4  0
  1 21  4  0
  2  4  1  0
  2  8  1  0
  2 11  1  0
  3 10  4  0
  3 14  4  0
  4  5  1  0
  4 18  2  0
  6 12  1  0
  6 17  4  0
  6 23  4  0
  7  9  1  0
  7 13  4  0
  7 19  4  0
  9 20  1  0
 10 19  4  0
 11 25  4  0
 13 14  4  0
 15 16  4  0
 15 17  4  0
 15 21  4  0
 16 24  1  0
 16 25  4  0
 20 24  1  0
 20 26  2  0
 21 23  4  0
 22 23  1  0
M  END
$$$$

 Created by Python create_sdf_string function

 26 28  0  0  0  0  0  0  0  0999 V2000
   12.4616    8.6700   19.4180 N   0  0  0  0  0  0  0  0  0  0  0  0
   11.8329   10.8148   18.6769 N   0  0  0  0  0  0  0  0  0  0  0  0
    6.1021    2.5564   21.0678 C   0  0  0  0  0  0  0  0  0  0  0  0
   10.9097   11.8051   18.4804 C   0  0  0  0  0  0  0  0  0  0  0  0
   11.2280   12.9135   17.5669 C   0  0  0  0  0  0  0  0  0  0  0  0
   12.3782    5.4231   20.7777 C   0  0  0  0  0  0  0  0  0  0  0  0
    7.7365    4.6508   21.6987 C   0  0  0  0  0  0  0  0  0  0  0  0
   13.0186   11.0102   18.0020 C   0  0  0  0  0  0  0  0  0  0  0  0
    8.6628    5.7088   21.8871 N   0  0  0  0  0  0  0  0  0  0  0  0
    5.6516    3.5258   21.9140 C   0  0  0  0  0  0  0  0  0  0  0  0
   11.5863    9.6815   19.4539 C   0  0  0  0  0  0  0  0  0  0  0  0
   12.9648    4.1543   20.9205 C   0  0  0  0  0  0  0  0  0  0  0  0
    8.2089    3.6265   20.8929 C   0  0  0  0  0  0  0  0  0  0  0  0
    7.3827    2.5724   20.5432 C   0  0  0  0  0  0  0  0  0  0  0  0
   11.1529    7.2750   20.8025 C   0  0  0  0  0  0  0  0  0  0  0  0
   10.2573    8.3215   20.9827 C   0  0  0  0  0  0  0  0  0  0  0  0
   11.1606    5.9378   21.2366 N   0  0  0  0  0  0  0  0  0  0  0  0
    9.8932   11.6736   19.0677 O   0  0  0  0  0  0  0  0  0  0  0  0
    6.4470    4.5850   22.2321 C   0  0  0  0  0  0  0  0  0  0  0  0
    8.4619    6.9895   22.2968 C   0  0  0  0  0  0  0  0  0  0  0  0
   12.2747    7.5102   20.0420 C   0  0  0  0  0  0  0  0  0  0  0  0
   14.2544    6.2142   19.4191 C   0  0  0  0  0  0  0  0  0  0  0  0
   13.0695    6.3705   20.0375 N   0  0  0  0  0  0  0  0  0  0  0  0
    9.1913    8.0876   21.8361 N   0  0  0  0  0  0  0  0  0  0  0  0
   10.4739    9.4813   20.2889 C   0  0  0  0  0  0  0  0  0  0  0  0
    7.5551    7.1270   23.1200 O   0  0  0  0  0  0  0  0  0  0  0  0
  1 11  4  0
  1 21  4  0
  2  4  1  0
  2  8  1  0
  2 11  1  0
  3 10  4  0
  3 14  4  0
  4  5  1  0
  4 18  2  0
  6 12  1  0
  6 17  4  0
  6 23  4  0
  7  9  1  0
  7 13  4  0
  7 19  4  0
  9 20  1  0
 10 19  4  0
 11 25  4  0
 13 14  4  0
 15 16  4  0
 15 17  4  0
 15 21  4  0
 16 24  1  0
 16 25  4  0
 20 24  1  0
 20 26  2  0
 21 23  4  0
 22 23  1  0
M  END
$$$$

 Created by Python create_sdf_string function

 26 28  0  0  0  0  0  0  0  0999 V2000
   12.4616    8.6700   19.4180 N   0  0  0  0  0  0  0  0  0  0  0  0
   11.8329   10.8148   18.6769 N   0  0  0  0  0  0  0  0  0  0  0  0
    6.1021    2.5564   21.0678 C   0  0  0  0  0  0  0  0  0  0  0  0
   10.9097   11.8051   18.4804 C   0  0  0  0  0  0  0  0  0  0  0  0
   11.2280   12.9135   17.5669 C   0  0  0  0  0  0  0  0  0  0  0  0
   12.3782    5.4231   20.7777 C   0  0  0  0  0  0  0  0  0  0  0  0
    7.7365    4.6508   21.6987 C   0  0  0  0  0  0  0  0  0  0  0  0
   13.0186   11.0102   18.0020 C   0  0  0  0  0  0  0  0  0  0  0  0
    8.6628    5.7088   21.8871 N   0  0  0  0  0  0  0  0  0  0  0  0
    5.6516    3.5258   21.9140 C   0  0  0  0  0  0  0  0  0  0  0  0
   11.5863    9.6815   19.4539 C   0  0  0  0  0  0  0  0  0  0  0  0
   12.9648    4.1543   20.9205 C   0  0  0  0  0  0  0  0  0  0  0  0
    8.2089    3.6265   20.8929 C   0  0  0  0  0  0  0  0  0  0  0  0
    7.3827    2.5724   20.5432 C   0  0  0  0  0  0  0  0  0  0  0  0
   11.1529    7.2750   20.8025 C   0  0  0  0  0  0  0  0  0  0  0  0
   10.2573    8.3215   20.9827 C   0  0  0  0  0  0  0  0  0  0  0  0
   11.1606    5.9378   21.2366 N   0  0  0  0  0  0  0  0  0  0  0  0
    9.8932   11.6736   19.0677 O   0  0  0  0  0  0  0  0  0  0  0  0
    6.4470    4.5850   22.2321 C   0  0  0  0  0  0  0  0  0  0  0  0
    8.4619    6.9895   22.2968 C   0  0  0  0  0  0  0  0  0  0  0  0
   12.2747    7.5102   20.0420 C   0  0  0  0  0  0  0  0  0  0  0  0
   14.2544    6.2142   19.4191 C   0  0  0  0  0  0  0  0  0  0  0  0
   13.0695    6.3705   20.0375 N   0  0  0  0  0  0  0  0  0  0  0  0
    9.1913    8.0876   21.8361 N   0  0  0  0  0  0  0  0  0  0  0  0
   10.4739    9.4813   20.2889 C   0  0  0  0  0  0  0  0  0  0  0  0
    7.5551    7.1270   23.1200 O   0  0  0  0  0  0  0  0  0  0  0  0
  1 11  4  0
  1 21  4  0
  2  4  1  0
  2  8  1  0
  2 11  1  0
  3 10  4  0
  3 14  4  0
  4  5  1  0
  4 18  2  0
  6 12  1  0
  6 17  4  0
  6 23  4  0
  7  9  1  0
  7 13  4  0
  7 19  4  0
  9 20  1  0
 10 19  4  0
 11 25  4  0
 13 14  4  0
 15 16  4  0
 15 17  4  0
 15 21  4  0
 16 24  1  0
 16 25  4  0
 20 24  1  0
 20 26  2  0
 21 23  4  0
 22 23  1  0
M  END
$$$$

 Created by Python create_sdf_string function

 26 28  0  0  0  0  0  0  0  0999 V2000
   12.4616    8.6700   19.4180 N   0  0  0  0  0  0  0  0  0  0  0  0
   11.8329   10.8148   18.6769 N   0  0  0  0  0  0  0  0  0  0  0  0
    6.1021    2.5564   21.0678 C   0  0  0  0  0  0  0  0  0  0  0  0
   10.9097   11.8051   18.4804 C   0  0  0  0  0  0  0  0  0  0  0  0
   11.2280   12.9135   17.5669 C   0  0  0  0  0  0  0  0  0  0  0  0
   12.3782    5.4231   20.7777 C   0  0  0  0  0  0  0  0  0  0  0  0
    7.7365    4.6508   21.6987 C   0  0  0  0  0  0  0  0  0  0  0  0
   13.0186   11.0102   18.0020 C   0  0  0  0  0  0  0  0  0  0  0  0
    8.6628    5.7088   21.8871 N   0  0  0  0  0  0  0  0  0  0  0  0
    5.6516    3.5258   21.9140 C   0  0  0  0  0  0  0  0  0  0  0  0
   11.5863    9.6815   19.4539 C   0  0  0  0  0  0  0  0  0  0  0  0
   12.9648    4.1543   20.9205 C   0  0  0  0  0  0  0  0  0  0  0  0
    8.2089    3.6265   20.8929 C   0  0  0  0  0  0  0  0  0  0  0  0
    7.3827    2.5724   20.5432 C   0  0  0  0  0  0  0  0  0  0  0  0
   11.1529    7.2750   20.8025 C   0  0  0  0  0  0  0  0  0  0  0  0
   10.2573    8.3215   20.9827 C   0  0  0  0  0  0  0  0  0  0  0  0
   11.1606    5.9378   21.2366 N   0  0  0  0  0  0  0  0  0  0  0  0
    9.8932   11.6736   19.0677 O   0  0  0  0  0  0  0  0  0  0  0  0
    6.4470    4.5850   22.2321 C   0  0  0  0  0  0  0  0  0  0  0  0
    8.4619    6.9895   22.2968 C   0  0  0  0  0  0  0  0  0  0  0  0
   12.2747    7.5102   20.0420 C   0  0  0  0  0  0  0  0  0  0  0  0
   14.2544    6.2142   19.4191 C   0  0  0  0  0  0  0  0  0  0  0  0
   13.0695    6.3705   20.0375 N   0  0  0  0  0  0  0  0  0  0  0  0
    9.1913    8.0876   21.8361 N   0  0  0  0  0  0  0  0  0  0  0  0
   10.4739    9.4813   20.2889 C   0  0  0  0  0  0  0  0  0  0  0  0
    7.5551    7.1270   23.1200 O   0  0  0  0  0  0  0  0  0  0  0  0
  1 11  4  0
  1 21  4  0
  2  4  1  0
  2  8  1  0
  2 11  1  0
  3 10  4  0
  3 14  4  0
  4  5  1  0
  4 18  2  0
  6 12  1  0
  6 17  4  0
  6 23  4  0
  7  9  1  0
  7 13  4  0
  7 19  4  0
  9 20  1  0
 10 19  4  0
 11 25  4  0
 13 14  4  0
 15 16  4  0
 15 17  4  0
 15 21  4  0
 16 24  1  0
 16 25  4  0
 20 24  1  0
 20 26  2  0
 21 23  4  0
 22 23  1  0
M  END
$$$$

 Created by Python create_sdf_string function

 26 28  0  0  0  0  0  0  0  0999 V2000
   12.4616    8.6700   19.4180 N   0  0  0  0  0  0  0  0  0  0  0  0
   11.8329   10.8148   18.6769 N   0  0  0  0  0  0  0  0  0  0  0  0
    6.1021    2.5564   21.0678 C   0  0  0  0  0  0  0  0  0  0  0  0
   10.9097   11.8051   18.4804 C   0  0  0  0  0  0  0  0  0  0  0  0
   11.2280   12.9135   17.5669 C   0  0  0  0  0  0  0  0  0  0  0  0
   12.3782    5.4231   20.7777 C   0  0  0  0  0  0  0  0  0  0  0  0
    7.7365    4.6508   21.6987 C   0  0  0  0  0  0  0  0  0  0  0  0
   13.0186   11.0102   18.0020 C   0  0  0  0  0  0  0  0  0  0  0  0
    8.6628    5.7088   21.8871 N   0  0  0  0  0  0  0  0  0  0  0  0
    5.6516    3.5258   21.9140 C   0  0  0  0  0  0  0  0  0  0  0  0
   11.5863    9.6815   19.4539 C   0  0  0  0  0  0  0  0  0  0  0  0
   12.9648    4.1543   20.9205 C   0  0  0  0  0  0  0  0  0  0  0  0
    8.2089    3.6265   20.8929 C   0  0  0  0  0  0  0  0  0  0  0  0
    7.3827    2.5724   20.5432 C   0  0  0  0  0  0  0  0  0  0  0  0
   11.1529    7.2750   20.8025 C   0  0  0  0  0  0  0  0  0  0  0  0
   10.2573    8.3215   20.9827 C   0  0  0  0  0  0  0  0  0  0  0  0
   11.1606    5.9378   21.2366 N   0  0  0  0  0  0  0  0  0  0  0  0
    9.8932   11.6736   19.0677 O   0  0  0  0  0  0  0  0  0  0  0  0
    6.4470    4.5850   22.2321 C   0  0  0  0  0  0  0  0  0  0  0  0
    8.4619    6.9895   22.2968 C   0  0  0  0  0  0  0  0  0  0  0  0
   12.2747    7.5102   20.0420 C   0  0  0  0  0  0  0  0  0  0  0  0
   14.2544    6.2142   19.4191 C   0  0  0  0  0  0  0  0  0  0  0  0
   13.0695    6.3705   20.0375 N   0  0  0  0  0  0  0  0  0  0  0  0
    9.1913    8.0876   21.8361 N   0  0  0  0  0  0  0  0  0  0  0  0
   10.4739    9.4813   20.2889 C   0  0  0  0  0  0  0  0  0  0  0  0
    7.5551    7.1270   23.1200 O   0  0  0  0  0  0  0  0  0  0  0  0
  1 11  4  0
  1 21  4  0
  2  4  1  0
  2  8  1  0
  2 11  1  0
  3 10  4  0
  3 14  4  0
  4  5  1  0
  4 18  2  0
  6 12  1  0
  6 17  4  0
  6 23  4  0
  7  9  1  0
  7 13  4  0
  7 19  4  0
  9 20  1  0
 10 19  4  0
 11 25  4  0
 13 14  4  0
 15 16  4  0
 15 17  4  0
 15 21  4  0
 16 24  1  0
 16 25  4  0
 20 24  1  0
 20 26  2  0
 21 23  4  0
 22 23  1  0
M  END
$$$$

 Created by Python create_sdf_string function

 26 28  0  0  0  0  0  0  0  0999 V2000
   12.4616    8.6700   19.4180 N   0  0  0  0  0  0  0  0  0  0  0  0
   11.8329   10.8148   18.6769 N   0  0  0  0  0  0  0  0  0  0  0  0
    6.1021    2.5564   21.0678 C   0  0  0  0  0  0  0  0  0  0  0  0
   10.9097   11.8051   18.4804 C   0  0  0  0  0  0  0  0  0  0  0  0
   11.2280   12.9135   17.5669 C   0  0  0  0  0  0  0  0  0  0  0  0
   12.3782    5.4231   20.7777 C   0  0  0  0  0  0  0  0  0  0  0  0
    7.7365    4.6508   21.6987 C   0  0  0  0  0  0  0  0  0  0  0  0
   13.0186   11.0102   18.0020 C   0  0  0  0  0  0  0  0  0  0  0  0
    8.6628    5.7088   21.8871 N   0  0  0  0  0  0  0  0  0  0  0  0
    5.6516    3.5258   21.9140 C   0  0  0  0  0  0  0  0  0  0  0  0
   11.5863    9.6815   19.4539 C   0  0  0  0  0  0  0  0  0  0  0  0
   12.9648    4.1543   20.9205 C   0  0  0  0  0  0  0  0  0  0  0  0
    8.2089    3.6265   20.8929 C   0  0  0  0  0  0  0  0  0  0  0  0
    7.3827    2.5724   20.5432 C   0  0  0  0  0  0  0  0  0  0  0  0
   11.1529    7.2750   20.8025 C   0  0  0  0  0  0  0  0  0  0  0  0
   10.2573    8.3215   20.9827 C   0  0  0  0  0  0  0  0  0  0  0  0
   11.1606    5.9378   21.2366 N   0  0  0  0  0  0  0  0  0  0  0  0
    9.8932   11.6736   19.0677 O   0  0  0  0  0  0  0  0  0  0  0  0
    6.4470    4.5850   22.2321 C   0  0  0  0  0  0  0  0  0  0  0  0
    8.4619    6.9895   22.2968 C   0  0  0  0  0  0  0  0  0  0  0  0
   12.2747    7.5102   20.0420 C   0  0  0  0  0  0  0  0  0  0  0  0
   14.2544    6.2142   19.4191 C   0  0  0  0  0  0  0  0  0  0  0  0
   13.0695    6.3705   20.0375 N   0  0  0  0  0  0  0  0  0  0  0  0
    9.1913    8.0876   21.8361 N   0  0  0  0  0  0  0  0  0  0  0  0
   10.4739    9.4813   20.2889 C   0  0  0  0  0  0  0  0  0  0  0  0
    7.5551    7.1270   23.1200 O   0  0  0  0  0  0  0  0  0  0  0  0
  1 11  4  0
  1 21  4  0
  2  4  1  0
  2  8  1  0
  2 11  1  0
  3 10  4  0
  3 14  4  0
  4  5  1  0
  4 18  2  0
  6 12  1  0
  6 17  4  0
  6 23  4  0
  7  9  1  0
  7 13  4  0
  7 19  4  0
  9 20  1  0
 10 19  4  0
 11 25  4  0
 13 14  4  0
 15 16  4  0
 15 17  4  0
 15 21  4  0
 16 24  1  0
 16 25  4  0
 20 24  1  0
 20 26  2  0
 21 23  4  0
 22 23  1  0
M  END
$$$$

 Created by Python create_sdf_string function

 26 28  0  0  0  0  0  0  0  0999 V2000
   12.4616    8.6700   19.4180 N   0  0  0  0  0  0  0  0  0  0  0  0
   11.8329   10.8148   18.6769 N   0  0  0  0  0  0  0  0  0  0  0  0
    6.1021    2.5564   21.0678 C   0  0  0  0  0  0  0  0  0  0  0  0
   10.9097   11.8051   18.4804 C   0  0  0  0  0  0  0  0  0  0  0  0
   11.2280   12.9135   17.5669 C   0  0  0  0  0  0  0  0  0  0  0  0
   12.3782    5.4231   20.7777 C   0  0  0  0  0  0  0  0  0  0  0  0
    7.7365    4.6508   21.6987 C   0  0  0  0  0  0  0  0  0  0  0  0
   13.0186   11.0102   18.0020 C   0  0  0  0  0  0  0  0  0  0  0  0
    8.6628    5.7088   21.8871 N   0  0  0  0  0  0  0  0  0  0  0  0
    5.6516    3.5258   21.9140 C   0  0  0  0  0  0  0  0  0  0  0  0
   11.5863    9.6815   19.4539 C   0  0  0  0  0  0  0  0  0  0  0  0
   12.9648    4.1543   20.9205 C   0  0  0  0  0  0  0  0  0  0  0  0
    8.2089    3.6265   20.8929 C   0  0  0  0  0  0  0  0  0  0  0  0
    7.3827    2.5724   20.5432 C   0  0  0  0  0  0  0  0  0  0  0  0
   11.1529    7.2750   20.8025 C   0  0  0  0  0  0  0  0  0  0  0  0
   10.2573    8.3215   20.9827 C   0  0  0  0  0  0  0  0  0  0  0  0
   11.1606    5.9378   21.2366 N   0  0  0  0  0  0  0  0  0  0  0  0
    9.8932   11.6736   19.0677 O   0  0  0  0  0  0  0  0  0  0  0  0
    6.4470    4.5850   22.2321 C   0  0  0  0  0  0  0  0  0  0  0  0
    8.4619    6.9895   22.2968 C   0  0  0  0  0  0  0  0  0  0  0  0
   12.2747    7.5102   20.0420 C   0  0  0  0  0  0  0  0  0  0  0  0
   14.2544    6.2142   19.4191 C   0  0  0  0  0  0  0  0  0  0  0  0
   13.0695    6.3705   20.0375 N   0  0  0  0  0  0  0  0  0  0  0  0
    9.1913    8.0876   21.8361 N   0  0  0  0  0  0  0  0  0  0  0  0
   10.4739    9.4813   20.2889 C   0  0  0  0  0  0  0  0  0  0  0  0
    7.5551    7.1270   23.1200 O   0  0  0  0  0  0  0  0  0  0  0  0
  1 11  4  0
  1 21  4  0
  2  4  1  0
  2  8  1  0
  2 11  1  0
  3 10  4  0
  3 14  4  0
  4  5  1  0
  4 18  2  0
  6 12  1  0
  6 17  4  0
  6 23  4  0
  7  9  1  0
  7 13  4  0
  7 19  4  0
  9 20  1  0
 10 19  4  0
 11 25  4  0
 13 14  4  0
 15 16  4  0
 15 17  4  0
 15 21  4  0
 16 24  1  0
 16 25  4  0
 20 24  1  0
 20 26  2  0
 21 23  4  0
 22 23  1  0
M  END
$$$$

 Created by Python create_sdf_string function

 26 28  0  0  0  0  0  0  0  0999 V2000
   12.4616    8.6700   19.4180 N   0  0  0  0  0  0  0  0  0  0  0  0
   11.8329   10.8148   18.6769 N   0  0  0  0  0  0  0  0  0  0  0  0
    6.1021    2.5564   21.0678 C   0  0  0  0  0  0  0  0  0  0  0  0
   10.9097   11.8051   18.4804 C   0  0  0  0  0  0  0  0  0  0  0  0
   11.2280   12.9135   17.5669 C   0  0  0  0  0  0  0  0  0  0  0  0
   12.3782    5.4231   20.7777 C   0  0  0  0  0  0  0  0  0  0  0  0
    7.7365    4.6508   21.6987 C   0  0  0  0  0  0  0  0  0  0  0  0
   13.0186   11.0102   18.0020 C   0  0  0  0  0  0  0  0  0  0  0  0
    8.6628    5.7088   21.8871 N   0  0  0  0  0  0  0  0  0  0  0  0
    5.6516    3.5258   21.9140 C   0  0  0  0  0  0  0  0  0  0  0  0
   11.5863    9.6815   19.4539 C   0  0  0  0  0  0  0  0  0  0  0  0
   12.9648    4.1543   20.9205 C   0  0  0  0  0  0  0  0  0  0  0  0
    8.2089    3.6265   20.8929 C   0  0  0  0  0  0  0  0  0  0  0  0
    7.3827    2.5724   20.5432 C   0  0  0  0  0  0  0  0  0  0  0  0
   11.1529    7.2750   20.8025 C   0  0  0  0  0  0  0  0  0  0  0  0
   10.2573    8.3215   20.9827 C   0  0  0  0  0  0  0  0  0  0  0  0
   11.1606    5.9378   21.2366 N   0  0  0  0  0  0  0  0  0  0  0  0
    9.8932   11.6736   19.0677 O   0  0  0  0  0  0  0  0  0  0  0  0
    6.4470    4.5850   22.2321 C   0  0  0  0  0  0  0  0  0  0  0  0
    8.4619    6.9895   22.2968 C   0  0  0  0  0  0  0  0  0  0  0  0
   12.2747    7.5102   20.0420 C   0  0  0  0  0  0  0  0  0  0  0  0
   14.2544    6.2142   19.4191 C   0  0  0  0  0  0  0  0  0  0  0  0
   13.0695    6.3705   20.0375 N   0  0  0  0  0  0  0  0  0  0  0  0
    9.1913    8.0876   21.8361 N   0  0  0  0  0  0  0  0  0  0  0  0
   10.4739    9.4813   20.2889 C   0  0  0  0  0  0  0  0  0  0  0  0
    7.5551    7.1270   23.1200 O   0  0  0  0  0  0  0  0  0  0  0  0
  1 11  4  0
  1 21  4  0
  2  4  1  0
  2  8  1  0
  2 11  1  0
  3 10  4  0
  3 14  4  0
  4  5  1  0
  4 18  2  0
  6 12  1  0
  6 17  4  0
  6 23  4  0
  7  9  1  0
  7 13  4  0
  7 19  4  0
  9 20  1  0
 10 19  4  0
 11 25  4  0
 13 14  4  0
 15 16  4  0
 15 17  4  0
 15 21  4  0
 16 24  1  0
 16 25  4  0
 20 24  1  0
 20 26  2  0
 21 23  4  0
 22 23  1  0
M  END
$$$$

 Created by Python create_sdf_string function

 26 28  0  0  0  0  0  0  0  0999 V2000
   12.4616    8.6700   19.4180 N   0  0  0  0  0  0  0  0  0  0  0  0
   11.8329   10.8148   18.6769 N   0  0  0  0  0  0  0  0  0  0  0  0
    6.1021    2.5564   21.0678 C   0  0  0  0  0  0  0  0  0  0  0  0
   10.9097   11.8051   18.4804 C   0  0  0  0  0  0  0  0  0  0  0  0
   11.2280   12.9135   17.5669 C   0  0  0  0  0  0  0  0  0  0  0  0
   12.3782    5.4231   20.7777 C   0  0  0  0  0  0  0  0  0  0  0  0
    7.7365    4.6508   21.6987 C   0  0  0  0  0  0  0  0  0  0  0  0
   13.0186   11.0102   18.0020 C   0  0  0  0  0  0  0  0  0  0  0  0
    8.6628    5.7088   21.8871 N   0  0  0  0  0  0  0  0  0  0  0  0
    5.6516    3.5258   21.9140 C   0  0  0  0  0  0  0  0  0  0  0  0
   11.5863    9.6815   19.4539 C   0  0  0  0  0  0  0  0  0  0  0  0
   12.9648    4.1543   20.9205 C   0  0  0  0  0  0  0  0  0  0  0  0
    8.2089    3.6265   20.8929 C   0  0  0  0  0  0  0  0  0  0  0  0
    7.3827    2.5724   20.5432 C   0  0  0  0  0  0  0  0  0  0  0  0
   11.1529    7.2750   20.8025 C   0  0  0  0  0  0  0  0  0  0  0  0
   10.2573    8.3215   20.9827 C   0  0  0  0  0  0  0  0  0  0  0  0
   11.1606    5.9378   21.2366 N   0  0  0  0  0  0  0  0  0  0  0  0
    9.8932   11.6736   19.0677 O   0  0  0  0  0  0  0  0  0  0  0  0
    6.4470    4.5850   22.2321 C   0  0  0  0  0  0  0  0  0  0  0  0
    8.4619    6.9895   22.2968 C   0  0  0  0  0  0  0  0  0  0  0  0
   12.2747    7.5102   20.0420 C   0  0  0  0  0  0  0  0  0  0  0  0
   14.2544    6.2142   19.4191 C   0  0  0  0  0  0  0  0  0  0  0  0
   13.0695    6.3705   20.0375 N   0  0  0  0  0  0  0  0  0  0  0  0
    9.1913    8.0876   21.8361 N   0  0  0  0  0  0  0  0  0  0  0  0
   10.4739    9.4813   20.2889 C   0  0  0  0  0  0  0  0  0  0  0  0
    7.5551    7.1270   23.1200 O   0  0  0  0  0  0  0  0  0  0  0  0
  1 11  4  0
  1 21  4  0
  2  4  1  0
  2  8  1  0
  2 11  1  0
  3 10  4  0
  3 14  4  0
  4  5  1  0
  4 18  2  0
  6 12  1  0
  6 17  4  0
  6 23  4  0
  7  9  1  0
  7 13  4  0
  7 19  4  0
  9 20  1  0
 10 19  4  0
 11 25  4  0
 13 14  4  0
 15 16  4  0
 15 17  4  0
 15 21  4  0
 16 24  1  0
 16 25  4  0
 20 24  1  0
 20 26  2  0
 21 23  4  0
 22 23  1  0
M  END
$$$$

 Created by Python create_sdf_string function

 26 28  0  0  0  0  0  0  0  0999 V2000
   12.4616    8.6700   19.4180 N   0  0  0  0  0  0  0  0  0  0  0  0
   11.8329   10.8148   18.6769 N   0  0  0  0  0  0  0  0  0  0  0  0
    6.1021    2.5564   21.0678 C   0  0  0  0  0  0  0  0  0  0  0  0
   10.9097   11.8051   18.4804 C   0  0  0  0  0  0  0  0  0  0  0  0
   11.2280   12.9135   17.5669 C   0  0  0  0  0  0  0  0  0  0  0  0
   12.3782    5.4231   20.7777 C   0  0  0  0  0  0  0  0  0  0  0  0
    7.7365    4.6508   21.6987 C   0  0  0  0  0  0  0  0  0  0  0  0
   13.0186   11.0102   18.0020 C   0  0  0  0  0  0  0  0  0  0  0  0
    8.6628    5.7088   21.8871 N   0  0  0  0  0  0  0  0  0  0  0  0
    5.6516    3.5258   21.9140 C   0  0  0  0  0  0  0  0  0  0  0  0
   11.5863    9.6815   19.4539 C   0  0  0  0  0  0  0  0  0  0  0  0
   12.9648    4.1543   20.9205 C   0  0  0  0  0  0  0  0  0  0  0  0
    8.2089    3.6265   20.8929 C   0  0  0  0  0  0  0  0  0  0  0  0
    7.3827    2.5724   20.5432 C   0  0  0  0  0  0  0  0  0  0  0  0
   11.1529    7.2750   20.8025 C   0  0  0  0  0  0  0  0  0  0  0  0
   10.2573    8.3215   20.9827 C   0  0  0  0  0  0  0  0  0  0  0  0
   11.1606    5.9378   21.2366 N   0  0  0  0  0  0  0  0  0  0  0  0
    9.8932   11.6736   19.0677 O   0  0  0  0  0  0  0  0  0  0  0  0
    6.4470    4.5850   22.2321 C   0  0  0  0  0  0  0  0  0  0  0  0
    8.4619    6.9895   22.2968 C   0  0  0  0  0  0  0  0  0  0  0  0
   12.2747    7.5102   20.0420 C   0  0  0  0  0  0  0  0  0  0  0  0
   14.2544    6.2142   19.4191 C   0  0  0  0  0  0  0  0  0  0  0  0
   13.0695    6.3705   20.0375 N   0  0  0  0  0  0  0  0  0  0  0  0
    9.1913    8.0876   21.8361 N   0  0  0  0  0  0  0  0  0  0  0  0
   10.4739    9.4813   20.2889 C   0  0  0  0  0  0  0  0  0  0  0  0
    7.5551    7.1270   23.1200 O   0  0  0  0  0  0  0  0  0  0  0  0
  1 11  4  0
  1 21  4  0
  2  4  1  0
  2  8  1  0
  2 11  1  0
  3 10  4  0
  3 14  4  0
  4  5  1  0
  4 18  2  0
  6 12  1  0
  6 17  4  0
  6 23  4  0
  7  9  1  0
  7 13  4  0
  7 19  4  0
  9 20  1  0
 10 19  4  0
 11 25  4  0
 13 14  4  0
 15 16  4  0
 15 17  4  0
 15 21  4  0
 16 24  1  0
 16 25  4  0
 20 24  1  0
 20 26  2  0
 21 23  4  0
 22 23  1  0
M  END
$$$$

 Created by Python create_sdf_string function

 26 28  0  0  0  0  0  0  0  0999 V2000
   12.4616    8.6700   19.4180 N   0  0  0  0  0  0  0  0  0  0  0  0
   11.8329   10.8148   18.6769 N   0  0  0  0  0  0  0  0  0  0  0  0
    6.1021    2.5564   21.0678 C   0  0  0  0  0  0  0  0  0  0  0  0
   10.9097   11.8051   18.4804 C   0  0  0  0  0  0  0  0  0  0  0  0
   11.2280   12.9135   17.5669 C   0  0  0  0  0  0  0  0  0  0  0  0
   12.3782    5.4231   20.7777 C   0  0  0  0  0  0  0  0  0  0  0  0
    7.7365    4.6508   21.6987 C   0  0  0  0  0  0  0  0  0  0  0  0
   13.0186   11.0102   18.0020 C   0  0  0  0  0  0  0  0  0  0  0  0
    8.6628    5.7088   21.8871 N   0  0  0  0  0  0  0  0  0  0  0  0
    5.6516    3.5258   21.9140 C   0  0  0  0  0  0  0  0  0  0  0  0
   11.5863    9.6815   19.4539 C   0  0  0  0  0  0  0  0  0  0  0  0
   12.9648    4.1543   20.9205 C   0  0  0  0  0  0  0  0  0  0  0  0
    8.2089    3.6265   20.8929 C   0  0  0  0  0  0  0  0  0  0  0  0
    7.3827    2.5724   20.5432 C   0  0  0  0  0  0  0  0  0  0  0  0
   11.1529    7.2750   20.8025 C   0  0  0  0  0  0  0  0  0  0  0  0
   10.2573    8.3215   20.9827 C   0  0  0  0  0  0  0  0  0  0  0  0
   11.1606    5.9378   21.2366 N   0  0  0  0  0  0  0  0  0  0  0  0
    9.8932   11.6736   19.0677 O   0  0  0  0  0  0  0  0  0  0  0  0
    6.4470    4.5850   22.2321 C   0  0  0  0  0  0  0  0  0  0  0  0
    8.4619    6.9895   22.2968 C   0  0  0  0  0  0  0  0  0  0  0  0
   12.2747    7.5102   20.0420 C   0  0  0  0  0  0  0  0  0  0  0  0
   14.2544    6.2142   19.4191 C   0  0  0  0  0  0  0  0  0  0  0  0
   13.0695    6.3705   20.0375 N   0  0  0  0  0  0  0  0  0  0  0  0
    9.1913    8.0876   21.8361 N   0  0  0  0  0  0  0  0  0  0  0  0
   10.4739    9.4813   20.2889 C   0  0  0  0  0  0  0  0  0  0  0  0
    7.5551    7.1270   23.1200 O   0  0  0  0  0  0  0  0  0  0  0  0
  1 11  4  0
  1 21  4  0
  2  4  1  0
  2  8  1  0
  2 11  1  0
  3 10  4  0
  3 14  4  0
  4  5  1  0
  4 18  2  0
  6 12  1  0
  6 17  4  0
  6 23  4  0
  7  9  1  0
  7 13  4  0
  7 19  4  0
  9 20  1  0
 10 19  4  0
 11 25  4  0
 13 14  4  0
 15 16  4  0
 15 17  4  0
 15 21  4  0
 16 24  1  0
 16 25  4  0
 20 24  1  0
 20 26  2  0
 21 23  4  0
 22 23  1  0
M  END
$$$$

 Created by Python create_sdf_string function

 26 28  0  0  0  0  0  0  0  0999 V2000
   12.4616    8.6700   19.4180 N   0  0  0  0  0  0  0  0  0  0  0  0
   11.8329   10.8148   18.6769 N   0  0  0  0  0  0  0  0  0  0  0  0
    6.1021    2.5564   21.0678 C   0  0  0  0  0  0  0  0  0  0  0  0
   10.9097   11.8051   18.4804 C   0  0  0  0  0  0  0  0  0  0  0  0
   11.2280   12.9135   17.5669 C   0  0  0  0  0  0  0  0  0  0  0  0
   12.3782    5.4231   20.7777 C   0  0  0  0  0  0  0  0  0  0  0  0
    7.7365    4.6508   21.6987 C   0  0  0  0  0  0  0  0  0  0  0  0
   13.0186   11.0102   18.0020 C   0  0  0  0  0  0  0  0  0  0  0  0
    8.6628    5.7088   21.8871 N   0  0  0  0  0  0  0  0  0  0  0  0
    5.6516    3.5258   21.9140 C   0  0  0  0  0  0  0  0  0  0  0  0
   11.5863    9.6815   19.4539 C   0  0  0  0  0  0  0  0  0  0  0  0
   12.9648    4.1543   20.9205 C   0  0  0  0  0  0  0  0  0  0  0  0
    8.2089    3.6265   20.8929 C   0  0  0  0  0  0  0  0  0  0  0  0
    7.3827    2.5724   20.5432 C   0  0  0  0  0  0  0  0  0  0  0  0
   11.1529    7.2750   20.8025 C   0  0  0  0  0  0  0  0  0  0  0  0
   10.2573    8.3215   20.9827 C   0  0  0  0  0  0  0  0  0  0  0  0
   11.1606    5.9378   21.2366 N   0  0  0  0  0  0  0  0  0  0  0  0
    9.8932   11.6736   19.0677 O   0  0  0  0  0  0  0  0  0  0  0  0
    6.4470    4.5850   22.2321 C   0  0  0  0  0  0  0  0  0  0  0  0
    8.4619    6.9895   22.2968 C   0  0  0  0  0  0  0  0  0  0  0  0
   12.2747    7.5102   20.0420 C   0  0  0  0  0  0  0  0  0  0  0  0
   14.2544    6.2142   19.4191 C   0  0  0  0  0  0  0  0  0  0  0  0
   13.0695    6.3705   20.0375 N   0  0  0  0  0  0  0  0  0  0  0  0
    9.1913    8.0876   21.8361 N   0  0  0  0  0  0  0  0  0  0  0  0
   10.4739    9.4813   20.2889 C   0  0  0  0  0  0  0  0  0  0  0  0
    7.5551    7.1270   23.1200 O   0  0  0  0  0  0  0  0  0  0  0  0
  1 11  4  0
  1 21  4  0
  2  4  1  0
  2  8  1  0
  2 11  1  0
  3 10  4  0
  3 14  4  0
  4  5  1  0
  4 18  2  0
  6 12  1  0
  6 17  4  0
  6 23  4  0
  7  9  1  0
  7 13  4  0
  7 19  4  0
  9 20  1  0
 10 19  4  0
 11 25  4  0
 13 14  4  0
 15 16  4  0
 15 17  4  0
 15 21  4  0
 16 24  1  0
 16 25  4  0
 20 24  1  0
 20 26  2  0
 21 23  4  0
 22 23  1  0
M  END
$$$$

 Created by Python create_sdf_string function

 26 28  0  0  0  0  0  0  0  0999 V2000
   12.4616    8.6700   19.4180 N   0  0  0  0  0  0  0  0  0  0  0  0
   11.8329   10.8148   18.6769 N   0  0  0  0  0  0  0  0  0  0  0  0
    6.1021    2.5564   21.0678 C   0  0  0  0  0  0  0  0  0  0  0  0
   10.9097   11.8051   18.4804 C   0  0  0  0  0  0  0  0  0  0  0  0
   11.2280   12.9135   17.5669 C   0  0  0  0  0  0  0  0  0  0  0  0
   12.3782    5.4231   20.7777 C   0  0  0  0  0  0  0  0  0  0  0  0
    7.7365    4.6508   21.6987 C   0  0  0  0  0  0  0  0  0  0  0  0
   13.0186   11.0102   18.0020 C   0  0  0  0  0  0  0  0  0  0  0  0
    8.6628    5.7088   21.8871 N   0  0  0  0  0  0  0  0  0  0  0  0
    5.6516    3.5258   21.9140 C   0  0  0  0  0  0  0  0  0  0  0  0
   11.5863    9.6815   19.4539 C   0  0  0  0  0  0  0  0  0  0  0  0
   12.9648    4.1543   20.9205 C   0  0  0  0  0  0  0  0  0  0  0  0
    8.2089    3.6265   20.8929 C   0  0  0  0  0  0  0  0  0  0  0  0
    7.3827    2.5724   20.5432 C   0  0  0  0  0  0  0  0  0  0  0  0
   11.1529    7.2750   20.8025 C   0  0  0  0  0  0  0  0  0  0  0  0
   10.2573    8.3215   20.9827 C   0  0  0  0  0  0  0  0  0  0  0  0
   11.1606    5.9378   21.2366 N   0  0  0  0  0  0  0  0  0  0  0  0
    9.8932   11.6736   19.0677 O   0  0  0  0  0  0  0  0  0  0  0  0
    6.4470    4.5850   22.2321 C   0  0  0  0  0  0  0  0  0  0  0  0
    8.4619    6.9895   22.2968 C   0  0  0  0  0  0  0  0  0  0  0  0
   12.2747    7.5102   20.0420 C   0  0  0  0  0  0  0  0  0  0  0  0
   14.2544    6.2142   19.4191 C   0  0  0  0  0  0  0  0  0  0  0  0
   13.0695    6.3705   20.0375 N   0  0  0  0  0  0  0  0  0  0  0  0
    9.1913    8.0876   21.8361 N   0  0  0  0  0  0  0  0  0  0  0  0
   10.4739    9.4813   20.2889 C   0  0  0  0  0  0  0  0  0  0  0  0
    7.5551    7.1270   23.1200 O   0  0  0  0  0  0  0  0  0  0  0  0
  1 11  4  0
  1 21  4  0
  2  4  1  0
  2  8  1  0
  2 11  1  0
  3 10  4  0
  3 14  4  0
  4  5  1  0
  4 18  2  0
  6 12  1  0
  6 17  4  0
  6 23  4  0
  7  9  1  0
  7 13  4  0
  7 19  4  0
  9 20  1  0
 10 19  4  0
 11 25  4  0
 13 14  4  0
 15 16  4  0
 15 17  4  0
 15 21  4  0
 16 24  1  0
 16 25  4  0
 20 24  1  0
 20 26  2  0
 21 23  4  0
 22 23  1  0
M  END
$$$$

 Created by Python create_sdf_string function

 26 28  0  0  0  0  0  0  0  0999 V2000
   12.4616    8.6700   19.4180 N   0  0  0  0  0  0  0  0  0  0  0  0
   11.8329   10.8148   18.6769 N   0  0  0  0  0  0  0  0  0  0  0  0
    6.1021    2.5564   21.0678 C   0  0  0  0  0  0  0  0  0  0  0  0
   10.9097   11.8051   18.4804 C   0  0  0  0  0  0  0  0  0  0  0  0
   11.2280   12.9135   17.5669 C   0  0  0  0  0  0  0  0  0  0  0  0
   12.3782    5.4231   20.7777 C   0  0  0  0  0  0  0  0  0  0  0  0
    7.7365    4.6508   21.6987 C   0  0  0  0  0  0  0  0  0  0  0  0
   13.0186   11.0102   18.0020 C   0  0  0  0  0  0  0  0  0  0  0  0
    8.6628    5.7088   21.8871 N   0  0  0  0  0  0  0  0  0  0  0  0
    5.6516    3.5258   21.9140 C   0  0  0  0  0  0  0  0  0  0  0  0
   11.5863    9.6815   19.4539 C   0  0  0  0  0  0  0  0  0  0  0  0
   12.9648    4.1543   20.9205 C   0  0  0  0  0  0  0  0  0  0  0  0
    8.2089    3.6265   20.8929 C   0  0  0  0  0  0  0  0  0  0  0  0
    7.3827    2.5724   20.5432 C   0  0  0  0  0  0  0  0  0  0  0  0
   11.1529    7.2750   20.8025 C   0  0  0  0  0  0  0  0  0  0  0  0
   10.2573    8.3215   20.9827 C   0  0  0  0  0  0  0  0  0  0  0  0
   11.1606    5.9378   21.2366 N   0  0  0  0  0  0  0  0  0  0  0  0
    9.8932   11.6736   19.0677 O   0  0  0  0  0  0  0  0  0  0  0  0
    6.4470    4.5850   22.2321 C   0  0  0  0  0  0  0  0  0  0  0  0
    8.4619    6.9895   22.2968 C   0  0  0  0  0  0  0  0  0  0  0  0
   12.2747    7.5102   20.0420 C   0  0  0  0  0  0  0  0  0  0  0  0
   14.2544    6.2142   19.4191 C   0  0  0  0  0  0  0  0  0  0  0  0
   13.0695    6.3705   20.0375 N   0  0  0  0  0  0  0  0  0  0  0  0
    9.1913    8.0876   21.8361 N   0  0  0  0  0  0  0  0  0  0  0  0
   10.4739    9.4813   20.2889 C   0  0  0  0  0  0  0  0  0  0  0  0
    7.5551    7.1270   23.1200 O   0  0  0  0  0  0  0  0  0  0  0  0
  1 11  4  0
  1 21  4  0
  2  4  1  0
  2  8  1  0
  2 11  1  0
  3 10  4  0
  3 14  4  0
  4  5  1  0
  4 18  2  0
  6 12  1  0
  6 17  4  0
  6 23  4  0
  7  9  1  0
  7 13  4  0
  7 19  4  0
  9 20  1  0
 10 19  4  0
 11 25  4  0
 13 14  4  0
 15 16  4  0
 15 17  4  0
 15 21  4  0
 16 24  1  0
 16 25  4  0
 20 24  1  0
 20 26  2  0
 21 23  4  0
 22 23  1  0
M  END
$$$$

 Created by Python create_sdf_string function

 26 28  0  0  0  0  0  0  0  0999 V2000
   12.4616    8.6700   19.4180 N   0  0  0  0  0  0  0  0  0  0  0  0
   11.8329   10.8148   18.6769 N   0  0  0  0  0  0  0  0  0  0  0  0
    6.1021    2.5564   21.0678 C   0  0  0  0  0  0  0  0  0  0  0  0
   10.9097   11.8051   18.4804 C   0  0  0  0  0  0  0  0  0  0  0  0
   11.2280   12.9135   17.5669 C   0  0  0  0  0  0  0  0  0  0  0  0
   12.3782    5.4231   20.7777 C   0  0  0  0  0  0  0  0  0  0  0  0
    7.7365    4.6508   21.6987 C   0  0  0  0  0  0  0  0  0  0  0  0
   13.0186   11.0102   18.0020 C   0  0  0  0  0  0  0  0  0  0  0  0
    8.6628    5.7088   21.8871 N   0  0  0  0  0  0  0  0  0  0  0  0
    5.6516    3.5258   21.9140 C   0  0  0  0  0  0  0  0  0  0  0  0
   11.5863    9.6815   19.4539 C   0  0  0  0  0  0  0  0  0  0  0  0
   12.9648    4.1543   20.9205 C   0  0  0  0  0  0  0  0  0  0  0  0
    8.2089    3.6265   20.8929 C   0  0  0  0  0  0  0  0  0  0  0  0
    7.3827    2.5724   20.5432 C   0  0  0  0  0  0  0  0  0  0  0  0
   11.1529    7.2750   20.8025 C   0  0  0  0  0  0  0  0  0  0  0  0
   10.2573    8.3215   20.9827 C   0  0  0  0  0  0  0  0  0  0  0  0
   11.1606    5.9378   21.2366 N   0  0  0  0  0  0  0  0  0  0  0  0
    9.8932   11.6736   19.0677 O   0  0  0  0  0  0  0  0  0  0  0  0
    6.4470    4.5850   22.2321 C   0  0  0  0  0  0  0  0  0  0  0  0
    8.4619    6.9895   22.2968 C   0  0  0  0  0  0  0  0  0  0  0  0
   12.2747    7.5102   20.0420 C   0  0  0  0  0  0  0  0  0  0  0  0
   14.2544    6.2142   19.4191 C   0  0  0  0  0  0  0  0  0  0  0  0
   13.0695    6.3705   20.0375 N   0  0  0  0  0  0  0  0  0  0  0  0
    9.1913    8.0876   21.8361 N   0  0  0  0  0  0  0  0  0  0  0  0
   10.4739    9.4813   20.2889 C   0  0  0  0  0  0  0  0  0  0  0  0
    7.5551    7.1270   23.1200 O   0  0  0  0  0  0  0  0  0  0  0  0
  1 11  4  0
  1 21  4  0
  2  4  1  0
  2  8  1  0
  2 11  1  0
  3 10  4  0
  3 14  4  0
  4  5  1  0
  4 18  2  0
  6 12  1  0
  6 17  4  0
  6 23  4  0
  7  9  1  0
  7 13  4  0
  7 19  4  0
  9 20  1  0
 10 19  4  0
 11 25  4  0
 13 14  4  0
 15 16  4  0
 15 17  4  0
 15 21  4  0
 16 24  1  0
 16 25  4  0
 20 24  1  0
 20 26  2  0
 21 23  4  0
 22 23  1  0
M  END
$$$$

 Created by Python create_sdf_string function

 26 28  0  0  0  0  0  0  0  0999 V2000
   12.4616    8.6700   19.4180 N   0  0  0  0  0  0  0  0  0  0  0  0
   11.8329   10.8148   18.6769 N   0  0  0  0  0  0  0  0  0  0  0  0
    6.1021    2.5564   21.0678 C   0  0  0  0  0  0  0  0  0  0  0  0
   10.9097   11.8051   18.4804 C   0  0  0  0  0  0  0  0  0  0  0  0
   11.2280   12.9135   17.5669 C   0  0  0  0  0  0  0  0  0  0  0  0
   12.3782    5.4231   20.7777 C   0  0  0  0  0  0  0  0  0  0  0  0
    7.7365    4.6508   21.6987 C   0  0  0  0  0  0  0  0  0  0  0  0
   13.0186   11.0102   18.0020 C   0  0  0  0  0  0  0  0  0  0  0  0
    8.6628    5.7088   21.8871 N   0  0  0  0  0  0  0  0  0  0  0  0
    5.6516    3.5258   21.9140 C   0  0  0  0  0  0  0  0  0  0  0  0
   11.5863    9.6815   19.4539 C   0  0  0  0  0  0  0  0  0  0  0  0
   12.9648    4.1543   20.9205 C   0  0  0  0  0  0  0  0  0  0  0  0
    8.2089    3.6265   20.8929 C   0  0  0  0  0  0  0  0  0  0  0  0
    7.3827    2.5724   20.5432 C   0  0  0  0  0  0  0  0  0  0  0  0
   11.1529    7.2750   20.8025 C   0  0  0  0  0  0  0  0  0  0  0  0
   10.2573    8.3215   20.9827 C   0  0  0  0  0  0  0  0  0  0  0  0
   11.1606    5.9378   21.2366 N   0  0  0  0  0  0  0  0  0  0  0  0
    9.8932   11.6736   19.0677 O   0  0  0  0  0  0  0  0  0  0  0  0
    6.4470    4.5850   22.2321 C   0  0  0  0  0  0  0  0  0  0  0  0
    8.4619    6.9895   22.2968 C   0  0  0  0  0  0  0  0  0  0  0  0
   12.2747    7.5102   20.0420 C   0  0  0  0  0  0  0  0  0  0  0  0
   14.2544    6.2142   19.4191 C   0  0  0  0  0  0  0  0  0  0  0  0
   13.0695    6.3705   20.0375 N   0  0  0  0  0  0  0  0  0  0  0  0
    9.1913    8.0876   21.8361 N   0  0  0  0  0  0  0  0  0  0  0  0
   10.4739    9.4813   20.2889 C   0  0  0  0  0  0  0  0  0  0  0  0
    7.5551    7.1270   23.1200 O   0  0  0  0  0  0  0  0  0  0  0  0
  1 11  4  0
  1 21  4  0
  2  4  1  0
  2  8  1  0
  2 11  1  0
  3 10  4  0
  3 14  4  0
  4  5  1  0
  4 18  2  0
  6 12  1  0
  6 17  4  0
  6 23  4  0
  7  9  1  0
  7 13  4  0
  7 19  4  0
  9 20  1  0
 10 19  4  0
 11 25  4  0
 13 14  4  0
 15 16  4  0
 15 17  4  0
 15 21  4  0
 16 24  1  0
 16 25  4  0
 20 24  1  0
 20 26  2  0
 21 23  4  0
 22 23  1  0
M  END
$$$$

 Created by Python create_sdf_string function

 26 28  0  0  0  0  0  0  0  0999 V2000
   12.4616    8.6700   19.4180 N   0  0  0  0  0  0  0  0  0  0  0  0
   11.8329   10.8148   18.6769 N   0  0  0  0  0  0  0  0  0  0  0  0
    6.1021    2.5564   21.0678 C   0  0  0  0  0  0  0  0  0  0  0  0
   10.9097   11.8051   18.4804 C   0  0  0  0  0  0  0  0  0  0  0  0
   11.2280   12.9135   17.5669 C   0  0  0  0  0  0  0  0  0  0  0  0
   12.3782    5.4231   20.7777 C   0  0  0  0  0  0  0  0  0  0  0  0
    7.7365    4.6508   21.6987 C   0  0  0  0  0  0  0  0  0  0  0  0
   13.0186   11.0102   18.0020 C   0  0  0  0  0  0  0  0  0  0  0  0
    8.6628    5.7088   21.8871 N   0  0  0  0  0  0  0  0  0  0  0  0
    5.6516    3.5258   21.9140 C   0  0  0  0  0  0  0  0  0  0  0  0
   11.5863    9.6815   19.4539 C   0  0  0  0  0  0  0  0  0  0  0  0
   12.9648    4.1543   20.9205 C   0  0  0  0  0  0  0  0  0  0  0  0
    8.2089    3.6265   20.8929 C   0  0  0  0  0  0  0  0  0  0  0  0
    7.3827    2.5724   20.5432 C   0  0  0  0  0  0  0  0  0  0  0  0
   11.1529    7.2750   20.8025 C   0  0  0  0  0  0  0  0  0  0  0  0
   10.2573    8.3215   20.9827 C   0  0  0  0  0  0  0  0  0  0  0  0
   11.1606    5.9378   21.2366 N   0  0  0  0  0  0  0  0  0  0  0  0
    9.8932   11.6736   19.0677 O   0  0  0  0  0  0  0  0  0  0  0  0
    6.4470    4.5850   22.2321 C   0  0  0  0  0  0  0  0  0  0  0  0
    8.4619    6.9895   22.2968 C   0  0  0  0  0  0  0  0  0  0  0  0
   12.2747    7.5102   20.0420 C   0  0  0  0  0  0  0  0  0  0  0  0
   14.2544    6.2142   19.4191 C   0  0  0  0  0  0  0  0  0  0  0  0
   13.0695    6.3705   20.0375 N   0  0  0  0  0  0  0  0  0  0  0  0
    9.1913    8.0876   21.8361 N   0  0  0  0  0  0  0  0  0  0  0  0
   10.4739    9.4813   20.2889 C   0  0  0  0  0  0  0  0  0  0  0  0
    7.5551    7.1270   23.1200 O   0  0  0  0  0  0  0  0  0  0  0  0
  1 11  4  0
  1 21  4  0
  2  4  1  0
  2  8  1  0
  2 11  1  0
  3 10  4  0
  3 14  4  0
  4  5  1  0
  4 18  2  0
  6 12  1  0
  6 17  4  0
  6 23  4  0
  7  9  1  0
  7 13  4  0
  7 19  4  0
  9 20  1  0
 10 19  4  0
 11 25  4  0
 13 14  4  0
 15 16  4  0
 15 17  4  0
 15 21  4  0
 16 24  1  0
 16 25  4  0
 20 24  1  0
 20 26  2  0
 21 23  4  0
 22 23  1  0
M  END
$$$$

 Created by Python create_sdf_string function

 26 28  0  0  0  0  0  0  0  0999 V2000
   12.4616    8.6700   19.4180 N   0  0  0  0  0  0  0  0  0  0  0  0
   11.8329   10.8148   18.6769 N   0  0  0  0  0  0  0  0  0  0  0  0
    6.1021    2.5564   21.0678 C   0  0  0  0  0  0  0  0  0  0  0  0
   10.9097   11.8051   18.4804 C   0  0  0  0  0  0  0  0  0  0  0  0
   11.2280   12.9135   17.5669 C   0  0  0  0  0  0  0  0  0  0  0  0
   12.3782    5.4231   20.7777 C   0  0  0  0  0  0  0  0  0  0  0  0
    7.7365    4.6508   21.6987 C   0  0  0  0  0  0  0  0  0  0  0  0
   13.0186   11.0102   18.0020 C   0  0  0  0  0  0  0  0  0  0  0  0
    8.6628    5.7088   21.8871 N   0  0  0  0  0  0  0  0  0  0  0  0
    5.6516    3.5258   21.9140 C   0  0  0  0  0  0  0  0  0  0  0  0
   11.5863    9.6815   19.4539 C   0  0  0  0  0  0  0  0  0  0  0  0
   12.9648    4.1543   20.9205 C   0  0  0  0  0  0  0  0  0  0  0  0
    8.2089    3.6265   20.8929 C   0  0  0  0  0  0  0  0  0  0  0  0
    7.3827    2.5724   20.5432 C   0  0  0  0  0  0  0  0  0  0  0  0
   11.1529    7.2750   20.8025 C   0  0  0  0  0  0  0  0  0  0  0  0
   10.2573    8.3215   20.9827 C   0  0  0  0  0  0  0  0  0  0  0  0
   11.1606    5.9378   21.2366 N   0  0  0  0  0  0  0  0  0  0  0  0
    9.8932   11.6736   19.0677 O   0  0  0  0  0  0  0  0  0  0  0  0
    6.4470    4.5850   22.2321 C   0  0  0  0  0  0  0  0  0  0  0  0
    8.4619    6.9895   22.2968 C   0  0  0  0  0  0  0  0  0  0  0  0
   12.2747    7.5102   20.0420 C   0  0  0  0  0  0  0  0  0  0  0  0
   14.2544    6.2142   19.4191 C   0  0  0  0  0  0  0  0  0  0  0  0
   13.0695    6.3705   20.0375 N   0  0  0  0  0  0  0  0  0  0  0  0
    9.1913    8.0876   21.8361 N   0  0  0  0  0  0  0  0  0  0  0  0
   10.4739    9.4813   20.2889 C   0  0  0  0  0  0  0  0  0  0  0  0
    7.5551    7.1270   23.1200 O   0  0  0  0  0  0  0  0  0  0  0  0
  1 11  4  0
  1 21  4  0
  2  4  1  0
  2  8  1  0
  2 11  1  0
  3 10  4  0
  3 14  4  0
  4  5  1  0
  4 18  2  0
  6 12  1  0
  6 17  4  0
  6 23  4  0
  7  9  1  0
  7 13  4  0
  7 19  4  0
  9 20  1  0
 10 19  4  0
 11 25  4  0
 13 14  4  0
 15 16  4  0
 15 17  4  0
 15 21  4  0
 16 24  1  0
 16 25  4  0
 20 24  1  0
 20 26  2  0
 21 23  4  0
 22 23  1  0
M  END
$$$$

 Created by Python create_sdf_string function

 26 28  0  0  0  0  0  0  0  0999 V2000
   12.4616    8.6700   19.4180 N   0  0  0  0  0  0  0  0  0  0  0  0
   11.8329   10.8148   18.6769 N   0  0  0  0  0  0  0  0  0  0  0  0
    6.1021    2.5564   21.0678 C   0  0  0  0  0  0  0  0  0  0  0  0
   10.9097   11.8051   18.4804 C   0  0  0  0  0  0  0  0  0  0  0  0
   11.2280   12.9135   17.5669 C   0  0  0  0  0  0  0  0  0  0  0  0
   12.3782    5.4231   20.7777 C   0  0  0  0  0  0  0  0  0  0  0  0
    7.7365    4.6508   21.6987 C   0  0  0  0  0  0  0  0  0  0  0  0
   13.0186   11.0102   18.0020 C   0  0  0  0  0  0  0  0  0  0  0  0
    8.6628    5.7088   21.8871 N   0  0  0  0  0  0  0  0  0  0  0  0
    5.6516    3.5258   21.9140 C   0  0  0  0  0  0  0  0  0  0  0  0
   11.5863    9.6815   19.4539 C   0  0  0  0  0  0  0  0  0  0  0  0
   12.9648    4.1543   20.9205 C   0  0  0  0  0  0  0  0  0  0  0  0
    8.2089    3.6265   20.8929 C   0  0  0  0  0  0  0  0  0  0  0  0
    7.3827    2.5724   20.5432 C   0  0  0  0  0  0  0  0  0  0  0  0
   11.1529    7.2750   20.8025 C   0  0  0  0  0  0  0  0  0  0  0  0
   10.2573    8.3215   20.9827 C   0  0  0  0  0  0  0  0  0  0  0  0
   11.1606    5.9378   21.2366 N   0  0  0  0  0  0  0  0  0  0  0  0
    9.8932   11.6736   19.0677 O   0  0  0  0  0  0  0  0  0  0  0  0
    6.4470    4.5850   22.2321 C   0  0  0  0  0  0  0  0  0  0  0  0
    8.4619    6.9895   22.2968 C   0  0  0  0  0  0  0  0  0  0  0  0
   12.2747    7.5102   20.0420 C   0  0  0  0  0  0  0  0  0  0  0  0
   14.2544    6.2142   19.4191 C   0  0  0  0  0  0  0  0  0  0  0  0
   13.0695    6.3705   20.0375 N   0  0  0  0  0  0  0  0  0  0  0  0
    9.1913    8.0876   21.8361 N   0  0  0  0  0  0  0  0  0  0  0  0
   10.4739    9.4813   20.2889 C   0  0  0  0  0  0  0  0  0  0  0  0
    7.5551    7.1270   23.1200 O   0  0  0  0  0  0  0  0  0  0  0  0
  1 11  4  0
  1 21  4  0
  2  4  1  0
  2  8  1  0
  2 11  1  0
  3 10  4  0
  3 14  4  0
  4  5  1  0
  4 18  2  0
  6 12  1  0
  6 17  4  0
  6 23  4  0
  7  9  1  0
  7 13  4  0
  7 19  4  0
  9 20  1  0
 10 19  4  0
 11 25  4  0
 13 14  4  0
 15 16  4  0
 15 17  4  0
 15 21  4  0
 16 24  1  0
 16 25  4  0
 20 24  1  0
 20 26  2  0
 21 23  4  0
 22 23  1  0
M  END
$$$$

 Created by Python create_sdf_string function

 26 28  0  0  0  0  0  0  0  0999 V2000
   12.4616    8.6700   19.4180 N   0  0  0  0  0  0  0  0  0  0  0  0
   11.8329   10.8148   18.6769 N   0  0  0  0  0  0  0  0  0  0  0  0
    6.1021    2.5564   21.0678 C   0  0  0  0  0  0  0  0  0  0  0  0
   10.9097   11.8051   18.4804 C   0  0  0  0  0  0  0  0  0  0  0  0
   11.2280   12.9135   17.5669 C   0  0  0  0  0  0  0  0  0  0  0  0
   12.3782    5.4231   20.7777 C   0  0  0  0  0  0  0  0  0  0  0  0
    7.7365    4.6508   21.6987 C   0  0  0  0  0  0  0  0  0  0  0  0
   13.0186   11.0102   18.0020 C   0  0  0  0  0  0  0  0  0  0  0  0
    8.6628    5.7088   21.8871 N   0  0  0  0  0  0  0  0  0  0  0  0
    5.6516    3.5258   21.9140 C   0  0  0  0  0  0  0  0  0  0  0  0
   11.5863    9.6815   19.4539 C   0  0  0  0  0  0  0  0  0  0  0  0
   12.9648    4.1543   20.9205 C   0  0  0  0  0  0  0  0  0  0  0  0
    8.2089    3.6265   20.8929 C   0  0  0  0  0  0  0  0  0  0  0  0
    7.3827    2.5724   20.5432 C   0  0  0  0  0  0  0  0  0  0  0  0
   11.1529    7.2750   20.8025 C   0  0  0  0  0  0  0  0  0  0  0  0
   10.2573    8.3215   20.9827 C   0  0  0  0  0  0  0  0  0  0  0  0
   11.1606    5.9378   21.2366 N   0  0  0  0  0  0  0  0  0  0  0  0
    9.8932   11.6736   19.0677 O   0  0  0  0  0  0  0  0  0  0  0  0
    6.4470    4.5850   22.2321 C   0  0  0  0  0  0  0  0  0  0  0  0
    8.4619    6.9895   22.2968 C   0  0  0  0  0  0  0  0  0  0  0  0
   12.2747    7.5102   20.0420 C   0  0  0  0  0  0  0  0  0  0  0  0
   14.2544    6.2142   19.4191 C   0  0  0  0  0  0  0  0  0  0  0  0
   13.0695    6.3705   20.0375 N   0  0  0  0  0  0  0  0  0  0  0  0
    9.1913    8.0876   21.8361 N   0  0  0  0  0  0  0  0  0  0  0  0
   10.4739    9.4813   20.2889 C   0  0  0  0  0  0  0  0  0  0  0  0
    7.5551    7.1270   23.1200 O   0  0  0  0  0  0  0  0  0  0  0  0
  1 11  4  0
  1 21  4  0
  2  4  1  0
  2  8  1  0
  2 11  1  0
  3 10  4  0
  3 14  4  0
  4  5  1  0
  4 18  2  0
  6 12  1  0
  6 17  4  0
  6 23  4  0
  7  9  1  0
  7 13  4  0
  7 19  4  0
  9 20  1  0
 10 19  4  0
 11 25  4  0
 13 14  4  0
 15 16  4  0
 15 17  4  0
 15 21  4  0
 16 24  1  0
 16 25  4  0
 20 24  1  0
 20 26  2  0
 21 23  4  0
 22 23  1  0
M  END
$$$$

 Created by Python create_sdf_string function

 26 28  0  0  0  0  0  0  0  0999 V2000
   12.4616    8.6700   19.4180 N   0  0  0  0  0  0  0  0  0  0  0  0
   11.8329   10.8148   18.6769 N   0  0  0  0  0  0  0  0  0  0  0  0
    6.1021    2.5564   21.0678 C   0  0  0  0  0  0  0  0  0  0  0  0
   10.9097   11.8051   18.4804 C   0  0  0  0  0  0  0  0  0  0  0  0
   11.2280   12.9135   17.5669 C   0  0  0  0  0  0  0  0  0  0  0  0
   12.3782    5.4231   20.7777 C   0  0  0  0  0  0  0  0  0  0  0  0
    7.7365    4.6508   21.6987 C   0  0  0  0  0  0  0  0  0  0  0  0
   13.0186   11.0102   18.0020 C   0  0  0  0  0  0  0  0  0  0  0  0
    8.6628    5.7088   21.8871 N   0  0  0  0  0  0  0  0  0  0  0  0
    5.6516    3.5258   21.9140 C   0  0  0  0  0  0  0  0  0  0  0  0
   11.5863    9.6815   19.4539 C   0  0  0  0  0  0  0  0  0  0  0  0
   12.9648    4.1543   20.9205 C   0  0  0  0  0  0  0  0  0  0  0  0
    8.2089    3.6265   20.8929 C   0  0  0  0  0  0  0  0  0  0  0  0
    7.3827    2.5724   20.5432 C   0  0  0  0  0  0  0  0  0  0  0  0
   11.1529    7.2750   20.8025 C   0  0  0  0  0  0  0  0  0  0  0  0
   10.2573    8.3215   20.9827 C   0  0  0  0  0  0  0  0  0  0  0  0
   11.1606    5.9378   21.2366 N   0  0  0  0  0  0  0  0  0  0  0  0
    9.8932   11.6736   19.0677 O   0  0  0  0  0  0  0  0  0  0  0  0
    6.4470    4.5850   22.2321 C   0  0  0  0  0  0  0  0  0  0  0  0
    8.4619    6.9895   22.2968 C   0  0  0  0  0  0  0  0  0  0  0  0
   12.2747    7.5102   20.0420 C   0  0  0  0  0  0  0  0  0  0  0  0
   14.2544    6.2142   19.4191 C   0  0  0  0  0  0  0  0  0  0  0  0
   13.0695    6.3705   20.0375 N   0  0  0  0  0  0  0  0  0  0  0  0
    9.1913    8.0876   21.8361 N   0  0  0  0  0  0  0  0  0  0  0  0
   10.4739    9.4813   20.2889 C   0  0  0  0  0  0  0  0  0  0  0  0
    7.5551    7.1270   23.1200 O   0  0  0  0  0  0  0  0  0  0  0  0
  1 11  4  0
  1 21  4  0
  2  4  1  0
  2  8  1  0
  2 11  1  0
  3 10  4  0
  3 14  4  0
  4  5  1  0
  4 18  2  0
  6 12  1  0
  6 17  4  0
  6 23  4  0
  7  9  1  0
  7 13  4  0
  7 19  4  0
  9 20  1  0
 10 19  4  0
 11 25  4  0
 13 14  4  0
 15 16  4  0
 15 17  4  0
 15 21  4  0
 16 24  1  0
 16 25  4  0
 20 24  1  0
 20 26  2  0
 21 23  4  0
 22 23  1  0
M  END
$$$$

 Created by Python create_sdf_string function

 26 28  0  0  0  0  0  0  0  0999 V2000
   12.4616    8.6700   19.4180 N   0  0  0  0  0  0  0  0  0  0  0  0
   11.8329   10.8148   18.6769 N   0  0  0  0  0  0  0  0  0  0  0  0
    6.1021    2.5564   21.0678 C   0  0  0  0  0  0  0  0  0  0  0  0
   10.9097   11.8051   18.4804 C   0  0  0  0  0  0  0  0  0  0  0  0
   11.2280   12.9135   17.5669 C   0  0  0  0  0  0  0  0  0  0  0  0
   12.3782    5.4231   20.7777 C   0  0  0  0  0  0  0  0  0  0  0  0
    7.7365    4.6508   21.6987 C   0  0  0  0  0  0  0  0  0  0  0  0
   13.0186   11.0102   18.0020 C   0  0  0  0  0  0  0  0  0  0  0  0
    8.6628    5.7088   21.8871 N   0  0  0  0  0  0  0  0  0  0  0  0
    5.6516    3.5258   21.9140 C   0  0  0  0  0  0  0  0  0  0  0  0
   11.5863    9.6815   19.4539 C   0  0  0  0  0  0  0  0  0  0  0  0
   12.9648    4.1543   20.9205 C   0  0  0  0  0  0  0  0  0  0  0  0
    8.2089    3.6265   20.8929 C   0  0  0  0  0  0  0  0  0  0  0  0
    7.3827    2.5724   20.5432 C   0  0  0  0  0  0  0  0  0  0  0  0
   11.1529    7.2750   20.8025 C   0  0  0  0  0  0  0  0  0  0  0  0
   10.2573    8.3215   20.9827 C   0  0  0  0  0  0  0  0  0  0  0  0
   11.1606    5.9378   21.2366 N   0  0  0  0  0  0  0  0  0  0  0  0
    9.8932   11.6736   19.0677 O   0  0  0  0  0  0  0  0  0  0  0  0
    6.4470    4.5850   22.2321 C   0  0  0  0  0  0  0  0  0  0  0  0
    8.4619    6.9895   22.2968 C   0  0  0  0  0  0  0  0  0  0  0  0
   12.2747    7.5102   20.0420 C   0  0  0  0  0  0  0  0  0  0  0  0
   14.2544    6.2142   19.4191 C   0  0  0  0  0  0  0  0  0  0  0  0
   13.0695    6.3705   20.0375 N   0  0  0  0  0  0  0  0  0  0  0  0
    9.1913    8.0876   21.8361 N   0  0  0  0  0  0  0  0  0  0  0  0
   10.4739    9.4813   20.2889 C   0  0  0  0  0  0  0  0  0  0  0  0
    7.5551    7.1270   23.1200 O   0  0  0  0  0  0  0  0  0  0  0  0
  1 11  4  0
  1 21  4  0
  2  4  1  0
  2  8  1  0
  2 11  1  0
  3 10  4  0
  3 14  4  0
  4  5  1  0
  4 18  2  0
  6 12  1  0
  6 17  4  0
  6 23  4  0
  7  9  1  0
  7 13  4  0
  7 19  4  0
  9 20  1  0
 10 19  4  0
 11 25  4  0
 13 14  4  0
 15 16  4  0
 15 17  4  0
 15 21  4  0
 16 24  1  0
 16 25  4  0
 20 24  1  0
 20 26  2  0
 21 23  4  0
 22 23  1  0
M  END
$$$$

 Created by Python create_sdf_string function

 26 28  0  0  0  0  0  0  0  0999 V2000
   12.4616    8.6700   19.4180 N   0  0  0  0  0  0  0  0  0  0  0  0
   11.8329   10.8148   18.6769 N   0  0  0  0  0  0  0  0  0  0  0  0
    6.1021    2.5564   21.0678 C   0  0  0  0  0  0  0  0  0  0  0  0
   10.9097   11.8051   18.4804 C   0  0  0  0  0  0  0  0  0  0  0  0
   11.2280   12.9135   17.5669 C   0  0  0  0  0  0  0  0  0  0  0  0
   12.3782    5.4231   20.7777 C   0  0  0  0  0  0  0  0  0  0  0  0
    7.7365    4.6508   21.6987 C   0  0  0  0  0  0  0  0  0  0  0  0
   13.0186   11.0102   18.0020 C   0  0  0  0  0  0  0  0  0  0  0  0
    8.6628    5.7088   21.8871 N   0  0  0  0  0  0  0  0  0  0  0  0
    5.6516    3.5258   21.9140 C   0  0  0  0  0  0  0  0  0  0  0  0
   11.5863    9.6815   19.4539 C   0  0  0  0  0  0  0  0  0  0  0  0
   12.9648    4.1543   20.9205 C   0  0  0  0  0  0  0  0  0  0  0  0
    8.2089    3.6265   20.8929 C   0  0  0  0  0  0  0  0  0  0  0  0
    7.3827    2.5724   20.5432 C   0  0  0  0  0  0  0  0  0  0  0  0
   11.1529    7.2750   20.8025 C   0  0  0  0  0  0  0  0  0  0  0  0
   10.2573    8.3215   20.9827 C   0  0  0  0  0  0  0  0  0  0  0  0
   11.1606    5.9378   21.2366 N   0  0  0  0  0  0  0  0  0  0  0  0
    9.8932   11.6736   19.0677 O   0  0  0  0  0  0  0  0  0  0  0  0
    6.4470    4.5850   22.2321 C   0  0  0  0  0  0  0  0  0  0  0  0
    8.4619    6.9895   22.2968 C   0  0  0  0  0  0  0  0  0  0  0  0
   12.2747    7.5102   20.0420 C   0  0  0  0  0  0  0  0  0  0  0  0
   14.2544    6.2142   19.4191 C   0  0  0  0  0  0  0  0  0  0  0  0
   13.0695    6.3705   20.0375 N   0  0  0  0  0  0  0  0  0  0  0  0
    9.1913    8.0876   21.8361 N   0  0  0  0  0  0  0  0  0  0  0  0
   10.4739    9.4813   20.2889 C   0  0  0  0  0  0  0  0  0  0  0  0
    7.5551    7.1270   23.1200 O   0  0  0  0  0  0  0  0  0  0  0  0
  1 11  4  0
  1 21  4  0
  2  4  1  0
  2  8  1  0
  2 11  1  0
  3 10  4  0
  3 14  4  0
  4  5  1  0
  4 18  2  0
  6 12  1  0
  6 17  4  0
  6 23  4  0
  7  9  1  0
  7 13  4  0
  7 19  4  0
  9 20  1  0
 10 19  4  0
 11 25  4  0
 13 14  4  0
 15 16  4  0
 15 17  4  0
 15 21  4  0
 16 24  1  0
 16 25  4  0
 20 24  1  0
 20 26  2  0
 21 23  4  0
 22 23  1  0
M  END
$$$$

 Created by Python create_sdf_string function

 26 28  0  0  0  0  0  0  0  0999 V2000
   12.4616    8.6700   19.4180 N   0  0  0  0  0  0  0  0  0  0  0  0
   11.8329   10.8148   18.6769 N   0  0  0  0  0  0  0  0  0  0  0  0
    6.1021    2.5564   21.0678 C   0  0  0  0  0  0  0  0  0  0  0  0
   10.9097   11.8051   18.4804 C   0  0  0  0  0  0  0  0  0  0  0  0
   11.2280   12.9135   17.5669 C   0  0  0  0  0  0  0  0  0  0  0  0
   12.3782    5.4231   20.7777 C   0  0  0  0  0  0  0  0  0  0  0  0
    7.7365    4.6508   21.6987 C   0  0  0  0  0  0  0  0  0  0  0  0
   13.0186   11.0102   18.0020 C   0  0  0  0  0  0  0  0  0  0  0  0
    8.6628    5.7088   21.8871 N   0  0  0  0  0  0  0  0  0  0  0  0
    5.6516    3.5258   21.9140 C   0  0  0  0  0  0  0  0  0  0  0  0
   11.5863    9.6815   19.4539 C   0  0  0  0  0  0  0  0  0  0  0  0
   12.9648    4.1543   20.9205 C   0  0  0  0  0  0  0  0  0  0  0  0
    8.2089    3.6265   20.8929 C   0  0  0  0  0  0  0  0  0  0  0  0
    7.3827    2.5724   20.5432 C   0  0  0  0  0  0  0  0  0  0  0  0
   11.1529    7.2750   20.8025 C   0  0  0  0  0  0  0  0  0  0  0  0
   10.2573    8.3215   20.9827 C   0  0  0  0  0  0  0  0  0  0  0  0
   11.1606    5.9378   21.2366 N   0  0  0  0  0  0  0  0  0  0  0  0
    9.8932   11.6736   19.0677 O   0  0  0  0  0  0  0  0  0  0  0  0
    6.4470    4.5850   22.2321 C   0  0  0  0  0  0  0  0  0  0  0  0
    8.4619    6.9895   22.2968 C   0  0  0  0  0  0  0  0  0  0  0  0
   12.2747    7.5102   20.0420 C   0  0  0  0  0  0  0  0  0  0  0  0
   14.2544    6.2142   19.4191 C   0  0  0  0  0  0  0  0  0  0  0  0
   13.0695    6.3705   20.0375 N   0  0  0  0  0  0  0  0  0  0  0  0
    9.1913    8.0876   21.8361 N   0  0  0  0  0  0  0  0  0  0  0  0
   10.4739    9.4813   20.2889 C   0  0  0  0  0  0  0  0  0  0  0  0
    7.5551    7.1270   23.1200 O   0  0  0  0  0  0  0  0  0  0  0  0
  1 11  4  0
  1 21  4  0
  2  4  1  0
  2  8  1  0
  2 11  1  0
  3 10  4  0
  3 14  4  0
  4  5  1  0
  4 18  2  0
  6 12  1  0
  6 17  4  0
  6 23  4  0
  7  9  1  0
  7 13  4  0
  7 19  4  0
  9 20  1  0
 10 19  4  0
 11 25  4  0
 13 14  4  0
 15 16  4  0
 15 17  4  0
 15 21  4  0
 16 24  1  0
 16 25  4  0
 20 24  1  0
 20 26  2  0
 21 23  4  0
 22 23  1  0
M  END
$$$$

 Created by Python create_sdf_string function

 26 28  0  0  0  0  0  0  0  0999 V2000
   12.4616    8.6700   19.4180 N   0  0  0  0  0  0  0  0  0  0  0  0
   11.8329   10.8148   18.6769 N   0  0  0  0  0  0  0  0  0  0  0  0
    6.1021    2.5564   21.0678 C   0  0  0  0  0  0  0  0  0  0  0  0
   10.9097   11.8051   18.4804 C   0  0  0  0  0  0  0  0  0  0  0  0
   11.2280   12.9135   17.5669 C   0  0  0  0  0  0  0  0  0  0  0  0
   12.3782    5.4231   20.7777 C   0  0  0  0  0  0  0  0  0  0  0  0
    7.7365    4.6508   21.6987 C   0  0  0  0  0  0  0  0  0  0  0  0
   13.0186   11.0102   18.0020 C   0  0  0  0  0  0  0  0  0  0  0  0
    8.6628    5.7088   21.8871 N   0  0  0  0  0  0  0  0  0  0  0  0
    5.6516    3.5258   21.9140 C   0  0  0  0  0  0  0  0  0  0  0  0
   11.5863    9.6815   19.4539 C   0  0  0  0  0  0  0  0  0  0  0  0
   12.9648    4.1543   20.9205 C   0  0  0  0  0  0  0  0  0  0  0  0
    8.2089    3.6265   20.8929 C   0  0  0  0  0  0  0  0  0  0  0  0
    7.3827    2.5724   20.5432 C   0  0  0  0  0  0  0  0  0  0  0  0
   11.1529    7.2750   20.8025 C   0  0  0  0  0  0  0  0  0  0  0  0
   10.2573    8.3215   20.9827 C   0  0  0  0  0  0  0  0  0  0  0  0
   11.1606    5.9378   21.2366 N   0  0  0  0  0  0  0  0  0  0  0  0
    9.8932   11.6736   19.0677 O   0  0  0  0  0  0  0  0  0  0  0  0
    6.4470    4.5850   22.2321 C   0  0  0  0  0  0  0  0  0  0  0  0
    8.4619    6.9895   22.2968 C   0  0  0  0  0  0  0  0  0  0  0  0
   12.2747    7.5102   20.0420 C   0  0  0  0  0  0  0  0  0  0  0  0
   14.2544    6.2142   19.4191 C   0  0  0  0  0  0  0  0  0  0  0  0
   13.0695    6.3705   20.0375 N   0  0  0  0  0  0  0  0  0  0  0  0
    9.1913    8.0876   21.8361 N   0  0  0  0  0  0  0  0  0  0  0  0
   10.4739    9.4813   20.2889 C   0  0  0  0  0  0  0  0  0  0  0  0
    7.5551    7.1270   23.1200 O   0  0  0  0  0  0  0  0  0  0  0  0
  1 11  4  0
  1 21  4  0
  2  4  1  0
  2  8  1  0
  2 11  1  0
  3 10  4  0
  3 14  4  0
  4  5  1  0
  4 18  2  0
  6 12  1  0
  6 17  4  0
  6 23  4  0
  7  9  1  0
  7 13  4  0
  7 19  4  0
  9 20  1  0
 10 19  4  0
 11 25  4  0
 13 14  4  0
 15 16  4  0
 15 17  4  0
 15 21  4  0
 16 24  1  0
 16 25  4  0
 20 24  1  0
 20 26  2  0
 21 23  4  0
 22 23  1  0
M  END
$$$$

 Created by Python create_sdf_string function

 26 28  0  0  0  0  0  0  0  0999 V2000
   12.4616    8.6700   19.4180 N   0  0  0  0  0  0  0  0  0  0  0  0
   11.8329   10.8148   18.6769 N   0  0  0  0  0  0  0  0  0  0  0  0
    6.1021    2.5564   21.0678 C   0  0  0  0  0  0  0  0  0  0  0  0
   10.9097   11.8051   18.4804 C   0  0  0  0  0  0  0  0  0  0  0  0
   11.2280   12.9135   17.5669 C   0  0  0  0  0  0  0  0  0  0  0  0
   12.3782    5.4231   20.7777 C   0  0  0  0  0  0  0  0  0  0  0  0
    7.7365    4.6508   21.6987 C   0  0  0  0  0  0  0  0  0  0  0  0
   13.0186   11.0102   18.0020 C   0  0  0  0  0  0  0  0  0  0  0  0
    8.6628    5.7088   21.8871 N   0  0  0  0  0  0  0  0  0  0  0  0
    5.6516    3.5258   21.9140 C   0  0  0  0  0  0  0  0  0  0  0  0
   11.5863    9.6815   19.4539 C   0  0  0  0  0  0  0  0  0  0  0  0
   12.9648    4.1543   20.9205 C   0  0  0  0  0  0  0  0  0  0  0  0
    8.2089    3.6265   20.8929 C   0  0  0  0  0  0  0  0  0  0  0  0
    7.3827    2.5724   20.5432 C   0  0  0  0  0  0  0  0  0  0  0  0
   11.1529    7.2750   20.8025 C   0  0  0  0  0  0  0  0  0  0  0  0
   10.2573    8.3215   20.9827 C   0  0  0  0  0  0  0  0  0  0  0  0
   11.1606    5.9378   21.2366 N   0  0  0  0  0  0  0  0  0  0  0  0
    9.8932   11.6736   19.0677 O   0  0  0  0  0  0  0  0  0  0  0  0
    6.4470    4.5850   22.2321 C   0  0  0  0  0  0  0  0  0  0  0  0
    8.4619    6.9895   22.2968 C   0  0  0  0  0  0  0  0  0  0  0  0
   12.2747    7.5102   20.0420 C   0  0  0  0  0  0  0  0  0  0  0  0
   14.2544    6.2142   19.4191 C   0  0  0  0  0  0  0  0  0  0  0  0
   13.0695    6.3705   20.0375 N   0  0  0  0  0  0  0  0  0  0  0  0
    9.1913    8.0876   21.8361 N   0  0  0  0  0  0  0  0  0  0  0  0
   10.4739    9.4813   20.2889 C   0  0  0  0  0  0  0  0  0  0  0  0
    7.5551    7.1270   23.1200 O   0  0  0  0  0  0  0  0  0  0  0  0
  1 11  4  0
  1 21  4  0
  2  4  1  0
  2  8  1  0
  2 11  1  0
  3 10  4  0
  3 14  4  0
  4  5  1  0
  4 18  2  0
  6 12  1  0
  6 17  4  0
  6 23  4  0
  7  9  1  0
  7 13  4  0
  7 19  4  0
  9 20  1  0
 10 19  4  0
 11 25  4  0
 13 14  4  0
 15 16  4  0
 15 17  4  0
 15 21  4  0
 16 24  1  0
 16 25  4  0
 20 24  1  0
 20 26  2  0
 21 23  4  0
 22 23  1  0
M  END
$$$$

 Created by Python create_sdf_string function

 26 28  0  0  0  0  0  0  0  0999 V2000
   12.4616    8.6700   19.4180 N   0  0  0  0  0  0  0  0  0  0  0  0
   11.8329   10.8148   18.6769 N   0  0  0  0  0  0  0  0  0  0  0  0
    6.1021    2.5564   21.0678 C   0  0  0  0  0  0  0  0  0  0  0  0
   10.9097   11.8051   18.4804 C   0  0  0  0  0  0  0  0  0  0  0  0
   11.2280   12.9135   17.5669 C   0  0  0  0  0  0  0  0  0  0  0  0
   12.3782    5.4231   20.7777 C   0  0  0  0  0  0  0  0  0  0  0  0
    7.7365    4.6508   21.6987 C   0  0  0  0  0  0  0  0  0  0  0  0
   13.0186   11.0102   18.0020 C   0  0  0  0  0  0  0  0  0  0  0  0
    8.6628    5.7088   21.8871 N   0  0  0  0  0  0  0  0  0  0  0  0
    5.6516    3.5258   21.9140 C   0  0  0  0  0  0  0  0  0  0  0  0
   11.5863    9.6815   19.4539 C   0  0  0  0  0  0  0  0  0  0  0  0
   12.9648    4.1543   20.9205 C   0  0  0  0  0  0  0  0  0  0  0  0
    8.2089    3.6265   20.8929 C   0  0  0  0  0  0  0  0  0  0  0  0
    7.3827    2.5724   20.5432 C   0  0  0  0  0  0  0  0  0  0  0  0
   11.1529    7.2750   20.8025 C   0  0  0  0  0  0  0  0  0  0  0  0
   10.2573    8.3215   20.9827 C   0  0  0  0  0  0  0  0  0  0  0  0
   11.1606    5.9378   21.2366 N   0  0  0  0  0  0  0  0  0  0  0  0
    9.8932   11.6736   19.0677 O   0  0  0  0  0  0  0  0  0  0  0  0
    6.4470    4.5850   22.2321 C   0  0  0  0  0  0  0  0  0  0  0  0
    8.4619    6.9895   22.2968 C   0  0  0  0  0  0  0  0  0  0  0  0
   12.2747    7.5102   20.0420 C   0  0  0  0  0  0  0  0  0  0  0  0
   14.2544    6.2142   19.4191 C   0  0  0  0  0  0  0  0  0  0  0  0
   13.0695    6.3705   20.0375 N   0  0  0  0  0  0  0  0  0  0  0  0
    9.1913    8.0876   21.8361 N   0  0  0  0  0  0  0  0  0  0  0  0
   10.4739    9.4813   20.2889 C   0  0  0  0  0  0  0  0  0  0  0  0
    7.5551    7.1270   23.1200 O   0  0  0  0  0  0  0  0  0  0  0  0
  1 11  4  0
  1 21  4  0
  2  4  1  0
  2  8  1  0
  2 11  1  0
  3 10  4  0
  3 14  4  0
  4  5  1  0
  4 18  2  0
  6 12  1  0
  6 17  4  0
  6 23  4  0
  7  9  1  0
  7 13  4  0
  7 19  4  0
  9 20  1  0
 10 19  4  0
 11 25  4  0
 13 14  4  0
 15 16  4  0
 15 17  4  0
 15 21  4  0
 16 24  1  0
 16 25  4  0
 20 24  1  0
 20 26  2  0
 21 23  4  0
 22 23  1  0
M  END
$$$$

 Created by Python create_sdf_string function

 26 28  0  0  0  0  0  0  0  0999 V2000
   12.4616    8.6700   19.4180 N   0  0  0  0  0  0  0  0  0  0  0  0
   11.8329   10.8148   18.6769 N   0  0  0  0  0  0  0  0  0  0  0  0
    6.1021    2.5564   21.0678 C   0  0  0  0  0  0  0  0  0  0  0  0
   10.9097   11.8051   18.4804 C   0  0  0  0  0  0  0  0  0  0  0  0
   11.2280   12.9135   17.5669 C   0  0  0  0  0  0  0  0  0  0  0  0
   12.3782    5.4231   20.7777 C   0  0  0  0  0  0  0  0  0  0  0  0
    7.7365    4.6508   21.6987 C   0  0  0  0  0  0  0  0  0  0  0  0
   13.0186   11.0102   18.0020 C   0  0  0  0  0  0  0  0  0  0  0  0
    8.6628    5.7088   21.8871 N   0  0  0  0  0  0  0  0  0  0  0  0
    5.6516    3.5258   21.9140 C   0  0  0  0  0  0  0  0  0  0  0  0
   11.5863    9.6815   19.4539 C   0  0  0  0  0  0  0  0  0  0  0  0
   12.9648    4.1543   20.9205 C   0  0  0  0  0  0  0  0  0  0  0  0
    8.2089    3.6265   20.8929 C   0  0  0  0  0  0  0  0  0  0  0  0
    7.3827    2.5724   20.5432 C   0  0  0  0  0  0  0  0  0  0  0  0
   11.1529    7.2750   20.8025 C   0  0  0  0  0  0  0  0  0  0  0  0
   10.2573    8.3215   20.9827 C   0  0  0  0  0  0  0  0  0  0  0  0
   11.1606    5.9378   21.2366 N   0  0  0  0  0  0  0  0  0  0  0  0
    9.8932   11.6736   19.0677 O   0  0  0  0  0  0  0  0  0  0  0  0
    6.4470    4.5850   22.2321 C   0  0  0  0  0  0  0  0  0  0  0  0
    8.4619    6.9895   22.2968 C   0  0  0  0  0  0  0  0  0  0  0  0
   12.2747    7.5102   20.0420 C   0  0  0  0  0  0  0  0  0  0  0  0
   14.2544    6.2142   19.4191 C   0  0  0  0  0  0  0  0  0  0  0  0
   13.0695    6.3705   20.0375 N   0  0  0  0  0  0  0  0  0  0  0  0
    9.1913    8.0876   21.8361 N   0  0  0  0  0  0  0  0  0  0  0  0
   10.4739    9.4813   20.2889 C   0  0  0  0  0  0  0  0  0  0  0  0
    7.5551    7.1270   23.1200 O   0  0  0  0  0  0  0  0  0  0  0  0
  1 11  4  0
  1 21  4  0
  2  4  1  0
  2  8  1  0
  2 11  1  0
  3 10  4  0
  3 14  4  0
  4  5  1  0
  4 18  2  0
  6 12  1  0
  6 17  4  0
  6 23  4  0
  7  9  1  0
  7 13  4  0
  7 19  4  0
  9 20  1  0
 10 19  4  0
 11 25  4  0
 13 14  4  0
 15 16  4  0
 15 17  4  0
 15 21  4  0
 16 24  1  0
 16 25  4  0
 20 24  1  0
 20 26  2  0
 21 23  4  0
 22 23  1  0
M  END
$$$$

 Created by Python create_sdf_string function

 26 28  0  0  0  0  0  0  0  0999 V2000
   12.4616    8.6700   19.4180 N   0  0  0  0  0  0  0  0  0  0  0  0
   11.8329   10.8148   18.6769 N   0  0  0  0  0  0  0  0  0  0  0  0
    6.1021    2.5564   21.0678 C   0  0  0  0  0  0  0  0  0  0  0  0
   10.9097   11.8051   18.4804 C   0  0  0  0  0  0  0  0  0  0  0  0
   11.2280   12.9135   17.5669 C   0  0  0  0  0  0  0  0  0  0  0  0
   12.3782    5.4231   20.7777 C   0  0  0  0  0  0  0  0  0  0  0  0
    7.7365    4.6508   21.6987 C   0  0  0  0  0  0  0  0  0  0  0  0
   13.0186   11.0102   18.0020 C   0  0  0  0  0  0  0  0  0  0  0  0
    8.6628    5.7088   21.8871 N   0  0  0  0  0  0  0  0  0  0  0  0
    5.6516    3.5258   21.9140 C   0  0  0  0  0  0  0  0  0  0  0  0
   11.5863    9.6815   19.4539 C   0  0  0  0  0  0  0  0  0  0  0  0
   12.9648    4.1543   20.9205 C   0  0  0  0  0  0  0  0  0  0  0  0
    8.2089    3.6265   20.8929 C   0  0  0  0  0  0  0  0  0  0  0  0
    7.3827    2.5724   20.5432 C   0  0  0  0  0  0  0  0  0  0  0  0
   11.1529    7.2750   20.8025 C   0  0  0  0  0  0  0  0  0  0  0  0
   10.2573    8.3215   20.9827 C   0  0  0  0  0  0  0  0  0  0  0  0
   11.1606    5.9378   21.2366 N   0  0  0  0  0  0  0  0  0  0  0  0
    9.8932   11.6736   19.0677 O   0  0  0  0  0  0  0  0  0  0  0  0
    6.4470    4.5850   22.2321 C   0  0  0  0  0  0  0  0  0  0  0  0
    8.4619    6.9895   22.2968 C   0  0  0  0  0  0  0  0  0  0  0  0
   12.2747    7.5102   20.0420 C   0  0  0  0  0  0  0  0  0  0  0  0
   14.2544    6.2142   19.4191 C   0  0  0  0  0  0  0  0  0  0  0  0
   13.0695    6.3705   20.0375 N   0  0  0  0  0  0  0  0  0  0  0  0
    9.1913    8.0876   21.8361 N   0  0  0  0  0  0  0  0  0  0  0  0
   10.4739    9.4813   20.2889 C   0  0  0  0  0  0  0  0  0  0  0  0
    7.5551    7.1270   23.1200 O   0  0  0  0  0  0  0  0  0  0  0  0
  1 11  4  0
  1 21  4  0
  2  4  1  0
  2  8  1  0
  2 11  1  0
  3 10  4  0
  3 14  4  0
  4  5  1  0
  4 18  2  0
  6 12  1  0
  6 17  4  0
  6 23  4  0
  7  9  1  0
  7 13  4  0
  7 19  4  0
  9 20  1  0
 10 19  4  0
 11 25  4  0
 13 14  4  0
 15 16  4  0
 15 17  4  0
 15 21  4  0
 16 24  1  0
 16 25  4  0
 20 24  1  0
 20 26  2  0
 21 23  4  0
 22 23  1  0
M  END
$$$$

 Created by Python create_sdf_string function

 26 28  0  0  0  0  0  0  0  0999 V2000
   12.4616    8.6700   19.4180 N   0  0  0  0  0  0  0  0  0  0  0  0
   11.8329   10.8148   18.6769 N   0  0  0  0  0  0  0  0  0  0  0  0
    6.1021    2.5564   21.0678 C   0  0  0  0  0  0  0  0  0  0  0  0
   10.9097   11.8051   18.4804 C   0  0  0  0  0  0  0  0  0  0  0  0
   11.2280   12.9135   17.5669 C   0  0  0  0  0  0  0  0  0  0  0  0
   12.3782    5.4231   20.7777 C   0  0  0  0  0  0  0  0  0  0  0  0
    7.7365    4.6508   21.6987 C   0  0  0  0  0  0  0  0  0  0  0  0
   13.0186   11.0102   18.0020 C   0  0  0  0  0  0  0  0  0  0  0  0
    8.6628    5.7088   21.8871 N   0  0  0  0  0  0  0  0  0  0  0  0
    5.6516    3.5258   21.9140 C   0  0  0  0  0  0  0  0  0  0  0  0
   11.5863    9.6815   19.4539 C   0  0  0  0  0  0  0  0  0  0  0  0
   12.9648    4.1543   20.9205 C   0  0  0  0  0  0  0  0  0  0  0  0
    8.2089    3.6265   20.8929 C   0  0  0  0  0  0  0  0  0  0  0  0
    7.3827    2.5724   20.5432 C   0  0  0  0  0  0  0  0  0  0  0  0
   11.1529    7.2750   20.8025 C   0  0  0  0  0  0  0  0  0  0  0  0
   10.2573    8.3215   20.9827 C   0  0  0  0  0  0  0  0  0  0  0  0
   11.1606    5.9378   21.2366 N   0  0  0  0  0  0  0  0  0  0  0  0
    9.8932   11.6736   19.0677 O   0  0  0  0  0  0  0  0  0  0  0  0
    6.4470    4.5850   22.2321 C   0  0  0  0  0  0  0  0  0  0  0  0
    8.4619    6.9895   22.2968 C   0  0  0  0  0  0  0  0  0  0  0  0
   12.2747    7.5102   20.0420 C   0  0  0  0  0  0  0  0  0  0  0  0
   14.2544    6.2142   19.4191 C   0  0  0  0  0  0  0  0  0  0  0  0
   13.0695    6.3705   20.0375 N   0  0  0  0  0  0  0  0  0  0  0  0
    9.1913    8.0876   21.8361 N   0  0  0  0  0  0  0  0  0  0  0  0
   10.4739    9.4813   20.2889 C   0  0  0  0  0  0  0  0  0  0  0  0
    7.5551    7.1270   23.1200 O   0  0  0  0  0  0  0  0  0  0  0  0
  1 11  4  0
  1 21  4  0
  2  4  1  0
  2  8  1  0
  2 11  1  0
  3 10  4  0
  3 14  4  0
  4  5  1  0
  4 18  2  0
  6 12  1  0
  6 17  4  0
  6 23  4  0
  7  9  1  0
  7 13  4  0
  7 19  4  0
  9 20  1  0
 10 19  4  0
 11 25  4  0
 13 14  4  0
 15 16  4  0
 15 17  4  0
 15 21  4  0
 16 24  1  0
 16 25  4  0
 20 24  1  0
 20 26  2  0
 21 23  4  0
 22 23  1  0
M  END
$$$$

 Created by Python create_sdf_string function

 26 28  0  0  0  0  0  0  0  0999 V2000
   12.4616    8.6700   19.4180 N   0  0  0  0  0  0  0  0  0  0  0  0
   11.8329   10.8148   18.6769 N   0  0  0  0  0  0  0  0  0  0  0  0
    6.1021    2.5564   21.0678 C   0  0  0  0  0  0  0  0  0  0  0  0
   10.9097   11.8051   18.4804 C   0  0  0  0  0  0  0  0  0  0  0  0
   11.2280   12.9135   17.5669 C   0  0  0  0  0  0  0  0  0  0  0  0
   12.3782    5.4231   20.7777 C   0  0  0  0  0  0  0  0  0  0  0  0
    7.7365    4.6508   21.6987 C   0  0  0  0  0  0  0  0  0  0  0  0
   13.0186   11.0102   18.0020 C   0  0  0  0  0  0  0  0  0  0  0  0
    8.6628    5.7088   21.8871 N   0  0  0  0  0  0  0  0  0  0  0  0
    5.6516    3.5258   21.9140 C   0  0  0  0  0  0  0  0  0  0  0  0
   11.5863    9.6815   19.4539 C   0  0  0  0  0  0  0  0  0  0  0  0
   12.9648    4.1543   20.9205 C   0  0  0  0  0  0  0  0  0  0  0  0
    8.2089    3.6265   20.8929 C   0  0  0  0  0  0  0  0  0  0  0  0
    7.3827    2.5724   20.5432 C   0  0  0  0  0  0  0  0  0  0  0  0
   11.1529    7.2750   20.8025 C   0  0  0  0  0  0  0  0  0  0  0  0
   10.2573    8.3215   20.9827 C   0  0  0  0  0  0  0  0  0  0  0  0
   11.1606    5.9378   21.2366 N   0  0  0  0  0  0  0  0  0  0  0  0
    9.8932   11.6736   19.0677 O   0  0  0  0  0  0  0  0  0  0  0  0
    6.4470    4.5850   22.2321 C   0  0  0  0  0  0  0  0  0  0  0  0
    8.4619    6.9895   22.2968 C   0  0  0  0  0  0  0  0  0  0  0  0
   12.2747    7.5102   20.0420 C   0  0  0  0  0  0  0  0  0  0  0  0
   14.2544    6.2142   19.4191 C   0  0  0  0  0  0  0  0  0  0  0  0
   13.0695    6.3705   20.0375 N   0  0  0  0  0  0  0  0  0  0  0  0
    9.1913    8.0876   21.8361 N   0  0  0  0  0  0  0  0  0  0  0  0
   10.4739    9.4813   20.2889 C   0  0  0  0  0  0  0  0  0  0  0  0
    7.5551    7.1270   23.1200 O   0  0  0  0  0  0  0  0  0  0  0  0
  1 11  4  0
  1 21  4  0
  2  4  1  0
  2  8  1  0
  2 11  1  0
  3 10  4  0
  3 14  4  0
  4  5  1  0
  4 18  2  0
  6 12  1  0
  6 17  4  0
  6 23  4  0
  7  9  1  0
  7 13  4  0
  7 19  4  0
  9 20  1  0
 10 19  4  0
 11 25  4  0
 13 14  4  0
 15 16  4  0
 15 17  4  0
 15 21  4  0
 16 24  1  0
 16 25  4  0
 20 24  1  0
 20 26  2  0
 21 23  4  0
 22 23  1  0
M  END
$$$$

 Created by Python create_sdf_string function

 26 28  0  0  0  0  0  0  0  0999 V2000
   12.4616    8.6700   19.4180 N   0  0  0  0  0  0  0  0  0  0  0  0
   11.8329   10.8148   18.6769 N   0  0  0  0  0  0  0  0  0  0  0  0
    6.1021    2.5564   21.0678 C   0  0  0  0  0  0  0  0  0  0  0  0
   10.9097   11.8051   18.4804 C   0  0  0  0  0  0  0  0  0  0  0  0
   11.2280   12.9135   17.5669 C   0  0  0  0  0  0  0  0  0  0  0  0
   12.3782    5.4231   20.7777 C   0  0  0  0  0  0  0  0  0  0  0  0
    7.7365    4.6508   21.6987 C   0  0  0  0  0  0  0  0  0  0  0  0
   13.0186   11.0102   18.0020 C   0  0  0  0  0  0  0  0  0  0  0  0
    8.6628    5.7088   21.8871 N   0  0  0  0  0  0  0  0  0  0  0  0
    5.6516    3.5258   21.9140 C   0  0  0  0  0  0  0  0  0  0  0  0
   11.5863    9.6815   19.4539 C   0  0  0  0  0  0  0  0  0  0  0  0
   12.9648    4.1543   20.9205 C   0  0  0  0  0  0  0  0  0  0  0  0
    8.2089    3.6265   20.8929 C   0  0  0  0  0  0  0  0  0  0  0  0
    7.3827    2.5724   20.5432 C   0  0  0  0  0  0  0  0  0  0  0  0
   11.1529    7.2750   20.8025 C   0  0  0  0  0  0  0  0  0  0  0  0
   10.2573    8.3215   20.9827 C   0  0  0  0  0  0  0  0  0  0  0  0
   11.1606    5.9378   21.2366 N   0  0  0  0  0  0  0  0  0  0  0  0
    9.8932   11.6736   19.0677 O   0  0  0  0  0  0  0  0  0  0  0  0
    6.4470    4.5850   22.2321 C   0  0  0  0  0  0  0  0  0  0  0  0
    8.4619    6.9895   22.2968 C   0  0  0  0  0  0  0  0  0  0  0  0
   12.2747    7.5102   20.0420 C   0  0  0  0  0  0  0  0  0  0  0  0
   14.2544    6.2142   19.4191 C   0  0  0  0  0  0  0  0  0  0  0  0
   13.0695    6.3705   20.0375 N   0  0  0  0  0  0  0  0  0  0  0  0
    9.1913    8.0876   21.8361 N   0  0  0  0  0  0  0  0  0  0  0  0
   10.4739    9.4813   20.2889 C   0  0  0  0  0  0  0  0  0  0  0  0
    7.5551    7.1270   23.1200 O   0  0  0  0  0  0  0  0  0  0  0  0
  1 11  4  0
  1 21  4  0
  2  4  1  0
  2  8  1  0
  2 11  1  0
  3 10  4  0
  3 14  4  0
  4  5  1  0
  4 18  2  0
  6 12  1  0
  6 17  4  0
  6 23  4  0
  7  9  1  0
  7 13  4  0
  7 19  4  0
  9 20  1  0
 10 19  4  0
 11 25  4  0
 13 14  4  0
 15 16  4  0
 15 17  4  0
 15 21  4  0
 16 24  1  0
 16 25  4  0
 20 24  1  0
 20 26  2  0
 21 23  4  0
 22 23  1  0
M  END
$$$$

 Created by Python create_sdf_string function

 26 28  0  0  0  0  0  0  0  0999 V2000
   12.4616    8.6700   19.4180 N   0  0  0  0  0  0  0  0  0  0  0  0
   11.8329   10.8148   18.6769 N   0  0  0  0  0  0  0  0  0  0  0  0
    6.1021    2.5564   21.0678 C   0  0  0  0  0  0  0  0  0  0  0  0
   10.9097   11.8051   18.4804 C   0  0  0  0  0  0  0  0  0  0  0  0
   11.2280   12.9135   17.5669 C   0  0  0  0  0  0  0  0  0  0  0  0
   12.3782    5.4231   20.7777 C   0  0  0  0  0  0  0  0  0  0  0  0
    7.7365    4.6508   21.6987 C   0  0  0  0  0  0  0  0  0  0  0  0
   13.0186   11.0102   18.0020 C   0  0  0  0  0  0  0  0  0  0  0  0
    8.6628    5.7088   21.8871 N   0  0  0  0  0  0  0  0  0  0  0  0
    5.6516    3.5258   21.9140 C   0  0  0  0  0  0  0  0  0  0  0  0
   11.5863    9.6815   19.4539 C   0  0  0  0  0  0  0  0  0  0  0  0
   12.9648    4.1543   20.9205 C   0  0  0  0  0  0  0  0  0  0  0  0
    8.2089    3.6265   20.8929 C   0  0  0  0  0  0  0  0  0  0  0  0
    7.3827    2.5724   20.5432 C   0  0  0  0  0  0  0  0  0  0  0  0
   11.1529    7.2750   20.8025 C   0  0  0  0  0  0  0  0  0  0  0  0
   10.2573    8.3215   20.9827 C   0  0  0  0  0  0  0  0  0  0  0  0
   11.1606    5.9378   21.2366 N   0  0  0  0  0  0  0  0  0  0  0  0
    9.8932   11.6736   19.0677 O   0  0  0  0  0  0  0  0  0  0  0  0
    6.4470    4.5850   22.2321 C   0  0  0  0  0  0  0  0  0  0  0  0
    8.4619    6.9895   22.2968 C   0  0  0  0  0  0  0  0  0  0  0  0
   12.2747    7.5102   20.0420 C   0  0  0  0  0  0  0  0  0  0  0  0
   14.2544    6.2142   19.4191 C   0  0  0  0  0  0  0  0  0  0  0  0
   13.0695    6.3705   20.0375 N   0  0  0  0  0  0  0  0  0  0  0  0
    9.1913    8.0876   21.8361 N   0  0  0  0  0  0  0  0  0  0  0  0
   10.4739    9.4813   20.2889 C   0  0  0  0  0  0  0  0  0  0  0  0
    7.5551    7.1270   23.1200 O   0  0  0  0  0  0  0  0  0  0  0  0
  1 11  4  0
  1 21  4  0
  2  4  1  0
  2  8  1  0
  2 11  1  0
  3 10  4  0
  3 14  4  0
  4  5  1  0
  4 18  2  0
  6 12  1  0
  6 17  4  0
  6 23  4  0
  7  9  1  0
  7 13  4  0
  7 19  4  0
  9 20  1  0
 10 19  4  0
 11 25  4  0
 13 14  4  0
 15 16  4  0
 15 17  4  0
 15 21  4  0
 16 24  1  0
 16 25  4  0
 20 24  1  0
 20 26  2  0
 21 23  4  0
 22 23  1  0
M  END
$$$$

 Created by Python create_sdf_string function

 26 28  0  0  0  0  0  0  0  0999 V2000
   12.4616    8.6700   19.4180 N   0  0  0  0  0  0  0  0  0  0  0  0
   11.8329   10.8148   18.6769 N   0  0  0  0  0  0  0  0  0  0  0  0
    6.1021    2.5564   21.0678 C   0  0  0  0  0  0  0  0  0  0  0  0
   10.9097   11.8051   18.4804 C   0  0  0  0  0  0  0  0  0  0  0  0
   11.2280   12.9135   17.5669 C   0  0  0  0  0  0  0  0  0  0  0  0
   12.3782    5.4231   20.7777 C   0  0  0  0  0  0  0  0  0  0  0  0
    7.7365    4.6508   21.6987 C   0  0  0  0  0  0  0  0  0  0  0  0
   13.0186   11.0102   18.0020 C   0  0  0  0  0  0  0  0  0  0  0  0
    8.6628    5.7088   21.8871 N   0  0  0  0  0  0  0  0  0  0  0  0
    5.6516    3.5258   21.9140 C   0  0  0  0  0  0  0  0  0  0  0  0
   11.5863    9.6815   19.4539 C   0  0  0  0  0  0  0  0  0  0  0  0
   12.9648    4.1543   20.9205 C   0  0  0  0  0  0  0  0  0  0  0  0
    8.2089    3.6265   20.8929 C   0  0  0  0  0  0  0  0  0  0  0  0
    7.3827    2.5724   20.5432 C   0  0  0  0  0  0  0  0  0  0  0  0
   11.1529    7.2750   20.8025 C   0  0  0  0  0  0  0  0  0  0  0  0
   10.2573    8.3215   20.9827 C   0  0  0  0  0  0  0  0  0  0  0  0
   11.1606    5.9378   21.2366 N   0  0  0  0  0  0  0  0  0  0  0  0
    9.8932   11.6736   19.0677 O   0  0  0  0  0  0  0  0  0  0  0  0
    6.4470    4.5850   22.2321 C   0  0  0  0  0  0  0  0  0  0  0  0
    8.4619    6.9895   22.2968 C   0  0  0  0  0  0  0  0  0  0  0  0
   12.2747    7.5102   20.0420 C   0  0  0  0  0  0  0  0  0  0  0  0
   14.2544    6.2142   19.4191 C   0  0  0  0  0  0  0  0  0  0  0  0
   13.0695    6.3705   20.0375 N   0  0  0  0  0  0  0  0  0  0  0  0
    9.1913    8.0876   21.8361 N   0  0  0  0  0  0  0  0  0  0  0  0
   10.4739    9.4813   20.2889 C   0  0  0  0  0  0  0  0  0  0  0  0
    7.5551    7.1270   23.1200 O   0  0  0  0  0  0  0  0  0  0  0  0
  1 11  4  0
  1 21  4  0
  2  4  1  0
  2  8  1  0
  2 11  1  0
  3 10  4  0
  3 14  4  0
  4  5  1  0
  4 18  2  0
  6 12  1  0
  6 17  4  0
  6 23  4  0
  7  9  1  0
  7 13  4  0
  7 19  4  0
  9 20  1  0
 10 19  4  0
 11 25  4  0
 13 14  4  0
 15 16  4  0
 15 17  4  0
 15 21  4  0
 16 24  1  0
 16 25  4  0
 20 24  1  0
 20 26  2  0
 21 23  4  0
 22 23  1  0
M  END
$$$$

 Created by Python create_sdf_string function

 26 28  0  0  0  0  0  0  0  0999 V2000
   12.4616    8.6700   19.4180 N   0  0  0  0  0  0  0  0  0  0  0  0
   11.8329   10.8148   18.6769 N   0  0  0  0  0  0  0  0  0  0  0  0
    6.1021    2.5564   21.0678 C   0  0  0  0  0  0  0  0  0  0  0  0
   10.9097   11.8051   18.4804 C   0  0  0  0  0  0  0  0  0  0  0  0
   11.2280   12.9135   17.5669 C   0  0  0  0  0  0  0  0  0  0  0  0
   12.3782    5.4231   20.7777 C   0  0  0  0  0  0  0  0  0  0  0  0
    7.7365    4.6508   21.6987 C   0  0  0  0  0  0  0  0  0  0  0  0
   13.0186   11.0102   18.0020 C   0  0  0  0  0  0  0  0  0  0  0  0
    8.6628    5.7088   21.8871 N   0  0  0  0  0  0  0  0  0  0  0  0
    5.6516    3.5258   21.9140 C   0  0  0  0  0  0  0  0  0  0  0  0
   11.5863    9.6815   19.4539 C   0  0  0  0  0  0  0  0  0  0  0  0
   12.9648    4.1543   20.9205 C   0  0  0  0  0  0  0  0  0  0  0  0
    8.2089    3.6265   20.8929 C   0  0  0  0  0  0  0  0  0  0  0  0
    7.3827    2.5724   20.5432 C   0  0  0  0  0  0  0  0  0  0  0  0
   11.1529    7.2750   20.8025 C   0  0  0  0  0  0  0  0  0  0  0  0
   10.2573    8.3215   20.9827 C   0  0  0  0  0  0  0  0  0  0  0  0
   11.1606    5.9378   21.2366 N   0  0  0  0  0  0  0  0  0  0  0  0
    9.8932   11.6736   19.0677 O   0  0  0  0  0  0  0  0  0  0  0  0
    6.4470    4.5850   22.2321 C   0  0  0  0  0  0  0  0  0  0  0  0
    8.4619    6.9895   22.2968 C   0  0  0  0  0  0  0  0  0  0  0  0
   12.2747    7.5102   20.0420 C   0  0  0  0  0  0  0  0  0  0  0  0
   14.2544    6.2142   19.4191 C   0  0  0  0  0  0  0  0  0  0  0  0
   13.0695    6.3705   20.0375 N   0  0  0  0  0  0  0  0  0  0  0  0
    9.1913    8.0876   21.8361 N   0  0  0  0  0  0  0  0  0  0  0  0
   10.4739    9.4813   20.2889 C   0  0  0  0  0  0  0  0  0  0  0  0
    7.5551    7.1270   23.1200 O   0  0  0  0  0  0  0  0  0  0  0  0
  1 11  4  0
  1 21  4  0
  2  4  1  0
  2  8  1  0
  2 11  1  0
  3 10  4  0
  3 14  4  0
  4  5  1  0
  4 18  2  0
  6 12  1  0
  6 17  4  0
  6 23  4  0
  7  9  1  0
  7 13  4  0
  7 19  4  0
  9 20  1  0
 10 19  4  0
 11 25  4  0
 13 14  4  0
 15 16  4  0
 15 17  4  0
 15 21  4  0
 16 24  1  0
 16 25  4  0
 20 24  1  0
 20 26  2  0
 21 23  4  0
 22 23  1  0
M  END
$$$$

 Created by Python create_sdf_string function

 26 28  0  0  0  0  0  0  0  0999 V2000
   12.4616    8.6700   19.4180 N   0  0  0  0  0  0  0  0  0  0  0  0
   11.8329   10.8148   18.6769 N   0  0  0  0  0  0  0  0  0  0  0  0
    6.1021    2.5564   21.0678 C   0  0  0  0  0  0  0  0  0  0  0  0
   10.9097   11.8051   18.4804 C   0  0  0  0  0  0  0  0  0  0  0  0
   11.2280   12.9135   17.5669 C   0  0  0  0  0  0  0  0  0  0  0  0
   12.3782    5.4231   20.7777 C   0  0  0  0  0  0  0  0  0  0  0  0
    7.7365    4.6508   21.6987 C   0  0  0  0  0  0  0  0  0  0  0  0
   13.0186   11.0102   18.0020 C   0  0  0  0  0  0  0  0  0  0  0  0
    8.6628    5.7088   21.8871 N   0  0  0  0  0  0  0  0  0  0  0  0
    5.6516    3.5258   21.9140 C   0  0  0  0  0  0  0  0  0  0  0  0
   11.5863    9.6815   19.4539 C   0  0  0  0  0  0  0  0  0  0  0  0
   12.9648    4.1543   20.9205 C   0  0  0  0  0  0  0  0  0  0  0  0
    8.2089    3.6265   20.8929 C   0  0  0  0  0  0  0  0  0  0  0  0
    7.3827    2.5724   20.5432 C   0  0  0  0  0  0  0  0  0  0  0  0
   11.1529    7.2750   20.8025 C   0  0  0  0  0  0  0  0  0  0  0  0
   10.2573    8.3215   20.9827 C   0  0  0  0  0  0  0  0  0  0  0  0
   11.1606    5.9378   21.2366 N   0  0  0  0  0  0  0  0  0  0  0  0
    9.8932   11.6736   19.0677 O   0  0  0  0  0  0  0  0  0  0  0  0
    6.4470    4.5850   22.2321 C   0  0  0  0  0  0  0  0  0  0  0  0
    8.4619    6.9895   22.2968 C   0  0  0  0  0  0  0  0  0  0  0  0
   12.2747    7.5102   20.0420 C   0  0  0  0  0  0  0  0  0  0  0  0
   14.2544    6.2142   19.4191 C   0  0  0  0  0  0  0  0  0  0  0  0
   13.0695    6.3705   20.0375 N   0  0  0  0  0  0  0  0  0  0  0  0
    9.1913    8.0876   21.8361 N   0  0  0  0  0  0  0  0  0  0  0  0
   10.4739    9.4813   20.2889 C   0  0  0  0  0  0  0  0  0  0  0  0
    7.5551    7.1270   23.1200 O   0  0  0  0  0  0  0  0  0  0  0  0
  1 11  4  0
  1 21  4  0
  2  4  1  0
  2  8  1  0
  2 11  1  0
  3 10  4  0
  3 14  4  0
  4  5  1  0
  4 18  2  0
  6 12  1  0
  6 17  4  0
  6 23  4  0
  7  9  1  0
  7 13  4  0
  7 19  4  0
  9 20  1  0
 10 19  4  0
 11 25  4  0
 13 14  4  0
 15 16  4  0
 15 17  4  0
 15 21  4  0
 16 24  1  0
 16 25  4  0
 20 24  1  0
 20 26  2  0
 21 23  4  0
 22 23  1  0
M  END
$$$$

 Created by Python create_sdf_string function

 26 28  0  0  0  0  0  0  0  0999 V2000
   12.4616    8.6700   19.4180 N   0  0  0  0  0  0  0  0  0  0  0  0
   11.8329   10.8148   18.6769 N   0  0  0  0  0  0  0  0  0  0  0  0
    6.1021    2.5564   21.0678 C   0  0  0  0  0  0  0  0  0  0  0  0
   10.9097   11.8051   18.4804 C   0  0  0  0  0  0  0  0  0  0  0  0
   11.2280   12.9135   17.5669 C   0  0  0  0  0  0  0  0  0  0  0  0
   12.3782    5.4231   20.7777 C   0  0  0  0  0  0  0  0  0  0  0  0
    7.7365    4.6508   21.6987 C   0  0  0  0  0  0  0  0  0  0  0  0
   13.0186   11.0102   18.0020 C   0  0  0  0  0  0  0  0  0  0  0  0
    8.6628    5.7088   21.8871 N   0  0  0  0  0  0  0  0  0  0  0  0
    5.6516    3.5258   21.9140 C   0  0  0  0  0  0  0  0  0  0  0  0
   11.5863    9.6815   19.4539 C   0  0  0  0  0  0  0  0  0  0  0  0
   12.9648    4.1543   20.9205 C   0  0  0  0  0  0  0  0  0  0  0  0
    8.2089    3.6265   20.8929 C   0  0  0  0  0  0  0  0  0  0  0  0
    7.3827    2.5724   20.5432 C   0  0  0  0  0  0  0  0  0  0  0  0
   11.1529    7.2750   20.8025 C   0  0  0  0  0  0  0  0  0  0  0  0
   10.2573    8.3215   20.9827 C   0  0  0  0  0  0  0  0  0  0  0  0
   11.1606    5.9378   21.2366 N   0  0  0  0  0  0  0  0  0  0  0  0
    9.8932   11.6736   19.0677 O   0  0  0  0  0  0  0  0  0  0  0  0
    6.4470    4.5850   22.2321 C   0  0  0  0  0  0  0  0  0  0  0  0
    8.4619    6.9895   22.2968 C   0  0  0  0  0  0  0  0  0  0  0  0
   12.2747    7.5102   20.0420 C   0  0  0  0  0  0  0  0  0  0  0  0
   14.2544    6.2142   19.4191 C   0  0  0  0  0  0  0  0  0  0  0  0
   13.0695    6.3705   20.0375 N   0  0  0  0  0  0  0  0  0  0  0  0
    9.1913    8.0876   21.8361 N   0  0  0  0  0  0  0  0  0  0  0  0
   10.4739    9.4813   20.2889 C   0  0  0  0  0  0  0  0  0  0  0  0
    7.5551    7.1270   23.1200 O   0  0  0  0  0  0  0  0  0  0  0  0
  1 11  4  0
  1 21  4  0
  2  4  1  0
  2  8  1  0
  2 11  1  0
  3 10  4  0
  3 14  4  0
  4  5  1  0
  4 18  2  0
  6 12  1  0
  6 17  4  0
  6 23  4  0
  7  9  1  0
  7 13  4  0
  7 19  4  0
  9 20  1  0
 10 19  4  0
 11 25  4  0
 13 14  4  0
 15 16  4  0
 15 17  4  0
 15 21  4  0
 16 24  1  0
 16 25  4  0
 20 24  1  0
 20 26  2  0
 21 23  4  0
 22 23  1  0
M  END
$$$$

 Created by Python create_sdf_string function

 26 28  0  0  0  0  0  0  0  0999 V2000
   12.4616    8.6700   19.4180 N   0  0  0  0  0  0  0  0  0  0  0  0
   11.8329   10.8148   18.6769 N   0  0  0  0  0  0  0  0  0  0  0  0
    6.1021    2.5564   21.0678 C   0  0  0  0  0  0  0  0  0  0  0  0
   10.9097   11.8051   18.4804 C   0  0  0  0  0  0  0  0  0  0  0  0
   11.2280   12.9135   17.5669 C   0  0  0  0  0  0  0  0  0  0  0  0
   12.3782    5.4231   20.7777 C   0  0  0  0  0  0  0  0  0  0  0  0
    7.7365    4.6508   21.6987 C   0  0  0  0  0  0  0  0  0  0  0  0
   13.0186   11.0102   18.0020 C   0  0  0  0  0  0  0  0  0  0  0  0
    8.6628    5.7088   21.8871 N   0  0  0  0  0  0  0  0  0  0  0  0
    5.6516    3.5258   21.9140 C   0  0  0  0  0  0  0  0  0  0  0  0
   11.5863    9.6815   19.4539 C   0  0  0  0  0  0  0  0  0  0  0  0
   12.9648    4.1543   20.9205 C   0  0  0  0  0  0  0  0  0  0  0  0
    8.2089    3.6265   20.8929 C   0  0  0  0  0  0  0  0  0  0  0  0
    7.3827    2.5724   20.5432 C   0  0  0  0  0  0  0  0  0  0  0  0
   11.1529    7.2750   20.8025 C   0  0  0  0  0  0  0  0  0  0  0  0
   10.2573    8.3215   20.9827 C   0  0  0  0  0  0  0  0  0  0  0  0
   11.1606    5.9378   21.2366 N   0  0  0  0  0  0  0  0  0  0  0  0
    9.8932   11.6736   19.0677 O   0  0  0  0  0  0  0  0  0  0  0  0
    6.4470    4.5850   22.2321 C   0  0  0  0  0  0  0  0  0  0  0  0
    8.4619    6.9895   22.2968 C   0  0  0  0  0  0  0  0  0  0  0  0
   12.2747    7.5102   20.0420 C   0  0  0  0  0  0  0  0  0  0  0  0
   14.2544    6.2142   19.4191 C   0  0  0  0  0  0  0  0  0  0  0  0
   13.0695    6.3705   20.0375 N   0  0  0  0  0  0  0  0  0  0  0  0
    9.1913    8.0876   21.8361 N   0  0  0  0  0  0  0  0  0  0  0  0
   10.4739    9.4813   20.2889 C   0  0  0  0  0  0  0  0  0  0  0  0
    7.5551    7.1270   23.1200 O   0  0  0  0  0  0  0  0  0  0  0  0
  1 11  4  0
  1 21  4  0
  2  4  1  0
  2  8  1  0
  2 11  1  0
  3 10  4  0
  3 14  4  0
  4  5  1  0
  4 18  2  0
  6 12  1  0
  6 17  4  0
  6 23  4  0
  7  9  1  0
  7 13  4  0
  7 19  4  0
  9 20  1  0
 10 19  4  0
 11 25  4  0
 13 14  4  0
 15 16  4  0
 15 17  4  0
 15 21  4  0
 16 24  1  0
 16 25  4  0
 20 24  1  0
 20 26  2  0
 21 23  4  0
 22 23  1  0
M  END
$$$$

 Created by Python create_sdf_string function

 26 28  0  0  0  0  0  0  0  0999 V2000
   12.4616    8.6700   19.4180 N   0  0  0  0  0  0  0  0  0  0  0  0
   11.8329   10.8148   18.6769 N   0  0  0  0  0  0  0  0  0  0  0  0
    6.1021    2.5564   21.0678 C   0  0  0  0  0  0  0  0  0  0  0  0
   10.9097   11.8051   18.4804 C   0  0  0  0  0  0  0  0  0  0  0  0
   11.2280   12.9135   17.5669 C   0  0  0  0  0  0  0  0  0  0  0  0
   12.3782    5.4231   20.7777 C   0  0  0  0  0  0  0  0  0  0  0  0
    7.7365    4.6508   21.6987 C   0  0  0  0  0  0  0  0  0  0  0  0
   13.0186   11.0102   18.0020 C   0  0  0  0  0  0  0  0  0  0  0  0
    8.6628    5.7088   21.8871 N   0  0  0  0  0  0  0  0  0  0  0  0
    5.6516    3.5258   21.9140 C   0  0  0  0  0  0  0  0  0  0  0  0
   11.5863    9.6815   19.4539 C   0  0  0  0  0  0  0  0  0  0  0  0
   12.9648    4.1543   20.9205 C   0  0  0  0  0  0  0  0  0  0  0  0
    8.2089    3.6265   20.8929 C   0  0  0  0  0  0  0  0  0  0  0  0
    7.3827    2.5724   20.5432 C   0  0  0  0  0  0  0  0  0  0  0  0
   11.1529    7.2750   20.8025 C   0  0  0  0  0  0  0  0  0  0  0  0
   10.2573    8.3215   20.9827 C   0  0  0  0  0  0  0  0  0  0  0  0
   11.1606    5.9378   21.2366 N   0  0  0  0  0  0  0  0  0  0  0  0
    9.8932   11.6736   19.0677 O   0  0  0  0  0  0  0  0  0  0  0  0
    6.4470    4.5850   22.2321 C   0  0  0  0  0  0  0  0  0  0  0  0
    8.4619    6.9895   22.2968 C   0  0  0  0  0  0  0  0  0  0  0  0
   12.2747    7.5102   20.0420 C   0  0  0  0  0  0  0  0  0  0  0  0
   14.2544    6.2142   19.4191 C   0  0  0  0  0  0  0  0  0  0  0  0
   13.0695    6.3705   20.0375 N   0  0  0  0  0  0  0  0  0  0  0  0
    9.1913    8.0876   21.8361 N   0  0  0  0  0  0  0  0  0  0  0  0
   10.4739    9.4813   20.2889 C   0  0  0  0  0  0  0  0  0  0  0  0
    7.5551    7.1270   23.1200 O   0  0  0  0  0  0  0  0  0  0  0  0
  1 11  4  0
  1 21  4  0
  2  4  1  0
  2  8  1  0
  2 11  1  0
  3 10  4  0
  3 14  4  0
  4  5  1  0
  4 18  2  0
  6 12  1  0
  6 17  4  0
  6 23  4  0
  7  9  1  0
  7 13  4  0
  7 19  4  0
  9 20  1  0
 10 19  4  0
 11 25  4  0
 13 14  4  0
 15 16  4  0
 15 17  4  0
 15 21  4  0
 16 24  1  0
 16 25  4  0
 20 24  1  0
 20 26  2  0
 21 23  4  0
 22 23  1  0
M  END
$$$$

 Created by Python create_sdf_string function

 26 28  0  0  0  0  0  0  0  0999 V2000
   12.4616    8.6700   19.4180 N   0  0  0  0  0  0  0  0  0  0  0  0
   11.8329   10.8148   18.6769 N   0  0  0  0  0  0  0  0  0  0  0  0
    6.1021    2.5564   21.0678 C   0  0  0  0  0  0  0  0  0  0  0  0
   10.9097   11.8051   18.4804 C   0  0  0  0  0  0  0  0  0  0  0  0
   11.2280   12.9135   17.5669 C   0  0  0  0  0  0  0  0  0  0  0  0
   12.3782    5.4231   20.7777 C   0  0  0  0  0  0  0  0  0  0  0  0
    7.7365    4.6508   21.6987 C   0  0  0  0  0  0  0  0  0  0  0  0
   13.0186   11.0102   18.0020 C   0  0  0  0  0  0  0  0  0  0  0  0
    8.6628    5.7088   21.8871 N   0  0  0  0  0  0  0  0  0  0  0  0
    5.6516    3.5258   21.9140 C   0  0  0  0  0  0  0  0  0  0  0  0
   11.5863    9.6815   19.4539 C   0  0  0  0  0  0  0  0  0  0  0  0
   12.9648    4.1543   20.9205 C   0  0  0  0  0  0  0  0  0  0  0  0
    8.2089    3.6265   20.8929 C   0  0  0  0  0  0  0  0  0  0  0  0
    7.3827    2.5724   20.5432 C   0  0  0  0  0  0  0  0  0  0  0  0
   11.1529    7.2750   20.8025 C   0  0  0  0  0  0  0  0  0  0  0  0
   10.2573    8.3215   20.9827 C   0  0  0  0  0  0  0  0  0  0  0  0
   11.1606    5.9378   21.2366 N   0  0  0  0  0  0  0  0  0  0  0  0
    9.8932   11.6736   19.0677 O   0  0  0  0  0  0  0  0  0  0  0  0
    6.4470    4.5850   22.2321 C   0  0  0  0  0  0  0  0  0  0  0  0
    8.4619    6.9895   22.2968 C   0  0  0  0  0  0  0  0  0  0  0  0
   12.2747    7.5102   20.0420 C   0  0  0  0  0  0  0  0  0  0  0  0
   14.2544    6.2142   19.4191 C   0  0  0  0  0  0  0  0  0  0  0  0
   13.0695    6.3705   20.0375 N   0  0  0  0  0  0  0  0  0  0  0  0
    9.1913    8.0876   21.8361 N   0  0  0  0  0  0  0  0  0  0  0  0
   10.4739    9.4813   20.2889 C   0  0  0  0  0  0  0  0  0  0  0  0
    7.5551    7.1270   23.1200 O   0  0  0  0  0  0  0  0  0  0  0  0
  1 11  4  0
  1 21  4  0
  2  4  1  0
  2  8  1  0
  2 11  1  0
  3 10  4  0
  3 14  4  0
  4  5  1  0
  4 18  2  0
  6 12  1  0
  6 17  4  0
  6 23  4  0
  7  9  1  0
  7 13  4  0
  7 19  4  0
  9 20  1  0
 10 19  4  0
 11 25  4  0
 13 14  4  0
 15 16  4  0
 15 17  4  0
 15 21  4  0
 16 24  1  0
 16 25  4  0
 20 24  1  0
 20 26  2  0
 21 23  4  0
 22 23  1  0
M  END
$$$$

 Created by Python create_sdf_string function

 26 28  0  0  0  0  0  0  0  0999 V2000
   12.4616    8.6700   19.4180 N   0  0  0  0  0  0  0  0  0  0  0  0
   11.8329   10.8148   18.6769 N   0  0  0  0  0  0  0  0  0  0  0  0
    6.1021    2.5564   21.0678 C   0  0  0  0  0  0  0  0  0  0  0  0
   10.9097   11.8051   18.4804 C   0  0  0  0  0  0  0  0  0  0  0  0
   11.2280   12.9135   17.5669 C   0  0  0  0  0  0  0  0  0  0  0  0
   12.3782    5.4231   20.7777 C   0  0  0  0  0  0  0  0  0  0  0  0
    7.7365    4.6508   21.6987 C   0  0  0  0  0  0  0  0  0  0  0  0
   13.0186   11.0102   18.0020 C   0  0  0  0  0  0  0  0  0  0  0  0
    8.6628    5.7088   21.8871 N   0  0  0  0  0  0  0  0  0  0  0  0
    5.6516    3.5258   21.9140 C   0  0  0  0  0  0  0  0  0  0  0  0
   11.5863    9.6815   19.4539 C   0  0  0  0  0  0  0  0  0  0  0  0
   12.9648    4.1543   20.9205 C   0  0  0  0  0  0  0  0  0  0  0  0
    8.2089    3.6265   20.8929 C   0  0  0  0  0  0  0  0  0  0  0  0
    7.3827    2.5724   20.5432 C   0  0  0  0  0  0  0  0  0  0  0  0
   11.1529    7.2750   20.8025 C   0  0  0  0  0  0  0  0  0  0  0  0
   10.2573    8.3215   20.9827 C   0  0  0  0  0  0  0  0  0  0  0  0
   11.1606    5.9378   21.2366 N   0  0  0  0  0  0  0  0  0  0  0  0
    9.8932   11.6736   19.0677 O   0  0  0  0  0  0  0  0  0  0  0  0
    6.4470    4.5850   22.2321 C   0  0  0  0  0  0  0  0  0  0  0  0
    8.4619    6.9895   22.2968 C   0  0  0  0  0  0  0  0  0  0  0  0
   12.2747    7.5102   20.0420 C   0  0  0  0  0  0  0  0  0  0  0  0
   14.2544    6.2142   19.4191 C   0  0  0  0  0  0  0  0  0  0  0  0
   13.0695    6.3705   20.0375 N   0  0  0  0  0  0  0  0  0  0  0  0
    9.1913    8.0876   21.8361 N   0  0  0  0  0  0  0  0  0  0  0  0
   10.4739    9.4813   20.2889 C   0  0  0  0  0  0  0  0  0  0  0  0
    7.5551    7.1270   23.1200 O   0  0  0  0  0  0  0  0  0  0  0  0
  1 11  4  0
  1 21  4  0
  2  4  1  0
  2  8  1  0
  2 11  1  0
  3 10  4  0
  3 14  4  0
  4  5  1  0
  4 18  2  0
  6 12  1  0
  6 17  4  0
  6 23  4  0
  7  9  1  0
  7 13  4  0
  7 19  4  0
  9 20  1  0
 10 19  4  0
 11 25  4  0
 13 14  4  0
 15 16  4  0
 15 17  4  0
 15 21  4  0
 16 24  1  0
 16 25  4  0
 20 24  1  0
 20 26  2  0
 21 23  4  0
 22 23  1  0
M  END
$$$$

 Created by Python create_sdf_string function

 26 28  0  0  0  0  0  0  0  0999 V2000
   12.4616    8.6700   19.4180 N   0  0  0  0  0  0  0  0  0  0  0  0
   11.8329   10.8148   18.6769 N   0  0  0  0  0  0  0  0  0  0  0  0
    6.1021    2.5564   21.0678 C   0  0  0  0  0  0  0  0  0  0  0  0
   10.9097   11.8051   18.4804 C   0  0  0  0  0  0  0  0  0  0  0  0
   11.2280   12.9135   17.5669 C   0  0  0  0  0  0  0  0  0  0  0  0
   12.3782    5.4231   20.7777 C   0  0  0  0  0  0  0  0  0  0  0  0
    7.7365    4.6508   21.6987 C   0  0  0  0  0  0  0  0  0  0  0  0
   13.0186   11.0102   18.0020 C   0  0  0  0  0  0  0  0  0  0  0  0
    8.6628    5.7088   21.8871 N   0  0  0  0  0  0  0  0  0  0  0  0
    5.6516    3.5258   21.9140 C   0  0  0  0  0  0  0  0  0  0  0  0
   11.5863    9.6815   19.4539 C   0  0  0  0  0  0  0  0  0  0  0  0
   12.9648    4.1543   20.9205 C   0  0  0  0  0  0  0  0  0  0  0  0
    8.2089    3.6265   20.8929 C   0  0  0  0  0  0  0  0  0  0  0  0
    7.3827    2.5724   20.5432 C   0  0  0  0  0  0  0  0  0  0  0  0
   11.1529    7.2750   20.8025 C   0  0  0  0  0  0  0  0  0  0  0  0
   10.2573    8.3215   20.9827 C   0  0  0  0  0  0  0  0  0  0  0  0
   11.1606    5.9378   21.2366 N   0  0  0  0  0  0  0  0  0  0  0  0
    9.8932   11.6736   19.0677 O   0  0  0  0  0  0  0  0  0  0  0  0
    6.4470    4.5850   22.2321 C   0  0  0  0  0  0  0  0  0  0  0  0
    8.4619    6.9895   22.2968 C   0  0  0  0  0  0  0  0  0  0  0  0
   12.2747    7.5102   20.0420 C   0  0  0  0  0  0  0  0  0  0  0  0
   14.2544    6.2142   19.4191 C   0  0  0  0  0  0  0  0  0  0  0  0
   13.0695    6.3705   20.0375 N   0  0  0  0  0  0  0  0  0  0  0  0
    9.1913    8.0876   21.8361 N   0  0  0  0  0  0  0  0  0  0  0  0
   10.4739    9.4813   20.2889 C   0  0  0  0  0  0  0  0  0  0  0  0
    7.5551    7.1270   23.1200 O   0  0  0  0  0  0  0  0  0  0  0  0
  1 11  4  0
  1 21  4  0
  2  4  1  0
  2  8  1  0
  2 11  1  0
  3 10  4  0
  3 14  4  0
  4  5  1  0
  4 18  2  0
  6 12  1  0
  6 17  4  0
  6 23  4  0
  7  9  1  0
  7 13  4  0
  7 19  4  0
  9 20  1  0
 10 19  4  0
 11 25  4  0
 13 14  4  0
 15 16  4  0
 15 17  4  0
 15 21  4  0
 16 24  1  0
 16 25  4  0
 20 24  1  0
 20 26  2  0
 21 23  4  0
 22 23  1  0
M  END
$$$$

 Created by Python create_sdf_string function

 26 28  0  0  0  0  0  0  0  0999 V2000
   12.4616    8.6700   19.4180 N   0  0  0  0  0  0  0  0  0  0  0  0
   11.8329   10.8148   18.6769 N   0  0  0  0  0  0  0  0  0  0  0  0
    6.1021    2.5564   21.0678 C   0  0  0  0  0  0  0  0  0  0  0  0
   10.9097   11.8051   18.4804 C   0  0  0  0  0  0  0  0  0  0  0  0
   11.2280   12.9135   17.5669 C   0  0  0  0  0  0  0  0  0  0  0  0
   12.3782    5.4231   20.7777 C   0  0  0  0  0  0  0  0  0  0  0  0
    7.7365    4.6508   21.6987 C   0  0  0  0  0  0  0  0  0  0  0  0
   13.0186   11.0102   18.0020 C   0  0  0  0  0  0  0  0  0  0  0  0
    8.6628    5.7088   21.8871 N   0  0  0  0  0  0  0  0  0  0  0  0
    5.6516    3.5258   21.9140 C   0  0  0  0  0  0  0  0  0  0  0  0
   11.5863    9.6815   19.4539 C   0  0  0  0  0  0  0  0  0  0  0  0
   12.9648    4.1543   20.9205 C   0  0  0  0  0  0  0  0  0  0  0  0
    8.2089    3.6265   20.8929 C   0  0  0  0  0  0  0  0  0  0  0  0
    7.3827    2.5724   20.5432 C   0  0  0  0  0  0  0  0  0  0  0  0
   11.1529    7.2750   20.8025 C   0  0  0  0  0  0  0  0  0  0  0  0
   10.2573    8.3215   20.9827 C   0  0  0  0  0  0  0  0  0  0  0  0
   11.1606    5.9378   21.2366 N   0  0  0  0  0  0  0  0  0  0  0  0
    9.8932   11.6736   19.0677 O   0  0  0  0  0  0  0  0  0  0  0  0
    6.4470    4.5850   22.2321 C   0  0  0  0  0  0  0  0  0  0  0  0
    8.4619    6.9895   22.2968 C   0  0  0  0  0  0  0  0  0  0  0  0
   12.2747    7.5102   20.0420 C   0  0  0  0  0  0  0  0  0  0  0  0
   14.2544    6.2142   19.4191 C   0  0  0  0  0  0  0  0  0  0  0  0
   13.0695    6.3705   20.0375 N   0  0  0  0  0  0  0  0  0  0  0  0
    9.1913    8.0876   21.8361 N   0  0  0  0  0  0  0  0  0  0  0  0
   10.4739    9.4813   20.2889 C   0  0  0  0  0  0  0  0  0  0  0  0
    7.5551    7.1270   23.1200 O   0  0  0  0  0  0  0  0  0  0  0  0
  1 11  4  0
  1 21  4  0
  2  4  1  0
  2  8  1  0
  2 11  1  0
  3 10  4  0
  3 14  4  0
  4  5  1  0
  4 18  2  0
  6 12  1  0
  6 17  4  0
  6 23  4  0
  7  9  1  0
  7 13  4  0
  7 19  4  0
  9 20  1  0
 10 19  4  0
 11 25  4  0
 13 14  4  0
 15 16  4  0
 15 17  4  0
 15 21  4  0
 16 24  1  0
 16 25  4  0
 20 24  1  0
 20 26  2  0
 21 23  4  0
 22 23  1  0
M  END
$$$$

 Created by Python create_sdf_string function

 26 28  0  0  0  0  0  0  0  0999 V2000
   12.4616    8.6700   19.4180 N   0  0  0  0  0  0  0  0  0  0  0  0
   11.8329   10.8148   18.6769 N   0  0  0  0  0  0  0  0  0  0  0  0
    6.1021    2.5564   21.0678 C   0  0  0  0  0  0  0  0  0  0  0  0
   10.9097   11.8051   18.4804 C   0  0  0  0  0  0  0  0  0  0  0  0
   11.2280   12.9135   17.5669 C   0  0  0  0  0  0  0  0  0  0  0  0
   12.3782    5.4231   20.7777 C   0  0  0  0  0  0  0  0  0  0  0  0
    7.7365    4.6508   21.6987 C   0  0  0  0  0  0  0  0  0  0  0  0
   13.0186   11.0102   18.0020 C   0  0  0  0  0  0  0  0  0  0  0  0
    8.6628    5.7088   21.8871 N   0  0  0  0  0  0  0  0  0  0  0  0
    5.6516    3.5258   21.9140 C   0  0  0  0  0  0  0  0  0  0  0  0
   11.5863    9.6815   19.4539 C   0  0  0  0  0  0  0  0  0  0  0  0
   12.9648    4.1543   20.9205 C   0  0  0  0  0  0  0  0  0  0  0  0
    8.2089    3.6265   20.8929 C   0  0  0  0  0  0  0  0  0  0  0  0
    7.3827    2.5724   20.5432 C   0  0  0  0  0  0  0  0  0  0  0  0
   11.1529    7.2750   20.8025 C   0  0  0  0  0  0  0  0  0  0  0  0
   10.2573    8.3215   20.9827 C   0  0  0  0  0  0  0  0  0  0  0  0
   11.1606    5.9378   21.2366 N   0  0  0  0  0  0  0  0  0  0  0  0
    9.8932   11.6736   19.0677 O   0  0  0  0  0  0  0  0  0  0  0  0
    6.4470    4.5850   22.2321 C   0  0  0  0  0  0  0  0  0  0  0  0
    8.4619    6.9895   22.2968 C   0  0  0  0  0  0  0  0  0  0  0  0
   12.2747    7.5102   20.0420 C   0  0  0  0  0  0  0  0  0  0  0  0
   14.2544    6.2142   19.4191 C   0  0  0  0  0  0  0  0  0  0  0  0
   13.0695    6.3705   20.0375 N   0  0  0  0  0  0  0  0  0  0  0  0
    9.1913    8.0876   21.8361 N   0  0  0  0  0  0  0  0  0  0  0  0
   10.4739    9.4813   20.2889 C   0  0  0  0  0  0  0  0  0  0  0  0
    7.5551    7.1270   23.1200 O   0  0  0  0  0  0  0  0  0  0  0  0
  1 11  4  0
  1 21  4  0
  2  4  1  0
  2  8  1  0
  2 11  1  0
  3 10  4  0
  3 14  4  0
  4  5  1  0
  4 18  2  0
  6 12  1  0
  6 17  4  0
  6 23  4  0
  7  9  1  0
  7 13  4  0
  7 19  4  0
  9 20  1  0
 10 19  4  0
 11 25  4  0
 13 14  4  0
 15 16  4  0
 15 17  4  0
 15 21  4  0
 16 24  1  0
 16 25  4  0
 20 24  1  0
 20 26  2  0
 21 23  4  0
 22 23  1  0
M  END
$$$$

 Created by Python create_sdf_string function

 26 28  0  0  0  0  0  0  0  0999 V2000
   12.4616    8.6700   19.4180 N   0  0  0  0  0  0  0  0  0  0  0  0
   11.8329   10.8148   18.6769 N   0  0  0  0  0  0  0  0  0  0  0  0
    6.1021    2.5564   21.0678 C   0  0  0  0  0  0  0  0  0  0  0  0
   10.9097   11.8051   18.4804 C   0  0  0  0  0  0  0  0  0  0  0  0
   11.2280   12.9135   17.5669 C   0  0  0  0  0  0  0  0  0  0  0  0
   12.3782    5.4231   20.7777 C   0  0  0  0  0  0  0  0  0  0  0  0
    7.7365    4.6508   21.6987 C   0  0  0  0  0  0  0  0  0  0  0  0
   13.0186   11.0102   18.0020 C   0  0  0  0  0  0  0  0  0  0  0  0
    8.6628    5.7088   21.8871 N   0  0  0  0  0  0  0  0  0  0  0  0
    5.6516    3.5258   21.9140 C   0  0  0  0  0  0  0  0  0  0  0  0
   11.5863    9.6815   19.4539 C   0  0  0  0  0  0  0  0  0  0  0  0
   12.9648    4.1543   20.9205 C   0  0  0  0  0  0  0  0  0  0  0  0
    8.2089    3.6265   20.8929 C   0  0  0  0  0  0  0  0  0  0  0  0
    7.3827    2.5724   20.5432 C   0  0  0  0  0  0  0  0  0  0  0  0
   11.1529    7.2750   20.8025 C   0  0  0  0  0  0  0  0  0  0  0  0
   10.2573    8.3215   20.9827 C   0  0  0  0  0  0  0  0  0  0  0  0
   11.1606    5.9378   21.2366 N   0  0  0  0  0  0  0  0  0  0  0  0
    9.8932   11.6736   19.0677 O   0  0  0  0  0  0  0  0  0  0  0  0
    6.4470    4.5850   22.2321 C   0  0  0  0  0  0  0  0  0  0  0  0
    8.4619    6.9895   22.2968 C   0  0  0  0  0  0  0  0  0  0  0  0
   12.2747    7.5102   20.0420 C   0  0  0  0  0  0  0  0  0  0  0  0
   14.2544    6.2142   19.4191 C   0  0  0  0  0  0  0  0  0  0  0  0
   13.0695    6.3705   20.0375 N   0  0  0  0  0  0  0  0  0  0  0  0
    9.1913    8.0876   21.8361 N   0  0  0  0  0  0  0  0  0  0  0  0
   10.4739    9.4813   20.2889 C   0  0  0  0  0  0  0  0  0  0  0  0
    7.5551    7.1270   23.1200 O   0  0  0  0  0  0  0  0  0  0  0  0
  1 11  4  0
  1 21  4  0
  2  4  1  0
  2  8  1  0
  2 11  1  0
  3 10  4  0
  3 14  4  0
  4  5  1  0
  4 18  2  0
  6 12  1  0
  6 17  4  0
  6 23  4  0
  7  9  1  0
  7 13  4  0
  7 19  4  0
  9 20  1  0
 10 19  4  0
 11 25  4  0
 13 14  4  0
 15 16  4  0
 15 17  4  0
 15 21  4  0
 16 24  1  0
 16 25  4  0
 20 24  1  0
 20 26  2  0
 21 23  4  0
 22 23  1  0
M  END
$$$$

 Created by Python create_sdf_string function

 26 28  0  0  0  0  0  0  0  0999 V2000
   12.4616    8.6700   19.4180 N   0  0  0  0  0  0  0  0  0  0  0  0
   11.8329   10.8148   18.6769 N   0  0  0  0  0  0  0  0  0  0  0  0
    6.1021    2.5564   21.0678 C   0  0  0  0  0  0  0  0  0  0  0  0
   10.9097   11.8051   18.4804 C   0  0  0  0  0  0  0  0  0  0  0  0
   11.2280   12.9135   17.5669 C   0  0  0  0  0  0  0  0  0  0  0  0
   12.3782    5.4231   20.7777 C   0  0  0  0  0  0  0  0  0  0  0  0
    7.7365    4.6508   21.6987 C   0  0  0  0  0  0  0  0  0  0  0  0
   13.0186   11.0102   18.0020 C   0  0  0  0  0  0  0  0  0  0  0  0
    8.6628    5.7088   21.8871 N   0  0  0  0  0  0  0  0  0  0  0  0
    5.6516    3.5258   21.9140 C   0  0  0  0  0  0  0  0  0  0  0  0
   11.5863    9.6815   19.4539 C   0  0  0  0  0  0  0  0  0  0  0  0
   12.9648    4.1543   20.9205 C   0  0  0  0  0  0  0  0  0  0  0  0
    8.2089    3.6265   20.8929 C   0  0  0  0  0  0  0  0  0  0  0  0
    7.3827    2.5724   20.5432 C   0  0  0  0  0  0  0  0  0  0  0  0
   11.1529    7.2750   20.8025 C   0  0  0  0  0  0  0  0  0  0  0  0
   10.2573    8.3215   20.9827 C   0  0  0  0  0  0  0  0  0  0  0  0
   11.1606    5.9378   21.2366 N   0  0  0  0  0  0  0  0  0  0  0  0
    9.8932   11.6736   19.0677 O   0  0  0  0  0  0  0  0  0  0  0  0
    6.4470    4.5850   22.2321 C   0  0  0  0  0  0  0  0  0  0  0  0
    8.4619    6.9895   22.2968 C   0  0  0  0  0  0  0  0  0  0  0  0
   12.2747    7.5102   20.0420 C   0  0  0  0  0  0  0  0  0  0  0  0
   14.2544    6.2142   19.4191 C   0  0  0  0  0  0  0  0  0  0  0  0
   13.0695    6.3705   20.0375 N   0  0  0  0  0  0  0  0  0  0  0  0
    9.1913    8.0876   21.8361 N   0  0  0  0  0  0  0  0  0  0  0  0
   10.4739    9.4813   20.2889 C   0  0  0  0  0  0  0  0  0  0  0  0
    7.5551    7.1270   23.1200 O   0  0  0  0  0  0  0  0  0  0  0  0
  1 11  4  0
  1 21  4  0
  2  4  1  0
  2  8  1  0
  2 11  1  0
  3 10  4  0
  3 14  4  0
  4  5  1  0
  4 18  2  0
  6 12  1  0
  6 17  4  0
  6 23  4  0
  7  9  1  0
  7 13  4  0
  7 19  4  0
  9 20  1  0
 10 19  4  0
 11 25  4  0
 13 14  4  0
 15 16  4  0
 15 17  4  0
 15 21  4  0
 16 24  1  0
 16 25  4  0
 20 24  1  0
 20 26  2  0
 21 23  4  0
 22 23  1  0
M  END
$$$$

 Created by Python create_sdf_string function

 26 28  0  0  0  0  0  0  0  0999 V2000
   12.4616    8.6700   19.4180 N   0  0  0  0  0  0  0  0  0  0  0  0
   11.8329   10.8148   18.6769 N   0  0  0  0  0  0  0  0  0  0  0  0
    6.1021    2.5564   21.0678 C   0  0  0  0  0  0  0  0  0  0  0  0
   10.9097   11.8051   18.4804 C   0  0  0  0  0  0  0  0  0  0  0  0
   11.2280   12.9135   17.5669 C   0  0  0  0  0  0  0  0  0  0  0  0
   12.3782    5.4231   20.7777 C   0  0  0  0  0  0  0  0  0  0  0  0
    7.7365    4.6508   21.6987 C   0  0  0  0  0  0  0  0  0  0  0  0
   13.0186   11.0102   18.0020 C   0  0  0  0  0  0  0  0  0  0  0  0
    8.6628    5.7088   21.8871 N   0  0  0  0  0  0  0  0  0  0  0  0
    5.6516    3.5258   21.9140 C   0  0  0  0  0  0  0  0  0  0  0  0
   11.5863    9.6815   19.4539 C   0  0  0  0  0  0  0  0  0  0  0  0
   12.9648    4.1543   20.9205 C   0  0  0  0  0  0  0  0  0  0  0  0
    8.2089    3.6265   20.8929 C   0  0  0  0  0  0  0  0  0  0  0  0
    7.3827    2.5724   20.5432 C   0  0  0  0  0  0  0  0  0  0  0  0
   11.1529    7.2750   20.8025 C   0  0  0  0  0  0  0  0  0  0  0  0
   10.2573    8.3215   20.9827 C   0  0  0  0  0  0  0  0  0  0  0  0
   11.1606    5.9378   21.2366 N   0  0  0  0  0  0  0  0  0  0  0  0
    9.8932   11.6736   19.0677 O   0  0  0  0  0  0  0  0  0  0  0  0
    6.4470    4.5850   22.2321 C   0  0  0  0  0  0  0  0  0  0  0  0
    8.4619    6.9895   22.2968 C   0  0  0  0  0  0  0  0  0  0  0  0
   12.2747    7.5102   20.0420 C   0  0  0  0  0  0  0  0  0  0  0  0
   14.2544    6.2142   19.4191 C   0  0  0  0  0  0  0  0  0  0  0  0
   13.0695    6.3705   20.0375 N   0  0  0  0  0  0  0  0  0  0  0  0
    9.1913    8.0876   21.8361 N   0  0  0  0  0  0  0  0  0  0  0  0
   10.4739    9.4813   20.2889 C   0  0  0  0  0  0  0  0  0  0  0  0
    7.5551    7.1270   23.1200 O   0  0  0  0  0  0  0  0  0  0  0  0
  1 11  4  0
  1 21  4  0
  2  4  1  0
  2  8  1  0
  2 11  1  0
  3 10  4  0
  3 14  4  0
  4  5  1  0
  4 18  2  0
  6 12  1  0
  6 17  4  0
  6 23  4  0
  7  9  1  0
  7 13  4  0
  7 19  4  0
  9 20  1  0
 10 19  4  0
 11 25  4  0
 13 14  4  0
 15 16  4  0
 15 17  4  0
 15 21  4  0
 16 24  1  0
 16 25  4  0
 20 24  1  0
 20 26  2  0
 21 23  4  0
 22 23  1  0
M  END
$$$$

 Created by Python create_sdf_string function

 26 28  0  0  0  0  0  0  0  0999 V2000
   12.4616    8.6700   19.4180 N   0  0  0  0  0  0  0  0  0  0  0  0
   11.8329   10.8148   18.6769 N   0  0  0  0  0  0  0  0  0  0  0  0
    6.1021    2.5564   21.0678 C   0  0  0  0  0  0  0  0  0  0  0  0
   10.9097   11.8051   18.4804 C   0  0  0  0  0  0  0  0  0  0  0  0
   11.2280   12.9135   17.5669 C   0  0  0  0  0  0  0  0  0  0  0  0
   12.3782    5.4231   20.7777 C   0  0  0  0  0  0  0  0  0  0  0  0
    7.7365    4.6508   21.6987 C   0  0  0  0  0  0  0  0  0  0  0  0
   13.0186   11.0102   18.0020 C   0  0  0  0  0  0  0  0  0  0  0  0
    8.6628    5.7088   21.8871 N   0  0  0  0  0  0  0  0  0  0  0  0
    5.6516    3.5258   21.9140 C   0  0  0  0  0  0  0  0  0  0  0  0
   11.5863    9.6815   19.4539 C   0  0  0  0  0  0  0  0  0  0  0  0
   12.9648    4.1543   20.9205 C   0  0  0  0  0  0  0  0  0  0  0  0
    8.2089    3.6265   20.8929 C   0  0  0  0  0  0  0  0  0  0  0  0
    7.3827    2.5724   20.5432 C   0  0  0  0  0  0  0  0  0  0  0  0
   11.1529    7.2750   20.8025 C   0  0  0  0  0  0  0  0  0  0  0  0
   10.2573    8.3215   20.9827 C   0  0  0  0  0  0  0  0  0  0  0  0
   11.1606    5.9378   21.2366 N   0  0  0  0  0  0  0  0  0  0  0  0
    9.8932   11.6736   19.0677 O   0  0  0  0  0  0  0  0  0  0  0  0
    6.4470    4.5850   22.2321 C   0  0  0  0  0  0  0  0  0  0  0  0
    8.4619    6.9895   22.2968 C   0  0  0  0  0  0  0  0  0  0  0  0
   12.2747    7.5102   20.0420 C   0  0  0  0  0  0  0  0  0  0  0  0
   14.2544    6.2142   19.4191 C   0  0  0  0  0  0  0  0  0  0  0  0
   13.0695    6.3705   20.0375 N   0  0  0  0  0  0  0  0  0  0  0  0
    9.1913    8.0876   21.8361 N   0  0  0  0  0  0  0  0  0  0  0  0
   10.4739    9.4813   20.2889 C   0  0  0  0  0  0  0  0  0  0  0  0
    7.5551    7.1270   23.1200 O   0  0  0  0  0  0  0  0  0  0  0  0
  1 11  4  0
  1 21  4  0
  2  4  1  0
  2  8  1  0
  2 11  1  0
  3 10  4  0
  3 14  4  0
  4  5  1  0
  4 18  2  0
  6 12  1  0
  6 17  4  0
  6 23  4  0
  7  9  1  0
  7 13  4  0
  7 19  4  0
  9 20  1  0
 10 19  4  0
 11 25  4  0
 13 14  4  0
 15 16  4  0
 15 17  4  0
 15 21  4  0
 16 24  1  0
 16 25  4  0
 20 24  1  0
 20 26  2  0
 21 23  4  0
 22 23  1  0
M  END
$$$$

 Created by Python create_sdf_string function

 26 28  0  0  0  0  0  0  0  0999 V2000
   12.4616    8.6700   19.4180 N   0  0  0  0  0  0  0  0  0  0  0  0
   11.8329   10.8148   18.6769 N   0  0  0  0  0  0  0  0  0  0  0  0
    6.1021    2.5564   21.0678 C   0  0  0  0  0  0  0  0  0  0  0  0
   10.9097   11.8051   18.4804 C   0  0  0  0  0  0  0  0  0  0  0  0
   11.2280   12.9135   17.5669 C   0  0  0  0  0  0  0  0  0  0  0  0
   12.3782    5.4231   20.7777 C   0  0  0  0  0  0  0  0  0  0  0  0
    7.7365    4.6508   21.6987 C   0  0  0  0  0  0  0  0  0  0  0  0
   13.0186   11.0102   18.0020 C   0  0  0  0  0  0  0  0  0  0  0  0
    8.6628    5.7088   21.8871 N   0  0  0  0  0  0  0  0  0  0  0  0
    5.6516    3.5258   21.9140 C   0  0  0  0  0  0  0  0  0  0  0  0
   11.5863    9.6815   19.4539 C   0  0  0  0  0  0  0  0  0  0  0  0
   12.9648    4.1543   20.9205 C   0  0  0  0  0  0  0  0  0  0  0  0
    8.2089    3.6265   20.8929 C   0  0  0  0  0  0  0  0  0  0  0  0
    7.3827    2.5724   20.5432 C   0  0  0  0  0  0  0  0  0  0  0  0
   11.1529    7.2750   20.8025 C   0  0  0  0  0  0  0  0  0  0  0  0
   10.2573    8.3215   20.9827 C   0  0  0  0  0  0  0  0  0  0  0  0
   11.1606    5.9378   21.2366 N   0  0  0  0  0  0  0  0  0  0  0  0
    9.8932   11.6736   19.0677 O   0  0  0  0  0  0  0  0  0  0  0  0
    6.4470    4.5850   22.2321 C   0  0  0  0  0  0  0  0  0  0  0  0
    8.4619    6.9895   22.2968 C   0  0  0  0  0  0  0  0  0  0  0  0
   12.2747    7.5102   20.0420 C   0  0  0  0  0  0  0  0  0  0  0  0
   14.2544    6.2142   19.4191 C   0  0  0  0  0  0  0  0  0  0  0  0
   13.0695    6.3705   20.0375 N   0  0  0  0  0  0  0  0  0  0  0  0
    9.1913    8.0876   21.8361 N   0  0  0  0  0  0  0  0  0  0  0  0
   10.4739    9.4813   20.2889 C   0  0  0  0  0  0  0  0  0  0  0  0
    7.5551    7.1270   23.1200 O   0  0  0  0  0  0  0  0  0  0  0  0
  1 11  4  0
  1 21  4  0
  2  4  1  0
  2  8  1  0
  2 11  1  0
  3 10  4  0
  3 14  4  0
  4  5  1  0
  4 18  2  0
  6 12  1  0
  6 17  4  0
  6 23  4  0
  7  9  1  0
  7 13  4  0
  7 19  4  0
  9 20  1  0
 10 19  4  0
 11 25  4  0
 13 14  4  0
 15 16  4  0
 15 17  4  0
 15 21  4  0
 16 24  1  0
 16 25  4  0
 20 24  1  0
 20 26  2  0
 21 23  4  0
 22 23  1  0
M  END
$$$$

 Created by Python create_sdf_string function

 26 28  0  0  0  0  0  0  0  0999 V2000
   12.4616    8.6700   19.4180 N   0  0  0  0  0  0  0  0  0  0  0  0
   11.8329   10.8148   18.6769 N   0  0  0  0  0  0  0  0  0  0  0  0
    6.1021    2.5564   21.0678 C   0  0  0  0  0  0  0  0  0  0  0  0
   10.9097   11.8051   18.4804 C   0  0  0  0  0  0  0  0  0  0  0  0
   11.2280   12.9135   17.5669 C   0  0  0  0  0  0  0  0  0  0  0  0
   12.3782    5.4231   20.7777 C   0  0  0  0  0  0  0  0  0  0  0  0
    7.7365    4.6508   21.6987 C   0  0  0  0  0  0  0  0  0  0  0  0
   13.0186   11.0102   18.0020 C   0  0  0  0  0  0  0  0  0  0  0  0
    8.6628    5.7088   21.8871 N   0  0  0  0  0  0  0  0  0  0  0  0
    5.6516    3.5258   21.9140 C   0  0  0  0  0  0  0  0  0  0  0  0
   11.5863    9.6815   19.4539 C   0  0  0  0  0  0  0  0  0  0  0  0
   12.9648    4.1543   20.9205 C   0  0  0  0  0  0  0  0  0  0  0  0
    8.2089    3.6265   20.8929 C   0  0  0  0  0  0  0  0  0  0  0  0
    7.3827    2.5724   20.5432 C   0  0  0  0  0  0  0  0  0  0  0  0
   11.1529    7.2750   20.8025 C   0  0  0  0  0  0  0  0  0  0  0  0
   10.2573    8.3215   20.9827 C   0  0  0  0  0  0  0  0  0  0  0  0
   11.1606    5.9378   21.2366 N   0  0  0  0  0  0  0  0  0  0  0  0
    9.8932   11.6736   19.0677 O   0  0  0  0  0  0  0  0  0  0  0  0
    6.4470    4.5850   22.2321 C   0  0  0  0  0  0  0  0  0  0  0  0
    8.4619    6.9895   22.2968 C   0  0  0  0  0  0  0  0  0  0  0  0
   12.2747    7.5102   20.0420 C   0  0  0  0  0  0  0  0  0  0  0  0
   14.2544    6.2142   19.4191 C   0  0  0  0  0  0  0  0  0  0  0  0
   13.0695    6.3705   20.0375 N   0  0  0  0  0  0  0  0  0  0  0  0
    9.1913    8.0876   21.8361 N   0  0  0  0  0  0  0  0  0  0  0  0
   10.4739    9.4813   20.2889 C   0  0  0  0  0  0  0  0  0  0  0  0
    7.5551    7.1270   23.1200 O   0  0  0  0  0  0  0  0  0  0  0  0
  1 11  4  0
  1 21  4  0
  2  4  1  0
  2  8  1  0
  2 11  1  0
  3 10  4  0
  3 14  4  0
  4  5  1  0
  4 18  2  0
  6 12  1  0
  6 17  4  0
  6 23  4  0
  7  9  1  0
  7 13  4  0
  7 19  4  0
  9 20  1  0
 10 19  4  0
 11 25  4  0
 13 14  4  0
 15 16  4  0
 15 17  4  0
 15 21  4  0
 16 24  1  0
 16 25  4  0
 20 24  1  0
 20 26  2  0
 21 23  4  0
 22 23  1  0
M  END
$$$$

 Created by Python create_sdf_string function

 26 28  0  0  0  0  0  0  0  0999 V2000
   12.4616    8.6700   19.4180 N   0  0  0  0  0  0  0  0  0  0  0  0
   11.8329   10.8148   18.6769 N   0  0  0  0  0  0  0  0  0  0  0  0
    6.1021    2.5564   21.0678 C   0  0  0  0  0  0  0  0  0  0  0  0
   10.9097   11.8051   18.4804 C   0  0  0  0  0  0  0  0  0  0  0  0
   11.2280   12.9135   17.5669 C   0  0  0  0  0  0  0  0  0  0  0  0
   12.3782    5.4231   20.7777 C   0  0  0  0  0  0  0  0  0  0  0  0
    7.7365    4.6508   21.6987 C   0  0  0  0  0  0  0  0  0  0  0  0
   13.0186   11.0102   18.0020 C   0  0  0  0  0  0  0  0  0  0  0  0
    8.6628    5.7088   21.8871 N   0  0  0  0  0  0  0  0  0  0  0  0
    5.6516    3.5258   21.9140 C   0  0  0  0  0  0  0  0  0  0  0  0
   11.5863    9.6815   19.4539 C   0  0  0  0  0  0  0  0  0  0  0  0
   12.9648    4.1543   20.9205 C   0  0  0  0  0  0  0  0  0  0  0  0
    8.2089    3.6265   20.8929 C   0  0  0  0  0  0  0  0  0  0  0  0
    7.3827    2.5724   20.5432 C   0  0  0  0  0  0  0  0  0  0  0  0
   11.1529    7.2750   20.8025 C   0  0  0  0  0  0  0  0  0  0  0  0
   10.2573    8.3215   20.9827 C   0  0  0  0  0  0  0  0  0  0  0  0
   11.1606    5.9378   21.2366 N   0  0  0  0  0  0  0  0  0  0  0  0
    9.8932   11.6736   19.0677 O   0  0  0  0  0  0  0  0  0  0  0  0
    6.4470    4.5850   22.2321 C   0  0  0  0  0  0  0  0  0  0  0  0
    8.4619    6.9895   22.2968 C   0  0  0  0  0  0  0  0  0  0  0  0
   12.2747    7.5102   20.0420 C   0  0  0  0  0  0  0  0  0  0  0  0
   14.2544    6.2142   19.4191 C   0  0  0  0  0  0  0  0  0  0  0  0
   13.0695    6.3705   20.0375 N   0  0  0  0  0  0  0  0  0  0  0  0
    9.1913    8.0876   21.8361 N   0  0  0  0  0  0  0  0  0  0  0  0
   10.4739    9.4813   20.2889 C   0  0  0  0  0  0  0  0  0  0  0  0
    7.5551    7.1270   23.1200 O   0  0  0  0  0  0  0  0  0  0  0  0
  1 11  4  0
  1 21  4  0
  2  4  1  0
  2  8  1  0
  2 11  1  0
  3 10  4  0
  3 14  4  0
  4  5  1  0
  4 18  2  0
  6 12  1  0
  6 17  4  0
  6 23  4  0
  7  9  1  0
  7 13  4  0
  7 19  4  0
  9 20  1  0
 10 19  4  0
 11 25  4  0
 13 14  4  0
 15 16  4  0
 15 17  4  0
 15 21  4  0
 16 24  1  0
 16 25  4  0
 20 24  1  0
 20 26  2  0
 21 23  4  0
 22 23  1  0
M  END
$$$$

 Created by Python create_sdf_string function

 26 28  0  0  0  0  0  0  0  0999 V2000
   12.4616    8.6700   19.4180 N   0  0  0  0  0  0  0  0  0  0  0  0
   11.8329   10.8148   18.6769 N   0  0  0  0  0  0  0  0  0  0  0  0
    6.1021    2.5564   21.0678 C   0  0  0  0  0  0  0  0  0  0  0  0
   10.9097   11.8051   18.4804 C   0  0  0  0  0  0  0  0  0  0  0  0
   11.2280   12.9135   17.5669 C   0  0  0  0  0  0  0  0  0  0  0  0
   12.3782    5.4231   20.7777 C   0  0  0  0  0  0  0  0  0  0  0  0
    7.7365    4.6508   21.6987 C   0  0  0  0  0  0  0  0  0  0  0  0
   13.0186   11.0102   18.0020 C   0  0  0  0  0  0  0  0  0  0  0  0
    8.6628    5.7088   21.8871 N   0  0  0  0  0  0  0  0  0  0  0  0
    5.6516    3.5258   21.9140 C   0  0  0  0  0  0  0  0  0  0  0  0
   11.5863    9.6815   19.4539 C   0  0  0  0  0  0  0  0  0  0  0  0
   12.9648    4.1543   20.9205 C   0  0  0  0  0  0  0  0  0  0  0  0
    8.2089    3.6265   20.8929 C   0  0  0  0  0  0  0  0  0  0  0  0
    7.3827    2.5724   20.5432 C   0  0  0  0  0  0  0  0  0  0  0  0
   11.1529    7.2750   20.8025 C   0  0  0  0  0  0  0  0  0  0  0  0
   10.2573    8.3215   20.9827 C   0  0  0  0  0  0  0  0  0  0  0  0
   11.1606    5.9378   21.2366 N   0  0  0  0  0  0  0  0  0  0  0  0
    9.8932   11.6736   19.0677 O   0  0  0  0  0  0  0  0  0  0  0  0
    6.4470    4.5850   22.2321 C   0  0  0  0  0  0  0  0  0  0  0  0
    8.4619    6.9895   22.2968 C   0  0  0  0  0  0  0  0  0  0  0  0
   12.2747    7.5102   20.0420 C   0  0  0  0  0  0  0  0  0  0  0  0
   14.2544    6.2142   19.4191 C   0  0  0  0  0  0  0  0  0  0  0  0
   13.0695    6.3705   20.0375 N   0  0  0  0  0  0  0  0  0  0  0  0
    9.1913    8.0876   21.8361 N   0  0  0  0  0  0  0  0  0  0  0  0
   10.4739    9.4813   20.2889 C   0  0  0  0  0  0  0  0  0  0  0  0
    7.5551    7.1270   23.1200 O   0  0  0  0  0  0  0  0  0  0  0  0
  1 11  4  0
  1 21  4  0
  2  4  1  0
  2  8  1  0
  2 11  1  0
  3 10  4  0
  3 14  4  0
  4  5  1  0
  4 18  2  0
  6 12  1  0
  6 17  4  0
  6 23  4  0
  7  9  1  0
  7 13  4  0
  7 19  4  0
  9 20  1  0
 10 19  4  0
 11 25  4  0
 13 14  4  0
 15 16  4  0
 15 17  4  0
 15 21  4  0
 16 24  1  0
 16 25  4  0
 20 24  1  0
 20 26  2  0
 21 23  4  0
 22 23  1  0
M  END
$$$$

 Created by Python create_sdf_string function

 26 28  0  0  0  0  0  0  0  0999 V2000
   12.4616    8.6700   19.4180 N   0  0  0  0  0  0  0  0  0  0  0  0
   11.8329   10.8148   18.6769 N   0  0  0  0  0  0  0  0  0  0  0  0
    6.1021    2.5564   21.0678 C   0  0  0  0  0  0  0  0  0  0  0  0
   10.9097   11.8051   18.4804 C   0  0  0  0  0  0  0  0  0  0  0  0
   11.2280   12.9135   17.5669 C   0  0  0  0  0  0  0  0  0  0  0  0
   12.3782    5.4231   20.7777 C   0  0  0  0  0  0  0  0  0  0  0  0
    7.7365    4.6508   21.6987 C   0  0  0  0  0  0  0  0  0  0  0  0
   13.0186   11.0102   18.0020 C   0  0  0  0  0  0  0  0  0  0  0  0
    8.6628    5.7088   21.8871 N   0  0  0  0  0  0  0  0  0  0  0  0
    5.6516    3.5258   21.9140 C   0  0  0  0  0  0  0  0  0  0  0  0
   11.5863    9.6815   19.4539 C   0  0  0  0  0  0  0  0  0  0  0  0
   12.9648    4.1543   20.9205 C   0  0  0  0  0  0  0  0  0  0  0  0
    8.2089    3.6265   20.8929 C   0  0  0  0  0  0  0  0  0  0  0  0
    7.3827    2.5724   20.5432 C   0  0  0  0  0  0  0  0  0  0  0  0
   11.1529    7.2750   20.8025 C   0  0  0  0  0  0  0  0  0  0  0  0
   10.2573    8.3215   20.9827 C   0  0  0  0  0  0  0  0  0  0  0  0
   11.1606    5.9378   21.2366 N   0  0  0  0  0  0  0  0  0  0  0  0
    9.8932   11.6736   19.0677 O   0  0  0  0  0  0  0  0  0  0  0  0
    6.4470    4.5850   22.2321 C   0  0  0  0  0  0  0  0  0  0  0  0
    8.4619    6.9895   22.2968 C   0  0  0  0  0  0  0  0  0  0  0  0
   12.2747    7.5102   20.0420 C   0  0  0  0  0  0  0  0  0  0  0  0
   14.2544    6.2142   19.4191 C   0  0  0  0  0  0  0  0  0  0  0  0
   13.0695    6.3705   20.0375 N   0  0  0  0  0  0  0  0  0  0  0  0
    9.1913    8.0876   21.8361 N   0  0  0  0  0  0  0  0  0  0  0  0
   10.4739    9.4813   20.2889 C   0  0  0  0  0  0  0  0  0  0  0  0
    7.5551    7.1270   23.1200 O   0  0  0  0  0  0  0  0  0  0  0  0
  1 11  4  0
  1 21  4  0
  2  4  1  0
  2  8  1  0
  2 11  1  0
  3 10  4  0
  3 14  4  0
  4  5  1  0
  4 18  2  0
  6 12  1  0
  6 17  4  0
  6 23  4  0
  7  9  1  0
  7 13  4  0
  7 19  4  0
  9 20  1  0
 10 19  4  0
 11 25  4  0
 13 14  4  0
 15 16  4  0
 15 17  4  0
 15 21  4  0
 16 24  1  0
 16 25  4  0
 20 24  1  0
 20 26  2  0
 21 23  4  0
 22 23  1  0
M  END
$$$$

 Created by Python create_sdf_string function

 26 28  0  0  0  0  0  0  0  0999 V2000
   12.4616    8.6700   19.4180 N   0  0  0  0  0  0  0  0  0  0  0  0
   11.8329   10.8148   18.6769 N   0  0  0  0  0  0  0  0  0  0  0  0
    6.1021    2.5564   21.0678 C   0  0  0  0  0  0  0  0  0  0  0  0
   10.9097   11.8051   18.4804 C   0  0  0  0  0  0  0  0  0  0  0  0
   11.2280   12.9135   17.5669 C   0  0  0  0  0  0  0  0  0  0  0  0
   12.3782    5.4231   20.7777 C   0  0  0  0  0  0  0  0  0  0  0  0
    7.7365    4.6508   21.6987 C   0  0  0  0  0  0  0  0  0  0  0  0
   13.0186   11.0102   18.0020 C   0  0  0  0  0  0  0  0  0  0  0  0
    8.6628    5.7088   21.8871 N   0  0  0  0  0  0  0  0  0  0  0  0
    5.6516    3.5258   21.9140 C   0  0  0  0  0  0  0  0  0  0  0  0
   11.5863    9.6815   19.4539 C   0  0  0  0  0  0  0  0  0  0  0  0
   12.9648    4.1543   20.9205 C   0  0  0  0  0  0  0  0  0  0  0  0
    8.2089    3.6265   20.8929 C   0  0  0  0  0  0  0  0  0  0  0  0
    7.3827    2.5724   20.5432 C   0  0  0  0  0  0  0  0  0  0  0  0
   11.1529    7.2750   20.8025 C   0  0  0  0  0  0  0  0  0  0  0  0
   10.2573    8.3215   20.9827 C   0  0  0  0  0  0  0  0  0  0  0  0
   11.1606    5.9378   21.2366 N   0  0  0  0  0  0  0  0  0  0  0  0
    9.8932   11.6736   19.0677 O   0  0  0  0  0  0  0  0  0  0  0  0
    6.4470    4.5850   22.2321 C   0  0  0  0  0  0  0  0  0  0  0  0
    8.4619    6.9895   22.2968 C   0  0  0  0  0  0  0  0  0  0  0  0
   12.2747    7.5102   20.0420 C   0  0  0  0  0  0  0  0  0  0  0  0
   14.2544    6.2142   19.4191 C   0  0  0  0  0  0  0  0  0  0  0  0
   13.0695    6.3705   20.0375 N   0  0  0  0  0  0  0  0  0  0  0  0
    9.1913    8.0876   21.8361 N   0  0  0  0  0  0  0  0  0  0  0  0
   10.4739    9.4813   20.2889 C   0  0  0  0  0  0  0  0  0  0  0  0
    7.5551    7.1270   23.1200 O   0  0  0  0  0  0  0  0  0  0  0  0
  1 11  4  0
  1 21  4  0
  2  4  1  0
  2  8  1  0
  2 11  1  0
  3 10  4  0
  3 14  4  0
  4  5  1  0
  4 18  2  0
  6 12  1  0
  6 17  4  0
  6 23  4  0
  7  9  1  0
  7 13  4  0
  7 19  4  0
  9 20  1  0
 10 19  4  0
 11 25  4  0
 13 14  4  0
 15 16  4  0
 15 17  4  0
 15 21  4  0
 16 24  1  0
 16 25  4  0
 20 24  1  0
 20 26  2  0
 21 23  4  0
 22 23  1  0
M  END
$$$$

 Created by Python create_sdf_string function

 26 28  0  0  0  0  0  0  0  0999 V2000
   12.4616    8.6700   19.4180 N   0  0  0  0  0  0  0  0  0  0  0  0
   11.8329   10.8148   18.6769 N   0  0  0  0  0  0  0  0  0  0  0  0
    6.1021    2.5564   21.0678 C   0  0  0  0  0  0  0  0  0  0  0  0
   10.9097   11.8051   18.4804 C   0  0  0  0  0  0  0  0  0  0  0  0
   11.2280   12.9135   17.5669 C   0  0  0  0  0  0  0  0  0  0  0  0
   12.3782    5.4231   20.7777 C   0  0  0  0  0  0  0  0  0  0  0  0
    7.7365    4.6508   21.6987 C   0  0  0  0  0  0  0  0  0  0  0  0
   13.0186   11.0102   18.0020 C   0  0  0  0  0  0  0  0  0  0  0  0
    8.6628    5.7088   21.8871 N   0  0  0  0  0  0  0  0  0  0  0  0
    5.6516    3.5258   21.9140 C   0  0  0  0  0  0  0  0  0  0  0  0
   11.5863    9.6815   19.4539 C   0  0  0  0  0  0  0  0  0  0  0  0
   12.9648    4.1543   20.9205 C   0  0  0  0  0  0  0  0  0  0  0  0
    8.2089    3.6265   20.8929 C   0  0  0  0  0  0  0  0  0  0  0  0
    7.3827    2.5724   20.5432 C   0  0  0  0  0  0  0  0  0  0  0  0
   11.1529    7.2750   20.8025 C   0  0  0  0  0  0  0  0  0  0  0  0
   10.2573    8.3215   20.9827 C   0  0  0  0  0  0  0  0  0  0  0  0
   11.1606    5.9378   21.2366 N   0  0  0  0  0  0  0  0  0  0  0  0
    9.8932   11.6736   19.0677 O   0  0  0  0  0  0  0  0  0  0  0  0
    6.4470    4.5850   22.2321 C   0  0  0  0  0  0  0  0  0  0  0  0
    8.4619    6.9895   22.2968 C   0  0  0  0  0  0  0  0  0  0  0  0
   12.2747    7.5102   20.0420 C   0  0  0  0  0  0  0  0  0  0  0  0
   14.2544    6.2142   19.4191 C   0  0  0  0  0  0  0  0  0  0  0  0
   13.0695    6.3705   20.0375 N   0  0  0  0  0  0  0  0  0  0  0  0
    9.1913    8.0876   21.8361 N   0  0  0  0  0  0  0  0  0  0  0  0
   10.4739    9.4813   20.2889 C   0  0  0  0  0  0  0  0  0  0  0  0
    7.5551    7.1270   23.1200 O   0  0  0  0  0  0  0  0  0  0  0  0
  1 11  4  0
  1 21  4  0
  2  4  1  0
  2  8  1  0
  2 11  1  0
  3 10  4  0
  3 14  4  0
  4  5  1  0
  4 18  2  0
  6 12  1  0
  6 17  4  0
  6 23  4  0
  7  9  1  0
  7 13  4  0
  7 19  4  0
  9 20  1  0
 10 19  4  0
 11 25  4  0
 13 14  4  0
 15 16  4  0
 15 17  4  0
 15 21  4  0
 16 24  1  0
 16 25  4  0
 20 24  1  0
 20 26  2  0
 21 23  4  0
 22 23  1  0
M  END
$$$$

 Created by Python create_sdf_string function

 26 28  0  0  0  0  0  0  0  0999 V2000
   12.4616    8.6700   19.4180 N   0  0  0  0  0  0  0  0  0  0  0  0
   11.8329   10.8148   18.6769 N   0  0  0  0  0  0  0  0  0  0  0  0
    6.1021    2.5564   21.0678 C   0  0  0  0  0  0  0  0  0  0  0  0
   10.9097   11.8051   18.4804 C   0  0  0  0  0  0  0  0  0  0  0  0
   11.2280   12.9135   17.5669 C   0  0  0  0  0  0  0  0  0  0  0  0
   12.3782    5.4231   20.7777 C   0  0  0  0  0  0  0  0  0  0  0  0
    7.7365    4.6508   21.6987 C   0  0  0  0  0  0  0  0  0  0  0  0
   13.0186   11.0102   18.0020 C   0  0  0  0  0  0  0  0  0  0  0  0
    8.6628    5.7088   21.8871 N   0  0  0  0  0  0  0  0  0  0  0  0
    5.6516    3.5258   21.9140 C   0  0  0  0  0  0  0  0  0  0  0  0
   11.5863    9.6815   19.4539 C   0  0  0  0  0  0  0  0  0  0  0  0
   12.9648    4.1543   20.9205 C   0  0  0  0  0  0  0  0  0  0  0  0
    8.2089    3.6265   20.8929 C   0  0  0  0  0  0  0  0  0  0  0  0
    7.3827    2.5724   20.5432 C   0  0  0  0  0  0  0  0  0  0  0  0
   11.1529    7.2750   20.8025 C   0  0  0  0  0  0  0  0  0  0  0  0
   10.2573    8.3215   20.9827 C   0  0  0  0  0  0  0  0  0  0  0  0
   11.1606    5.9378   21.2366 N   0  0  0  0  0  0  0  0  0  0  0  0
    9.8932   11.6736   19.0677 O   0  0  0  0  0  0  0  0  0  0  0  0
    6.4470    4.5850   22.2321 C   0  0  0  0  0  0  0  0  0  0  0  0
    8.4619    6.9895   22.2968 C   0  0  0  0  0  0  0  0  0  0  0  0
   12.2747    7.5102   20.0420 C   0  0  0  0  0  0  0  0  0  0  0  0
   14.2544    6.2142   19.4191 C   0  0  0  0  0  0  0  0  0  0  0  0
   13.0695    6.3705   20.0375 N   0  0  0  0  0  0  0  0  0  0  0  0
    9.1913    8.0876   21.8361 N   0  0  0  0  0  0  0  0  0  0  0  0
   10.4739    9.4813   20.2889 C   0  0  0  0  0  0  0  0  0  0  0  0
    7.5551    7.1270   23.1200 O   0  0  0  0  0  0  0  0  0  0  0  0
  1 11  4  0
  1 21  4  0
  2  4  1  0
  2  8  1  0
  2 11  1  0
  3 10  4  0
  3 14  4  0
  4  5  1  0
  4 18  2  0
  6 12  1  0
  6 17  4  0
  6 23  4  0
  7  9  1  0
  7 13  4  0
  7 19  4  0
  9 20  1  0
 10 19  4  0
 11 25  4  0
 13 14  4  0
 15 16  4  0
 15 17  4  0
 15 21  4  0
 16 24  1  0
 16 25  4  0
 20 24  1  0
 20 26  2  0
 21 23  4  0
 22 23  1  0
M  END
$$$$

 Created by Python create_sdf_string function

 26 28  0  0  0  0  0  0  0  0999 V2000
   12.4616    8.6700   19.4180 N   0  0  0  0  0  0  0  0  0  0  0  0
   11.8329   10.8148   18.6769 N   0  0  0  0  0  0  0  0  0  0  0  0
    6.1021    2.5564   21.0678 C   0  0  0  0  0  0  0  0  0  0  0  0
   10.9097   11.8051   18.4804 C   0  0  0  0  0  0  0  0  0  0  0  0
   11.2280   12.9135   17.5669 C   0  0  0  0  0  0  0  0  0  0  0  0
   12.3782    5.4231   20.7777 C   0  0  0  0  0  0  0  0  0  0  0  0
    7.7365    4.6508   21.6987 C   0  0  0  0  0  0  0  0  0  0  0  0
   13.0186   11.0102   18.0020 C   0  0  0  0  0  0  0  0  0  0  0  0
    8.6628    5.7088   21.8871 N   0  0  0  0  0  0  0  0  0  0  0  0
    5.6516    3.5258   21.9140 C   0  0  0  0  0  0  0  0  0  0  0  0
   11.5863    9.6815   19.4539 C   0  0  0  0  0  0  0  0  0  0  0  0
   12.9648    4.1543   20.9205 C   0  0  0  0  0  0  0  0  0  0  0  0
    8.2089    3.6265   20.8929 C   0  0  0  0  0  0  0  0  0  0  0  0
    7.3827    2.5724   20.5432 C   0  0  0  0  0  0  0  0  0  0  0  0
   11.1529    7.2750   20.8025 C   0  0  0  0  0  0  0  0  0  0  0  0
   10.2573    8.3215   20.9827 C   0  0  0  0  0  0  0  0  0  0  0  0
   11.1606    5.9378   21.2366 N   0  0  0  0  0  0  0  0  0  0  0  0
    9.8932   11.6736   19.0677 O   0  0  0  0  0  0  0  0  0  0  0  0
    6.4470    4.5850   22.2321 C   0  0  0  0  0  0  0  0  0  0  0  0
    8.4619    6.9895   22.2968 C   0  0  0  0  0  0  0  0  0  0  0  0
   12.2747    7.5102   20.0420 C   0  0  0  0  0  0  0  0  0  0  0  0
   14.2544    6.2142   19.4191 C   0  0  0  0  0  0  0  0  0  0  0  0
   13.0695    6.3705   20.0375 N   0  0  0  0  0  0  0  0  0  0  0  0
    9.1913    8.0876   21.8361 N   0  0  0  0  0  0  0  0  0  0  0  0
   10.4739    9.4813   20.2889 C   0  0  0  0  0  0  0  0  0  0  0  0
    7.5551    7.1270   23.1200 O   0  0  0  0  0  0  0  0  0  0  0  0
  1 11  4  0
  1 21  4  0
  2  4  1  0
  2  8  1  0
  2 11  1  0
  3 10  4  0
  3 14  4  0
  4  5  1  0
  4 18  2  0
  6 12  1  0
  6 17  4  0
  6 23  4  0
  7  9  1  0
  7 13  4  0
  7 19  4  0
  9 20  1  0
 10 19  4  0
 11 25  4  0
 13 14  4  0
 15 16  4  0
 15 17  4  0
 15 21  4  0
 16 24  1  0
 16 25  4  0
 20 24  1  0
 20 26  2  0
 21 23  4  0
 22 23  1  0
M  END
$$$$

 Created by Python create_sdf_string function

 26 28  0  0  0  0  0  0  0  0999 V2000
   12.4616    8.6700   19.4180 N   0  0  0  0  0  0  0  0  0  0  0  0
   11.8329   10.8148   18.6769 N   0  0  0  0  0  0  0  0  0  0  0  0
    6.1021    2.5564   21.0678 C   0  0  0  0  0  0  0  0  0  0  0  0
   10.9097   11.8051   18.4804 C   0  0  0  0  0  0  0  0  0  0  0  0
   11.2280   12.9135   17.5669 C   0  0  0  0  0  0  0  0  0  0  0  0
   12.3782    5.4231   20.7777 C   0  0  0  0  0  0  0  0  0  0  0  0
    7.7365    4.6508   21.6987 C   0  0  0  0  0  0  0  0  0  0  0  0
   13.0186   11.0102   18.0020 C   0  0  0  0  0  0  0  0  0  0  0  0
    8.6628    5.7088   21.8871 N   0  0  0  0  0  0  0  0  0  0  0  0
    5.6516    3.5258   21.9140 C   0  0  0  0  0  0  0  0  0  0  0  0
   11.5863    9.6815   19.4539 C   0  0  0  0  0  0  0  0  0  0  0  0
   12.9648    4.1543   20.9205 C   0  0  0  0  0  0  0  0  0  0  0  0
    8.2089    3.6265   20.8929 C   0  0  0  0  0  0  0  0  0  0  0  0
    7.3827    2.5724   20.5432 C   0  0  0  0  0  0  0  0  0  0  0  0
   11.1529    7.2750   20.8025 C   0  0  0  0  0  0  0  0  0  0  0  0
   10.2573    8.3215   20.9827 C   0  0  0  0  0  0  0  0  0  0  0  0
   11.1606    5.9378   21.2366 N   0  0  0  0  0  0  0  0  0  0  0  0
    9.8932   11.6736   19.0677 O   0  0  0  0  0  0  0  0  0  0  0  0
    6.4470    4.5850   22.2321 C   0  0  0  0  0  0  0  0  0  0  0  0
    8.4619    6.9895   22.2968 C   0  0  0  0  0  0  0  0  0  0  0  0
   12.2747    7.5102   20.0420 C   0  0  0  0  0  0  0  0  0  0  0  0
   14.2544    6.2142   19.4191 C   0  0  0  0  0  0  0  0  0  0  0  0
   13.0695    6.3705   20.0375 N   0  0  0  0  0  0  0  0  0  0  0  0
    9.1913    8.0876   21.8361 N   0  0  0  0  0  0  0  0  0  0  0  0
   10.4739    9.4813   20.2889 C   0  0  0  0  0  0  0  0  0  0  0  0
    7.5551    7.1270   23.1200 O   0  0  0  0  0  0  0  0  0  0  0  0
  1 11  4  0
  1 21  4  0
  2  4  1  0
  2  8  1  0
  2 11  1  0
  3 10  4  0
  3 14  4  0
  4  5  1  0
  4 18  2  0
  6 12  1  0
  6 17  4  0
  6 23  4  0
  7  9  1  0
  7 13  4  0
  7 19  4  0
  9 20  1  0
 10 19  4  0
 11 25  4  0
 13 14  4  0
 15 16  4  0
 15 17  4  0
 15 21  4  0
 16 24  1  0
 16 25  4  0
 20 24  1  0
 20 26  2  0
 21 23  4  0
 22 23  1  0
M  END
$$$$

 Created by Python create_sdf_string function

 26 28  0  0  0  0  0  0  0  0999 V2000
   12.4616    8.6700   19.4180 N   0  0  0  0  0  0  0  0  0  0  0  0
   11.8329   10.8148   18.6769 N   0  0  0  0  0  0  0  0  0  0  0  0
    6.1021    2.5564   21.0678 C   0  0  0  0  0  0  0  0  0  0  0  0
   10.9097   11.8051   18.4804 C   0  0  0  0  0  0  0  0  0  0  0  0
   11.2280   12.9135   17.5669 C   0  0  0  0  0  0  0  0  0  0  0  0
   12.3782    5.4231   20.7777 C   0  0  0  0  0  0  0  0  0  0  0  0
    7.7365    4.6508   21.6987 C   0  0  0  0  0  0  0  0  0  0  0  0
   13.0186   11.0102   18.0020 C   0  0  0  0  0  0  0  0  0  0  0  0
    8.6628    5.7088   21.8871 N   0  0  0  0  0  0  0  0  0  0  0  0
    5.6516    3.5258   21.9140 C   0  0  0  0  0  0  0  0  0  0  0  0
   11.5863    9.6815   19.4539 C   0  0  0  0  0  0  0  0  0  0  0  0
   12.9648    4.1543   20.9205 C   0  0  0  0  0  0  0  0  0  0  0  0
    8.2089    3.6265   20.8929 C   0  0  0  0  0  0  0  0  0  0  0  0
    7.3827    2.5724   20.5432 C   0  0  0  0  0  0  0  0  0  0  0  0
   11.1529    7.2750   20.8025 C   0  0  0  0  0  0  0  0  0  0  0  0
   10.2573    8.3215   20.9827 C   0  0  0  0  0  0  0  0  0  0  0  0
   11.1606    5.9378   21.2366 N   0  0  0  0  0  0  0  0  0  0  0  0
    9.8932   11.6736   19.0677 O   0  0  0  0  0  0  0  0  0  0  0  0
    6.4470    4.5850   22.2321 C   0  0  0  0  0  0  0  0  0  0  0  0
    8.4619    6.9895   22.2968 C   0  0  0  0  0  0  0  0  0  0  0  0
   12.2747    7.5102   20.0420 C   0  0  0  0  0  0  0  0  0  0  0  0
   14.2544    6.2142   19.4191 C   0  0  0  0  0  0  0  0  0  0  0  0
   13.0695    6.3705   20.0375 N   0  0  0  0  0  0  0  0  0  0  0  0
    9.1913    8.0876   21.8361 N   0  0  0  0  0  0  0  0  0  0  0  0
   10.4739    9.4813   20.2889 C   0  0  0  0  0  0  0  0  0  0  0  0
    7.5551    7.1270   23.1200 O   0  0  0  0  0  0  0  0  0  0  0  0
  1 11  4  0
  1 21  4  0
  2  4  1  0
  2  8  1  0
  2 11  1  0
  3 10  4  0
  3 14  4  0
  4  5  1  0
  4 18  2  0
  6 12  1  0
  6 17  4  0
  6 23  4  0
  7  9  1  0
  7 13  4  0
  7 19  4  0
  9 20  1  0
 10 19  4  0
 11 25  4  0
 13 14  4  0
 15 16  4  0
 15 17  4  0
 15 21  4  0
 16 24  1  0
 16 25  4  0
 20 24  1  0
 20 26  2  0
 21 23  4  0
 22 23  1  0
M  END
$$$$

 Created by Python create_sdf_string function

 26 28  0  0  0  0  0  0  0  0999 V2000
   12.4616    8.6700   19.4180 N   0  0  0  0  0  0  0  0  0  0  0  0
   11.8329   10.8148   18.6769 N   0  0  0  0  0  0  0  0  0  0  0  0
    6.1021    2.5564   21.0678 C   0  0  0  0  0  0  0  0  0  0  0  0
   10.9097   11.8051   18.4804 C   0  0  0  0  0  0  0  0  0  0  0  0
   11.2280   12.9135   17.5669 C   0  0  0  0  0  0  0  0  0  0  0  0
   12.3782    5.4231   20.7777 C   0  0  0  0  0  0  0  0  0  0  0  0
    7.7365    4.6508   21.6987 C   0  0  0  0  0  0  0  0  0  0  0  0
   13.0186   11.0102   18.0020 C   0  0  0  0  0  0  0  0  0  0  0  0
    8.6628    5.7088   21.8871 N   0  0  0  0  0  0  0  0  0  0  0  0
    5.6516    3.5258   21.9140 C   0  0  0  0  0  0  0  0  0  0  0  0
   11.5863    9.6815   19.4539 C   0  0  0  0  0  0  0  0  0  0  0  0
   12.9648    4.1543   20.9205 C   0  0  0  0  0  0  0  0  0  0  0  0
    8.2089    3.6265   20.8929 C   0  0  0  0  0  0  0  0  0  0  0  0
    7.3827    2.5724   20.5432 C   0  0  0  0  0  0  0  0  0  0  0  0
   11.1529    7.2750   20.8025 C   0  0  0  0  0  0  0  0  0  0  0  0
   10.2573    8.3215   20.9827 C   0  0  0  0  0  0  0  0  0  0  0  0
   11.1606    5.9378   21.2366 N   0  0  0  0  0  0  0  0  0  0  0  0
    9.8932   11.6736   19.0677 O   0  0  0  0  0  0  0  0  0  0  0  0
    6.4470    4.5850   22.2321 C   0  0  0  0  0  0  0  0  0  0  0  0
    8.4619    6.9895   22.2968 C   0  0  0  0  0  0  0  0  0  0  0  0
   12.2747    7.5102   20.0420 C   0  0  0  0  0  0  0  0  0  0  0  0
   14.2544    6.2142   19.4191 C   0  0  0  0  0  0  0  0  0  0  0  0
   13.0695    6.3705   20.0375 N   0  0  0  0  0  0  0  0  0  0  0  0
    9.1913    8.0876   21.8361 N   0  0  0  0  0  0  0  0  0  0  0  0
   10.4739    9.4813   20.2889 C   0  0  0  0  0  0  0  0  0  0  0  0
    7.5551    7.1270   23.1200 O   0  0  0  0  0  0  0  0  0  0  0  0
  1 11  4  0
  1 21  4  0
  2  4  1  0
  2  8  1  0
  2 11  1  0
  3 10  4  0
  3 14  4  0
  4  5  1  0
  4 18  2  0
  6 12  1  0
  6 17  4  0
  6 23  4  0
  7  9  1  0
  7 13  4  0
  7 19  4  0
  9 20  1  0
 10 19  4  0
 11 25  4  0
 13 14  4  0
 15 16  4  0
 15 17  4  0
 15 21  4  0
 16 24  1  0
 16 25  4  0
 20 24  1  0
 20 26  2  0
 21 23  4  0
 22 23  1  0
M  END
$$$$

 Created by Python create_sdf_string function

 26 28  0  0  0  0  0  0  0  0999 V2000
   12.4616    8.6700   19.4180 N   0  0  0  0  0  0  0  0  0  0  0  0
   11.8329   10.8148   18.6769 N   0  0  0  0  0  0  0  0  0  0  0  0
    6.1021    2.5564   21.0678 C   0  0  0  0  0  0  0  0  0  0  0  0
   10.9097   11.8051   18.4804 C   0  0  0  0  0  0  0  0  0  0  0  0
   11.2280   12.9135   17.5669 C   0  0  0  0  0  0  0  0  0  0  0  0
   12.3782    5.4231   20.7777 C   0  0  0  0  0  0  0  0  0  0  0  0
    7.7365    4.6508   21.6987 C   0  0  0  0  0  0  0  0  0  0  0  0
   13.0186   11.0102   18.0020 C   0  0  0  0  0  0  0  0  0  0  0  0
    8.6628    5.7088   21.8871 N   0  0  0  0  0  0  0  0  0  0  0  0
    5.6516    3.5258   21.9140 C   0  0  0  0  0  0  0  0  0  0  0  0
   11.5863    9.6815   19.4539 C   0  0  0  0  0  0  0  0  0  0  0  0
   12.9648    4.1543   20.9205 C   0  0  0  0  0  0  0  0  0  0  0  0
    8.2089    3.6265   20.8929 C   0  0  0  0  0  0  0  0  0  0  0  0
    7.3827    2.5724   20.5432 C   0  0  0  0  0  0  0  0  0  0  0  0
   11.1529    7.2750   20.8025 C   0  0  0  0  0  0  0  0  0  0  0  0
   10.2573    8.3215   20.9827 C   0  0  0  0  0  0  0  0  0  0  0  0
   11.1606    5.9378   21.2366 N   0  0  0  0  0  0  0  0  0  0  0  0
    9.8932   11.6736   19.0677 O   0  0  0  0  0  0  0  0  0  0  0  0
    6.4470    4.5850   22.2321 C   0  0  0  0  0  0  0  0  0  0  0  0
    8.4619    6.9895   22.2968 C   0  0  0  0  0  0  0  0  0  0  0  0
   12.2747    7.5102   20.0420 C   0  0  0  0  0  0  0  0  0  0  0  0
   14.2544    6.2142   19.4191 C   0  0  0  0  0  0  0  0  0  0  0  0
   13.0695    6.3705   20.0375 N   0  0  0  0  0  0  0  0  0  0  0  0
    9.1913    8.0876   21.8361 N   0  0  0  0  0  0  0  0  0  0  0  0
   10.4739    9.4813   20.2889 C   0  0  0  0  0  0  0  0  0  0  0  0
    7.5551    7.1270   23.1200 O   0  0  0  0  0  0  0  0  0  0  0  0
  1 11  4  0
  1 21  4  0
  2  4  1  0
  2  8  1  0
  2 11  1  0
  3 10  4  0
  3 14  4  0
  4  5  1  0
  4 18  2  0
  6 12  1  0
  6 17  4  0
  6 23  4  0
  7  9  1  0
  7 13  4  0
  7 19  4  0
  9 20  1  0
 10 19  4  0
 11 25  4  0
 13 14  4  0
 15 16  4  0
 15 17  4  0
 15 21  4  0
 16 24  1  0
 16 25  4  0
 20 24  1  0
 20 26  2  0
 21 23  4  0
 22 23  1  0
M  END
$$$$

 Created by Python create_sdf_string function

 26 28  0  0  0  0  0  0  0  0999 V2000
   12.4616    8.6700   19.4180 N   0  0  0  0  0  0  0  0  0  0  0  0
   11.8329   10.8148   18.6769 N   0  0  0  0  0  0  0  0  0  0  0  0
    6.1021    2.5564   21.0678 C   0  0  0  0  0  0  0  0  0  0  0  0
   10.9097   11.8051   18.4804 C   0  0  0  0  0  0  0  0  0  0  0  0
   11.2280   12.9135   17.5669 C   0  0  0  0  0  0  0  0  0  0  0  0
   12.3782    5.4231   20.7777 C   0  0  0  0  0  0  0  0  0  0  0  0
    7.7365    4.6508   21.6987 C   0  0  0  0  0  0  0  0  0  0  0  0
   13.0186   11.0102   18.0020 C   0  0  0  0  0  0  0  0  0  0  0  0
    8.6628    5.7088   21.8871 N   0  0  0  0  0  0  0  0  0  0  0  0
    5.6516    3.5258   21.9140 C   0  0  0  0  0  0  0  0  0  0  0  0
   11.5863    9.6815   19.4539 C   0  0  0  0  0  0  0  0  0  0  0  0
   12.9648    4.1543   20.9205 C   0  0  0  0  0  0  0  0  0  0  0  0
    8.2089    3.6265   20.8929 C   0  0  0  0  0  0  0  0  0  0  0  0
    7.3827    2.5724   20.5432 C   0  0  0  0  0  0  0  0  0  0  0  0
   11.1529    7.2750   20.8025 C   0  0  0  0  0  0  0  0  0  0  0  0
   10.2573    8.3215   20.9827 C   0  0  0  0  0  0  0  0  0  0  0  0
   11.1606    5.9378   21.2366 N   0  0  0  0  0  0  0  0  0  0  0  0
    9.8932   11.6736   19.0677 O   0  0  0  0  0  0  0  0  0  0  0  0
    6.4470    4.5850   22.2321 C   0  0  0  0  0  0  0  0  0  0  0  0
    8.4619    6.9895   22.2968 C   0  0  0  0  0  0  0  0  0  0  0  0
   12.2747    7.5102   20.0420 C   0  0  0  0  0  0  0  0  0  0  0  0
   14.2544    6.2142   19.4191 C   0  0  0  0  0  0  0  0  0  0  0  0
   13.0695    6.3705   20.0375 N   0  0  0  0  0  0  0  0  0  0  0  0
    9.1913    8.0876   21.8361 N   0  0  0  0  0  0  0  0  0  0  0  0
   10.4739    9.4813   20.2889 C   0  0  0  0  0  0  0  0  0  0  0  0
    7.5551    7.1270   23.1200 O   0  0  0  0  0  0  0  0  0  0  0  0
  1 11  4  0
  1 21  4  0
  2  4  1  0
  2  8  1  0
  2 11  1  0
  3 10  4  0
  3 14  4  0
  4  5  1  0
  4 18  2  0
  6 12  1  0
  6 17  4  0
  6 23  4  0
  7  9  1  0
  7 13  4  0
  7 19  4  0
  9 20  1  0
 10 19  4  0
 11 25  4  0
 13 14  4  0
 15 16  4  0
 15 17  4  0
 15 21  4  0
 16 24  1  0
 16 25  4  0
 20 24  1  0
 20 26  2  0
 21 23  4  0
 22 23  1  0
M  END
$$$$

 Created by Python create_sdf_string function

 26 28  0  0  0  0  0  0  0  0999 V2000
   12.4616    8.6700   19.4180 N   0  0  0  0  0  0  0  0  0  0  0  0
   11.8329   10.8148   18.6769 N   0  0  0  0  0  0  0  0  0  0  0  0
    6.1021    2.5564   21.0678 C   0  0  0  0  0  0  0  0  0  0  0  0
   10.9097   11.8051   18.4804 C   0  0  0  0  0  0  0  0  0  0  0  0
   11.2280   12.9135   17.5669 C   0  0  0  0  0  0  0  0  0  0  0  0
   12.3782    5.4231   20.7777 C   0  0  0  0  0  0  0  0  0  0  0  0
    7.7365    4.6508   21.6987 C   0  0  0  0  0  0  0  0  0  0  0  0
   13.0186   11.0102   18.0020 C   0  0  0  0  0  0  0  0  0  0  0  0
    8.6628    5.7088   21.8871 N   0  0  0  0  0  0  0  0  0  0  0  0
    5.6516    3.5258   21.9140 C   0  0  0  0  0  0  0  0  0  0  0  0
   11.5863    9.6815   19.4539 C   0  0  0  0  0  0  0  0  0  0  0  0
   12.9648    4.1543   20.9205 C   0  0  0  0  0  0  0  0  0  0  0  0
    8.2089    3.6265   20.8929 C   0  0  0  0  0  0  0  0  0  0  0  0
    7.3827    2.5724   20.5432 C   0  0  0  0  0  0  0  0  0  0  0  0
   11.1529    7.2750   20.8025 C   0  0  0  0  0  0  0  0  0  0  0  0
   10.2573    8.3215   20.9827 C   0  0  0  0  0  0  0  0  0  0  0  0
   11.1606    5.9378   21.2366 N   0  0  0  0  0  0  0  0  0  0  0  0
    9.8932   11.6736   19.0677 O   0  0  0  0  0  0  0  0  0  0  0  0
    6.4470    4.5850   22.2321 C   0  0  0  0  0  0  0  0  0  0  0  0
    8.4619    6.9895   22.2968 C   0  0  0  0  0  0  0  0  0  0  0  0
   12.2747    7.5102   20.0420 C   0  0  0  0  0  0  0  0  0  0  0  0
   14.2544    6.2142   19.4191 C   0  0  0  0  0  0  0  0  0  0  0  0
   13.0695    6.3705   20.0375 N   0  0  0  0  0  0  0  0  0  0  0  0
    9.1913    8.0876   21.8361 N   0  0  0  0  0  0  0  0  0  0  0  0
   10.4739    9.4813   20.2889 C   0  0  0  0  0  0  0  0  0  0  0  0
    7.5551    7.1270   23.1200 O   0  0  0  0  0  0  0  0  0  0  0  0
  1 11  4  0
  1 21  4  0
  2  4  1  0
  2  8  1  0
  2 11  1  0
  3 10  4  0
  3 14  4  0
  4  5  1  0
  4 18  2  0
  6 12  1  0
  6 17  4  0
  6 23  4  0
  7  9  1  0
  7 13  4  0
  7 19  4  0
  9 20  1  0
 10 19  4  0
 11 25  4  0
 13 14  4  0
 15 16  4  0
 15 17  4  0
 15 21  4  0
 16 24  1  0
 16 25  4  0
 20 24  1  0
 20 26  2  0
 21 23  4  0
 22 23  1  0
M  END
$$$$

 Created by Python create_sdf_string function

 26 28  0  0  0  0  0  0  0  0999 V2000
   12.4616    8.6700   19.4180 N   0  0  0  0  0  0  0  0  0  0  0  0
   11.8329   10.8148   18.6769 N   0  0  0  0  0  0  0  0  0  0  0  0
    6.1021    2.5564   21.0678 C   0  0  0  0  0  0  0  0  0  0  0  0
   10.9097   11.8051   18.4804 C   0  0  0  0  0  0  0  0  0  0  0  0
   11.2280   12.9135   17.5669 C   0  0  0  0  0  0  0  0  0  0  0  0
   12.3782    5.4231   20.7777 C   0  0  0  0  0  0  0  0  0  0  0  0
    7.7365    4.6508   21.6987 C   0  0  0  0  0  0  0  0  0  0  0  0
   13.0186   11.0102   18.0020 C   0  0  0  0  0  0  0  0  0  0  0  0
    8.6628    5.7088   21.8871 N   0  0  0  0  0  0  0  0  0  0  0  0
    5.6516    3.5258   21.9140 C   0  0  0  0  0  0  0  0  0  0  0  0
   11.5863    9.6815   19.4539 C   0  0  0  0  0  0  0  0  0  0  0  0
   12.9648    4.1543   20.9205 C   0  0  0  0  0  0  0  0  0  0  0  0
    8.2089    3.6265   20.8929 C   0  0  0  0  0  0  0  0  0  0  0  0
    7.3827    2.5724   20.5432 C   0  0  0  0  0  0  0  0  0  0  0  0
   11.1529    7.2750   20.8025 C   0  0  0  0  0  0  0  0  0  0  0  0
   10.2573    8.3215   20.9827 C   0  0  0  0  0  0  0  0  0  0  0  0
   11.1606    5.9378   21.2366 N   0  0  0  0  0  0  0  0  0  0  0  0
    9.8932   11.6736   19.0677 O   0  0  0  0  0  0  0  0  0  0  0  0
    6.4470    4.5850   22.2321 C   0  0  0  0  0  0  0  0  0  0  0  0
    8.4619    6.9895   22.2968 C   0  0  0  0  0  0  0  0  0  0  0  0
   12.2747    7.5102   20.0420 C   0  0  0  0  0  0  0  0  0  0  0  0
   14.2544    6.2142   19.4191 C   0  0  0  0  0  0  0  0  0  0  0  0
   13.0695    6.3705   20.0375 N   0  0  0  0  0  0  0  0  0  0  0  0
    9.1913    8.0876   21.8361 N   0  0  0  0  0  0  0  0  0  0  0  0
   10.4739    9.4813   20.2889 C   0  0  0  0  0  0  0  0  0  0  0  0
    7.5551    7.1270   23.1200 O   0  0  0  0  0  0  0  0  0  0  0  0
  1 11  4  0
  1 21  4  0
  2  4  1  0
  2  8  1  0
  2 11  1  0
  3 10  4  0
  3 14  4  0
  4  5  1  0
  4 18  2  0
  6 12  1  0
  6 17  4  0
  6 23  4  0
  7  9  1  0
  7 13  4  0
  7 19  4  0
  9 20  1  0
 10 19  4  0
 11 25  4  0
 13 14  4  0
 15 16  4  0
 15 17  4  0
 15 21  4  0
 16 24  1  0
 16 25  4  0
 20 24  1  0
 20 26  2  0
 21 23  4  0
 22 23  1  0
M  END
$$$$

 Created by Python create_sdf_string function

 26 28  0  0  0  0  0  0  0  0999 V2000
   12.4616    8.6700   19.4180 N   0  0  0  0  0  0  0  0  0  0  0  0
   11.8329   10.8148   18.6769 N   0  0  0  0  0  0  0  0  0  0  0  0
    6.1021    2.5564   21.0678 C   0  0  0  0  0  0  0  0  0  0  0  0
   10.9097   11.8051   18.4804 C   0  0  0  0  0  0  0  0  0  0  0  0
   11.2280   12.9135   17.5669 C   0  0  0  0  0  0  0  0  0  0  0  0
   12.3782    5.4231   20.7777 C   0  0  0  0  0  0  0  0  0  0  0  0
    7.7365    4.6508   21.6987 C   0  0  0  0  0  0  0  0  0  0  0  0
   13.0186   11.0102   18.0020 C   0  0  0  0  0  0  0  0  0  0  0  0
    8.6628    5.7088   21.8871 N   0  0  0  0  0  0  0  0  0  0  0  0
    5.6516    3.5258   21.9140 C   0  0  0  0  0  0  0  0  0  0  0  0
   11.5863    9.6815   19.4539 C   0  0  0  0  0  0  0  0  0  0  0  0
   12.9648    4.1543   20.9205 C   0  0  0  0  0  0  0  0  0  0  0  0
    8.2089    3.6265   20.8929 C   0  0  0  0  0  0  0  0  0  0  0  0
    7.3827    2.5724   20.5432 C   0  0  0  0  0  0  0  0  0  0  0  0
   11.1529    7.2750   20.8025 C   0  0  0  0  0  0  0  0  0  0  0  0
   10.2573    8.3215   20.9827 C   0  0  0  0  0  0  0  0  0  0  0  0
   11.1606    5.9378   21.2366 N   0  0  0  0  0  0  0  0  0  0  0  0
    9.8932   11.6736   19.0677 O   0  0  0  0  0  0  0  0  0  0  0  0
    6.4470    4.5850   22.2321 C   0  0  0  0  0  0  0  0  0  0  0  0
    8.4619    6.9895   22.2968 C   0  0  0  0  0  0  0  0  0  0  0  0
   12.2747    7.5102   20.0420 C   0  0  0  0  0  0  0  0  0  0  0  0
   14.2544    6.2142   19.4191 C   0  0  0  0  0  0  0  0  0  0  0  0
   13.0695    6.3705   20.0375 N   0  0  0  0  0  0  0  0  0  0  0  0
    9.1913    8.0876   21.8361 N   0  0  0  0  0  0  0  0  0  0  0  0
   10.4739    9.4813   20.2889 C   0  0  0  0  0  0  0  0  0  0  0  0
    7.5551    7.1270   23.1200 O   0  0  0  0  0  0  0  0  0  0  0  0
  1 11  4  0
  1 21  4  0
  2  4  1  0
  2  8  1  0
  2 11  1  0
  3 10  4  0
  3 14  4  0
  4  5  1  0
  4 18  2  0
  6 12  1  0
  6 17  4  0
  6 23  4  0
  7  9  1  0
  7 13  4  0
  7 19  4  0
  9 20  1  0
 10 19  4  0
 11 25  4  0
 13 14  4  0
 15 16  4  0
 15 17  4  0
 15 21  4  0
 16 24  1  0
 16 25  4  0
 20 24  1  0
 20 26  2  0
 21 23  4  0
 22 23  1  0
M  END
$$$$

 Created by Python create_sdf_string function

 26 28  0  0  0  0  0  0  0  0999 V2000
   12.4616    8.6700   19.4180 N   0  0  0  0  0  0  0  0  0  0  0  0
   11.8329   10.8148   18.6769 N   0  0  0  0  0  0  0  0  0  0  0  0
    6.1021    2.5564   21.0678 C   0  0  0  0  0  0  0  0  0  0  0  0
   10.9097   11.8051   18.4804 C   0  0  0  0  0  0  0  0  0  0  0  0
   11.2280   12.9135   17.5669 C   0  0  0  0  0  0  0  0  0  0  0  0
   12.3782    5.4231   20.7777 C   0  0  0  0  0  0  0  0  0  0  0  0
    7.7365    4.6508   21.6987 C   0  0  0  0  0  0  0  0  0  0  0  0
   13.0186   11.0102   18.0020 C   0  0  0  0  0  0  0  0  0  0  0  0
    8.6628    5.7088   21.8871 N   0  0  0  0  0  0  0  0  0  0  0  0
    5.6516    3.5258   21.9140 C   0  0  0  0  0  0  0  0  0  0  0  0
   11.5863    9.6815   19.4539 C   0  0  0  0  0  0  0  0  0  0  0  0
   12.9648    4.1543   20.9205 C   0  0  0  0  0  0  0  0  0  0  0  0
    8.2089    3.6265   20.8929 C   0  0  0  0  0  0  0  0  0  0  0  0
    7.3827    2.5724   20.5432 C   0  0  0  0  0  0  0  0  0  0  0  0
   11.1529    7.2750   20.8025 C   0  0  0  0  0  0  0  0  0  0  0  0
   10.2573    8.3215   20.9827 C   0  0  0  0  0  0  0  0  0  0  0  0
   11.1606    5.9378   21.2366 N   0  0  0  0  0  0  0  0  0  0  0  0
    9.8932   11.6736   19.0677 O   0  0  0  0  0  0  0  0  0  0  0  0
    6.4470    4.5850   22.2321 C   0  0  0  0  0  0  0  0  0  0  0  0
    8.4619    6.9895   22.2968 C   0  0  0  0  0  0  0  0  0  0  0  0
   12.2747    7.5102   20.0420 C   0  0  0  0  0  0  0  0  0  0  0  0
   14.2544    6.2142   19.4191 C   0  0  0  0  0  0  0  0  0  0  0  0
   13.0695    6.3705   20.0375 N   0  0  0  0  0  0  0  0  0  0  0  0
    9.1913    8.0876   21.8361 N   0  0  0  0  0  0  0  0  0  0  0  0
   10.4739    9.4813   20.2889 C   0  0  0  0  0  0  0  0  0  0  0  0
    7.5551    7.1270   23.1200 O   0  0  0  0  0  0  0  0  0  0  0  0
  1 11  4  0
  1 21  4  0
  2  4  1  0
  2  8  1  0
  2 11  1  0
  3 10  4  0
  3 14  4  0
  4  5  1  0
  4 18  2  0
  6 12  1  0
  6 17  4  0
  6 23  4  0
  7  9  1  0
  7 13  4  0
  7 19  4  0
  9 20  1  0
 10 19  4  0
 11 25  4  0
 13 14  4  0
 15 16  4  0
 15 17  4  0
 15 21  4  0
 16 24  1  0
 16 25  4  0
 20 24  1  0
 20 26  2  0
 21 23  4  0
 22 23  1  0
M  END
$$$$

 Created by Python create_sdf_string function

 26 28  0  0  0  0  0  0  0  0999 V2000
   12.4616    8.6700   19.4180 N   0  0  0  0  0  0  0  0  0  0  0  0
   11.8329   10.8148   18.6769 N   0  0  0  0  0  0  0  0  0  0  0  0
    6.1021    2.5564   21.0678 C   0  0  0  0  0  0  0  0  0  0  0  0
   10.9097   11.8051   18.4804 C   0  0  0  0  0  0  0  0  0  0  0  0
   11.2280   12.9135   17.5669 C   0  0  0  0  0  0  0  0  0  0  0  0
   12.3782    5.4231   20.7777 C   0  0  0  0  0  0  0  0  0  0  0  0
    7.7365    4.6508   21.6987 C   0  0  0  0  0  0  0  0  0  0  0  0
   13.0186   11.0102   18.0020 C   0  0  0  0  0  0  0  0  0  0  0  0
    8.6628    5.7088   21.8871 N   0  0  0  0  0  0  0  0  0  0  0  0
    5.6516    3.5258   21.9140 C   0  0  0  0  0  0  0  0  0  0  0  0
   11.5863    9.6815   19.4539 C   0  0  0  0  0  0  0  0  0  0  0  0
   12.9648    4.1543   20.9205 C   0  0  0  0  0  0  0  0  0  0  0  0
    8.2089    3.6265   20.8929 C   0  0  0  0  0  0  0  0  0  0  0  0
    7.3827    2.5724   20.5432 C   0  0  0  0  0  0  0  0  0  0  0  0
   11.1529    7.2750   20.8025 C   0  0  0  0  0  0  0  0  0  0  0  0
   10.2573    8.3215   20.9827 C   0  0  0  0  0  0  0  0  0  0  0  0
   11.1606    5.9378   21.2366 N   0  0  0  0  0  0  0  0  0  0  0  0
    9.8932   11.6736   19.0677 O   0  0  0  0  0  0  0  0  0  0  0  0
    6.4470    4.5850   22.2321 C   0  0  0  0  0  0  0  0  0  0  0  0
    8.4619    6.9895   22.2968 C   0  0  0  0  0  0  0  0  0  0  0  0
   12.2747    7.5102   20.0420 C   0  0  0  0  0  0  0  0  0  0  0  0
   14.2544    6.2142   19.4191 C   0  0  0  0  0  0  0  0  0  0  0  0
   13.0695    6.3705   20.0375 N   0  0  0  0  0  0  0  0  0  0  0  0
    9.1913    8.0876   21.8361 N   0  0  0  0  0  0  0  0  0  0  0  0
   10.4739    9.4813   20.2889 C   0  0  0  0  0  0  0  0  0  0  0  0
    7.5551    7.1270   23.1200 O   0  0  0  0  0  0  0  0  0  0  0  0
  1 11  4  0
  1 21  4  0
  2  4  1  0
  2  8  1  0
  2 11  1  0
  3 10  4  0
  3 14  4  0
  4  5  1  0
  4 18  2  0
  6 12  1  0
  6 17  4  0
  6 23  4  0
  7  9  1  0
  7 13  4  0
  7 19  4  0
  9 20  1  0
 10 19  4  0
 11 25  4  0
 13 14  4  0
 15 16  4  0
 15 17  4  0
 15 21  4  0
 16 24  1  0
 16 25  4  0
 20 24  1  0
 20 26  2  0
 21 23  4  0
 22 23  1  0
M  END
$$$$

 Created by Python create_sdf_string function

 26 28  0  0  0  0  0  0  0  0999 V2000
   12.4616    8.6700   19.4180 N   0  0  0  0  0  0  0  0  0  0  0  0
   11.8329   10.8148   18.6769 N   0  0  0  0  0  0  0  0  0  0  0  0
    6.1021    2.5564   21.0678 C   0  0  0  0  0  0  0  0  0  0  0  0
   10.9097   11.8051   18.4804 C   0  0  0  0  0  0  0  0  0  0  0  0
   11.2280   12.9135   17.5669 C   0  0  0  0  0  0  0  0  0  0  0  0
   12.3782    5.4231   20.7777 C   0  0  0  0  0  0  0  0  0  0  0  0
    7.7365    4.6508   21.6987 C   0  0  0  0  0  0  0  0  0  0  0  0
   13.0186   11.0102   18.0020 C   0  0  0  0  0  0  0  0  0  0  0  0
    8.6628    5.7088   21.8871 N   0  0  0  0  0  0  0  0  0  0  0  0
    5.6516    3.5258   21.9140 C   0  0  0  0  0  0  0  0  0  0  0  0
   11.5863    9.6815   19.4539 C   0  0  0  0  0  0  0  0  0  0  0  0
   12.9648    4.1543   20.9205 C   0  0  0  0  0  0  0  0  0  0  0  0
    8.2089    3.6265   20.8929 C   0  0  0  0  0  0  0  0  0  0  0  0
    7.3827    2.5724   20.5432 C   0  0  0  0  0  0  0  0  0  0  0  0
   11.1529    7.2750   20.8025 C   0  0  0  0  0  0  0  0  0  0  0  0
   10.2573    8.3215   20.9827 C   0  0  0  0  0  0  0  0  0  0  0  0
   11.1606    5.9378   21.2366 N   0  0  0  0  0  0  0  0  0  0  0  0
    9.8932   11.6736   19.0677 O   0  0  0  0  0  0  0  0  0  0  0  0
    6.4470    4.5850   22.2321 C   0  0  0  0  0  0  0  0  0  0  0  0
    8.4619    6.9895   22.2968 C   0  0  0  0  0  0  0  0  0  0  0  0
   12.2747    7.5102   20.0420 C   0  0  0  0  0  0  0  0  0  0  0  0
   14.2544    6.2142   19.4191 C   0  0  0  0  0  0  0  0  0  0  0  0
   13.0695    6.3705   20.0375 N   0  0  0  0  0  0  0  0  0  0  0  0
    9.1913    8.0876   21.8361 N   0  0  0  0  0  0  0  0  0  0  0  0
   10.4739    9.4813   20.2889 C   0  0  0  0  0  0  0  0  0  0  0  0
    7.5551    7.1270   23.1200 O   0  0  0  0  0  0  0  0  0  0  0  0
  1 11  4  0
  1 21  4  0
  2  4  1  0
  2  8  1  0
  2 11  1  0
  3 10  4  0
  3 14  4  0
  4  5  1  0
  4 18  2  0
  6 12  1  0
  6 17  4  0
  6 23  4  0
  7  9  1  0
  7 13  4  0
  7 19  4  0
  9 20  1  0
 10 19  4  0
 11 25  4  0
 13 14  4  0
 15 16  4  0
 15 17  4  0
 15 21  4  0
 16 24  1  0
 16 25  4  0
 20 24  1  0
 20 26  2  0
 21 23  4  0
 22 23  1  0
M  END
$$$$

 Created by Python create_sdf_string function

 26 28  0  0  0  0  0  0  0  0999 V2000
   12.4616    8.6700   19.4180 N   0  0  0  0  0  0  0  0  0  0  0  0
   11.8329   10.8148   18.6769 N   0  0  0  0  0  0  0  0  0  0  0  0
    6.1021    2.5564   21.0678 C   0  0  0  0  0  0  0  0  0  0  0  0
   10.9097   11.8051   18.4804 C   0  0  0  0  0  0  0  0  0  0  0  0
   11.2280   12.9135   17.5669 C   0  0  0  0  0  0  0  0  0  0  0  0
   12.3782    5.4231   20.7777 C   0  0  0  0  0  0  0  0  0  0  0  0
    7.7365    4.6508   21.6987 C   0  0  0  0  0  0  0  0  0  0  0  0
   13.0186   11.0102   18.0020 C   0  0  0  0  0  0  0  0  0  0  0  0
    8.6628    5.7088   21.8871 N   0  0  0  0  0  0  0  0  0  0  0  0
    5.6516    3.5258   21.9140 C   0  0  0  0  0  0  0  0  0  0  0  0
   11.5863    9.6815   19.4539 C   0  0  0  0  0  0  0  0  0  0  0  0
   12.9648    4.1543   20.9205 C   0  0  0  0  0  0  0  0  0  0  0  0
    8.2089    3.6265   20.8929 C   0  0  0  0  0  0  0  0  0  0  0  0
    7.3827    2.5724   20.5432 C   0  0  0  0  0  0  0  0  0  0  0  0
   11.1529    7.2750   20.8025 C   0  0  0  0  0  0  0  0  0  0  0  0
   10.2573    8.3215   20.9827 C   0  0  0  0  0  0  0  0  0  0  0  0
   11.1606    5.9378   21.2366 N   0  0  0  0  0  0  0  0  0  0  0  0
    9.8932   11.6736   19.0677 O   0  0  0  0  0  0  0  0  0  0  0  0
    6.4470    4.5850   22.2321 C   0  0  0  0  0  0  0  0  0  0  0  0
    8.4619    6.9895   22.2968 C   0  0  0  0  0  0  0  0  0  0  0  0
   12.2747    7.5102   20.0420 C   0  0  0  0  0  0  0  0  0  0  0  0
   14.2544    6.2142   19.4191 C   0  0  0  0  0  0  0  0  0  0  0  0
   13.0695    6.3705   20.0375 N   0  0  0  0  0  0  0  0  0  0  0  0
    9.1913    8.0876   21.8361 N   0  0  0  0  0  0  0  0  0  0  0  0
   10.4739    9.4813   20.2889 C   0  0  0  0  0  0  0  0  0  0  0  0
    7.5551    7.1270   23.1200 O   0  0  0  0  0  0  0  0  0  0  0  0
  1 11  4  0
  1 21  4  0
  2  4  1  0
  2  8  1  0
  2 11  1  0
  3 10  4  0
  3 14  4  0
  4  5  1  0
  4 18  2  0
  6 12  1  0
  6 17  4  0
  6 23  4  0
  7  9  1  0
  7 13  4  0
  7 19  4  0
  9 20  1  0
 10 19  4  0
 11 25  4  0
 13 14  4  0
 15 16  4  0
 15 17  4  0
 15 21  4  0
 16 24  1  0
 16 25  4  0
 20 24  1  0
 20 26  2  0
 21 23  4  0
 22 23  1  0
M  END
$$$$

 Created by Python create_sdf_string function

 26 28  0  0  0  0  0  0  0  0999 V2000
   12.4616    8.6700   19.4180 N   0  0  0  0  0  0  0  0  0  0  0  0
   11.8329   10.8148   18.6769 N   0  0  0  0  0  0  0  0  0  0  0  0
    6.1021    2.5564   21.0678 C   0  0  0  0  0  0  0  0  0  0  0  0
   10.9097   11.8051   18.4804 C   0  0  0  0  0  0  0  0  0  0  0  0
   11.2280   12.9135   17.5669 C   0  0  0  0  0  0  0  0  0  0  0  0
   12.3782    5.4231   20.7777 C   0  0  0  0  0  0  0  0  0  0  0  0
    7.7365    4.6508   21.6987 C   0  0  0  0  0  0  0  0  0  0  0  0
   13.0186   11.0102   18.0020 C   0  0  0  0  0  0  0  0  0  0  0  0
    8.6628    5.7088   21.8871 N   0  0  0  0  0  0  0  0  0  0  0  0
    5.6516    3.5258   21.9140 C   0  0  0  0  0  0  0  0  0  0  0  0
   11.5863    9.6815   19.4539 C   0  0  0  0  0  0  0  0  0  0  0  0
   12.9648    4.1543   20.9205 C   0  0  0  0  0  0  0  0  0  0  0  0
    8.2089    3.6265   20.8929 C   0  0  0  0  0  0  0  0  0  0  0  0
    7.3827    2.5724   20.5432 C   0  0  0  0  0  0  0  0  0  0  0  0
   11.1529    7.2750   20.8025 C   0  0  0  0  0  0  0  0  0  0  0  0
   10.2573    8.3215   20.9827 C   0  0  0  0  0  0  0  0  0  0  0  0
   11.1606    5.9378   21.2366 N   0  0  0  0  0  0  0  0  0  0  0  0
    9.8932   11.6736   19.0677 O   0  0  0  0  0  0  0  0  0  0  0  0
    6.4470    4.5850   22.2321 C   0  0  0  0  0  0  0  0  0  0  0  0
    8.4619    6.9895   22.2968 C   0  0  0  0  0  0  0  0  0  0  0  0
   12.2747    7.5102   20.0420 C   0  0  0  0  0  0  0  0  0  0  0  0
   14.2544    6.2142   19.4191 C   0  0  0  0  0  0  0  0  0  0  0  0
   13.0695    6.3705   20.0375 N   0  0  0  0  0  0  0  0  0  0  0  0
    9.1913    8.0876   21.8361 N   0  0  0  0  0  0  0  0  0  0  0  0
   10.4739    9.4813   20.2889 C   0  0  0  0  0  0  0  0  0  0  0  0
    7.5551    7.1270   23.1200 O   0  0  0  0  0  0  0  0  0  0  0  0
  1 11  4  0
  1 21  4  0
  2  4  1  0
  2  8  1  0
  2 11  1  0
  3 10  4  0
  3 14  4  0
  4  5  1  0
  4 18  2  0
  6 12  1  0
  6 17  4  0
  6 23  4  0
  7  9  1  0
  7 13  4  0
  7 19  4  0
  9 20  1  0
 10 19  4  0
 11 25  4  0
 13 14  4  0
 15 16  4  0
 15 17  4  0
 15 21  4  0
 16 24  1  0
 16 25  4  0
 20 24  1  0
 20 26  2  0
 21 23  4  0
 22 23  1  0
M  END
$$$$

 Created by Python create_sdf_string function

 26 28  0  0  0  0  0  0  0  0999 V2000
   12.4616    8.6700   19.4180 N   0  0  0  0  0  0  0  0  0  0  0  0
   11.8329   10.8148   18.6769 N   0  0  0  0  0  0  0  0  0  0  0  0
    6.1021    2.5564   21.0678 C   0  0  0  0  0  0  0  0  0  0  0  0
   10.9097   11.8051   18.4804 C   0  0  0  0  0  0  0  0  0  0  0  0
   11.2280   12.9135   17.5669 C   0  0  0  0  0  0  0  0  0  0  0  0
   12.3782    5.4231   20.7777 C   0  0  0  0  0  0  0  0  0  0  0  0
    7.7365    4.6508   21.6987 C   0  0  0  0  0  0  0  0  0  0  0  0
   13.0186   11.0102   18.0020 C   0  0  0  0  0  0  0  0  0  0  0  0
    8.6628    5.7088   21.8871 N   0  0  0  0  0  0  0  0  0  0  0  0
    5.6516    3.5258   21.9140 C   0  0  0  0  0  0  0  0  0  0  0  0
   11.5863    9.6815   19.4539 C   0  0  0  0  0  0  0  0  0  0  0  0
   12.9648    4.1543   20.9205 C   0  0  0  0  0  0  0  0  0  0  0  0
    8.2089    3.6265   20.8929 C   0  0  0  0  0  0  0  0  0  0  0  0
    7.3827    2.5724   20.5432 C   0  0  0  0  0  0  0  0  0  0  0  0
   11.1529    7.2750   20.8025 C   0  0  0  0  0  0  0  0  0  0  0  0
   10.2573    8.3215   20.9827 C   0  0  0  0  0  0  0  0  0  0  0  0
   11.1606    5.9378   21.2366 N   0  0  0  0  0  0  0  0  0  0  0  0
    9.8932   11.6736   19.0677 O   0  0  0  0  0  0  0  0  0  0  0  0
    6.4470    4.5850   22.2321 C   0  0  0  0  0  0  0  0  0  0  0  0
    8.4619    6.9895   22.2968 C   0  0  0  0  0  0  0  0  0  0  0  0
   12.2747    7.5102   20.0420 C   0  0  0  0  0  0  0  0  0  0  0  0
   14.2544    6.2142   19.4191 C   0  0  0  0  0  0  0  0  0  0  0  0
   13.0695    6.3705   20.0375 N   0  0  0  0  0  0  0  0  0  0  0  0
    9.1913    8.0876   21.8361 N   0  0  0  0  0  0  0  0  0  0  0  0
   10.4739    9.4813   20.2889 C   0  0  0  0  0  0  0  0  0  0  0  0
    7.5551    7.1270   23.1200 O   0  0  0  0  0  0  0  0  0  0  0  0
  1 11  4  0
  1 21  4  0
  2  4  1  0
  2  8  1  0
  2 11  1  0
  3 10  4  0
  3 14  4  0
  4  5  1  0
  4 18  2  0
  6 12  1  0
  6 17  4  0
  6 23  4  0
  7  9  1  0
  7 13  4  0
  7 19  4  0
  9 20  1  0
 10 19  4  0
 11 25  4  0
 13 14  4  0
 15 16  4  0
 15 17  4  0
 15 21  4  0
 16 24  1  0
 16 25  4  0
 20 24  1  0
 20 26  2  0
 21 23  4  0
 22 23  1  0
M  END
$$$$

 Created by Python create_sdf_string function

 26 28  0  0  0  0  0  0  0  0999 V2000
   12.4616    8.6700   19.4180 N   0  0  0  0  0  0  0  0  0  0  0  0
   11.8329   10.8148   18.6769 N   0  0  0  0  0  0  0  0  0  0  0  0
    6.1021    2.5564   21.0678 C   0  0  0  0  0  0  0  0  0  0  0  0
   10.9097   11.8051   18.4804 C   0  0  0  0  0  0  0  0  0  0  0  0
   11.2280   12.9135   17.5669 C   0  0  0  0  0  0  0  0  0  0  0  0
   12.3782    5.4231   20.7777 C   0  0  0  0  0  0  0  0  0  0  0  0
    7.7365    4.6508   21.6987 C   0  0  0  0  0  0  0  0  0  0  0  0
   13.0186   11.0102   18.0020 C   0  0  0  0  0  0  0  0  0  0  0  0
    8.6628    5.7088   21.8871 N   0  0  0  0  0  0  0  0  0  0  0  0
    5.6516    3.5258   21.9140 C   0  0  0  0  0  0  0  0  0  0  0  0
   11.5863    9.6815   19.4539 C   0  0  0  0  0  0  0  0  0  0  0  0
   12.9648    4.1543   20.9205 C   0  0  0  0  0  0  0  0  0  0  0  0
    8.2089    3.6265   20.8929 C   0  0  0  0  0  0  0  0  0  0  0  0
    7.3827    2.5724   20.5432 C   0  0  0  0  0  0  0  0  0  0  0  0
   11.1529    7.2750   20.8025 C   0  0  0  0  0  0  0  0  0  0  0  0
   10.2573    8.3215   20.9827 C   0  0  0  0  0  0  0  0  0  0  0  0
   11.1606    5.9378   21.2366 N   0  0  0  0  0  0  0  0  0  0  0  0
    9.8932   11.6736   19.0677 O   0  0  0  0  0  0  0  0  0  0  0  0
    6.4470    4.5850   22.2321 C   0  0  0  0  0  0  0  0  0  0  0  0
    8.4619    6.9895   22.2968 C   0  0  0  0  0  0  0  0  0  0  0  0
   12.2747    7.5102   20.0420 C   0  0  0  0  0  0  0  0  0  0  0  0
   14.2544    6.2142   19.4191 C   0  0  0  0  0  0  0  0  0  0  0  0
   13.0695    6.3705   20.0375 N   0  0  0  0  0  0  0  0  0  0  0  0
    9.1913    8.0876   21.8361 N   0  0  0  0  0  0  0  0  0  0  0  0
   10.4739    9.4813   20.2889 C   0  0  0  0  0  0  0  0  0  0  0  0
    7.5551    7.1270   23.1200 O   0  0  0  0  0  0  0  0  0  0  0  0
  1 11  4  0
  1 21  4  0
  2  4  1  0
  2  8  1  0
  2 11  1  0
  3 10  4  0
  3 14  4  0
  4  5  1  0
  4 18  2  0
  6 12  1  0
  6 17  4  0
  6 23  4  0
  7  9  1  0
  7 13  4  0
  7 19  4  0
  9 20  1  0
 10 19  4  0
 11 25  4  0
 13 14  4  0
 15 16  4  0
 15 17  4  0
 15 21  4  0
 16 24  1  0
 16 25  4  0
 20 24  1  0
 20 26  2  0
 21 23  4  0
 22 23  1  0
M  END
$$$$

 Created by Python create_sdf_string function

 26 28  0  0  0  0  0  0  0  0999 V2000
   12.4616    8.6700   19.4180 N   0  0  0  0  0  0  0  0  0  0  0  0
   11.8329   10.8148   18.6769 N   0  0  0  0  0  0  0  0  0  0  0  0
    6.1021    2.5564   21.0678 C   0  0  0  0  0  0  0  0  0  0  0  0
   10.9097   11.8051   18.4804 C   0  0  0  0  0  0  0  0  0  0  0  0
   11.2280   12.9135   17.5669 C   0  0  0  0  0  0  0  0  0  0  0  0
   12.3782    5.4231   20.7777 C   0  0  0  0  0  0  0  0  0  0  0  0
    7.7365    4.6508   21.6987 C   0  0  0  0  0  0  0  0  0  0  0  0
   13.0186   11.0102   18.0020 C   0  0  0  0  0  0  0  0  0  0  0  0
    8.6628    5.7088   21.8871 N   0  0  0  0  0  0  0  0  0  0  0  0
    5.6516    3.5258   21.9140 C   0  0  0  0  0  0  0  0  0  0  0  0
   11.5863    9.6815   19.4539 C   0  0  0  0  0  0  0  0  0  0  0  0
   12.9648    4.1543   20.9205 C   0  0  0  0  0  0  0  0  0  0  0  0
    8.2089    3.6265   20.8929 C   0  0  0  0  0  0  0  0  0  0  0  0
    7.3827    2.5724   20.5432 C   0  0  0  0  0  0  0  0  0  0  0  0
   11.1529    7.2750   20.8025 C   0  0  0  0  0  0  0  0  0  0  0  0
   10.2573    8.3215   20.9827 C   0  0  0  0  0  0  0  0  0  0  0  0
   11.1606    5.9378   21.2366 N   0  0  0  0  0  0  0  0  0  0  0  0
    9.8932   11.6736   19.0677 O   0  0  0  0  0  0  0  0  0  0  0  0
    6.4470    4.5850   22.2321 C   0  0  0  0  0  0  0  0  0  0  0  0
    8.4619    6.9895   22.2968 C   0  0  0  0  0  0  0  0  0  0  0  0
   12.2747    7.5102   20.0420 C   0  0  0  0  0  0  0  0  0  0  0  0
   14.2544    6.2142   19.4191 C   0  0  0  0  0  0  0  0  0  0  0  0
   13.0695    6.3705   20.0375 N   0  0  0  0  0  0  0  0  0  0  0  0
    9.1913    8.0876   21.8361 N   0  0  0  0  0  0  0  0  0  0  0  0
   10.4739    9.4813   20.2889 C   0  0  0  0  0  0  0  0  0  0  0  0
    7.5551    7.1270   23.1200 O   0  0  0  0  0  0  0  0  0  0  0  0
  1 11  4  0
  1 21  4  0
  2  4  1  0
  2  8  1  0
  2 11  1  0
  3 10  4  0
  3 14  4  0
  4  5  1  0
  4 18  2  0
  6 12  1  0
  6 17  4  0
  6 23  4  0
  7  9  1  0
  7 13  4  0
  7 19  4  0
  9 20  1  0
 10 19  4  0
 11 25  4  0
 13 14  4  0
 15 16  4  0
 15 17  4  0
 15 21  4  0
 16 24  1  0
 16 25  4  0
 20 24  1  0
 20 26  2  0
 21 23  4  0
 22 23  1  0
M  END
$$$$

 Created by Python create_sdf_string function

 26 28  0  0  0  0  0  0  0  0999 V2000
   12.4616    8.6700   19.4180 N   0  0  0  0  0  0  0  0  0  0  0  0
   11.8329   10.8148   18.6769 N   0  0  0  0  0  0  0  0  0  0  0  0
    6.1021    2.5564   21.0678 C   0  0  0  0  0  0  0  0  0  0  0  0
   10.9097   11.8051   18.4804 C   0  0  0  0  0  0  0  0  0  0  0  0
   11.2280   12.9135   17.5669 C   0  0  0  0  0  0  0  0  0  0  0  0
   12.3782    5.4231   20.7777 C   0  0  0  0  0  0  0  0  0  0  0  0
    7.7365    4.6508   21.6987 C   0  0  0  0  0  0  0  0  0  0  0  0
   13.0186   11.0102   18.0020 C   0  0  0  0  0  0  0  0  0  0  0  0
    8.6628    5.7088   21.8871 N   0  0  0  0  0  0  0  0  0  0  0  0
    5.6516    3.5258   21.9140 C   0  0  0  0  0  0  0  0  0  0  0  0
   11.5863    9.6815   19.4539 C   0  0  0  0  0  0  0  0  0  0  0  0
   12.9648    4.1543   20.9205 C   0  0  0  0  0  0  0  0  0  0  0  0
    8.2089    3.6265   20.8929 C   0  0  0  0  0  0  0  0  0  0  0  0
    7.3827    2.5724   20.5432 C   0  0  0  0  0  0  0  0  0  0  0  0
   11.1529    7.2750   20.8025 C   0  0  0  0  0  0  0  0  0  0  0  0
   10.2573    8.3215   20.9827 C   0  0  0  0  0  0  0  0  0  0  0  0
   11.1606    5.9378   21.2366 N   0  0  0  0  0  0  0  0  0  0  0  0
    9.8932   11.6736   19.0677 O   0  0  0  0  0  0  0  0  0  0  0  0
    6.4470    4.5850   22.2321 C   0  0  0  0  0  0  0  0  0  0  0  0
    8.4619    6.9895   22.2968 C   0  0  0  0  0  0  0  0  0  0  0  0
   12.2747    7.5102   20.0420 C   0  0  0  0  0  0  0  0  0  0  0  0
   14.2544    6.2142   19.4191 C   0  0  0  0  0  0  0  0  0  0  0  0
   13.0695    6.3705   20.0375 N   0  0  0  0  0  0  0  0  0  0  0  0
    9.1913    8.0876   21.8361 N   0  0  0  0  0  0  0  0  0  0  0  0
   10.4739    9.4813   20.2889 C   0  0  0  0  0  0  0  0  0  0  0  0
    7.5551    7.1270   23.1200 O   0  0  0  0  0  0  0  0  0  0  0  0
  1 11  4  0
  1 21  4  0
  2  4  1  0
  2  8  1  0
  2 11  1  0
  3 10  4  0
  3 14  4  0
  4  5  1  0
  4 18  2  0
  6 12  1  0
  6 17  4  0
  6 23  4  0
  7  9  1  0
  7 13  4  0
  7 19  4  0
  9 20  1  0
 10 19  4  0
 11 25  4  0
 13 14  4  0
 15 16  4  0
 15 17  4  0
 15 21  4  0
 16 24  1  0
 16 25  4  0
 20 24  1  0
 20 26  2  0
 21 23  4  0
 22 23  1  0
M  END
$$$$

 Created by Python create_sdf_string function

 26 28  0  0  0  0  0  0  0  0999 V2000
   12.4616    8.6700   19.4180 N   0  0  0  0  0  0  0  0  0  0  0  0
   11.8329   10.8148   18.6769 N   0  0  0  0  0  0  0  0  0  0  0  0
    6.1021    2.5564   21.0678 C   0  0  0  0  0  0  0  0  0  0  0  0
   10.9097   11.8051   18.4804 C   0  0  0  0  0  0  0  0  0  0  0  0
   11.2280   12.9135   17.5669 C   0  0  0  0  0  0  0  0  0  0  0  0
   12.3782    5.4231   20.7777 C   0  0  0  0  0  0  0  0  0  0  0  0
    7.7365    4.6508   21.6987 C   0  0  0  0  0  0  0  0  0  0  0  0
   13.0186   11.0102   18.0020 C   0  0  0  0  0  0  0  0  0  0  0  0
    8.6628    5.7088   21.8871 N   0  0  0  0  0  0  0  0  0  0  0  0
    5.6516    3.5258   21.9140 C   0  0  0  0  0  0  0  0  0  0  0  0
   11.5863    9.6815   19.4539 C   0  0  0  0  0  0  0  0  0  0  0  0
   12.9648    4.1543   20.9205 C   0  0  0  0  0  0  0  0  0  0  0  0
    8.2089    3.6265   20.8929 C   0  0  0  0  0  0  0  0  0  0  0  0
    7.3827    2.5724   20.5432 C   0  0  0  0  0  0  0  0  0  0  0  0
   11.1529    7.2750   20.8025 C   0  0  0  0  0  0  0  0  0  0  0  0
   10.2573    8.3215   20.9827 C   0  0  0  0  0  0  0  0  0  0  0  0
   11.1606    5.9378   21.2366 N   0  0  0  0  0  0  0  0  0  0  0  0
    9.8932   11.6736   19.0677 O   0  0  0  0  0  0  0  0  0  0  0  0
    6.4470    4.5850   22.2321 C   0  0  0  0  0  0  0  0  0  0  0  0
    8.4619    6.9895   22.2968 C   0  0  0  0  0  0  0  0  0  0  0  0
   12.2747    7.5102   20.0420 C   0  0  0  0  0  0  0  0  0  0  0  0
   14.2544    6.2142   19.4191 C   0  0  0  0  0  0  0  0  0  0  0  0
   13.0695    6.3705   20.0375 N   0  0  0  0  0  0  0  0  0  0  0  0
    9.1913    8.0876   21.8361 N   0  0  0  0  0  0  0  0  0  0  0  0
   10.4739    9.4813   20.2889 C   0  0  0  0  0  0  0  0  0  0  0  0
    7.5551    7.1270   23.1200 O   0  0  0  0  0  0  0  0  0  0  0  0
  1 11  4  0
  1 21  4  0
  2  4  1  0
  2  8  1  0
  2 11  1  0
  3 10  4  0
  3 14  4  0
  4  5  1  0
  4 18  2  0
  6 12  1  0
  6 17  4  0
  6 23  4  0
  7  9  1  0
  7 13  4  0
  7 19  4  0
  9 20  1  0
 10 19  4  0
 11 25  4  0
 13 14  4  0
 15 16  4  0
 15 17  4  0
 15 21  4  0
 16 24  1  0
 16 25  4  0
 20 24  1  0
 20 26  2  0
 21 23  4  0
 22 23  1  0
M  END
$$$$

 Created by Python create_sdf_string function

 26 28  0  0  0  0  0  0  0  0999 V2000
   12.4616    8.6700   19.4180 N   0  0  0  0  0  0  0  0  0  0  0  0
   11.8329   10.8148   18.6769 N   0  0  0  0  0  0  0  0  0  0  0  0
    6.1021    2.5564   21.0678 C   0  0  0  0  0  0  0  0  0  0  0  0
   10.9097   11.8051   18.4804 C   0  0  0  0  0  0  0  0  0  0  0  0
   11.2280   12.9135   17.5669 C   0  0  0  0  0  0  0  0  0  0  0  0
   12.3782    5.4231   20.7777 C   0  0  0  0  0  0  0  0  0  0  0  0
    7.7365    4.6508   21.6987 C   0  0  0  0  0  0  0  0  0  0  0  0
   13.0186   11.0102   18.0020 C   0  0  0  0  0  0  0  0  0  0  0  0
    8.6628    5.7088   21.8871 N   0  0  0  0  0  0  0  0  0  0  0  0
    5.6516    3.5258   21.9140 C   0  0  0  0  0  0  0  0  0  0  0  0
   11.5863    9.6815   19.4539 C   0  0  0  0  0  0  0  0  0  0  0  0
   12.9648    4.1543   20.9205 C   0  0  0  0  0  0  0  0  0  0  0  0
    8.2089    3.6265   20.8929 C   0  0  0  0  0  0  0  0  0  0  0  0
    7.3827    2.5724   20.5432 C   0  0  0  0  0  0  0  0  0  0  0  0
   11.1529    7.2750   20.8025 C   0  0  0  0  0  0  0  0  0  0  0  0
   10.2573    8.3215   20.9827 C   0  0  0  0  0  0  0  0  0  0  0  0
   11.1606    5.9378   21.2366 N   0  0  0  0  0  0  0  0  0  0  0  0
    9.8932   11.6736   19.0677 O   0  0  0  0  0  0  0  0  0  0  0  0
    6.4470    4.5850   22.2321 C   0  0  0  0  0  0  0  0  0  0  0  0
    8.4619    6.9895   22.2968 C   0  0  0  0  0  0  0  0  0  0  0  0
   12.2747    7.5102   20.0420 C   0  0  0  0  0  0  0  0  0  0  0  0
   14.2544    6.2142   19.4191 C   0  0  0  0  0  0  0  0  0  0  0  0
   13.0695    6.3705   20.0375 N   0  0  0  0  0  0  0  0  0  0  0  0
    9.1913    8.0876   21.8361 N   0  0  0  0  0  0  0  0  0  0  0  0
   10.4739    9.4813   20.2889 C   0  0  0  0  0  0  0  0  0  0  0  0
    7.5551    7.1270   23.1200 O   0  0  0  0  0  0  0  0  0  0  0  0
  1 11  4  0
  1 21  4  0
  2  4  1  0
  2  8  1  0
  2 11  1  0
  3 10  4  0
  3 14  4  0
  4  5  1  0
  4 18  2  0
  6 12  1  0
  6 17  4  0
  6 23  4  0
  7  9  1  0
  7 13  4  0
  7 19  4  0
  9 20  1  0
 10 19  4  0
 11 25  4  0
 13 14  4  0
 15 16  4  0
 15 17  4  0
 15 21  4  0
 16 24  1  0
 16 25  4  0
 20 24  1  0
 20 26  2  0
 21 23  4  0
 22 23  1  0
M  END
$$$$

 Created by Python create_sdf_string function

 26 28  0  0  0  0  0  0  0  0999 V2000
   12.4616    8.6700   19.4180 N   0  0  0  0  0  0  0  0  0  0  0  0
   11.8329   10.8148   18.6769 N   0  0  0  0  0  0  0  0  0  0  0  0
    6.1021    2.5564   21.0678 C   0  0  0  0  0  0  0  0  0  0  0  0
   10.9097   11.8051   18.4804 C   0  0  0  0  0  0  0  0  0  0  0  0
   11.2280   12.9135   17.5669 C   0  0  0  0  0  0  0  0  0  0  0  0
   12.3782    5.4231   20.7777 C   0  0  0  0  0  0  0  0  0  0  0  0
    7.7365    4.6508   21.6987 C   0  0  0  0  0  0  0  0  0  0  0  0
   13.0186   11.0102   18.0020 C   0  0  0  0  0  0  0  0  0  0  0  0
    8.6628    5.7088   21.8871 N   0  0  0  0  0  0  0  0  0  0  0  0
    5.6516    3.5258   21.9140 C   0  0  0  0  0  0  0  0  0  0  0  0
   11.5863    9.6815   19.4539 C   0  0  0  0  0  0  0  0  0  0  0  0
   12.9648    4.1543   20.9205 C   0  0  0  0  0  0  0  0  0  0  0  0
    8.2089    3.6265   20.8929 C   0  0  0  0  0  0  0  0  0  0  0  0
    7.3827    2.5724   20.5432 C   0  0  0  0  0  0  0  0  0  0  0  0
   11.1529    7.2750   20.8025 C   0  0  0  0  0  0  0  0  0  0  0  0
   10.2573    8.3215   20.9827 C   0  0  0  0  0  0  0  0  0  0  0  0
   11.1606    5.9378   21.2366 N   0  0  0  0  0  0  0  0  0  0  0  0
    9.8932   11.6736   19.0677 O   0  0  0  0  0  0  0  0  0  0  0  0
    6.4470    4.5850   22.2321 C   0  0  0  0  0  0  0  0  0  0  0  0
    8.4619    6.9895   22.2968 C   0  0  0  0  0  0  0  0  0  0  0  0
   12.2747    7.5102   20.0420 C   0  0  0  0  0  0  0  0  0  0  0  0
   14.2544    6.2142   19.4191 C   0  0  0  0  0  0  0  0  0  0  0  0
   13.0695    6.3705   20.0375 N   0  0  0  0  0  0  0  0  0  0  0  0
    9.1913    8.0876   21.8361 N   0  0  0  0  0  0  0  0  0  0  0  0
   10.4739    9.4813   20.2889 C   0  0  0  0  0  0  0  0  0  0  0  0
    7.5551    7.1270   23.1200 O   0  0  0  0  0  0  0  0  0  0  0  0
  1 11  4  0
  1 21  4  0
  2  4  1  0
  2  8  1  0
  2 11  1  0
  3 10  4  0
  3 14  4  0
  4  5  1  0
  4 18  2  0
  6 12  1  0
  6 17  4  0
  6 23  4  0
  7  9  1  0
  7 13  4  0
  7 19  4  0
  9 20  1  0
 10 19  4  0
 11 25  4  0
 13 14  4  0
 15 16  4  0
 15 17  4  0
 15 21  4  0
 16 24  1  0
 16 25  4  0
 20 24  1  0
 20 26  2  0
 21 23  4  0
 22 23  1  0
M  END
$$$$

 Created by Python create_sdf_string function

 26 28  0  0  0  0  0  0  0  0999 V2000
   12.4616    8.6700   19.4180 N   0  0  0  0  0  0  0  0  0  0  0  0
   11.8329   10.8148   18.6769 N   0  0  0  0  0  0  0  0  0  0  0  0
    6.1021    2.5564   21.0678 C   0  0  0  0  0  0  0  0  0  0  0  0
   10.9097   11.8051   18.4804 C   0  0  0  0  0  0  0  0  0  0  0  0
   11.2280   12.9135   17.5669 C   0  0  0  0  0  0  0  0  0  0  0  0
   12.3782    5.4231   20.7777 C   0  0  0  0  0  0  0  0  0  0  0  0
    7.7365    4.6508   21.6987 C   0  0  0  0  0  0  0  0  0  0  0  0
   13.0186   11.0102   18.0020 C   0  0  0  0  0  0  0  0  0  0  0  0
    8.6628    5.7088   21.8871 N   0  0  0  0  0  0  0  0  0  0  0  0
    5.6516    3.5258   21.9140 C   0  0  0  0  0  0  0  0  0  0  0  0
   11.5863    9.6815   19.4539 C   0  0  0  0  0  0  0  0  0  0  0  0
   12.9648    4.1543   20.9205 C   0  0  0  0  0  0  0  0  0  0  0  0
    8.2089    3.6265   20.8929 C   0  0  0  0  0  0  0  0  0  0  0  0
    7.3827    2.5724   20.5432 C   0  0  0  0  0  0  0  0  0  0  0  0
   11.1529    7.2750   20.8025 C   0  0  0  0  0  0  0  0  0  0  0  0
   10.2573    8.3215   20.9827 C   0  0  0  0  0  0  0  0  0  0  0  0
   11.1606    5.9378   21.2366 N   0  0  0  0  0  0  0  0  0  0  0  0
    9.8932   11.6736   19.0677 O   0  0  0  0  0  0  0  0  0  0  0  0
    6.4470    4.5850   22.2321 C   0  0  0  0  0  0  0  0  0  0  0  0
    8.4619    6.9895   22.2968 C   0  0  0  0  0  0  0  0  0  0  0  0
   12.2747    7.5102   20.0420 C   0  0  0  0  0  0  0  0  0  0  0  0
   14.2544    6.2142   19.4191 C   0  0  0  0  0  0  0  0  0  0  0  0
   13.0695    6.3705   20.0375 N   0  0  0  0  0  0  0  0  0  0  0  0
    9.1913    8.0876   21.8361 N   0  0  0  0  0  0  0  0  0  0  0  0
   10.4739    9.4813   20.2889 C   0  0  0  0  0  0  0  0  0  0  0  0
    7.5551    7.1270   23.1200 O   0  0  0  0  0  0  0  0  0  0  0  0
  1 11  4  0
  1 21  4  0
  2  4  1  0
  2  8  1  0
  2 11  1  0
  3 10  4  0
  3 14  4  0
  4  5  1  0
  4 18  2  0
  6 12  1  0
  6 17  4  0
  6 23  4  0
  7  9  1  0
  7 13  4  0
  7 19  4  0
  9 20  1  0
 10 19  4  0
 11 25  4  0
 13 14  4  0
 15 16  4  0
 15 17  4  0
 15 21  4  0
 16 24  1  0
 16 25  4  0
 20 24  1  0
 20 26  2  0
 21 23  4  0
 22 23  1  0
M  END
$$$$

 Created by Python create_sdf_string function

 26 28  0  0  0  0  0  0  0  0999 V2000
   12.4616    8.6700   19.4180 N   0  0  0  0  0  0  0  0  0  0  0  0
   11.8329   10.8148   18.6769 N   0  0  0  0  0  0  0  0  0  0  0  0
    6.1021    2.5564   21.0678 C   0  0  0  0  0  0  0  0  0  0  0  0
   10.9097   11.8051   18.4804 C   0  0  0  0  0  0  0  0  0  0  0  0
   11.2280   12.9135   17.5669 C   0  0  0  0  0  0  0  0  0  0  0  0
   12.3782    5.4231   20.7777 C   0  0  0  0  0  0  0  0  0  0  0  0
    7.7365    4.6508   21.6987 C   0  0  0  0  0  0  0  0  0  0  0  0
   13.0186   11.0102   18.0020 C   0  0  0  0  0  0  0  0  0  0  0  0
    8.6628    5.7088   21.8871 N   0  0  0  0  0  0  0  0  0  0  0  0
    5.6516    3.5258   21.9140 C   0  0  0  0  0  0  0  0  0  0  0  0
   11.5863    9.6815   19.4539 C   0  0  0  0  0  0  0  0  0  0  0  0
   12.9648    4.1543   20.9205 C   0  0  0  0  0  0  0  0  0  0  0  0
    8.2089    3.6265   20.8929 C   0  0  0  0  0  0  0  0  0  0  0  0
    7.3827    2.5724   20.5432 C   0  0  0  0  0  0  0  0  0  0  0  0
   11.1529    7.2750   20.8025 C   0  0  0  0  0  0  0  0  0  0  0  0
   10.2573    8.3215   20.9827 C   0  0  0  0  0  0  0  0  0  0  0  0
   11.1606    5.9378   21.2366 N   0  0  0  0  0  0  0  0  0  0  0  0
    9.8932   11.6736   19.0677 O   0  0  0  0  0  0  0  0  0  0  0  0
    6.4470    4.5850   22.2321 C   0  0  0  0  0  0  0  0  0  0  0  0
    8.4619    6.9895   22.2968 C   0  0  0  0  0  0  0  0  0  0  0  0
   12.2747    7.5102   20.0420 C   0  0  0  0  0  0  0  0  0  0  0  0
   14.2544    6.2142   19.4191 C   0  0  0  0  0  0  0  0  0  0  0  0
   13.0695    6.3705   20.0375 N   0  0  0  0  0  0  0  0  0  0  0  0
    9.1913    8.0876   21.8361 N   0  0  0  0  0  0  0  0  0  0  0  0
   10.4739    9.4813   20.2889 C   0  0  0  0  0  0  0  0  0  0  0  0
    7.5551    7.1270   23.1200 O   0  0  0  0  0  0  0  0  0  0  0  0
  1 11  4  0
  1 21  4  0
  2  4  1  0
  2  8  1  0
  2 11  1  0
  3 10  4  0
  3 14  4  0
  4  5  1  0
  4 18  2  0
  6 12  1  0
  6 17  4  0
  6 23  4  0
  7  9  1  0
  7 13  4  0
  7 19  4  0
  9 20  1  0
 10 19  4  0
 11 25  4  0
 13 14  4  0
 15 16  4  0
 15 17  4  0
 15 21  4  0
 16 24  1  0
 16 25  4  0
 20 24  1  0
 20 26  2  0
 21 23  4  0
 22 23  1  0
M  END
$$$$

 Created by Python create_sdf_string function

 26 28  0  0  0  0  0  0  0  0999 V2000
   12.4616    8.6700   19.4180 N   0  0  0  0  0  0  0  0  0  0  0  0
   11.8329   10.8148   18.6769 N   0  0  0  0  0  0  0  0  0  0  0  0
    6.1021    2.5564   21.0678 C   0  0  0  0  0  0  0  0  0  0  0  0
   10.9097   11.8051   18.4804 C   0  0  0  0  0  0  0  0  0  0  0  0
   11.2280   12.9135   17.5669 C   0  0  0  0  0  0  0  0  0  0  0  0
   12.3782    5.4231   20.7777 C   0  0  0  0  0  0  0  0  0  0  0  0
    7.7365    4.6508   21.6987 C   0  0  0  0  0  0  0  0  0  0  0  0
   13.0186   11.0102   18.0020 C   0  0  0  0  0  0  0  0  0  0  0  0
    8.6628    5.7088   21.8871 N   0  0  0  0  0  0  0  0  0  0  0  0
    5.6516    3.5258   21.9140 C   0  0  0  0  0  0  0  0  0  0  0  0
   11.5863    9.6815   19.4539 C   0  0  0  0  0  0  0  0  0  0  0  0
   12.9648    4.1543   20.9205 C   0  0  0  0  0  0  0  0  0  0  0  0
    8.2089    3.6265   20.8929 C   0  0  0  0  0  0  0  0  0  0  0  0
    7.3827    2.5724   20.5432 C   0  0  0  0  0  0  0  0  0  0  0  0
   11.1529    7.2750   20.8025 C   0  0  0  0  0  0  0  0  0  0  0  0
   10.2573    8.3215   20.9827 C   0  0  0  0  0  0  0  0  0  0  0  0
   11.1606    5.9378   21.2366 N   0  0  0  0  0  0  0  0  0  0  0  0
    9.8932   11.6736   19.0677 O   0  0  0  0  0  0  0  0  0  0  0  0
    6.4470    4.5850   22.2321 C   0  0  0  0  0  0  0  0  0  0  0  0
    8.4619    6.9895   22.2968 C   0  0  0  0  0  0  0  0  0  0  0  0
   12.2747    7.5102   20.0420 C   0  0  0  0  0  0  0  0  0  0  0  0
   14.2544    6.2142   19.4191 C   0  0  0  0  0  0  0  0  0  0  0  0
   13.0695    6.3705   20.0375 N   0  0  0  0  0  0  0  0  0  0  0  0
    9.1913    8.0876   21.8361 N   0  0  0  0  0  0  0  0  0  0  0  0
   10.4739    9.4813   20.2889 C   0  0  0  0  0  0  0  0  0  0  0  0
    7.5551    7.1270   23.1200 O   0  0  0  0  0  0  0  0  0  0  0  0
  1 11  4  0
  1 21  4  0
  2  4  1  0
  2  8  1  0
  2 11  1  0
  3 10  4  0
  3 14  4  0
  4  5  1  0
  4 18  2  0
  6 12  1  0
  6 17  4  0
  6 23  4  0
  7  9  1  0
  7 13  4  0
  7 19  4  0
  9 20  1  0
 10 19  4  0
 11 25  4  0
 13 14  4  0
 15 16  4  0
 15 17  4  0
 15 21  4  0
 16 24  1  0
 16 25  4  0
 20 24  1  0
 20 26  2  0
 21 23  4  0
 22 23  1  0
M  END
$$$$

 Created by Python create_sdf_string function

 26 28  0  0  0  0  0  0  0  0999 V2000
   12.4616    8.6700   19.4180 N   0  0  0  0  0  0  0  0  0  0  0  0
   11.8329   10.8148   18.6769 N   0  0  0  0  0  0  0  0  0  0  0  0
    6.1021    2.5564   21.0678 C   0  0  0  0  0  0  0  0  0  0  0  0
   10.9097   11.8051   18.4804 C   0  0  0  0  0  0  0  0  0  0  0  0
   11.2280   12.9135   17.5669 C   0  0  0  0  0  0  0  0  0  0  0  0
   12.3782    5.4231   20.7777 C   0  0  0  0  0  0  0  0  0  0  0  0
    7.7365    4.6508   21.6987 C   0  0  0  0  0  0  0  0  0  0  0  0
   13.0186   11.0102   18.0020 C   0  0  0  0  0  0  0  0  0  0  0  0
    8.6628    5.7088   21.8871 N   0  0  0  0  0  0  0  0  0  0  0  0
    5.6516    3.5258   21.9140 C   0  0  0  0  0  0  0  0  0  0  0  0
   11.5863    9.6815   19.4539 C   0  0  0  0  0  0  0  0  0  0  0  0
   12.9648    4.1543   20.9205 C   0  0  0  0  0  0  0  0  0  0  0  0
    8.2089    3.6265   20.8929 C   0  0  0  0  0  0  0  0  0  0  0  0
    7.3827    2.5724   20.5432 C   0  0  0  0  0  0  0  0  0  0  0  0
   11.1529    7.2750   20.8025 C   0  0  0  0  0  0  0  0  0  0  0  0
   10.2573    8.3215   20.9827 C   0  0  0  0  0  0  0  0  0  0  0  0
   11.1606    5.9378   21.2366 N   0  0  0  0  0  0  0  0  0  0  0  0
    9.8932   11.6736   19.0677 O   0  0  0  0  0  0  0  0  0  0  0  0
    6.4470    4.5850   22.2321 C   0  0  0  0  0  0  0  0  0  0  0  0
    8.4619    6.9895   22.2968 C   0  0  0  0  0  0  0  0  0  0  0  0
   12.2747    7.5102   20.0420 C   0  0  0  0  0  0  0  0  0  0  0  0
   14.2544    6.2142   19.4191 C   0  0  0  0  0  0  0  0  0  0  0  0
   13.0695    6.3705   20.0375 N   0  0  0  0  0  0  0  0  0  0  0  0
    9.1913    8.0876   21.8361 N   0  0  0  0  0  0  0  0  0  0  0  0
   10.4739    9.4813   20.2889 C   0  0  0  0  0  0  0  0  0  0  0  0
    7.5551    7.1270   23.1200 O   0  0  0  0  0  0  0  0  0  0  0  0
  1 11  4  0
  1 21  4  0
  2  4  1  0
  2  8  1  0
  2 11  1  0
  3 10  4  0
  3 14  4  0
  4  5  1  0
  4 18  2  0
  6 12  1  0
  6 17  4  0
  6 23  4  0
  7  9  1  0
  7 13  4  0
  7 19  4  0
  9 20  1  0
 10 19  4  0
 11 25  4  0
 13 14  4  0
 15 16  4  0
 15 17  4  0
 15 21  4  0
 16 24  1  0
 16 25  4  0
 20 24  1  0
 20 26  2  0
 21 23  4  0
 22 23  1  0
M  END
$$$$

 Created by Python create_sdf_string function

 26 28  0  0  0  0  0  0  0  0999 V2000
   12.4616    8.6700   19.4180 N   0  0  0  0  0  0  0  0  0  0  0  0
   11.8329   10.8148   18.6769 N   0  0  0  0  0  0  0  0  0  0  0  0
    6.1021    2.5564   21.0678 C   0  0  0  0  0  0  0  0  0  0  0  0
   10.9097   11.8051   18.4804 C   0  0  0  0  0  0  0  0  0  0  0  0
   11.2280   12.9135   17.5669 C   0  0  0  0  0  0  0  0  0  0  0  0
   12.3782    5.4231   20.7777 C   0  0  0  0  0  0  0  0  0  0  0  0
    7.7365    4.6508   21.6987 C   0  0  0  0  0  0  0  0  0  0  0  0
   13.0186   11.0102   18.0020 C   0  0  0  0  0  0  0  0  0  0  0  0
    8.6628    5.7088   21.8871 N   0  0  0  0  0  0  0  0  0  0  0  0
    5.6516    3.5258   21.9140 C   0  0  0  0  0  0  0  0  0  0  0  0
   11.5863    9.6815   19.4539 C   0  0  0  0  0  0  0  0  0  0  0  0
   12.9648    4.1543   20.9205 C   0  0  0  0  0  0  0  0  0  0  0  0
    8.2089    3.6265   20.8929 C   0  0  0  0  0  0  0  0  0  0  0  0
    7.3827    2.5724   20.5432 C   0  0  0  0  0  0  0  0  0  0  0  0
   11.1529    7.2750   20.8025 C   0  0  0  0  0  0  0  0  0  0  0  0
   10.2573    8.3215   20.9827 C   0  0  0  0  0  0  0  0  0  0  0  0
   11.1606    5.9378   21.2366 N   0  0  0  0  0  0  0  0  0  0  0  0
    9.8932   11.6736   19.0677 O   0  0  0  0  0  0  0  0  0  0  0  0
    6.4470    4.5850   22.2321 C   0  0  0  0  0  0  0  0  0  0  0  0
    8.4619    6.9895   22.2968 C   0  0  0  0  0  0  0  0  0  0  0  0
   12.2747    7.5102   20.0420 C   0  0  0  0  0  0  0  0  0  0  0  0
   14.2544    6.2142   19.4191 C   0  0  0  0  0  0  0  0  0  0  0  0
   13.0695    6.3705   20.0375 N   0  0  0  0  0  0  0  0  0  0  0  0
    9.1913    8.0876   21.8361 N   0  0  0  0  0  0  0  0  0  0  0  0
   10.4739    9.4813   20.2889 C   0  0  0  0  0  0  0  0  0  0  0  0
    7.5551    7.1270   23.1200 O   0  0  0  0  0  0  0  0  0  0  0  0
  1 11  4  0
  1 21  4  0
  2  4  1  0
  2  8  1  0
  2 11  1  0
  3 10  4  0
  3 14  4  0
  4  5  1  0
  4 18  2  0
  6 12  1  0
  6 17  4  0
  6 23  4  0
  7  9  1  0
  7 13  4  0
  7 19  4  0
  9 20  1  0
 10 19  4  0
 11 25  4  0
 13 14  4  0
 15 16  4  0
 15 17  4  0
 15 21  4  0
 16 24  1  0
 16 25  4  0
 20 24  1  0
 20 26  2  0
 21 23  4  0
 22 23  1  0
M  END
$$$$

 Created by Python create_sdf_string function

 26 28  0  0  0  0  0  0  0  0999 V2000
   12.4616    8.6700   19.4180 N   0  0  0  0  0  0  0  0  0  0  0  0
   11.8329   10.8148   18.6769 N   0  0  0  0  0  0  0  0  0  0  0  0
    6.1021    2.5564   21.0678 C   0  0  0  0  0  0  0  0  0  0  0  0
   10.9097   11.8051   18.4804 C   0  0  0  0  0  0  0  0  0  0  0  0
   11.2280   12.9135   17.5669 C   0  0  0  0  0  0  0  0  0  0  0  0
   12.3782    5.4231   20.7777 C   0  0  0  0  0  0  0  0  0  0  0  0
    7.7365    4.6508   21.6987 C   0  0  0  0  0  0  0  0  0  0  0  0
   13.0186   11.0102   18.0020 C   0  0  0  0  0  0  0  0  0  0  0  0
    8.6628    5.7088   21.8871 N   0  0  0  0  0  0  0  0  0  0  0  0
    5.6516    3.5258   21.9140 C   0  0  0  0  0  0  0  0  0  0  0  0
   11.5863    9.6815   19.4539 C   0  0  0  0  0  0  0  0  0  0  0  0
   12.9648    4.1543   20.9205 C   0  0  0  0  0  0  0  0  0  0  0  0
    8.2089    3.6265   20.8929 C   0  0  0  0  0  0  0  0  0  0  0  0
    7.3827    2.5724   20.5432 C   0  0  0  0  0  0  0  0  0  0  0  0
   11.1529    7.2750   20.8025 C   0  0  0  0  0  0  0  0  0  0  0  0
   10.2573    8.3215   20.9827 C   0  0  0  0  0  0  0  0  0  0  0  0
   11.1606    5.9378   21.2366 N   0  0  0  0  0  0  0  0  0  0  0  0
    9.8932   11.6736   19.0677 O   0  0  0  0  0  0  0  0  0  0  0  0
    6.4470    4.5850   22.2321 C   0  0  0  0  0  0  0  0  0  0  0  0
    8.4619    6.9895   22.2968 C   0  0  0  0  0  0  0  0  0  0  0  0
   12.2747    7.5102   20.0420 C   0  0  0  0  0  0  0  0  0  0  0  0
   14.2544    6.2142   19.4191 C   0  0  0  0  0  0  0  0  0  0  0  0
   13.0695    6.3705   20.0375 N   0  0  0  0  0  0  0  0  0  0  0  0
    9.1913    8.0876   21.8361 N   0  0  0  0  0  0  0  0  0  0  0  0
   10.4739    9.4813   20.2889 C   0  0  0  0  0  0  0  0  0  0  0  0
    7.5551    7.1270   23.1200 O   0  0  0  0  0  0  0  0  0  0  0  0
  1 11  4  0
  1 21  4  0
  2  4  1  0
  2  8  1  0
  2 11  1  0
  3 10  4  0
  3 14  4  0
  4  5  1  0
  4 18  2  0
  6 12  1  0
  6 17  4  0
  6 23  4  0
  7  9  1  0
  7 13  4  0
  7 19  4  0
  9 20  1  0
 10 19  4  0
 11 25  4  0
 13 14  4  0
 15 16  4  0
 15 17  4  0
 15 21  4  0
 16 24  1  0
 16 25  4  0
 20 24  1  0
 20 26  2  0
 21 23  4  0
 22 23  1  0
M  END
$$$$

 Created by Python create_sdf_string function

 26 28  0  0  0  0  0  0  0  0999 V2000
   12.4616    8.6700   19.4180 N   0  0  0  0  0  0  0  0  0  0  0  0
   11.8329   10.8148   18.6769 N   0  0  0  0  0  0  0  0  0  0  0  0
    6.1021    2.5564   21.0678 C   0  0  0  0  0  0  0  0  0  0  0  0
   10.9097   11.8051   18.4804 C   0  0  0  0  0  0  0  0  0  0  0  0
   11.2280   12.9135   17.5669 C   0  0  0  0  0  0  0  0  0  0  0  0
   12.3782    5.4231   20.7777 C   0  0  0  0  0  0  0  0  0  0  0  0
    7.7365    4.6508   21.6987 C   0  0  0  0  0  0  0  0  0  0  0  0
   13.0186   11.0102   18.0020 C   0  0  0  0  0  0  0  0  0  0  0  0
    8.6628    5.7088   21.8871 N   0  0  0  0  0  0  0  0  0  0  0  0
    5.6516    3.5258   21.9140 C   0  0  0  0  0  0  0  0  0  0  0  0
   11.5863    9.6815   19.4539 C   0  0  0  0  0  0  0  0  0  0  0  0
   12.9648    4.1543   20.9205 C   0  0  0  0  0  0  0  0  0  0  0  0
    8.2089    3.6265   20.8929 C   0  0  0  0  0  0  0  0  0  0  0  0
    7.3827    2.5724   20.5432 C   0  0  0  0  0  0  0  0  0  0  0  0
   11.1529    7.2750   20.8025 C   0  0  0  0  0  0  0  0  0  0  0  0
   10.2573    8.3215   20.9827 C   0  0  0  0  0  0  0  0  0  0  0  0
   11.1606    5.9378   21.2366 N   0  0  0  0  0  0  0  0  0  0  0  0
    9.8932   11.6736   19.0677 O   0  0  0  0  0  0  0  0  0  0  0  0
    6.4470    4.5850   22.2321 C   0  0  0  0  0  0  0  0  0  0  0  0
    8.4619    6.9895   22.2968 C   0  0  0  0  0  0  0  0  0  0  0  0
   12.2747    7.5102   20.0420 C   0  0  0  0  0  0  0  0  0  0  0  0
   14.2544    6.2142   19.4191 C   0  0  0  0  0  0  0  0  0  0  0  0
   13.0695    6.3705   20.0375 N   0  0  0  0  0  0  0  0  0  0  0  0
    9.1913    8.0876   21.8361 N   0  0  0  0  0  0  0  0  0  0  0  0
   10.4739    9.4813   20.2889 C   0  0  0  0  0  0  0  0  0  0  0  0
    7.5551    7.1270   23.1200 O   0  0  0  0  0  0  0  0  0  0  0  0
  1 11  4  0
  1 21  4  0
  2  4  1  0
  2  8  1  0
  2 11  1  0
  3 10  4  0
  3 14  4  0
  4  5  1  0
  4 18  2  0
  6 12  1  0
  6 17  4  0
  6 23  4  0
  7  9  1  0
  7 13  4  0
  7 19  4  0
  9 20  1  0
 10 19  4  0
 11 25  4  0
 13 14  4  0
 15 16  4  0
 15 17  4  0
 15 21  4  0
 16 24  1  0
 16 25  4  0
 20 24  1  0
 20 26  2  0
 21 23  4  0
 22 23  1  0
M  END
$$$$

 Created by Python create_sdf_string function

 26 28  0  0  0  0  0  0  0  0999 V2000
   12.4616    8.6700   19.4180 N   0  0  0  0  0  0  0  0  0  0  0  0
   11.8329   10.8148   18.6769 N   0  0  0  0  0  0  0  0  0  0  0  0
    6.1021    2.5564   21.0678 C   0  0  0  0  0  0  0  0  0  0  0  0
   10.9097   11.8051   18.4804 C   0  0  0  0  0  0  0  0  0  0  0  0
   11.2280   12.9135   17.5669 C   0  0  0  0  0  0  0  0  0  0  0  0
   12.3782    5.4231   20.7777 C   0  0  0  0  0  0  0  0  0  0  0  0
    7.7365    4.6508   21.6987 C   0  0  0  0  0  0  0  0  0  0  0  0
   13.0186   11.0102   18.0020 C   0  0  0  0  0  0  0  0  0  0  0  0
    8.6628    5.7088   21.8871 N   0  0  0  0  0  0  0  0  0  0  0  0
    5.6516    3.5258   21.9140 C   0  0  0  0  0  0  0  0  0  0  0  0
   11.5863    9.6815   19.4539 C   0  0  0  0  0  0  0  0  0  0  0  0
   12.9648    4.1543   20.9205 C   0  0  0  0  0  0  0  0  0  0  0  0
    8.2089    3.6265   20.8929 C   0  0  0  0  0  0  0  0  0  0  0  0
    7.3827    2.5724   20.5432 C   0  0  0  0  0  0  0  0  0  0  0  0
   11.1529    7.2750   20.8025 C   0  0  0  0  0  0  0  0  0  0  0  0
   10.2573    8.3215   20.9827 C   0  0  0  0  0  0  0  0  0  0  0  0
   11.1606    5.9378   21.2366 N   0  0  0  0  0  0  0  0  0  0  0  0
    9.8932   11.6736   19.0677 O   0  0  0  0  0  0  0  0  0  0  0  0
    6.4470    4.5850   22.2321 C   0  0  0  0  0  0  0  0  0  0  0  0
    8.4619    6.9895   22.2968 C   0  0  0  0  0  0  0  0  0  0  0  0
   12.2747    7.5102   20.0420 C   0  0  0  0  0  0  0  0  0  0  0  0
   14.2544    6.2142   19.4191 C   0  0  0  0  0  0  0  0  0  0  0  0
   13.0695    6.3705   20.0375 N   0  0  0  0  0  0  0  0  0  0  0  0
    9.1913    8.0876   21.8361 N   0  0  0  0  0  0  0  0  0  0  0  0
   10.4739    9.4813   20.2889 C   0  0  0  0  0  0  0  0  0  0  0  0
    7.5551    7.1270   23.1200 O   0  0  0  0  0  0  0  0  0  0  0  0
  1 11  4  0
  1 21  4  0
  2  4  1  0
  2  8  1  0
  2 11  1  0
  3 10  4  0
  3 14  4  0
  4  5  1  0
  4 18  2  0
  6 12  1  0
  6 17  4  0
  6 23  4  0
  7  9  1  0
  7 13  4  0
  7 19  4  0
  9 20  1  0
 10 19  4  0
 11 25  4  0
 13 14  4  0
 15 16  4  0
 15 17  4  0
 15 21  4  0
 16 24  1  0
 16 25  4  0
 20 24  1  0
 20 26  2  0
 21 23  4  0
 22 23  1  0
M  END
$$$$

 Created by Python create_sdf_string function

 26 28  0  0  0  0  0  0  0  0999 V2000
   12.4616    8.6700   19.4180 N   0  0  0  0  0  0  0  0  0  0  0  0
   11.8329   10.8148   18.6769 N   0  0  0  0  0  0  0  0  0  0  0  0
    6.1021    2.5564   21.0678 C   0  0  0  0  0  0  0  0  0  0  0  0
   10.9097   11.8051   18.4804 C   0  0  0  0  0  0  0  0  0  0  0  0
   11.2280   12.9135   17.5669 C   0  0  0  0  0  0  0  0  0  0  0  0
   12.3782    5.4231   20.7777 C   0  0  0  0  0  0  0  0  0  0  0  0
    7.7365    4.6508   21.6987 C   0  0  0  0  0  0  0  0  0  0  0  0
   13.0186   11.0102   18.0020 C   0  0  0  0  0  0  0  0  0  0  0  0
    8.6628    5.7088   21.8871 N   0  0  0  0  0  0  0  0  0  0  0  0
    5.6516    3.5258   21.9140 C   0  0  0  0  0  0  0  0  0  0  0  0
   11.5863    9.6815   19.4539 C   0  0  0  0  0  0  0  0  0  0  0  0
   12.9648    4.1543   20.9205 C   0  0  0  0  0  0  0  0  0  0  0  0
    8.2089    3.6265   20.8929 C   0  0  0  0  0  0  0  0  0  0  0  0
    7.3827    2.5724   20.5432 C   0  0  0  0  0  0  0  0  0  0  0  0
   11.1529    7.2750   20.8025 C   0  0  0  0  0  0  0  0  0  0  0  0
   10.2573    8.3215   20.9827 C   0  0  0  0  0  0  0  0  0  0  0  0
   11.1606    5.9378   21.2366 N   0  0  0  0  0  0  0  0  0  0  0  0
    9.8932   11.6736   19.0677 O   0  0  0  0  0  0  0  0  0  0  0  0
    6.4470    4.5850   22.2321 C   0  0  0  0  0  0  0  0  0  0  0  0
    8.4619    6.9895   22.2968 C   0  0  0  0  0  0  0  0  0  0  0  0
   12.2747    7.5102   20.0420 C   0  0  0  0  0  0  0  0  0  0  0  0
   14.2544    6.2142   19.4191 C   0  0  0  0  0  0  0  0  0  0  0  0
   13.0695    6.3705   20.0375 N   0  0  0  0  0  0  0  0  0  0  0  0
    9.1913    8.0876   21.8361 N   0  0  0  0  0  0  0  0  0  0  0  0
   10.4739    9.4813   20.2889 C   0  0  0  0  0  0  0  0  0  0  0  0
    7.5551    7.1270   23.1200 O   0  0  0  0  0  0  0  0  0  0  0  0
  1 11  4  0
  1 21  4  0
  2  4  1  0
  2  8  1  0
  2 11  1  0
  3 10  4  0
  3 14  4  0
  4  5  1  0
  4 18  2  0
  6 12  1  0
  6 17  4  0
  6 23  4  0
  7  9  1  0
  7 13  4  0
  7 19  4  0
  9 20  1  0
 10 19  4  0
 11 25  4  0
 13 14  4  0
 15 16  4  0
 15 17  4  0
 15 21  4  0
 16 24  1  0
 16 25  4  0
 20 24  1  0
 20 26  2  0
 21 23  4  0
 22 23  1  0
M  END
$$$$

 Created by Python create_sdf_string function

 26 28  0  0  0  0  0  0  0  0999 V2000
   12.4616    8.6700   19.4180 N   0  0  0  0  0  0  0  0  0  0  0  0
   11.8329   10.8148   18.6769 N   0  0  0  0  0  0  0  0  0  0  0  0
    6.1021    2.5564   21.0678 C   0  0  0  0  0  0  0  0  0  0  0  0
   10.9097   11.8051   18.4804 C   0  0  0  0  0  0  0  0  0  0  0  0
   11.2280   12.9135   17.5669 C   0  0  0  0  0  0  0  0  0  0  0  0
   12.3782    5.4231   20.7777 C   0  0  0  0  0  0  0  0  0  0  0  0
    7.7365    4.6508   21.6987 C   0  0  0  0  0  0  0  0  0  0  0  0
   13.0186   11.0102   18.0020 C   0  0  0  0  0  0  0  0  0  0  0  0
    8.6628    5.7088   21.8871 N   0  0  0  0  0  0  0  0  0  0  0  0
    5.6516    3.5258   21.9140 C   0  0  0  0  0  0  0  0  0  0  0  0
   11.5863    9.6815   19.4539 C   0  0  0  0  0  0  0  0  0  0  0  0
   12.9648    4.1543   20.9205 C   0  0  0  0  0  0  0  0  0  0  0  0
    8.2089    3.6265   20.8929 C   0  0  0  0  0  0  0  0  0  0  0  0
    7.3827    2.5724   20.5432 C   0  0  0  0  0  0  0  0  0  0  0  0
   11.1529    7.2750   20.8025 C   0  0  0  0  0  0  0  0  0  0  0  0
   10.2573    8.3215   20.9827 C   0  0  0  0  0  0  0  0  0  0  0  0
   11.1606    5.9378   21.2366 N   0  0  0  0  0  0  0  0  0  0  0  0
    9.8932   11.6736   19.0677 O   0  0  0  0  0  0  0  0  0  0  0  0
    6.4470    4.5850   22.2321 C   0  0  0  0  0  0  0  0  0  0  0  0
    8.4619    6.9895   22.2968 C   0  0  0  0  0  0  0  0  0  0  0  0
   12.2747    7.5102   20.0420 C   0  0  0  0  0  0  0  0  0  0  0  0
   14.2544    6.2142   19.4191 C   0  0  0  0  0  0  0  0  0  0  0  0
   13.0695    6.3705   20.0375 N   0  0  0  0  0  0  0  0  0  0  0  0
    9.1913    8.0876   21.8361 N   0  0  0  0  0  0  0  0  0  0  0  0
   10.4739    9.4813   20.2889 C   0  0  0  0  0  0  0  0  0  0  0  0
    7.5551    7.1270   23.1200 O   0  0  0  0  0  0  0  0  0  0  0  0
  1 11  4  0
  1 21  4  0
  2  4  1  0
  2  8  1  0
  2 11  1  0
  3 10  4  0
  3 14  4  0
  4  5  1  0
  4 18  2  0
  6 12  1  0
  6 17  4  0
  6 23  4  0
  7  9  1  0
  7 13  4  0
  7 19  4  0
  9 20  1  0
 10 19  4  0
 11 25  4  0
 13 14  4  0
 15 16  4  0
 15 17  4  0
 15 21  4  0
 16 24  1  0
 16 25  4  0
 20 24  1  0
 20 26  2  0
 21 23  4  0
 22 23  1  0
M  END
$$$$

 Created by Python create_sdf_string function

 26 28  0  0  0  0  0  0  0  0999 V2000
   12.4616    8.6700   19.4180 N   0  0  0  0  0  0  0  0  0  0  0  0
   11.8329   10.8148   18.6769 N   0  0  0  0  0  0  0  0  0  0  0  0
    6.1021    2.5564   21.0678 C   0  0  0  0  0  0  0  0  0  0  0  0
   10.9097   11.8051   18.4804 C   0  0  0  0  0  0  0  0  0  0  0  0
   11.2280   12.9135   17.5669 C   0  0  0  0  0  0  0  0  0  0  0  0
   12.3782    5.4231   20.7777 C   0  0  0  0  0  0  0  0  0  0  0  0
    7.7365    4.6508   21.6987 C   0  0  0  0  0  0  0  0  0  0  0  0
   13.0186   11.0102   18.0020 C   0  0  0  0  0  0  0  0  0  0  0  0
    8.6628    5.7088   21.8871 N   0  0  0  0  0  0  0  0  0  0  0  0
    5.6516    3.5258   21.9140 C   0  0  0  0  0  0  0  0  0  0  0  0
   11.5863    9.6815   19.4539 C   0  0  0  0  0  0  0  0  0  0  0  0
   12.9648    4.1543   20.9205 C   0  0  0  0  0  0  0  0  0  0  0  0
    8.2089    3.6265   20.8929 C   0  0  0  0  0  0  0  0  0  0  0  0
    7.3827    2.5724   20.5432 C   0  0  0  0  0  0  0  0  0  0  0  0
   11.1529    7.2750   20.8025 C   0  0  0  0  0  0  0  0  0  0  0  0
   10.2573    8.3215   20.9827 C   0  0  0  0  0  0  0  0  0  0  0  0
   11.1606    5.9378   21.2366 N   0  0  0  0  0  0  0  0  0  0  0  0
    9.8932   11.6736   19.0677 O   0  0  0  0  0  0  0  0  0  0  0  0
    6.4470    4.5850   22.2321 C   0  0  0  0  0  0  0  0  0  0  0  0
    8.4619    6.9895   22.2968 C   0  0  0  0  0  0  0  0  0  0  0  0
   12.2747    7.5102   20.0420 C   0  0  0  0  0  0  0  0  0  0  0  0
   14.2544    6.2142   19.4191 C   0  0  0  0  0  0  0  0  0  0  0  0
   13.0695    6.3705   20.0375 N   0  0  0  0  0  0  0  0  0  0  0  0
    9.1913    8.0876   21.8361 N   0  0  0  0  0  0  0  0  0  0  0  0
   10.4739    9.4813   20.2889 C   0  0  0  0  0  0  0  0  0  0  0  0
    7.5551    7.1270   23.1200 O   0  0  0  0  0  0  0  0  0  0  0  0
  1 11  4  0
  1 21  4  0
  2  4  1  0
  2  8  1  0
  2 11  1  0
  3 10  4  0
  3 14  4  0
  4  5  1  0
  4 18  2  0
  6 12  1  0
  6 17  4  0
  6 23  4  0
  7  9  1  0
  7 13  4  0
  7 19  4  0
  9 20  1  0
 10 19  4  0
 11 25  4  0
 13 14  4  0
 15 16  4  0
 15 17  4  0
 15 21  4  0
 16 24  1  0
 16 25  4  0
 20 24  1  0
 20 26  2  0
 21 23  4  0
 22 23  1  0
M  END
$$$$

 Created by Python create_sdf_string function

 26 28  0  0  0  0  0  0  0  0999 V2000
   12.4616    8.6700   19.4180 N   0  0  0  0  0  0  0  0  0  0  0  0
   11.8329   10.8148   18.6769 N   0  0  0  0  0  0  0  0  0  0  0  0
    6.1021    2.5564   21.0678 C   0  0  0  0  0  0  0  0  0  0  0  0
   10.9097   11.8051   18.4804 C   0  0  0  0  0  0  0  0  0  0  0  0
   11.2280   12.9135   17.5669 C   0  0  0  0  0  0  0  0  0  0  0  0
   12.3782    5.4231   20.7777 C   0  0  0  0  0  0  0  0  0  0  0  0
    7.7365    4.6508   21.6987 C   0  0  0  0  0  0  0  0  0  0  0  0
   13.0186   11.0102   18.0020 C   0  0  0  0  0  0  0  0  0  0  0  0
    8.6628    5.7088   21.8871 N   0  0  0  0  0  0  0  0  0  0  0  0
    5.6516    3.5258   21.9140 C   0  0  0  0  0  0  0  0  0  0  0  0
   11.5863    9.6815   19.4539 C   0  0  0  0  0  0  0  0  0  0  0  0
   12.9648    4.1543   20.9205 C   0  0  0  0  0  0  0  0  0  0  0  0
    8.2089    3.6265   20.8929 C   0  0  0  0  0  0  0  0  0  0  0  0
    7.3827    2.5724   20.5432 C   0  0  0  0  0  0  0  0  0  0  0  0
   11.1529    7.2750   20.8025 C   0  0  0  0  0  0  0  0  0  0  0  0
   10.2573    8.3215   20.9827 C   0  0  0  0  0  0  0  0  0  0  0  0
   11.1606    5.9378   21.2366 N   0  0  0  0  0  0  0  0  0  0  0  0
    9.8932   11.6736   19.0677 O   0  0  0  0  0  0  0  0  0  0  0  0
    6.4470    4.5850   22.2321 C   0  0  0  0  0  0  0  0  0  0  0  0
    8.4619    6.9895   22.2968 C   0  0  0  0  0  0  0  0  0  0  0  0
   12.2747    7.5102   20.0420 C   0  0  0  0  0  0  0  0  0  0  0  0
   14.2544    6.2142   19.4191 C   0  0  0  0  0  0  0  0  0  0  0  0
   13.0695    6.3705   20.0375 N   0  0  0  0  0  0  0  0  0  0  0  0
    9.1913    8.0876   21.8361 N   0  0  0  0  0  0  0  0  0  0  0  0
   10.4739    9.4813   20.2889 C   0  0  0  0  0  0  0  0  0  0  0  0
    7.5551    7.1270   23.1200 O   0  0  0  0  0  0  0  0  0  0  0  0
  1 11  4  0
  1 21  4  0
  2  4  1  0
  2  8  1  0
  2 11  1  0
  3 10  4  0
  3 14  4  0
  4  5  1  0
  4 18  2  0
  6 12  1  0
  6 17  4  0
  6 23  4  0
  7  9  1  0
  7 13  4  0
  7 19  4  0
  9 20  1  0
 10 19  4  0
 11 25  4  0
 13 14  4  0
 15 16  4  0
 15 17  4  0
 15 21  4  0
 16 24  1  0
 16 25  4  0
 20 24  1  0
 20 26  2  0
 21 23  4  0
 22 23  1  0
M  END
$$$$

 Created by Python create_sdf_string function

 26 28  0  0  0  0  0  0  0  0999 V2000
   12.4616    8.6700   19.4180 N   0  0  0  0  0  0  0  0  0  0  0  0
   11.8329   10.8148   18.6769 N   0  0  0  0  0  0  0  0  0  0  0  0
    6.1021    2.5564   21.0678 C   0  0  0  0  0  0  0  0  0  0  0  0
   10.9097   11.8051   18.4804 C   0  0  0  0  0  0  0  0  0  0  0  0
   11.2280   12.9135   17.5669 C   0  0  0  0  0  0  0  0  0  0  0  0
   12.3782    5.4231   20.7777 C   0  0  0  0  0  0  0  0  0  0  0  0
    7.7365    4.6508   21.6987 C   0  0  0  0  0  0  0  0  0  0  0  0
   13.0186   11.0102   18.0020 C   0  0  0  0  0  0  0  0  0  0  0  0
    8.6628    5.7088   21.8871 N   0  0  0  0  0  0  0  0  0  0  0  0
    5.6516    3.5258   21.9140 C   0  0  0  0  0  0  0  0  0  0  0  0
   11.5863    9.6815   19.4539 C   0  0  0  0  0  0  0  0  0  0  0  0
   12.9648    4.1543   20.9205 C   0  0  0  0  0  0  0  0  0  0  0  0
    8.2089    3.6265   20.8929 C   0  0  0  0  0  0  0  0  0  0  0  0
    7.3827    2.5724   20.5432 C   0  0  0  0  0  0  0  0  0  0  0  0
   11.1529    7.2750   20.8025 C   0  0  0  0  0  0  0  0  0  0  0  0
   10.2573    8.3215   20.9827 C   0  0  0  0  0  0  0  0  0  0  0  0
   11.1606    5.9378   21.2366 N   0  0  0  0  0  0  0  0  0  0  0  0
    9.8932   11.6736   19.0677 O   0  0  0  0  0  0  0  0  0  0  0  0
    6.4470    4.5850   22.2321 C   0  0  0  0  0  0  0  0  0  0  0  0
    8.4619    6.9895   22.2968 C   0  0  0  0  0  0  0  0  0  0  0  0
   12.2747    7.5102   20.0420 C   0  0  0  0  0  0  0  0  0  0  0  0
   14.2544    6.2142   19.4191 C   0  0  0  0  0  0  0  0  0  0  0  0
   13.0695    6.3705   20.0375 N   0  0  0  0  0  0  0  0  0  0  0  0
    9.1913    8.0876   21.8361 N   0  0  0  0  0  0  0  0  0  0  0  0
   10.4739    9.4813   20.2889 C   0  0  0  0  0  0  0  0  0  0  0  0
    7.5551    7.1270   23.1200 O   0  0  0  0  0  0  0  0  0  0  0  0
  1 11  4  0
  1 21  4  0
  2  4  1  0
  2  8  1  0
  2 11  1  0
  3 10  4  0
  3 14  4  0
  4  5  1  0
  4 18  2  0
  6 12  1  0
  6 17  4  0
  6 23  4  0
  7  9  1  0
  7 13  4  0
  7 19  4  0
  9 20  1  0
 10 19  4  0
 11 25  4  0
 13 14  4  0
 15 16  4  0
 15 17  4  0
 15 21  4  0
 16 24  1  0
 16 25  4  0
 20 24  1  0
 20 26  2  0
 21 23  4  0
 22 23  1  0
M  END
$$$$

 Created by Python create_sdf_string function

 26 28  0  0  0  0  0  0  0  0999 V2000
   12.4616    8.6700   19.4180 N   0  0  0  0  0  0  0  0  0  0  0  0
   11.8329   10.8148   18.6769 N   0  0  0  0  0  0  0  0  0  0  0  0
    6.1021    2.5564   21.0678 C   0  0  0  0  0  0  0  0  0  0  0  0
   10.9097   11.8051   18.4804 C   0  0  0  0  0  0  0  0  0  0  0  0
   11.2280   12.9135   17.5669 C   0  0  0  0  0  0  0  0  0  0  0  0
   12.3782    5.4231   20.7777 C   0  0  0  0  0  0  0  0  0  0  0  0
    7.7365    4.6508   21.6987 C   0  0  0  0  0  0  0  0  0  0  0  0
   13.0186   11.0102   18.0020 C   0  0  0  0  0  0  0  0  0  0  0  0
    8.6628    5.7088   21.8871 N   0  0  0  0  0  0  0  0  0  0  0  0
    5.6516    3.5258   21.9140 C   0  0  0  0  0  0  0  0  0  0  0  0
   11.5863    9.6815   19.4539 C   0  0  0  0  0  0  0  0  0  0  0  0
   12.9648    4.1543   20.9205 C   0  0  0  0  0  0  0  0  0  0  0  0
    8.2089    3.6265   20.8929 C   0  0  0  0  0  0  0  0  0  0  0  0
    7.3827    2.5724   20.5432 C   0  0  0  0  0  0  0  0  0  0  0  0
   11.1529    7.2750   20.8025 C   0  0  0  0  0  0  0  0  0  0  0  0
   10.2573    8.3215   20.9827 C   0  0  0  0  0  0  0  0  0  0  0  0
   11.1606    5.9378   21.2366 N   0  0  0  0  0  0  0  0  0  0  0  0
    9.8932   11.6736   19.0677 O   0  0  0  0  0  0  0  0  0  0  0  0
    6.4470    4.5850   22.2321 C   0  0  0  0  0  0  0  0  0  0  0  0
    8.4619    6.9895   22.2968 C   0  0  0  0  0  0  0  0  0  0  0  0
   12.2747    7.5102   20.0420 C   0  0  0  0  0  0  0  0  0  0  0  0
   14.2544    6.2142   19.4191 C   0  0  0  0  0  0  0  0  0  0  0  0
   13.0695    6.3705   20.0375 N   0  0  0  0  0  0  0  0  0  0  0  0
    9.1913    8.0876   21.8361 N   0  0  0  0  0  0  0  0  0  0  0  0
   10.4739    9.4813   20.2889 C   0  0  0  0  0  0  0  0  0  0  0  0
    7.5551    7.1270   23.1200 O   0  0  0  0  0  0  0  0  0  0  0  0
  1 11  4  0
  1 21  4  0
  2  4  1  0
  2  8  1  0
  2 11  1  0
  3 10  4  0
  3 14  4  0
  4  5  1  0
  4 18  2  0
  6 12  1  0
  6 17  4  0
  6 23  4  0
  7  9  1  0
  7 13  4  0
  7 19  4  0
  9 20  1  0
 10 19  4  0
 11 25  4  0
 13 14  4  0
 15 16  4  0
 15 17  4  0
 15 21  4  0
 16 24  1  0
 16 25  4  0
 20 24  1  0
 20 26  2  0
 21 23  4  0
 22 23  1  0
M  END
$$$$

 Created by Python create_sdf_string function

 26 28  0  0  0  0  0  0  0  0999 V2000
   12.4616    8.6700   19.4180 N   0  0  0  0  0  0  0  0  0  0  0  0
   11.8329   10.8148   18.6769 N   0  0  0  0  0  0  0  0  0  0  0  0
    6.1021    2.5564   21.0678 C   0  0  0  0  0  0  0  0  0  0  0  0
   10.9097   11.8051   18.4804 C   0  0  0  0  0  0  0  0  0  0  0  0
   11.2280   12.9135   17.5669 C   0  0  0  0  0  0  0  0  0  0  0  0
   12.3782    5.4231   20.7777 C   0  0  0  0  0  0  0  0  0  0  0  0
    7.7365    4.6508   21.6987 C   0  0  0  0  0  0  0  0  0  0  0  0
   13.0186   11.0102   18.0020 C   0  0  0  0  0  0  0  0  0  0  0  0
    8.6628    5.7088   21.8871 N   0  0  0  0  0  0  0  0  0  0  0  0
    5.6516    3.5258   21.9140 C   0  0  0  0  0  0  0  0  0  0  0  0
   11.5863    9.6815   19.4539 C   0  0  0  0  0  0  0  0  0  0  0  0
   12.9648    4.1543   20.9205 C   0  0  0  0  0  0  0  0  0  0  0  0
    8.2089    3.6265   20.8929 C   0  0  0  0  0  0  0  0  0  0  0  0
    7.3827    2.5724   20.5432 C   0  0  0  0  0  0  0  0  0  0  0  0
   11.1529    7.2750   20.8025 C   0  0  0  0  0  0  0  0  0  0  0  0
   10.2573    8.3215   20.9827 C   0  0  0  0  0  0  0  0  0  0  0  0
   11.1606    5.9378   21.2366 N   0  0  0  0  0  0  0  0  0  0  0  0
    9.8932   11.6736   19.0677 O   0  0  0  0  0  0  0  0  0  0  0  0
    6.4470    4.5850   22.2321 C   0  0  0  0  0  0  0  0  0  0  0  0
    8.4619    6.9895   22.2968 C   0  0  0  0  0  0  0  0  0  0  0  0
   12.2747    7.5102   20.0420 C   0  0  0  0  0  0  0  0  0  0  0  0
   14.2544    6.2142   19.4191 C   0  0  0  0  0  0  0  0  0  0  0  0
   13.0695    6.3705   20.0375 N   0  0  0  0  0  0  0  0  0  0  0  0
    9.1913    8.0876   21.8361 N   0  0  0  0  0  0  0  0  0  0  0  0
   10.4739    9.4813   20.2889 C   0  0  0  0  0  0  0  0  0  0  0  0
    7.5551    7.1270   23.1200 O   0  0  0  0  0  0  0  0  0  0  0  0
  1 11  4  0
  1 21  4  0
  2  4  1  0
  2  8  1  0
  2 11  1  0
  3 10  4  0
  3 14  4  0
  4  5  1  0
  4 18  2  0
  6 12  1  0
  6 17  4  0
  6 23  4  0
  7  9  1  0
  7 13  4  0
  7 19  4  0
  9 20  1  0
 10 19  4  0
 11 25  4  0
 13 14  4  0
 15 16  4  0
 15 17  4  0
 15 21  4  0
 16 24  1  0
 16 25  4  0
 20 24  1  0
 20 26  2  0
 21 23  4  0
 22 23  1  0
M  END
$$$$

 Created by Python create_sdf_string function

 26 28  0  0  0  0  0  0  0  0999 V2000
   12.4616    8.6700   19.4180 N   0  0  0  0  0  0  0  0  0  0  0  0
   11.8329   10.8148   18.6769 N   0  0  0  0  0  0  0  0  0  0  0  0
    6.1021    2.5564   21.0678 C   0  0  0  0  0  0  0  0  0  0  0  0
   10.9097   11.8051   18.4804 C   0  0  0  0  0  0  0  0  0  0  0  0
   11.2280   12.9135   17.5669 C   0  0  0  0  0  0  0  0  0  0  0  0
   12.3782    5.4231   20.7777 C   0  0  0  0  0  0  0  0  0  0  0  0
    7.7365    4.6508   21.6987 C   0  0  0  0  0  0  0  0  0  0  0  0
   13.0186   11.0102   18.0020 C   0  0  0  0  0  0  0  0  0  0  0  0
    8.6628    5.7088   21.8871 N   0  0  0  0  0  0  0  0  0  0  0  0
    5.6516    3.5258   21.9140 C   0  0  0  0  0  0  0  0  0  0  0  0
   11.5863    9.6815   19.4539 C   0  0  0  0  0  0  0  0  0  0  0  0
   12.9648    4.1543   20.9205 C   0  0  0  0  0  0  0  0  0  0  0  0
    8.2089    3.6265   20.8929 C   0  0  0  0  0  0  0  0  0  0  0  0
    7.3827    2.5724   20.5432 C   0  0  0  0  0  0  0  0  0  0  0  0
   11.1529    7.2750   20.8025 C   0  0  0  0  0  0  0  0  0  0  0  0
   10.2573    8.3215   20.9827 C   0  0  0  0  0  0  0  0  0  0  0  0
   11.1606    5.9378   21.2366 N   0  0  0  0  0  0  0  0  0  0  0  0
    9.8932   11.6736   19.0677 O   0  0  0  0  0  0  0  0  0  0  0  0
    6.4470    4.5850   22.2321 C   0  0  0  0  0  0  0  0  0  0  0  0
    8.4619    6.9895   22.2968 C   0  0  0  0  0  0  0  0  0  0  0  0
   12.2747    7.5102   20.0420 C   0  0  0  0  0  0  0  0  0  0  0  0
   14.2544    6.2142   19.4191 C   0  0  0  0  0  0  0  0  0  0  0  0
   13.0695    6.3705   20.0375 N   0  0  0  0  0  0  0  0  0  0  0  0
    9.1913    8.0876   21.8361 N   0  0  0  0  0  0  0  0  0  0  0  0
   10.4739    9.4813   20.2889 C   0  0  0  0  0  0  0  0  0  0  0  0
    7.5551    7.1270   23.1200 O   0  0  0  0  0  0  0  0  0  0  0  0
  1 11  4  0
  1 21  4  0
  2  4  1  0
  2  8  1  0
  2 11  1  0
  3 10  4  0
  3 14  4  0
  4  5  1  0
  4 18  2  0
  6 12  1  0
  6 17  4  0
  6 23  4  0
  7  9  1  0
  7 13  4  0
  7 19  4  0
  9 20  1  0
 10 19  4  0
 11 25  4  0
 13 14  4  0
 15 16  4  0
 15 17  4  0
 15 21  4  0
 16 24  1  0
 16 25  4  0
 20 24  1  0
 20 26  2  0
 21 23  4  0
 22 23  1  0
M  END
$$$$

 Created by Python create_sdf_string function

 26 28  0  0  0  0  0  0  0  0999 V2000
   12.4616    8.6700   19.4180 N   0  0  0  0  0  0  0  0  0  0  0  0
   11.8329   10.8148   18.6769 N   0  0  0  0  0  0  0  0  0  0  0  0
    6.1021    2.5564   21.0678 C   0  0  0  0  0  0  0  0  0  0  0  0
   10.9097   11.8051   18.4804 C   0  0  0  0  0  0  0  0  0  0  0  0
   11.2280   12.9135   17.5669 C   0  0  0  0  0  0  0  0  0  0  0  0
   12.3782    5.4231   20.7777 C   0  0  0  0  0  0  0  0  0  0  0  0
    7.7365    4.6508   21.6987 C   0  0  0  0  0  0  0  0  0  0  0  0
   13.0186   11.0102   18.0020 C   0  0  0  0  0  0  0  0  0  0  0  0
    8.6628    5.7088   21.8871 N   0  0  0  0  0  0  0  0  0  0  0  0
    5.6516    3.5258   21.9140 C   0  0  0  0  0  0  0  0  0  0  0  0
   11.5863    9.6815   19.4539 C   0  0  0  0  0  0  0  0  0  0  0  0
   12.9648    4.1543   20.9205 C   0  0  0  0  0  0  0  0  0  0  0  0
    8.2089    3.6265   20.8929 C   0  0  0  0  0  0  0  0  0  0  0  0
    7.3827    2.5724   20.5432 C   0  0  0  0  0  0  0  0  0  0  0  0
   11.1529    7.2750   20.8025 C   0  0  0  0  0  0  0  0  0  0  0  0
   10.2573    8.3215   20.9827 C   0  0  0  0  0  0  0  0  0  0  0  0
   11.1606    5.9378   21.2366 N   0  0  0  0  0  0  0  0  0  0  0  0
    9.8932   11.6736   19.0677 O   0  0  0  0  0  0  0  0  0  0  0  0
    6.4470    4.5850   22.2321 C   0  0  0  0  0  0  0  0  0  0  0  0
    8.4619    6.9895   22.2968 C   0  0  0  0  0  0  0  0  0  0  0  0
   12.2747    7.5102   20.0420 C   0  0  0  0  0  0  0  0  0  0  0  0
   14.2544    6.2142   19.4191 C   0  0  0  0  0  0  0  0  0  0  0  0
   13.0695    6.3705   20.0375 N   0  0  0  0  0  0  0  0  0  0  0  0
    9.1913    8.0876   21.8361 N   0  0  0  0  0  0  0  0  0  0  0  0
   10.4739    9.4813   20.2889 C   0  0  0  0  0  0  0  0  0  0  0  0
    7.5551    7.1270   23.1200 O   0  0  0  0  0  0  0  0  0  0  0  0
  1 11  4  0
  1 21  4  0
  2  4  1  0
  2  8  1  0
  2 11  1  0
  3 10  4  0
  3 14  4  0
  4  5  1  0
  4 18  2  0
  6 12  1  0
  6 17  4  0
  6 23  4  0
  7  9  1  0
  7 13  4  0
  7 19  4  0
  9 20  1  0
 10 19  4  0
 11 25  4  0
 13 14  4  0
 15 16  4  0
 15 17  4  0
 15 21  4  0
 16 24  1  0
 16 25  4  0
 20 24  1  0
 20 26  2  0
 21 23  4  0
 22 23  1  0
M  END
$$$$

 Created by Python create_sdf_string function

 26 28  0  0  0  0  0  0  0  0999 V2000
   12.4616    8.6700   19.4180 N   0  0  0  0  0  0  0  0  0  0  0  0
   11.8329   10.8148   18.6769 N   0  0  0  0  0  0  0  0  0  0  0  0
    6.1021    2.5564   21.0678 C   0  0  0  0  0  0  0  0  0  0  0  0
   10.9097   11.8051   18.4804 C   0  0  0  0  0  0  0  0  0  0  0  0
   11.2280   12.9135   17.5669 C   0  0  0  0  0  0  0  0  0  0  0  0
   12.3782    5.4231   20.7777 C   0  0  0  0  0  0  0  0  0  0  0  0
    7.7365    4.6508   21.6987 C   0  0  0  0  0  0  0  0  0  0  0  0
   13.0186   11.0102   18.0020 C   0  0  0  0  0  0  0  0  0  0  0  0
    8.6628    5.7088   21.8871 N   0  0  0  0  0  0  0  0  0  0  0  0
    5.6516    3.5258   21.9140 C   0  0  0  0  0  0  0  0  0  0  0  0
   11.5863    9.6815   19.4539 C   0  0  0  0  0  0  0  0  0  0  0  0
   12.9648    4.1543   20.9205 C   0  0  0  0  0  0  0  0  0  0  0  0
    8.2089    3.6265   20.8929 C   0  0  0  0  0  0  0  0  0  0  0  0
    7.3827    2.5724   20.5432 C   0  0  0  0  0  0  0  0  0  0  0  0
   11.1529    7.2750   20.8025 C   0  0  0  0  0  0  0  0  0  0  0  0
   10.2573    8.3215   20.9827 C   0  0  0  0  0  0  0  0  0  0  0  0
   11.1606    5.9378   21.2366 N   0  0  0  0  0  0  0  0  0  0  0  0
    9.8932   11.6736   19.0677 O   0  0  0  0  0  0  0  0  0  0  0  0
    6.4470    4.5850   22.2321 C   0  0  0  0  0  0  0  0  0  0  0  0
    8.4619    6.9895   22.2968 C   0  0  0  0  0  0  0  0  0  0  0  0
   12.2747    7.5102   20.0420 C   0  0  0  0  0  0  0  0  0  0  0  0
   14.2544    6.2142   19.4191 C   0  0  0  0  0  0  0  0  0  0  0  0
   13.0695    6.3705   20.0375 N   0  0  0  0  0  0  0  0  0  0  0  0
    9.1913    8.0876   21.8361 N   0  0  0  0  0  0  0  0  0  0  0  0
   10.4739    9.4813   20.2889 C   0  0  0  0  0  0  0  0  0  0  0  0
    7.5551    7.1270   23.1200 O   0  0  0  0  0  0  0  0  0  0  0  0
  1 11  4  0
  1 21  4  0
  2  4  1  0
  2  8  1  0
  2 11  1  0
  3 10  4  0
  3 14  4  0
  4  5  1  0
  4 18  2  0
  6 12  1  0
  6 17  4  0
  6 23  4  0
  7  9  1  0
  7 13  4  0
  7 19  4  0
  9 20  1  0
 10 19  4  0
 11 25  4  0
 13 14  4  0
 15 16  4  0
 15 17  4  0
 15 21  4  0
 16 24  1  0
 16 25  4  0
 20 24  1  0
 20 26  2  0
 21 23  4  0
 22 23  1  0
M  END
$$$$

 Created by Python create_sdf_string function

 26 28  0  0  0  0  0  0  0  0999 V2000
   12.4616    8.6700   19.4180 N   0  0  0  0  0  0  0  0  0  0  0  0
   11.8329   10.8148   18.6769 N   0  0  0  0  0  0  0  0  0  0  0  0
    6.1021    2.5564   21.0678 C   0  0  0  0  0  0  0  0  0  0  0  0
   10.9097   11.8051   18.4804 C   0  0  0  0  0  0  0  0  0  0  0  0
   11.2280   12.9135   17.5669 C   0  0  0  0  0  0  0  0  0  0  0  0
   12.3782    5.4231   20.7777 C   0  0  0  0  0  0  0  0  0  0  0  0
    7.7365    4.6508   21.6987 C   0  0  0  0  0  0  0  0  0  0  0  0
   13.0186   11.0102   18.0020 C   0  0  0  0  0  0  0  0  0  0  0  0
    8.6628    5.7088   21.8871 N   0  0  0  0  0  0  0  0  0  0  0  0
    5.6516    3.5258   21.9140 C   0  0  0  0  0  0  0  0  0  0  0  0
   11.5863    9.6815   19.4539 C   0  0  0  0  0  0  0  0  0  0  0  0
   12.9648    4.1543   20.9205 C   0  0  0  0  0  0  0  0  0  0  0  0
    8.2089    3.6265   20.8929 C   0  0  0  0  0  0  0  0  0  0  0  0
    7.3827    2.5724   20.5432 C   0  0  0  0  0  0  0  0  0  0  0  0
   11.1529    7.2750   20.8025 C   0  0  0  0  0  0  0  0  0  0  0  0
   10.2573    8.3215   20.9827 C   0  0  0  0  0  0  0  0  0  0  0  0
   11.1606    5.9378   21.2366 N   0  0  0  0  0  0  0  0  0  0  0  0
    9.8932   11.6736   19.0677 O   0  0  0  0  0  0  0  0  0  0  0  0
    6.4470    4.5850   22.2321 C   0  0  0  0  0  0  0  0  0  0  0  0
    8.4619    6.9895   22.2968 C   0  0  0  0  0  0  0  0  0  0  0  0
   12.2747    7.5102   20.0420 C   0  0  0  0  0  0  0  0  0  0  0  0
   14.2544    6.2142   19.4191 C   0  0  0  0  0  0  0  0  0  0  0  0
   13.0695    6.3705   20.0375 N   0  0  0  0  0  0  0  0  0  0  0  0
    9.1913    8.0876   21.8361 N   0  0  0  0  0  0  0  0  0  0  0  0
   10.4739    9.4813   20.2889 C   0  0  0  0  0  0  0  0  0  0  0  0
    7.5551    7.1270   23.1200 O   0  0  0  0  0  0  0  0  0  0  0  0
  1 11  4  0
  1 21  4  0
  2  4  1  0
  2  8  1  0
  2 11  1  0
  3 10  4  0
  3 14  4  0
  4  5  1  0
  4 18  2  0
  6 12  1  0
  6 17  4  0
  6 23  4  0
  7  9  1  0
  7 13  4  0
  7 19  4  0
  9 20  1  0
 10 19  4  0
 11 25  4  0
 13 14  4  0
 15 16  4  0
 15 17  4  0
 15 21  4  0
 16 24  1  0
 16 25  4  0
 20 24  1  0
 20 26  2  0
 21 23  4  0
 22 23  1  0
M  END
$$$$

 Created by Python create_sdf_string function

 26 28  0  0  0  0  0  0  0  0999 V2000
   12.4616    8.6700   19.4180 N   0  0  0  0  0  0  0  0  0  0  0  0
   11.8329   10.8148   18.6769 N   0  0  0  0  0  0  0  0  0  0  0  0
    6.1021    2.5564   21.0678 C   0  0  0  0  0  0  0  0  0  0  0  0
   10.9097   11.8051   18.4804 C   0  0  0  0  0  0  0  0  0  0  0  0
   11.2280   12.9135   17.5669 C   0  0  0  0  0  0  0  0  0  0  0  0
   12.3782    5.4231   20.7777 C   0  0  0  0  0  0  0  0  0  0  0  0
    7.7365    4.6508   21.6987 C   0  0  0  0  0  0  0  0  0  0  0  0
   13.0186   11.0102   18.0020 C   0  0  0  0  0  0  0  0  0  0  0  0
    8.6628    5.7088   21.8871 N   0  0  0  0  0  0  0  0  0  0  0  0
    5.6516    3.5258   21.9140 C   0  0  0  0  0  0  0  0  0  0  0  0
   11.5863    9.6815   19.4539 C   0  0  0  0  0  0  0  0  0  0  0  0
   12.9648    4.1543   20.9205 C   0  0  0  0  0  0  0  0  0  0  0  0
    8.2089    3.6265   20.8929 C   0  0  0  0  0  0  0  0  0  0  0  0
    7.3827    2.5724   20.5432 C   0  0  0  0  0  0  0  0  0  0  0  0
   11.1529    7.2750   20.8025 C   0  0  0  0  0  0  0  0  0  0  0  0
   10.2573    8.3215   20.9827 C   0  0  0  0  0  0  0  0  0  0  0  0
   11.1606    5.9378   21.2366 N   0  0  0  0  0  0  0  0  0  0  0  0
    9.8932   11.6736   19.0677 O   0  0  0  0  0  0  0  0  0  0  0  0
    6.4470    4.5850   22.2321 C   0  0  0  0  0  0  0  0  0  0  0  0
    8.4619    6.9895   22.2968 C   0  0  0  0  0  0  0  0  0  0  0  0
   12.2747    7.5102   20.0420 C   0  0  0  0  0  0  0  0  0  0  0  0
   14.2544    6.2142   19.4191 C   0  0  0  0  0  0  0  0  0  0  0  0
   13.0695    6.3705   20.0375 N   0  0  0  0  0  0  0  0  0  0  0  0
    9.1913    8.0876   21.8361 N   0  0  0  0  0  0  0  0  0  0  0  0
   10.4739    9.4813   20.2889 C   0  0  0  0  0  0  0  0  0  0  0  0
    7.5551    7.1270   23.1200 O   0  0  0  0  0  0  0  0  0  0  0  0
  1 11  4  0
  1 21  4  0
  2  4  1  0
  2  8  1  0
  2 11  1  0
  3 10  4  0
  3 14  4  0
  4  5  1  0
  4 18  2  0
  6 12  1  0
  6 17  4  0
  6 23  4  0
  7  9  1  0
  7 13  4  0
  7 19  4  0
  9 20  1  0
 10 19  4  0
 11 25  4  0
 13 14  4  0
 15 16  4  0
 15 17  4  0
 15 21  4  0
 16 24  1  0
 16 25  4  0
 20 24  1  0
 20 26  2  0
 21 23  4  0
 22 23  1  0
M  END
$$$$

 Created by Python create_sdf_string function

 26 28  0  0  0  0  0  0  0  0999 V2000
   12.4616    8.6700   19.4180 N   0  0  0  0  0  0  0  0  0  0  0  0
   11.8329   10.8148   18.6769 N   0  0  0  0  0  0  0  0  0  0  0  0
    6.1021    2.5564   21.0678 C   0  0  0  0  0  0  0  0  0  0  0  0
   10.9097   11.8051   18.4804 C   0  0  0  0  0  0  0  0  0  0  0  0
   11.2280   12.9135   17.5669 C   0  0  0  0  0  0  0  0  0  0  0  0
   12.3782    5.4231   20.7777 C   0  0  0  0  0  0  0  0  0  0  0  0
    7.7365    4.6508   21.6987 C   0  0  0  0  0  0  0  0  0  0  0  0
   13.0186   11.0102   18.0020 C   0  0  0  0  0  0  0  0  0  0  0  0
    8.6628    5.7088   21.8871 N   0  0  0  0  0  0  0  0  0  0  0  0
    5.6516    3.5258   21.9140 C   0  0  0  0  0  0  0  0  0  0  0  0
   11.5863    9.6815   19.4539 C   0  0  0  0  0  0  0  0  0  0  0  0
   12.9648    4.1543   20.9205 C   0  0  0  0  0  0  0  0  0  0  0  0
    8.2089    3.6265   20.8929 C   0  0  0  0  0  0  0  0  0  0  0  0
    7.3827    2.5724   20.5432 C   0  0  0  0  0  0  0  0  0  0  0  0
   11.1529    7.2750   20.8025 C   0  0  0  0  0  0  0  0  0  0  0  0
   10.2573    8.3215   20.9827 C   0  0  0  0  0  0  0  0  0  0  0  0
   11.1606    5.9378   21.2366 N   0  0  0  0  0  0  0  0  0  0  0  0
    9.8932   11.6736   19.0677 O   0  0  0  0  0  0  0  0  0  0  0  0
    6.4470    4.5850   22.2321 C   0  0  0  0  0  0  0  0  0  0  0  0
    8.4619    6.9895   22.2968 C   0  0  0  0  0  0  0  0  0  0  0  0
   12.2747    7.5102   20.0420 C   0  0  0  0  0  0  0  0  0  0  0  0
   14.2544    6.2142   19.4191 C   0  0  0  0  0  0  0  0  0  0  0  0
   13.0695    6.3705   20.0375 N   0  0  0  0  0  0  0  0  0  0  0  0
    9.1913    8.0876   21.8361 N   0  0  0  0  0  0  0  0  0  0  0  0
   10.4739    9.4813   20.2889 C   0  0  0  0  0  0  0  0  0  0  0  0
    7.5551    7.1270   23.1200 O   0  0  0  0  0  0  0  0  0  0  0  0
  1 11  4  0
  1 21  4  0
  2  4  1  0
  2  8  1  0
  2 11  1  0
  3 10  4  0
  3 14  4  0
  4  5  1  0
  4 18  2  0
  6 12  1  0
  6 17  4  0
  6 23  4  0
  7  9  1  0
  7 13  4  0
  7 19  4  0
  9 20  1  0
 10 19  4  0
 11 25  4  0
 13 14  4  0
 15 16  4  0
 15 17  4  0
 15 21  4  0
 16 24  1  0
 16 25  4  0
 20 24  1  0
 20 26  2  0
 21 23  4  0
 22 23  1  0
M  END
$$$$

 Created by Python create_sdf_string function

 26 28  0  0  0  0  0  0  0  0999 V2000
   12.4616    8.6700   19.4180 N   0  0  0  0  0  0  0  0  0  0  0  0
   11.8329   10.8148   18.6769 N   0  0  0  0  0  0  0  0  0  0  0  0
    6.1021    2.5564   21.0678 C   0  0  0  0  0  0  0  0  0  0  0  0
   10.9097   11.8051   18.4804 C   0  0  0  0  0  0  0  0  0  0  0  0
   11.2280   12.9135   17.5669 C   0  0  0  0  0  0  0  0  0  0  0  0
   12.3782    5.4231   20.7777 C   0  0  0  0  0  0  0  0  0  0  0  0
    7.7365    4.6508   21.6987 C   0  0  0  0  0  0  0  0  0  0  0  0
   13.0186   11.0102   18.0020 C   0  0  0  0  0  0  0  0  0  0  0  0
    8.6628    5.7088   21.8871 N   0  0  0  0  0  0  0  0  0  0  0  0
    5.6516    3.5258   21.9140 C   0  0  0  0  0  0  0  0  0  0  0  0
   11.5863    9.6815   19.4539 C   0  0  0  0  0  0  0  0  0  0  0  0
   12.9648    4.1543   20.9205 C   0  0  0  0  0  0  0  0  0  0  0  0
    8.2089    3.6265   20.8929 C   0  0  0  0  0  0  0  0  0  0  0  0
    7.3827    2.5724   20.5432 C   0  0  0  0  0  0  0  0  0  0  0  0
   11.1529    7.2750   20.8025 C   0  0  0  0  0  0  0  0  0  0  0  0
   10.2573    8.3215   20.9827 C   0  0  0  0  0  0  0  0  0  0  0  0
   11.1606    5.9378   21.2366 N   0  0  0  0  0  0  0  0  0  0  0  0
    9.8932   11.6736   19.0677 O   0  0  0  0  0  0  0  0  0  0  0  0
    6.4470    4.5850   22.2321 C   0  0  0  0  0  0  0  0  0  0  0  0
    8.4619    6.9895   22.2968 C   0  0  0  0  0  0  0  0  0  0  0  0
   12.2747    7.5102   20.0420 C   0  0  0  0  0  0  0  0  0  0  0  0
   14.2544    6.2142   19.4191 C   0  0  0  0  0  0  0  0  0  0  0  0
   13.0695    6.3705   20.0375 N   0  0  0  0  0  0  0  0  0  0  0  0
    9.1913    8.0876   21.8361 N   0  0  0  0  0  0  0  0  0  0  0  0
   10.4739    9.4813   20.2889 C   0  0  0  0  0  0  0  0  0  0  0  0
    7.5551    7.1270   23.1200 O   0  0  0  0  0  0  0  0  0  0  0  0
  1 11  4  0
  1 21  4  0
  2  4  1  0
  2  8  1  0
  2 11  1  0
  3 10  4  0
  3 14  4  0
  4  5  1  0
  4 18  2  0
  6 12  1  0
  6 17  4  0
  6 23  4  0
  7  9  1  0
  7 13  4  0
  7 19  4  0
  9 20  1  0
 10 19  4  0
 11 25  4  0
 13 14  4  0
 15 16  4  0
 15 17  4  0
 15 21  4  0
 16 24  1  0
 16 25  4  0
 20 24  1  0
 20 26  2  0
 21 23  4  0
 22 23  1  0
M  END
$$$$

 Created by Python create_sdf_string function

 26 28  0  0  0  0  0  0  0  0999 V2000
   12.4616    8.6700   19.4180 N   0  0  0  0  0  0  0  0  0  0  0  0
   11.8329   10.8148   18.6769 N   0  0  0  0  0  0  0  0  0  0  0  0
    6.1021    2.5564   21.0678 C   0  0  0  0  0  0  0  0  0  0  0  0
   10.9097   11.8051   18.4804 C   0  0  0  0  0  0  0  0  0  0  0  0
   11.2280   12.9135   17.5669 C   0  0  0  0  0  0  0  0  0  0  0  0
   12.3782    5.4231   20.7777 C   0  0  0  0  0  0  0  0  0  0  0  0
    7.7365    4.6508   21.6987 C   0  0  0  0  0  0  0  0  0  0  0  0
   13.0186   11.0102   18.0020 C   0  0  0  0  0  0  0  0  0  0  0  0
    8.6628    5.7088   21.8871 N   0  0  0  0  0  0  0  0  0  0  0  0
    5.6516    3.5258   21.9140 C   0  0  0  0  0  0  0  0  0  0  0  0
   11.5863    9.6815   19.4539 C   0  0  0  0  0  0  0  0  0  0  0  0
   12.9648    4.1543   20.9205 C   0  0  0  0  0  0  0  0  0  0  0  0
    8.2089    3.6265   20.8929 C   0  0  0  0  0  0  0  0  0  0  0  0
    7.3827    2.5724   20.5432 C   0  0  0  0  0  0  0  0  0  0  0  0
   11.1529    7.2750   20.8025 C   0  0  0  0  0  0  0  0  0  0  0  0
   10.2573    8.3215   20.9827 C   0  0  0  0  0  0  0  0  0  0  0  0
   11.1606    5.9378   21.2366 N   0  0  0  0  0  0  0  0  0  0  0  0
    9.8932   11.6736   19.0677 O   0  0  0  0  0  0  0  0  0  0  0  0
    6.4470    4.5850   22.2321 C   0  0  0  0  0  0  0  0  0  0  0  0
    8.4619    6.9895   22.2968 C   0  0  0  0  0  0  0  0  0  0  0  0
   12.2747    7.5102   20.0420 C   0  0  0  0  0  0  0  0  0  0  0  0
   14.2544    6.2142   19.4191 C   0  0  0  0  0  0  0  0  0  0  0  0
   13.0695    6.3705   20.0375 N   0  0  0  0  0  0  0  0  0  0  0  0
    9.1913    8.0876   21.8361 N   0  0  0  0  0  0  0  0  0  0  0  0
   10.4739    9.4813   20.2889 C   0  0  0  0  0  0  0  0  0  0  0  0
    7.5551    7.1270   23.1200 O   0  0  0  0  0  0  0  0  0  0  0  0
  1 11  4  0
  1 21  4  0
  2  4  1  0
  2  8  1  0
  2 11  1  0
  3 10  4  0
  3 14  4  0
  4  5  1  0
  4 18  2  0
  6 12  1  0
  6 17  4  0
  6 23  4  0
  7  9  1  0
  7 13  4  0
  7 19  4  0
  9 20  1  0
 10 19  4  0
 11 25  4  0
 13 14  4  0
 15 16  4  0
 15 17  4  0
 15 21  4  0
 16 24  1  0
 16 25  4  0
 20 24  1  0
 20 26  2  0
 21 23  4  0
 22 23  1  0
M  END
$$$$

 Created by Python create_sdf_string function

 26 28  0  0  0  0  0  0  0  0999 V2000
   12.4616    8.6700   19.4180 N   0  0  0  0  0  0  0  0  0  0  0  0
   11.8329   10.8148   18.6769 N   0  0  0  0  0  0  0  0  0  0  0  0
    6.1021    2.5564   21.0678 C   0  0  0  0  0  0  0  0  0  0  0  0
   10.9097   11.8051   18.4804 C   0  0  0  0  0  0  0  0  0  0  0  0
   11.2280   12.9135   17.5669 C   0  0  0  0  0  0  0  0  0  0  0  0
   12.3782    5.4231   20.7777 C   0  0  0  0  0  0  0  0  0  0  0  0
    7.7365    4.6508   21.6987 C   0  0  0  0  0  0  0  0  0  0  0  0
   13.0186   11.0102   18.0020 C   0  0  0  0  0  0  0  0  0  0  0  0
    8.6628    5.7088   21.8871 N   0  0  0  0  0  0  0  0  0  0  0  0
    5.6516    3.5258   21.9140 C   0  0  0  0  0  0  0  0  0  0  0  0
   11.5863    9.6815   19.4539 C   0  0  0  0  0  0  0  0  0  0  0  0
   12.9648    4.1543   20.9205 C   0  0  0  0  0  0  0  0  0  0  0  0
    8.2089    3.6265   20.8929 C   0  0  0  0  0  0  0  0  0  0  0  0
    7.3827    2.5724   20.5432 C   0  0  0  0  0  0  0  0  0  0  0  0
   11.1529    7.2750   20.8025 C   0  0  0  0  0  0  0  0  0  0  0  0
   10.2573    8.3215   20.9827 C   0  0  0  0  0  0  0  0  0  0  0  0
   11.1606    5.9378   21.2366 N   0  0  0  0  0  0  0  0  0  0  0  0
    9.8932   11.6736   19.0677 O   0  0  0  0  0  0  0  0  0  0  0  0
    6.4470    4.5850   22.2321 C   0  0  0  0  0  0  0  0  0  0  0  0
    8.4619    6.9895   22.2968 C   0  0  0  0  0  0  0  0  0  0  0  0
   12.2747    7.5102   20.0420 C   0  0  0  0  0  0  0  0  0  0  0  0
   14.2544    6.2142   19.4191 C   0  0  0  0  0  0  0  0  0  0  0  0
   13.0695    6.3705   20.0375 N   0  0  0  0  0  0  0  0  0  0  0  0
    9.1913    8.0876   21.8361 N   0  0  0  0  0  0  0  0  0  0  0  0
   10.4739    9.4813   20.2889 C   0  0  0  0  0  0  0  0  0  0  0  0
    7.5551    7.1270   23.1200 O   0  0  0  0  0  0  0  0  0  0  0  0
  1 11  4  0
  1 21  4  0
  2  4  1  0
  2  8  1  0
  2 11  1  0
  3 10  4  0
  3 14  4  0
  4  5  1  0
  4 18  2  0
  6 12  1  0
  6 17  4  0
  6 23  4  0
  7  9  1  0
  7 13  4  0
  7 19  4  0
  9 20  1  0
 10 19  4  0
 11 25  4  0
 13 14  4  0
 15 16  4  0
 15 17  4  0
 15 21  4  0
 16 24  1  0
 16 25  4  0
 20 24  1  0
 20 26  2  0
 21 23  4  0
 22 23  1  0
M  END
$$$$

 Created by Python create_sdf_string function

 26 28  0  0  0  0  0  0  0  0999 V2000
   12.4616    8.6700   19.4180 N   0  0  0  0  0  0  0  0  0  0  0  0
   11.8329   10.8148   18.6769 N   0  0  0  0  0  0  0  0  0  0  0  0
    6.1021    2.5564   21.0678 C   0  0  0  0  0  0  0  0  0  0  0  0
   10.9097   11.8051   18.4804 C   0  0  0  0  0  0  0  0  0  0  0  0
   11.2280   12.9135   17.5669 C   0  0  0  0  0  0  0  0  0  0  0  0
   12.3782    5.4231   20.7777 C   0  0  0  0  0  0  0  0  0  0  0  0
    7.7365    4.6508   21.6987 C   0  0  0  0  0  0  0  0  0  0  0  0
   13.0186   11.0102   18.0020 C   0  0  0  0  0  0  0  0  0  0  0  0
    8.6628    5.7088   21.8871 N   0  0  0  0  0  0  0  0  0  0  0  0
    5.6516    3.5258   21.9140 C   0  0  0  0  0  0  0  0  0  0  0  0
   11.5863    9.6815   19.4539 C   0  0  0  0  0  0  0  0  0  0  0  0
   12.9648    4.1543   20.9205 C   0  0  0  0  0  0  0  0  0  0  0  0
    8.2089    3.6265   20.8929 C   0  0  0  0  0  0  0  0  0  0  0  0
    7.3827    2.5724   20.5432 C   0  0  0  0  0  0  0  0  0  0  0  0
   11.1529    7.2750   20.8025 C   0  0  0  0  0  0  0  0  0  0  0  0
   10.2573    8.3215   20.9827 C   0  0  0  0  0  0  0  0  0  0  0  0
   11.1606    5.9378   21.2366 N   0  0  0  0  0  0  0  0  0  0  0  0
    9.8932   11.6736   19.0677 O   0  0  0  0  0  0  0  0  0  0  0  0
    6.4470    4.5850   22.2321 C   0  0  0  0  0  0  0  0  0  0  0  0
    8.4619    6.9895   22.2968 C   0  0  0  0  0  0  0  0  0  0  0  0
   12.2747    7.5102   20.0420 C   0  0  0  0  0  0  0  0  0  0  0  0
   14.2544    6.2142   19.4191 C   0  0  0  0  0  0  0  0  0  0  0  0
   13.0695    6.3705   20.0375 N   0  0  0  0  0  0  0  0  0  0  0  0
    9.1913    8.0876   21.8361 N   0  0  0  0  0  0  0  0  0  0  0  0
   10.4739    9.4813   20.2889 C   0  0  0  0  0  0  0  0  0  0  0  0
    7.5551    7.1270   23.1200 O   0  0  0  0  0  0  0  0  0  0  0  0
  1 11  4  0
  1 21  4  0
  2  4  1  0
  2  8  1  0
  2 11  1  0
  3 10  4  0
  3 14  4  0
  4  5  1  0
  4 18  2  0
  6 12  1  0
  6 17  4  0
  6 23  4  0
  7  9  1  0
  7 13  4  0
  7 19  4  0
  9 20  1  0
 10 19  4  0
 11 25  4  0
 13 14  4  0
 15 16  4  0
 15 17  4  0
 15 21  4  0
 16 24  1  0
 16 25  4  0
 20 24  1  0
 20 26  2  0
 21 23  4  0
 22 23  1  0
M  END
$$$$

 Created by Python create_sdf_string function

 26 28  0  0  0  0  0  0  0  0999 V2000
   12.4616    8.6700   19.4180 N   0  0  0  0  0  0  0  0  0  0  0  0
   11.8329   10.8148   18.6769 N   0  0  0  0  0  0  0  0  0  0  0  0
    6.1021    2.5564   21.0678 C   0  0  0  0  0  0  0  0  0  0  0  0
   10.9097   11.8051   18.4804 C   0  0  0  0  0  0  0  0  0  0  0  0
   11.2280   12.9135   17.5669 C   0  0  0  0  0  0  0  0  0  0  0  0
   12.3782    5.4231   20.7777 C   0  0  0  0  0  0  0  0  0  0  0  0
    7.7365    4.6508   21.6987 C   0  0  0  0  0  0  0  0  0  0  0  0
   13.0186   11.0102   18.0020 C   0  0  0  0  0  0  0  0  0  0  0  0
    8.6628    5.7088   21.8871 N   0  0  0  0  0  0  0  0  0  0  0  0
    5.6516    3.5258   21.9140 C   0  0  0  0  0  0  0  0  0  0  0  0
   11.5863    9.6815   19.4539 C   0  0  0  0  0  0  0  0  0  0  0  0
   12.9648    4.1543   20.9205 C   0  0  0  0  0  0  0  0  0  0  0  0
    8.2089    3.6265   20.8929 C   0  0  0  0  0  0  0  0  0  0  0  0
    7.3827    2.5724   20.5432 C   0  0  0  0  0  0  0  0  0  0  0  0
   11.1529    7.2750   20.8025 C   0  0  0  0  0  0  0  0  0  0  0  0
   10.2573    8.3215   20.9827 C   0  0  0  0  0  0  0  0  0  0  0  0
   11.1606    5.9378   21.2366 N   0  0  0  0  0  0  0  0  0  0  0  0
    9.8932   11.6736   19.0677 O   0  0  0  0  0  0  0  0  0  0  0  0
    6.4470    4.5850   22.2321 C   0  0  0  0  0  0  0  0  0  0  0  0
    8.4619    6.9895   22.2968 C   0  0  0  0  0  0  0  0  0  0  0  0
   12.2747    7.5102   20.0420 C   0  0  0  0  0  0  0  0  0  0  0  0
   14.2544    6.2142   19.4191 C   0  0  0  0  0  0  0  0  0  0  0  0
   13.0695    6.3705   20.0375 N   0  0  0  0  0  0  0  0  0  0  0  0
    9.1913    8.0876   21.8361 N   0  0  0  0  0  0  0  0  0  0  0  0
   10.4739    9.4813   20.2889 C   0  0  0  0  0  0  0  0  0  0  0  0
    7.5551    7.1270   23.1200 O   0  0  0  0  0  0  0  0  0  0  0  0
  1 11  4  0
  1 21  4  0
  2  4  1  0
  2  8  1  0
  2 11  1  0
  3 10  4  0
  3 14  4  0
  4  5  1  0
  4 18  2  0
  6 12  1  0
  6 17  4  0
  6 23  4  0
  7  9  1  0
  7 13  4  0
  7 19  4  0
  9 20  1  0
 10 19  4  0
 11 25  4  0
 13 14  4  0
 15 16  4  0
 15 17  4  0
 15 21  4  0
 16 24  1  0
 16 25  4  0
 20 24  1  0
 20 26  2  0
 21 23  4  0
 22 23  1  0
M  END
$$$$

 Created by Python create_sdf_string function

 26 28  0  0  0  0  0  0  0  0999 V2000
   12.4616    8.6700   19.4180 N   0  0  0  0  0  0  0  0  0  0  0  0
   11.8329   10.8148   18.6769 N   0  0  0  0  0  0  0  0  0  0  0  0
    6.1021    2.5564   21.0678 C   0  0  0  0  0  0  0  0  0  0  0  0
   10.9097   11.8051   18.4804 C   0  0  0  0  0  0  0  0  0  0  0  0
   11.2280   12.9135   17.5669 C   0  0  0  0  0  0  0  0  0  0  0  0
   12.3782    5.4231   20.7777 C   0  0  0  0  0  0  0  0  0  0  0  0
    7.7365    4.6508   21.6987 C   0  0  0  0  0  0  0  0  0  0  0  0
   13.0186   11.0102   18.0020 C   0  0  0  0  0  0  0  0  0  0  0  0
    8.6628    5.7088   21.8871 N   0  0  0  0  0  0  0  0  0  0  0  0
    5.6516    3.5258   21.9140 C   0  0  0  0  0  0  0  0  0  0  0  0
   11.5863    9.6815   19.4539 C   0  0  0  0  0  0  0  0  0  0  0  0
   12.9648    4.1543   20.9205 C   0  0  0  0  0  0  0  0  0  0  0  0
    8.2089    3.6265   20.8929 C   0  0  0  0  0  0  0  0  0  0  0  0
    7.3827    2.5724   20.5432 C   0  0  0  0  0  0  0  0  0  0  0  0
   11.1529    7.2750   20.8025 C   0  0  0  0  0  0  0  0  0  0  0  0
   10.2573    8.3215   20.9827 C   0  0  0  0  0  0  0  0  0  0  0  0
   11.1606    5.9378   21.2366 N   0  0  0  0  0  0  0  0  0  0  0  0
    9.8932   11.6736   19.0677 O   0  0  0  0  0  0  0  0  0  0  0  0
    6.4470    4.5850   22.2321 C   0  0  0  0  0  0  0  0  0  0  0  0
    8.4619    6.9895   22.2968 C   0  0  0  0  0  0  0  0  0  0  0  0
   12.2747    7.5102   20.0420 C   0  0  0  0  0  0  0  0  0  0  0  0
   14.2544    6.2142   19.4191 C   0  0  0  0  0  0  0  0  0  0  0  0
   13.0695    6.3705   20.0375 N   0  0  0  0  0  0  0  0  0  0  0  0
    9.1913    8.0876   21.8361 N   0  0  0  0  0  0  0  0  0  0  0  0
   10.4739    9.4813   20.2889 C   0  0  0  0  0  0  0  0  0  0  0  0
    7.5551    7.1270   23.1200 O   0  0  0  0  0  0  0  0  0  0  0  0
  1 11  4  0
  1 21  4  0
  2  4  1  0
  2  8  1  0
  2 11  1  0
  3 10  4  0
  3 14  4  0
  4  5  1  0
  4 18  2  0
  6 12  1  0
  6 17  4  0
  6 23  4  0
  7  9  1  0
  7 13  4  0
  7 19  4  0
  9 20  1  0
 10 19  4  0
 11 25  4  0
 13 14  4  0
 15 16  4  0
 15 17  4  0
 15 21  4  0
 16 24  1  0
 16 25  4  0
 20 24  1  0
 20 26  2  0
 21 23  4  0
 22 23  1  0
M  END
$$$$

 Created by Python create_sdf_string function

 26 28  0  0  0  0  0  0  0  0999 V2000
   12.4616    8.6700   19.4180 N   0  0  0  0  0  0  0  0  0  0  0  0
   11.8329   10.8148   18.6769 N   0  0  0  0  0  0  0  0  0  0  0  0
    6.1021    2.5564   21.0678 C   0  0  0  0  0  0  0  0  0  0  0  0
   10.9097   11.8051   18.4804 C   0  0  0  0  0  0  0  0  0  0  0  0
   11.2280   12.9135   17.5669 C   0  0  0  0  0  0  0  0  0  0  0  0
   12.3782    5.4231   20.7777 C   0  0  0  0  0  0  0  0  0  0  0  0
    7.7365    4.6508   21.6987 C   0  0  0  0  0  0  0  0  0  0  0  0
   13.0186   11.0102   18.0020 C   0  0  0  0  0  0  0  0  0  0  0  0
    8.6628    5.7088   21.8871 N   0  0  0  0  0  0  0  0  0  0  0  0
    5.6516    3.5258   21.9140 C   0  0  0  0  0  0  0  0  0  0  0  0
   11.5863    9.6815   19.4539 C   0  0  0  0  0  0  0  0  0  0  0  0
   12.9648    4.1543   20.9205 C   0  0  0  0  0  0  0  0  0  0  0  0
    8.2089    3.6265   20.8929 C   0  0  0  0  0  0  0  0  0  0  0  0
    7.3827    2.5724   20.5432 C   0  0  0  0  0  0  0  0  0  0  0  0
   11.1529    7.2750   20.8025 C   0  0  0  0  0  0  0  0  0  0  0  0
   10.2573    8.3215   20.9827 C   0  0  0  0  0  0  0  0  0  0  0  0
   11.1606    5.9378   21.2366 N   0  0  0  0  0  0  0  0  0  0  0  0
    9.8932   11.6736   19.0677 O   0  0  0  0  0  0  0  0  0  0  0  0
    6.4470    4.5850   22.2321 C   0  0  0  0  0  0  0  0  0  0  0  0
    8.4619    6.9895   22.2968 C   0  0  0  0  0  0  0  0  0  0  0  0
   12.2747    7.5102   20.0420 C   0  0  0  0  0  0  0  0  0  0  0  0
   14.2544    6.2142   19.4191 C   0  0  0  0  0  0  0  0  0  0  0  0
   13.0695    6.3705   20.0375 N   0  0  0  0  0  0  0  0  0  0  0  0
    9.1913    8.0876   21.8361 N   0  0  0  0  0  0  0  0  0  0  0  0
   10.4739    9.4813   20.2889 C   0  0  0  0  0  0  0  0  0  0  0  0
    7.5551    7.1270   23.1200 O   0  0  0  0  0  0  0  0  0  0  0  0
  1 11  4  0
  1 21  4  0
  2  4  1  0
  2  8  1  0
  2 11  1  0
  3 10  4  0
  3 14  4  0
  4  5  1  0
  4 18  2  0
  6 12  1  0
  6 17  4  0
  6 23  4  0
  7  9  1  0
  7 13  4  0
  7 19  4  0
  9 20  1  0
 10 19  4  0
 11 25  4  0
 13 14  4  0
 15 16  4  0
 15 17  4  0
 15 21  4  0
 16 24  1  0
 16 25  4  0
 20 24  1  0
 20 26  2  0
 21 23  4  0
 22 23  1  0
M  END
$$$$

 Created by Python create_sdf_string function

 26 28  0  0  0  0  0  0  0  0999 V2000
   12.4616    8.6700   19.4180 N   0  0  0  0  0  0  0  0  0  0  0  0
   11.8329   10.8148   18.6769 N   0  0  0  0  0  0  0  0  0  0  0  0
    6.1021    2.5564   21.0678 C   0  0  0  0  0  0  0  0  0  0  0  0
   10.9097   11.8051   18.4804 C   0  0  0  0  0  0  0  0  0  0  0  0
   11.2280   12.9135   17.5669 C   0  0  0  0  0  0  0  0  0  0  0  0
   12.3782    5.4231   20.7777 C   0  0  0  0  0  0  0  0  0  0  0  0
    7.7365    4.6508   21.6987 C   0  0  0  0  0  0  0  0  0  0  0  0
   13.0186   11.0102   18.0020 C   0  0  0  0  0  0  0  0  0  0  0  0
    8.6628    5.7088   21.8871 N   0  0  0  0  0  0  0  0  0  0  0  0
    5.6516    3.5258   21.9140 C   0  0  0  0  0  0  0  0  0  0  0  0
   11.5863    9.6815   19.4539 C   0  0  0  0  0  0  0  0  0  0  0  0
   12.9648    4.1543   20.9205 C   0  0  0  0  0  0  0  0  0  0  0  0
    8.2089    3.6265   20.8929 C   0  0  0  0  0  0  0  0  0  0  0  0
    7.3827    2.5724   20.5432 C   0  0  0  0  0  0  0  0  0  0  0  0
   11.1529    7.2750   20.8025 C   0  0  0  0  0  0  0  0  0  0  0  0
   10.2573    8.3215   20.9827 C   0  0  0  0  0  0  0  0  0  0  0  0
   11.1606    5.9378   21.2366 N   0  0  0  0  0  0  0  0  0  0  0  0
    9.8932   11.6736   19.0677 O   0  0  0  0  0  0  0  0  0  0  0  0
    6.4470    4.5850   22.2321 C   0  0  0  0  0  0  0  0  0  0  0  0
    8.4619    6.9895   22.2968 C   0  0  0  0  0  0  0  0  0  0  0  0
   12.2747    7.5102   20.0420 C   0  0  0  0  0  0  0  0  0  0  0  0
   14.2544    6.2142   19.4191 C   0  0  0  0  0  0  0  0  0  0  0  0
   13.0695    6.3705   20.0375 N   0  0  0  0  0  0  0  0  0  0  0  0
    9.1913    8.0876   21.8361 N   0  0  0  0  0  0  0  0  0  0  0  0
   10.4739    9.4813   20.2889 C   0  0  0  0  0  0  0  0  0  0  0  0
    7.5551    7.1270   23.1200 O   0  0  0  0  0  0  0  0  0  0  0  0
  1 11  4  0
  1 21  4  0
  2  4  1  0
  2  8  1  0
  2 11  1  0
  3 10  4  0
  3 14  4  0
  4  5  1  0
  4 18  2  0
  6 12  1  0
  6 17  4  0
  6 23  4  0
  7  9  1  0
  7 13  4  0
  7 19  4  0
  9 20  1  0
 10 19  4  0
 11 25  4  0
 13 14  4  0
 15 16  4  0
 15 17  4  0
 15 21  4  0
 16 24  1  0
 16 25  4  0
 20 24  1  0
 20 26  2  0
 21 23  4  0
 22 23  1  0
M  END
$$$$

 Created by Python create_sdf_string function

 26 28  0  0  0  0  0  0  0  0999 V2000
   12.4616    8.6700   19.4180 N   0  0  0  0  0  0  0  0  0  0  0  0
   11.8329   10.8148   18.6769 N   0  0  0  0  0  0  0  0  0  0  0  0
    6.1021    2.5564   21.0678 C   0  0  0  0  0  0  0  0  0  0  0  0
   10.9097   11.8051   18.4804 C   0  0  0  0  0  0  0  0  0  0  0  0
   11.2280   12.9135   17.5669 C   0  0  0  0  0  0  0  0  0  0  0  0
   12.3782    5.4231   20.7777 C   0  0  0  0  0  0  0  0  0  0  0  0
    7.7365    4.6508   21.6987 C   0  0  0  0  0  0  0  0  0  0  0  0
   13.0186   11.0102   18.0020 C   0  0  0  0  0  0  0  0  0  0  0  0
    8.6628    5.7088   21.8871 N   0  0  0  0  0  0  0  0  0  0  0  0
    5.6516    3.5258   21.9140 C   0  0  0  0  0  0  0  0  0  0  0  0
   11.5863    9.6815   19.4539 C   0  0  0  0  0  0  0  0  0  0  0  0
   12.9648    4.1543   20.9205 C   0  0  0  0  0  0  0  0  0  0  0  0
    8.2089    3.6265   20.8929 C   0  0  0  0  0  0  0  0  0  0  0  0
    7.3827    2.5724   20.5432 C   0  0  0  0  0  0  0  0  0  0  0  0
   11.1529    7.2750   20.8025 C   0  0  0  0  0  0  0  0  0  0  0  0
   10.2573    8.3215   20.9827 C   0  0  0  0  0  0  0  0  0  0  0  0
   11.1606    5.9378   21.2366 N   0  0  0  0  0  0  0  0  0  0  0  0
    9.8932   11.6736   19.0677 O   0  0  0  0  0  0  0  0  0  0  0  0
    6.4470    4.5850   22.2321 C   0  0  0  0  0  0  0  0  0  0  0  0
    8.4619    6.9895   22.2968 C   0  0  0  0  0  0  0  0  0  0  0  0
   12.2747    7.5102   20.0420 C   0  0  0  0  0  0  0  0  0  0  0  0
   14.2544    6.2142   19.4191 C   0  0  0  0  0  0  0  0  0  0  0  0
   13.0695    6.3705   20.0375 N   0  0  0  0  0  0  0  0  0  0  0  0
    9.1913    8.0876   21.8361 N   0  0  0  0  0  0  0  0  0  0  0  0
   10.4739    9.4813   20.2889 C   0  0  0  0  0  0  0  0  0  0  0  0
    7.5551    7.1270   23.1200 O   0  0  0  0  0  0  0  0  0  0  0  0
  1 11  4  0
  1 21  4  0
  2  4  1  0
  2  8  1  0
  2 11  1  0
  3 10  4  0
  3 14  4  0
  4  5  1  0
  4 18  2  0
  6 12  1  0
  6 17  4  0
  6 23  4  0
  7  9  1  0
  7 13  4  0
  7 19  4  0
  9 20  1  0
 10 19  4  0
 11 25  4  0
 13 14  4  0
 15 16  4  0
 15 17  4  0
 15 21  4  0
 16 24  1  0
 16 25  4  0
 20 24  1  0
 20 26  2  0
 21 23  4  0
 22 23  1  0
M  END
$$$$

 Created by Python create_sdf_string function

 26 28  0  0  0  0  0  0  0  0999 V2000
   12.4616    8.6700   19.4180 N   0  0  0  0  0  0  0  0  0  0  0  0
   11.8329   10.8148   18.6769 N   0  0  0  0  0  0  0  0  0  0  0  0
    6.1021    2.5564   21.0678 C   0  0  0  0  0  0  0  0  0  0  0  0
   10.9097   11.8051   18.4804 C   0  0  0  0  0  0  0  0  0  0  0  0
   11.2280   12.9135   17.5669 C   0  0  0  0  0  0  0  0  0  0  0  0
   12.3782    5.4231   20.7777 C   0  0  0  0  0  0  0  0  0  0  0  0
    7.7365    4.6508   21.6987 C   0  0  0  0  0  0  0  0  0  0  0  0
   13.0186   11.0102   18.0020 C   0  0  0  0  0  0  0  0  0  0  0  0
    8.6628    5.7088   21.8871 N   0  0  0  0  0  0  0  0  0  0  0  0
    5.6516    3.5258   21.9140 C   0  0  0  0  0  0  0  0  0  0  0  0
   11.5863    9.6815   19.4539 C   0  0  0  0  0  0  0  0  0  0  0  0
   12.9648    4.1543   20.9205 C   0  0  0  0  0  0  0  0  0  0  0  0
    8.2089    3.6265   20.8929 C   0  0  0  0  0  0  0  0  0  0  0  0
    7.3827    2.5724   20.5432 C   0  0  0  0  0  0  0  0  0  0  0  0
   11.1529    7.2750   20.8025 C   0  0  0  0  0  0  0  0  0  0  0  0
   10.2573    8.3215   20.9827 C   0  0  0  0  0  0  0  0  0  0  0  0
   11.1606    5.9378   21.2366 N   0  0  0  0  0  0  0  0  0  0  0  0
    9.8932   11.6736   19.0677 O   0  0  0  0  0  0  0  0  0  0  0  0
    6.4470    4.5850   22.2321 C   0  0  0  0  0  0  0  0  0  0  0  0
    8.4619    6.9895   22.2968 C   0  0  0  0  0  0  0  0  0  0  0  0
   12.2747    7.5102   20.0420 C   0  0  0  0  0  0  0  0  0  0  0  0
   14.2544    6.2142   19.4191 C   0  0  0  0  0  0  0  0  0  0  0  0
   13.0695    6.3705   20.0375 N   0  0  0  0  0  0  0  0  0  0  0  0
    9.1913    8.0876   21.8361 N   0  0  0  0  0  0  0  0  0  0  0  0
   10.4739    9.4813   20.2889 C   0  0  0  0  0  0  0  0  0  0  0  0
    7.5551    7.1270   23.1200 O   0  0  0  0  0  0  0  0  0  0  0  0
  1 11  4  0
  1 21  4  0
  2  4  1  0
  2  8  1  0
  2 11  1  0
  3 10  4  0
  3 14  4  0
  4  5  1  0
  4 18  2  0
  6 12  1  0
  6 17  4  0
  6 23  4  0
  7  9  1  0
  7 13  4  0
  7 19  4  0
  9 20  1  0
 10 19  4  0
 11 25  4  0
 13 14  4  0
 15 16  4  0
 15 17  4  0
 15 21  4  0
 16 24  1  0
 16 25  4  0
 20 24  1  0
 20 26  2  0
 21 23  4  0
 22 23  1  0
M  END
$$$$

 Created by Python create_sdf_string function

 26 28  0  0  0  0  0  0  0  0999 V2000
   12.4616    8.6700   19.4180 N   0  0  0  0  0  0  0  0  0  0  0  0
   11.8329   10.8148   18.6769 N   0  0  0  0  0  0  0  0  0  0  0  0
    6.1021    2.5564   21.0678 C   0  0  0  0  0  0  0  0  0  0  0  0
   10.9097   11.8051   18.4804 C   0  0  0  0  0  0  0  0  0  0  0  0
   11.2280   12.9135   17.5669 C   0  0  0  0  0  0  0  0  0  0  0  0
   12.3782    5.4231   20.7777 C   0  0  0  0  0  0  0  0  0  0  0  0
    7.7365    4.6508   21.6987 C   0  0  0  0  0  0  0  0  0  0  0  0
   13.0186   11.0102   18.0020 C   0  0  0  0  0  0  0  0  0  0  0  0
    8.6628    5.7088   21.8871 N   0  0  0  0  0  0  0  0  0  0  0  0
    5.6516    3.5258   21.9140 C   0  0  0  0  0  0  0  0  0  0  0  0
   11.5863    9.6815   19.4539 C   0  0  0  0  0  0  0  0  0  0  0  0
   12.9648    4.1543   20.9205 C   0  0  0  0  0  0  0  0  0  0  0  0
    8.2089    3.6265   20.8929 C   0  0  0  0  0  0  0  0  0  0  0  0
    7.3827    2.5724   20.5432 C   0  0  0  0  0  0  0  0  0  0  0  0
   11.1529    7.2750   20.8025 C   0  0  0  0  0  0  0  0  0  0  0  0
   10.2573    8.3215   20.9827 C   0  0  0  0  0  0  0  0  0  0  0  0
   11.1606    5.9378   21.2366 N   0  0  0  0  0  0  0  0  0  0  0  0
    9.8932   11.6736   19.0677 O   0  0  0  0  0  0  0  0  0  0  0  0
    6.4470    4.5850   22.2321 C   0  0  0  0  0  0  0  0  0  0  0  0
    8.4619    6.9895   22.2968 C   0  0  0  0  0  0  0  0  0  0  0  0
   12.2747    7.5102   20.0420 C   0  0  0  0  0  0  0  0  0  0  0  0
   14.2544    6.2142   19.4191 C   0  0  0  0  0  0  0  0  0  0  0  0
   13.0695    6.3705   20.0375 N   0  0  0  0  0  0  0  0  0  0  0  0
    9.1913    8.0876   21.8361 N   0  0  0  0  0  0  0  0  0  0  0  0
   10.4739    9.4813   20.2889 C   0  0  0  0  0  0  0  0  0  0  0  0
    7.5551    7.1270   23.1200 O   0  0  0  0  0  0  0  0  0  0  0  0
  1 11  4  0
  1 21  4  0
  2  4  1  0
  2  8  1  0
  2 11  1  0
  3 10  4  0
  3 14  4  0
  4  5  1  0
  4 18  2  0
  6 12  1  0
  6 17  4  0
  6 23  4  0
  7  9  1  0
  7 13  4  0
  7 19  4  0
  9 20  1  0
 10 19  4  0
 11 25  4  0
 13 14  4  0
 15 16  4  0
 15 17  4  0
 15 21  4  0
 16 24  1  0
 16 25  4  0
 20 24  1  0
 20 26  2  0
 21 23  4  0
 22 23  1  0
M  END
$$$$

 Created by Python create_sdf_string function

 26 28  0  0  0  0  0  0  0  0999 V2000
   12.4616    8.6700   19.4180 N   0  0  0  0  0  0  0  0  0  0  0  0
   11.8329   10.8148   18.6769 N   0  0  0  0  0  0  0  0  0  0  0  0
    6.1021    2.5564   21.0678 C   0  0  0  0  0  0  0  0  0  0  0  0
   10.9097   11.8051   18.4804 C   0  0  0  0  0  0  0  0  0  0  0  0
   11.2280   12.9135   17.5669 C   0  0  0  0  0  0  0  0  0  0  0  0
   12.3782    5.4231   20.7777 C   0  0  0  0  0  0  0  0  0  0  0  0
    7.7365    4.6508   21.6987 C   0  0  0  0  0  0  0  0  0  0  0  0
   13.0186   11.0102   18.0020 C   0  0  0  0  0  0  0  0  0  0  0  0
    8.6628    5.7088   21.8871 N   0  0  0  0  0  0  0  0  0  0  0  0
    5.6516    3.5258   21.9140 C   0  0  0  0  0  0  0  0  0  0  0  0
   11.5863    9.6815   19.4539 C   0  0  0  0  0  0  0  0  0  0  0  0
   12.9648    4.1543   20.9205 C   0  0  0  0  0  0  0  0  0  0  0  0
    8.2089    3.6265   20.8929 C   0  0  0  0  0  0  0  0  0  0  0  0
    7.3827    2.5724   20.5432 C   0  0  0  0  0  0  0  0  0  0  0  0
   11.1529    7.2750   20.8025 C   0  0  0  0  0  0  0  0  0  0  0  0
   10.2573    8.3215   20.9827 C   0  0  0  0  0  0  0  0  0  0  0  0
   11.1606    5.9378   21.2366 N   0  0  0  0  0  0  0  0  0  0  0  0
    9.8932   11.6736   19.0677 O   0  0  0  0  0  0  0  0  0  0  0  0
    6.4470    4.5850   22.2321 C   0  0  0  0  0  0  0  0  0  0  0  0
    8.4619    6.9895   22.2968 C   0  0  0  0  0  0  0  0  0  0  0  0
   12.2747    7.5102   20.0420 C   0  0  0  0  0  0  0  0  0  0  0  0
   14.2544    6.2142   19.4191 C   0  0  0  0  0  0  0  0  0  0  0  0
   13.0695    6.3705   20.0375 N   0  0  0  0  0  0  0  0  0  0  0  0
    9.1913    8.0876   21.8361 N   0  0  0  0  0  0  0  0  0  0  0  0
   10.4739    9.4813   20.2889 C   0  0  0  0  0  0  0  0  0  0  0  0
    7.5551    7.1270   23.1200 O   0  0  0  0  0  0  0  0  0  0  0  0
  1 11  4  0
  1 21  4  0
  2  4  1  0
  2  8  1  0
  2 11  1  0
  3 10  4  0
  3 14  4  0
  4  5  1  0
  4 18  2  0
  6 12  1  0
  6 17  4  0
  6 23  4  0
  7  9  1  0
  7 13  4  0
  7 19  4  0
  9 20  1  0
 10 19  4  0
 11 25  4  0
 13 14  4  0
 15 16  4  0
 15 17  4  0
 15 21  4  0
 16 24  1  0
 16 25  4  0
 20 24  1  0
 20 26  2  0
 21 23  4  0
 22 23  1  0
M  END
$$$$

 Created by Python create_sdf_string function

 26 28  0  0  0  0  0  0  0  0999 V2000
   12.4616    8.6700   19.4180 N   0  0  0  0  0  0  0  0  0  0  0  0
   11.8329   10.8148   18.6769 N   0  0  0  0  0  0  0  0  0  0  0  0
    6.1021    2.5564   21.0678 C   0  0  0  0  0  0  0  0  0  0  0  0
   10.9097   11.8051   18.4804 C   0  0  0  0  0  0  0  0  0  0  0  0
   11.2280   12.9135   17.5669 C   0  0  0  0  0  0  0  0  0  0  0  0
   12.3782    5.4231   20.7777 C   0  0  0  0  0  0  0  0  0  0  0  0
    7.7365    4.6508   21.6987 C   0  0  0  0  0  0  0  0  0  0  0  0
   13.0186   11.0102   18.0020 C   0  0  0  0  0  0  0  0  0  0  0  0
    8.6628    5.7088   21.8871 N   0  0  0  0  0  0  0  0  0  0  0  0
    5.6516    3.5258   21.9140 C   0  0  0  0  0  0  0  0  0  0  0  0
   11.5863    9.6815   19.4539 C   0  0  0  0  0  0  0  0  0  0  0  0
   12.9648    4.1543   20.9205 C   0  0  0  0  0  0  0  0  0  0  0  0
    8.2089    3.6265   20.8929 C   0  0  0  0  0  0  0  0  0  0  0  0
    7.3827    2.5724   20.5432 C   0  0  0  0  0  0  0  0  0  0  0  0
   11.1529    7.2750   20.8025 C   0  0  0  0  0  0  0  0  0  0  0  0
   10.2573    8.3215   20.9827 C   0  0  0  0  0  0  0  0  0  0  0  0
   11.1606    5.9378   21.2366 N   0  0  0  0  0  0  0  0  0  0  0  0
    9.8932   11.6736   19.0677 O   0  0  0  0  0  0  0  0  0  0  0  0
    6.4470    4.5850   22.2321 C   0  0  0  0  0  0  0  0  0  0  0  0
    8.4619    6.9895   22.2968 C   0  0  0  0  0  0  0  0  0  0  0  0
   12.2747    7.5102   20.0420 C   0  0  0  0  0  0  0  0  0  0  0  0
   14.2544    6.2142   19.4191 C   0  0  0  0  0  0  0  0  0  0  0  0
   13.0695    6.3705   20.0375 N   0  0  0  0  0  0  0  0  0  0  0  0
    9.1913    8.0876   21.8361 N   0  0  0  0  0  0  0  0  0  0  0  0
   10.4739    9.4813   20.2889 C   0  0  0  0  0  0  0  0  0  0  0  0
    7.5551    7.1270   23.1200 O   0  0  0  0  0  0  0  0  0  0  0  0
  1 11  4  0
  1 21  4  0
  2  4  1  0
  2  8  1  0
  2 11  1  0
  3 10  4  0
  3 14  4  0
  4  5  1  0
  4 18  2  0
  6 12  1  0
  6 17  4  0
  6 23  4  0
  7  9  1  0
  7 13  4  0
  7 19  4  0
  9 20  1  0
 10 19  4  0
 11 25  4  0
 13 14  4  0
 15 16  4  0
 15 17  4  0
 15 21  4  0
 16 24  1  0
 16 25  4  0
 20 24  1  0
 20 26  2  0
 21 23  4  0
 22 23  1  0
M  END
$$$$

 Created by Python create_sdf_string function

 26 28  0  0  0  0  0  0  0  0999 V2000
   12.4616    8.6700   19.4180 N   0  0  0  0  0  0  0  0  0  0  0  0
   11.8329   10.8148   18.6769 N   0  0  0  0  0  0  0  0  0  0  0  0
    6.1021    2.5564   21.0678 C   0  0  0  0  0  0  0  0  0  0  0  0
   10.9097   11.8051   18.4804 C   0  0  0  0  0  0  0  0  0  0  0  0
   11.2280   12.9135   17.5669 C   0  0  0  0  0  0  0  0  0  0  0  0
   12.3782    5.4231   20.7777 C   0  0  0  0  0  0  0  0  0  0  0  0
    7.7365    4.6508   21.6987 C   0  0  0  0  0  0  0  0  0  0  0  0
   13.0186   11.0102   18.0020 C   0  0  0  0  0  0  0  0  0  0  0  0
    8.6628    5.7088   21.8871 N   0  0  0  0  0  0  0  0  0  0  0  0
    5.6516    3.5258   21.9140 C   0  0  0  0  0  0  0  0  0  0  0  0
   11.5863    9.6815   19.4539 C   0  0  0  0  0  0  0  0  0  0  0  0
   12.9648    4.1543   20.9205 C   0  0  0  0  0  0  0  0  0  0  0  0
    8.2089    3.6265   20.8929 C   0  0  0  0  0  0  0  0  0  0  0  0
    7.3827    2.5724   20.5432 C   0  0  0  0  0  0  0  0  0  0  0  0
   11.1529    7.2750   20.8025 C   0  0  0  0  0  0  0  0  0  0  0  0
   10.2573    8.3215   20.9827 C   0  0  0  0  0  0  0  0  0  0  0  0
   11.1606    5.9378   21.2366 N   0  0  0  0  0  0  0  0  0  0  0  0
    9.8932   11.6736   19.0677 O   0  0  0  0  0  0  0  0  0  0  0  0
    6.4470    4.5850   22.2321 C   0  0  0  0  0  0  0  0  0  0  0  0
    8.4619    6.9895   22.2968 C   0  0  0  0  0  0  0  0  0  0  0  0
   12.2747    7.5102   20.0420 C   0  0  0  0  0  0  0  0  0  0  0  0
   14.2544    6.2142   19.4191 C   0  0  0  0  0  0  0  0  0  0  0  0
   13.0695    6.3705   20.0375 N   0  0  0  0  0  0  0  0  0  0  0  0
    9.1913    8.0876   21.8361 N   0  0  0  0  0  0  0  0  0  0  0  0
   10.4739    9.4813   20.2889 C   0  0  0  0  0  0  0  0  0  0  0  0
    7.5551    7.1270   23.1200 O   0  0  0  0  0  0  0  0  0  0  0  0
  1 11  4  0
  1 21  4  0
  2  4  1  0
  2  8  1  0
  2 11  1  0
  3 10  4  0
  3 14  4  0
  4  5  1  0
  4 18  2  0
  6 12  1  0
  6 17  4  0
  6 23  4  0
  7  9  1  0
  7 13  4  0
  7 19  4  0
  9 20  1  0
 10 19  4  0
 11 25  4  0
 13 14  4  0
 15 16  4  0
 15 17  4  0
 15 21  4  0
 16 24  1  0
 16 25  4  0
 20 24  1  0
 20 26  2  0
 21 23  4  0
 22 23  1  0
M  END
$$$$

 Created by Python create_sdf_string function

 26 28  0  0  0  0  0  0  0  0999 V2000
   12.4616    8.6700   19.4180 N   0  0  0  0  0  0  0  0  0  0  0  0
   11.8329   10.8148   18.6769 N   0  0  0  0  0  0  0  0  0  0  0  0
    6.1021    2.5564   21.0678 C   0  0  0  0  0  0  0  0  0  0  0  0
   10.9097   11.8051   18.4804 C   0  0  0  0  0  0  0  0  0  0  0  0
   11.2280   12.9135   17.5669 C   0  0  0  0  0  0  0  0  0  0  0  0
   12.3782    5.4231   20.7777 C   0  0  0  0  0  0  0  0  0  0  0  0
    7.7365    4.6508   21.6987 C   0  0  0  0  0  0  0  0  0  0  0  0
   13.0186   11.0102   18.0020 C   0  0  0  0  0  0  0  0  0  0  0  0
    8.6628    5.7088   21.8871 N   0  0  0  0  0  0  0  0  0  0  0  0
    5.6516    3.5258   21.9140 C   0  0  0  0  0  0  0  0  0  0  0  0
   11.5863    9.6815   19.4539 C   0  0  0  0  0  0  0  0  0  0  0  0
   12.9648    4.1543   20.9205 C   0  0  0  0  0  0  0  0  0  0  0  0
    8.2089    3.6265   20.8929 C   0  0  0  0  0  0  0  0  0  0  0  0
    7.3827    2.5724   20.5432 C   0  0  0  0  0  0  0  0  0  0  0  0
   11.1529    7.2750   20.8025 C   0  0  0  0  0  0  0  0  0  0  0  0
   10.2573    8.3215   20.9827 C   0  0  0  0  0  0  0  0  0  0  0  0
   11.1606    5.9378   21.2366 N   0  0  0  0  0  0  0  0  0  0  0  0
    9.8932   11.6736   19.0677 O   0  0  0  0  0  0  0  0  0  0  0  0
    6.4470    4.5850   22.2321 C   0  0  0  0  0  0  0  0  0  0  0  0
    8.4619    6.9895   22.2968 C   0  0  0  0  0  0  0  0  0  0  0  0
   12.2747    7.5102   20.0420 C   0  0  0  0  0  0  0  0  0  0  0  0
   14.2544    6.2142   19.4191 C   0  0  0  0  0  0  0  0  0  0  0  0
   13.0695    6.3705   20.0375 N   0  0  0  0  0  0  0  0  0  0  0  0
    9.1913    8.0876   21.8361 N   0  0  0  0  0  0  0  0  0  0  0  0
   10.4739    9.4813   20.2889 C   0  0  0  0  0  0  0  0  0  0  0  0
    7.5551    7.1270   23.1200 O   0  0  0  0  0  0  0  0  0  0  0  0
  1 11  4  0
  1 21  4  0
  2  4  1  0
  2  8  1  0
  2 11  1  0
  3 10  4  0
  3 14  4  0
  4  5  1  0
  4 18  2  0
  6 12  1  0
  6 17  4  0
  6 23  4  0
  7  9  1  0
  7 13  4  0
  7 19  4  0
  9 20  1  0
 10 19  4  0
 11 25  4  0
 13 14  4  0
 15 16  4  0
 15 17  4  0
 15 21  4  0
 16 24  1  0
 16 25  4  0
 20 24  1  0
 20 26  2  0
 21 23  4  0
 22 23  1  0
M  END
$$$$

 Created by Python create_sdf_string function

 26 28  0  0  0  0  0  0  0  0999 V2000
   12.4616    8.6700   19.4180 N   0  0  0  0  0  0  0  0  0  0  0  0
   11.8329   10.8148   18.6769 N   0  0  0  0  0  0  0  0  0  0  0  0
    6.1021    2.5564   21.0678 C   0  0  0  0  0  0  0  0  0  0  0  0
   10.9097   11.8051   18.4804 C   0  0  0  0  0  0  0  0  0  0  0  0
   11.2280   12.9135   17.5669 C   0  0  0  0  0  0  0  0  0  0  0  0
   12.3782    5.4231   20.7777 C   0  0  0  0  0  0  0  0  0  0  0  0
    7.7365    4.6508   21.6987 C   0  0  0  0  0  0  0  0  0  0  0  0
   13.0186   11.0102   18.0020 C   0  0  0  0  0  0  0  0  0  0  0  0
    8.6628    5.7088   21.8871 N   0  0  0  0  0  0  0  0  0  0  0  0
    5.6516    3.5258   21.9140 C   0  0  0  0  0  0  0  0  0  0  0  0
   11.5863    9.6815   19.4539 C   0  0  0  0  0  0  0  0  0  0  0  0
   12.9648    4.1543   20.9205 C   0  0  0  0  0  0  0  0  0  0  0  0
    8.2089    3.6265   20.8929 C   0  0  0  0  0  0  0  0  0  0  0  0
    7.3827    2.5724   20.5432 C   0  0  0  0  0  0  0  0  0  0  0  0
   11.1529    7.2750   20.8025 C   0  0  0  0  0  0  0  0  0  0  0  0
   10.2573    8.3215   20.9827 C   0  0  0  0  0  0  0  0  0  0  0  0
   11.1606    5.9378   21.2366 N   0  0  0  0  0  0  0  0  0  0  0  0
    9.8932   11.6736   19.0677 O   0  0  0  0  0  0  0  0  0  0  0  0
    6.4470    4.5850   22.2321 C   0  0  0  0  0  0  0  0  0  0  0  0
    8.4619    6.9895   22.2968 C   0  0  0  0  0  0  0  0  0  0  0  0
   12.2747    7.5102   20.0420 C   0  0  0  0  0  0  0  0  0  0  0  0
   14.2544    6.2142   19.4191 C   0  0  0  0  0  0  0  0  0  0  0  0
   13.0695    6.3705   20.0375 N   0  0  0  0  0  0  0  0  0  0  0  0
    9.1913    8.0876   21.8361 N   0  0  0  0  0  0  0  0  0  0  0  0
   10.4739    9.4813   20.2889 C   0  0  0  0  0  0  0  0  0  0  0  0
    7.5551    7.1270   23.1200 O   0  0  0  0  0  0  0  0  0  0  0  0
  1 11  4  0
  1 21  4  0
  2  4  1  0
  2  8  1  0
  2 11  1  0
  3 10  4  0
  3 14  4  0
  4  5  1  0
  4 18  2  0
  6 12  1  0
  6 17  4  0
  6 23  4  0
  7  9  1  0
  7 13  4  0
  7 19  4  0
  9 20  1  0
 10 19  4  0
 11 25  4  0
 13 14  4  0
 15 16  4  0
 15 17  4  0
 15 21  4  0
 16 24  1  0
 16 25  4  0
 20 24  1  0
 20 26  2  0
 21 23  4  0
 22 23  1  0
M  END
$$$$

 Created by Python create_sdf_string function

 26 28  0  0  0  0  0  0  0  0999 V2000
   12.4616    8.6700   19.4180 N   0  0  0  0  0  0  0  0  0  0  0  0
   11.8329   10.8148   18.6769 N   0  0  0  0  0  0  0  0  0  0  0  0
    6.1021    2.5564   21.0678 C   0  0  0  0  0  0  0  0  0  0  0  0
   10.9097   11.8051   18.4804 C   0  0  0  0  0  0  0  0  0  0  0  0
   11.2280   12.9135   17.5669 C   0  0  0  0  0  0  0  0  0  0  0  0
   12.3782    5.4231   20.7777 C   0  0  0  0  0  0  0  0  0  0  0  0
    7.7365    4.6508   21.6987 C   0  0  0  0  0  0  0  0  0  0  0  0
   13.0186   11.0102   18.0020 C   0  0  0  0  0  0  0  0  0  0  0  0
    8.6628    5.7088   21.8871 N   0  0  0  0  0  0  0  0  0  0  0  0
    5.6516    3.5258   21.9140 C   0  0  0  0  0  0  0  0  0  0  0  0
   11.5863    9.6815   19.4539 C   0  0  0  0  0  0  0  0  0  0  0  0
   12.9648    4.1543   20.9205 C   0  0  0  0  0  0  0  0  0  0  0  0
    8.2089    3.6265   20.8929 C   0  0  0  0  0  0  0  0  0  0  0  0
    7.3827    2.5724   20.5432 C   0  0  0  0  0  0  0  0  0  0  0  0
   11.1529    7.2750   20.8025 C   0  0  0  0  0  0  0  0  0  0  0  0
   10.2573    8.3215   20.9827 C   0  0  0  0  0  0  0  0  0  0  0  0
   11.1606    5.9378   21.2366 N   0  0  0  0  0  0  0  0  0  0  0  0
    9.8932   11.6736   19.0677 O   0  0  0  0  0  0  0  0  0  0  0  0
    6.4470    4.5850   22.2321 C   0  0  0  0  0  0  0  0  0  0  0  0
    8.4619    6.9895   22.2968 C   0  0  0  0  0  0  0  0  0  0  0  0
   12.2747    7.5102   20.0420 C   0  0  0  0  0  0  0  0  0  0  0  0
   14.2544    6.2142   19.4191 C   0  0  0  0  0  0  0  0  0  0  0  0
   13.0695    6.3705   20.0375 N   0  0  0  0  0  0  0  0  0  0  0  0
    9.1913    8.0876   21.8361 N   0  0  0  0  0  0  0  0  0  0  0  0
   10.4739    9.4813   20.2889 C   0  0  0  0  0  0  0  0  0  0  0  0
    7.5551    7.1270   23.1200 O   0  0  0  0  0  0  0  0  0  0  0  0
  1 11  4  0
  1 21  4  0
  2  4  1  0
  2  8  1  0
  2 11  1  0
  3 10  4  0
  3 14  4  0
  4  5  1  0
  4 18  2  0
  6 12  1  0
  6 17  4  0
  6 23  4  0
  7  9  1  0
  7 13  4  0
  7 19  4  0
  9 20  1  0
 10 19  4  0
 11 25  4  0
 13 14  4  0
 15 16  4  0
 15 17  4  0
 15 21  4  0
 16 24  1  0
 16 25  4  0
 20 24  1  0
 20 26  2  0
 21 23  4  0
 22 23  1  0
M  END
$$$$

 Created by Python create_sdf_string function

 26 28  0  0  0  0  0  0  0  0999 V2000
   12.4616    8.6700   19.4180 N   0  0  0  0  0  0  0  0  0  0  0  0
   11.8329   10.8148   18.6769 N   0  0  0  0  0  0  0  0  0  0  0  0
    6.1021    2.5564   21.0678 C   0  0  0  0  0  0  0  0  0  0  0  0
   10.9097   11.8051   18.4804 C   0  0  0  0  0  0  0  0  0  0  0  0
   11.2280   12.9135   17.5669 C   0  0  0  0  0  0  0  0  0  0  0  0
   12.3782    5.4231   20.7777 C   0  0  0  0  0  0  0  0  0  0  0  0
    7.7365    4.6508   21.6987 C   0  0  0  0  0  0  0  0  0  0  0  0
   13.0186   11.0102   18.0020 C   0  0  0  0  0  0  0  0  0  0  0  0
    8.6628    5.7088   21.8871 N   0  0  0  0  0  0  0  0  0  0  0  0
    5.6516    3.5258   21.9140 C   0  0  0  0  0  0  0  0  0  0  0  0
   11.5863    9.6815   19.4539 C   0  0  0  0  0  0  0  0  0  0  0  0
   12.9648    4.1543   20.9205 C   0  0  0  0  0  0  0  0  0  0  0  0
    8.2089    3.6265   20.8929 C   0  0  0  0  0  0  0  0  0  0  0  0
    7.3827    2.5724   20.5432 C   0  0  0  0  0  0  0  0  0  0  0  0
   11.1529    7.2750   20.8025 C   0  0  0  0  0  0  0  0  0  0  0  0
   10.2573    8.3215   20.9827 C   0  0  0  0  0  0  0  0  0  0  0  0
   11.1606    5.9378   21.2366 N   0  0  0  0  0  0  0  0  0  0  0  0
    9.8932   11.6736   19.0677 O   0  0  0  0  0  0  0  0  0  0  0  0
    6.4470    4.5850   22.2321 C   0  0  0  0  0  0  0  0  0  0  0  0
    8.4619    6.9895   22.2968 C   0  0  0  0  0  0  0  0  0  0  0  0
   12.2747    7.5102   20.0420 C   0  0  0  0  0  0  0  0  0  0  0  0
   14.2544    6.2142   19.4191 C   0  0  0  0  0  0  0  0  0  0  0  0
   13.0695    6.3705   20.0375 N   0  0  0  0  0  0  0  0  0  0  0  0
    9.1913    8.0876   21.8361 N   0  0  0  0  0  0  0  0  0  0  0  0
   10.4739    9.4813   20.2889 C   0  0  0  0  0  0  0  0  0  0  0  0
    7.5551    7.1270   23.1200 O   0  0  0  0  0  0  0  0  0  0  0  0
  1 11  4  0
  1 21  4  0
  2  4  1  0
  2  8  1  0
  2 11  1  0
  3 10  4  0
  3 14  4  0
  4  5  1  0
  4 18  2  0
  6 12  1  0
  6 17  4  0
  6 23  4  0
  7  9  1  0
  7 13  4  0
  7 19  4  0
  9 20  1  0
 10 19  4  0
 11 25  4  0
 13 14  4  0
 15 16  4  0
 15 17  4  0
 15 21  4  0
 16 24  1  0
 16 25  4  0
 20 24  1  0
 20 26  2  0
 21 23  4  0
 22 23  1  0
M  END
$$$$

 Created by Python create_sdf_string function

 26 28  0  0  0  0  0  0  0  0999 V2000
   12.4616    8.6700   19.4180 N   0  0  0  0  0  0  0  0  0  0  0  0
   11.8329   10.8148   18.6769 N   0  0  0  0  0  0  0  0  0  0  0  0
    6.1021    2.5564   21.0678 C   0  0  0  0  0  0  0  0  0  0  0  0
   10.9097   11.8051   18.4804 C   0  0  0  0  0  0  0  0  0  0  0  0
   11.2280   12.9135   17.5669 C   0  0  0  0  0  0  0  0  0  0  0  0
   12.3782    5.4231   20.7777 C   0  0  0  0  0  0  0  0  0  0  0  0
    7.7365    4.6508   21.6987 C   0  0  0  0  0  0  0  0  0  0  0  0
   13.0186   11.0102   18.0020 C   0  0  0  0  0  0  0  0  0  0  0  0
    8.6628    5.7088   21.8871 N   0  0  0  0  0  0  0  0  0  0  0  0
    5.6516    3.5258   21.9140 C   0  0  0  0  0  0  0  0  0  0  0  0
   11.5863    9.6815   19.4539 C   0  0  0  0  0  0  0  0  0  0  0  0
   12.9648    4.1543   20.9205 C   0  0  0  0  0  0  0  0  0  0  0  0
    8.2089    3.6265   20.8929 C   0  0  0  0  0  0  0  0  0  0  0  0
    7.3827    2.5724   20.5432 C   0  0  0  0  0  0  0  0  0  0  0  0
   11.1529    7.2750   20.8025 C   0  0  0  0  0  0  0  0  0  0  0  0
   10.2573    8.3215   20.9827 C   0  0  0  0  0  0  0  0  0  0  0  0
   11.1606    5.9378   21.2366 N   0  0  0  0  0  0  0  0  0  0  0  0
    9.8932   11.6736   19.0677 O   0  0  0  0  0  0  0  0  0  0  0  0
    6.4470    4.5850   22.2321 C   0  0  0  0  0  0  0  0  0  0  0  0
    8.4619    6.9895   22.2968 C   0  0  0  0  0  0  0  0  0  0  0  0
   12.2747    7.5102   20.0420 C   0  0  0  0  0  0  0  0  0  0  0  0
   14.2544    6.2142   19.4191 C   0  0  0  0  0  0  0  0  0  0  0  0
   13.0695    6.3705   20.0375 N   0  0  0  0  0  0  0  0  0  0  0  0
    9.1913    8.0876   21.8361 N   0  0  0  0  0  0  0  0  0  0  0  0
   10.4739    9.4813   20.2889 C   0  0  0  0  0  0  0  0  0  0  0  0
    7.5551    7.1270   23.1200 O   0  0  0  0  0  0  0  0  0  0  0  0
  1 11  4  0
  1 21  4  0
  2  4  1  0
  2  8  1  0
  2 11  1  0
  3 10  4  0
  3 14  4  0
  4  5  1  0
  4 18  2  0
  6 12  1  0
  6 17  4  0
  6 23  4  0
  7  9  1  0
  7 13  4  0
  7 19  4  0
  9 20  1  0
 10 19  4  0
 11 25  4  0
 13 14  4  0
 15 16  4  0
 15 17  4  0
 15 21  4  0
 16 24  1  0
 16 25  4  0
 20 24  1  0
 20 26  2  0
 21 23  4  0
 22 23  1  0
M  END
$$$$

 Created by Python create_sdf_string function

 26 28  0  0  0  0  0  0  0  0999 V2000
   12.4616    8.6700   19.4180 N   0  0  0  0  0  0  0  0  0  0  0  0
   11.8329   10.8148   18.6769 N   0  0  0  0  0  0  0  0  0  0  0  0
    6.1021    2.5564   21.0678 C   0  0  0  0  0  0  0  0  0  0  0  0
   10.9097   11.8051   18.4804 C   0  0  0  0  0  0  0  0  0  0  0  0
   11.2280   12.9135   17.5669 C   0  0  0  0  0  0  0  0  0  0  0  0
   12.3782    5.4231   20.7777 C   0  0  0  0  0  0  0  0  0  0  0  0
    7.7365    4.6508   21.6987 C   0  0  0  0  0  0  0  0  0  0  0  0
   13.0186   11.0102   18.0020 C   0  0  0  0  0  0  0  0  0  0  0  0
    8.6628    5.7088   21.8871 N   0  0  0  0  0  0  0  0  0  0  0  0
    5.6516    3.5258   21.9140 C   0  0  0  0  0  0  0  0  0  0  0  0
   11.5863    9.6815   19.4539 C   0  0  0  0  0  0  0  0  0  0  0  0
   12.9648    4.1543   20.9205 C   0  0  0  0  0  0  0  0  0  0  0  0
    8.2089    3.6265   20.8929 C   0  0  0  0  0  0  0  0  0  0  0  0
    7.3827    2.5724   20.5432 C   0  0  0  0  0  0  0  0  0  0  0  0
   11.1529    7.2750   20.8025 C   0  0  0  0  0  0  0  0  0  0  0  0
   10.2573    8.3215   20.9827 C   0  0  0  0  0  0  0  0  0  0  0  0
   11.1606    5.9378   21.2366 N   0  0  0  0  0  0  0  0  0  0  0  0
    9.8932   11.6736   19.0677 O   0  0  0  0  0  0  0  0  0  0  0  0
    6.4470    4.5850   22.2321 C   0  0  0  0  0  0  0  0  0  0  0  0
    8.4619    6.9895   22.2968 C   0  0  0  0  0  0  0  0  0  0  0  0
   12.2747    7.5102   20.0420 C   0  0  0  0  0  0  0  0  0  0  0  0
   14.2544    6.2142   19.4191 C   0  0  0  0  0  0  0  0  0  0  0  0
   13.0695    6.3705   20.0375 N   0  0  0  0  0  0  0  0  0  0  0  0
    9.1913    8.0876   21.8361 N   0  0  0  0  0  0  0  0  0  0  0  0
   10.4739    9.4813   20.2889 C   0  0  0  0  0  0  0  0  0  0  0  0
    7.5551    7.1270   23.1200 O   0  0  0  0  0  0  0  0  0  0  0  0
  1 11  4  0
  1 21  4  0
  2  4  1  0
  2  8  1  0
  2 11  1  0
  3 10  4  0
  3 14  4  0
  4  5  1  0
  4 18  2  0
  6 12  1  0
  6 17  4  0
  6 23  4  0
  7  9  1  0
  7 13  4  0
  7 19  4  0
  9 20  1  0
 10 19  4  0
 11 25  4  0
 13 14  4  0
 15 16  4  0
 15 17  4  0
 15 21  4  0
 16 24  1  0
 16 25  4  0
 20 24  1  0
 20 26  2  0
 21 23  4  0
 22 23  1  0
M  END
$$$$

 Created by Python create_sdf_string function

 26 28  0  0  0  0  0  0  0  0999 V2000
   12.4616    8.6700   19.4180 N   0  0  0  0  0  0  0  0  0  0  0  0
   11.8329   10.8148   18.6769 N   0  0  0  0  0  0  0  0  0  0  0  0
    6.1021    2.5564   21.0678 C   0  0  0  0  0  0  0  0  0  0  0  0
   10.9097   11.8051   18.4804 C   0  0  0  0  0  0  0  0  0  0  0  0
   11.2280   12.9135   17.5669 C   0  0  0  0  0  0  0  0  0  0  0  0
   12.3782    5.4231   20.7777 C   0  0  0  0  0  0  0  0  0  0  0  0
    7.7365    4.6508   21.6987 C   0  0  0  0  0  0  0  0  0  0  0  0
   13.0186   11.0102   18.0020 C   0  0  0  0  0  0  0  0  0  0  0  0
    8.6628    5.7088   21.8871 N   0  0  0  0  0  0  0  0  0  0  0  0
    5.6516    3.5258   21.9140 C   0  0  0  0  0  0  0  0  0  0  0  0
   11.5863    9.6815   19.4539 C   0  0  0  0  0  0  0  0  0  0  0  0
   12.9648    4.1543   20.9205 C   0  0  0  0  0  0  0  0  0  0  0  0
    8.2089    3.6265   20.8929 C   0  0  0  0  0  0  0  0  0  0  0  0
    7.3827    2.5724   20.5432 C   0  0  0  0  0  0  0  0  0  0  0  0
   11.1529    7.2750   20.8025 C   0  0  0  0  0  0  0  0  0  0  0  0
   10.2573    8.3215   20.9827 C   0  0  0  0  0  0  0  0  0  0  0  0
   11.1606    5.9378   21.2366 N   0  0  0  0  0  0  0  0  0  0  0  0
    9.8932   11.6736   19.0677 O   0  0  0  0  0  0  0  0  0  0  0  0
    6.4470    4.5850   22.2321 C   0  0  0  0  0  0  0  0  0  0  0  0
    8.4619    6.9895   22.2968 C   0  0  0  0  0  0  0  0  0  0  0  0
   12.2747    7.5102   20.0420 C   0  0  0  0  0  0  0  0  0  0  0  0
   14.2544    6.2142   19.4191 C   0  0  0  0  0  0  0  0  0  0  0  0
   13.0695    6.3705   20.0375 N   0  0  0  0  0  0  0  0  0  0  0  0
    9.1913    8.0876   21.8361 N   0  0  0  0  0  0  0  0  0  0  0  0
   10.4739    9.4813   20.2889 C   0  0  0  0  0  0  0  0  0  0  0  0
    7.5551    7.1270   23.1200 O   0  0  0  0  0  0  0  0  0  0  0  0
  1 11  4  0
  1 21  4  0
  2  4  1  0
  2  8  1  0
  2 11  1  0
  3 10  4  0
  3 14  4  0
  4  5  1  0
  4 18  2  0
  6 12  1  0
  6 17  4  0
  6 23  4  0
  7  9  1  0
  7 13  4  0
  7 19  4  0
  9 20  1  0
 10 19  4  0
 11 25  4  0
 13 14  4  0
 15 16  4  0
 15 17  4  0
 15 21  4  0
 16 24  1  0
 16 25  4  0
 20 24  1  0
 20 26  2  0
 21 23  4  0
 22 23  1  0
M  END
$$$$

 Created by Python create_sdf_string function

 26 28  0  0  0  0  0  0  0  0999 V2000
   12.4616    8.6700   19.4180 N   0  0  0  0  0  0  0  0  0  0  0  0
   11.8329   10.8148   18.6769 N   0  0  0  0  0  0  0  0  0  0  0  0
    6.1021    2.5564   21.0678 C   0  0  0  0  0  0  0  0  0  0  0  0
   10.9097   11.8051   18.4804 C   0  0  0  0  0  0  0  0  0  0  0  0
   11.2280   12.9135   17.5669 C   0  0  0  0  0  0  0  0  0  0  0  0
   12.3782    5.4231   20.7777 C   0  0  0  0  0  0  0  0  0  0  0  0
    7.7365    4.6508   21.6987 C   0  0  0  0  0  0  0  0  0  0  0  0
   13.0186   11.0102   18.0020 C   0  0  0  0  0  0  0  0  0  0  0  0
    8.6628    5.7088   21.8871 N   0  0  0  0  0  0  0  0  0  0  0  0
    5.6516    3.5258   21.9140 C   0  0  0  0  0  0  0  0  0  0  0  0
   11.5863    9.6815   19.4539 C   0  0  0  0  0  0  0  0  0  0  0  0
   12.9648    4.1543   20.9205 C   0  0  0  0  0  0  0  0  0  0  0  0
    8.2089    3.6265   20.8929 C   0  0  0  0  0  0  0  0  0  0  0  0
    7.3827    2.5724   20.5432 C   0  0  0  0  0  0  0  0  0  0  0  0
   11.1529    7.2750   20.8025 C   0  0  0  0  0  0  0  0  0  0  0  0
   10.2573    8.3215   20.9827 C   0  0  0  0  0  0  0  0  0  0  0  0
   11.1606    5.9378   21.2366 N   0  0  0  0  0  0  0  0  0  0  0  0
    9.8932   11.6736   19.0677 O   0  0  0  0  0  0  0  0  0  0  0  0
    6.4470    4.5850   22.2321 C   0  0  0  0  0  0  0  0  0  0  0  0
    8.4619    6.9895   22.2968 C   0  0  0  0  0  0  0  0  0  0  0  0
   12.2747    7.5102   20.0420 C   0  0  0  0  0  0  0  0  0  0  0  0
   14.2544    6.2142   19.4191 C   0  0  0  0  0  0  0  0  0  0  0  0
   13.0695    6.3705   20.0375 N   0  0  0  0  0  0  0  0  0  0  0  0
    9.1913    8.0876   21.8361 N   0  0  0  0  0  0  0  0  0  0  0  0
   10.4739    9.4813   20.2889 C   0  0  0  0  0  0  0  0  0  0  0  0
    7.5551    7.1270   23.1200 O   0  0  0  0  0  0  0  0  0  0  0  0
  1 11  4  0
  1 21  4  0
  2  4  1  0
  2  8  1  0
  2 11  1  0
  3 10  4  0
  3 14  4  0
  4  5  1  0
  4 18  2  0
  6 12  1  0
  6 17  4  0
  6 23  4  0
  7  9  1  0
  7 13  4  0
  7 19  4  0
  9 20  1  0
 10 19  4  0
 11 25  4  0
 13 14  4  0
 15 16  4  0
 15 17  4  0
 15 21  4  0
 16 24  1  0
 16 25  4  0
 20 24  1  0
 20 26  2  0
 21 23  4  0
 22 23  1  0
M  END
$$$$

 Created by Python create_sdf_string function

 26 28  0  0  0  0  0  0  0  0999 V2000
   12.4616    8.6700   19.4180 N   0  0  0  0  0  0  0  0  0  0  0  0
   11.8329   10.8148   18.6769 N   0  0  0  0  0  0  0  0  0  0  0  0
    6.1021    2.5564   21.0678 C   0  0  0  0  0  0  0  0  0  0  0  0
   10.9097   11.8051   18.4804 C   0  0  0  0  0  0  0  0  0  0  0  0
   11.2280   12.9135   17.5669 C   0  0  0  0  0  0  0  0  0  0  0  0
   12.3782    5.4231   20.7777 C   0  0  0  0  0  0  0  0  0  0  0  0
    7.7365    4.6508   21.6987 C   0  0  0  0  0  0  0  0  0  0  0  0
   13.0186   11.0102   18.0020 C   0  0  0  0  0  0  0  0  0  0  0  0
    8.6628    5.7088   21.8871 N   0  0  0  0  0  0  0  0  0  0  0  0
    5.6516    3.5258   21.9140 C   0  0  0  0  0  0  0  0  0  0  0  0
   11.5863    9.6815   19.4539 C   0  0  0  0  0  0  0  0  0  0  0  0
   12.9648    4.1543   20.9205 C   0  0  0  0  0  0  0  0  0  0  0  0
    8.2089    3.6265   20.8929 C   0  0  0  0  0  0  0  0  0  0  0  0
    7.3827    2.5724   20.5432 C   0  0  0  0  0  0  0  0  0  0  0  0
   11.1529    7.2750   20.8025 C   0  0  0  0  0  0  0  0  0  0  0  0
   10.2573    8.3215   20.9827 C   0  0  0  0  0  0  0  0  0  0  0  0
   11.1606    5.9378   21.2366 N   0  0  0  0  0  0  0  0  0  0  0  0
    9.8932   11.6736   19.0677 O   0  0  0  0  0  0  0  0  0  0  0  0
    6.4470    4.5850   22.2321 C   0  0  0  0  0  0  0  0  0  0  0  0
    8.4619    6.9895   22.2968 C   0  0  0  0  0  0  0  0  0  0  0  0
   12.2747    7.5102   20.0420 C   0  0  0  0  0  0  0  0  0  0  0  0
   14.2544    6.2142   19.4191 C   0  0  0  0  0  0  0  0  0  0  0  0
   13.0695    6.3705   20.0375 N   0  0  0  0  0  0  0  0  0  0  0  0
    9.1913    8.0876   21.8361 N   0  0  0  0  0  0  0  0  0  0  0  0
   10.4739    9.4813   20.2889 C   0  0  0  0  0  0  0  0  0  0  0  0
    7.5551    7.1270   23.1200 O   0  0  0  0  0  0  0  0  0  0  0  0
  1 11  4  0
  1 21  4  0
  2  4  1  0
  2  8  1  0
  2 11  1  0
  3 10  4  0
  3 14  4  0
  4  5  1  0
  4 18  2  0
  6 12  1  0
  6 17  4  0
  6 23  4  0
  7  9  1  0
  7 13  4  0
  7 19  4  0
  9 20  1  0
 10 19  4  0
 11 25  4  0
 13 14  4  0
 15 16  4  0
 15 17  4  0
 15 21  4  0
 16 24  1  0
 16 25  4  0
 20 24  1  0
 20 26  2  0
 21 23  4  0
 22 23  1  0
M  END
$$$$

 Created by Python create_sdf_string function

 26 28  0  0  0  0  0  0  0  0999 V2000
   12.4616    8.6700   19.4180 N   0  0  0  0  0  0  0  0  0  0  0  0
   11.8329   10.8148   18.6769 N   0  0  0  0  0  0  0  0  0  0  0  0
    6.1021    2.5564   21.0678 C   0  0  0  0  0  0  0  0  0  0  0  0
   10.9097   11.8051   18.4804 C   0  0  0  0  0  0  0  0  0  0  0  0
   11.2280   12.9135   17.5669 C   0  0  0  0  0  0  0  0  0  0  0  0
   12.3782    5.4231   20.7777 C   0  0  0  0  0  0  0  0  0  0  0  0
    7.7365    4.6508   21.6987 C   0  0  0  0  0  0  0  0  0  0  0  0
   13.0186   11.0102   18.0020 C   0  0  0  0  0  0  0  0  0  0  0  0
    8.6628    5.7088   21.8871 N   0  0  0  0  0  0  0  0  0  0  0  0
    5.6516    3.5258   21.9140 C   0  0  0  0  0  0  0  0  0  0  0  0
   11.5863    9.6815   19.4539 C   0  0  0  0  0  0  0  0  0  0  0  0
   12.9648    4.1543   20.9205 C   0  0  0  0  0  0  0  0  0  0  0  0
    8.2089    3.6265   20.8929 C   0  0  0  0  0  0  0  0  0  0  0  0
    7.3827    2.5724   20.5432 C   0  0  0  0  0  0  0  0  0  0  0  0
   11.1529    7.2750   20.8025 C   0  0  0  0  0  0  0  0  0  0  0  0
   10.2573    8.3215   20.9827 C   0  0  0  0  0  0  0  0  0  0  0  0
   11.1606    5.9378   21.2366 N   0  0  0  0  0  0  0  0  0  0  0  0
    9.8932   11.6736   19.0677 O   0  0  0  0  0  0  0  0  0  0  0  0
    6.4470    4.5850   22.2321 C   0  0  0  0  0  0  0  0  0  0  0  0
    8.4619    6.9895   22.2968 C   0  0  0  0  0  0  0  0  0  0  0  0
   12.2747    7.5102   20.0420 C   0  0  0  0  0  0  0  0  0  0  0  0
   14.2544    6.2142   19.4191 C   0  0  0  0  0  0  0  0  0  0  0  0
   13.0695    6.3705   20.0375 N   0  0  0  0  0  0  0  0  0  0  0  0
    9.1913    8.0876   21.8361 N   0  0  0  0  0  0  0  0  0  0  0  0
   10.4739    9.4813   20.2889 C   0  0  0  0  0  0  0  0  0  0  0  0
    7.5551    7.1270   23.1200 O   0  0  0  0  0  0  0  0  0  0  0  0
  1 11  4  0
  1 21  4  0
  2  4  1  0
  2  8  1  0
  2 11  1  0
  3 10  4  0
  3 14  4  0
  4  5  1  0
  4 18  2  0
  6 12  1  0
  6 17  4  0
  6 23  4  0
  7  9  1  0
  7 13  4  0
  7 19  4  0
  9 20  1  0
 10 19  4  0
 11 25  4  0
 13 14  4  0
 15 16  4  0
 15 17  4  0
 15 21  4  0
 16 24  1  0
 16 25  4  0
 20 24  1  0
 20 26  2  0
 21 23  4  0
 22 23  1  0
M  END
$$$$

 Created by Python create_sdf_string function

 26 28  0  0  0  0  0  0  0  0999 V2000
   12.4616    8.6700   19.4180 N   0  0  0  0  0  0  0  0  0  0  0  0
   11.8329   10.8148   18.6769 N   0  0  0  0  0  0  0  0  0  0  0  0
    6.1021    2.5564   21.0678 C   0  0  0  0  0  0  0  0  0  0  0  0
   10.9097   11.8051   18.4804 C   0  0  0  0  0  0  0  0  0  0  0  0
   11.2280   12.9135   17.5669 C   0  0  0  0  0  0  0  0  0  0  0  0
   12.3782    5.4231   20.7777 C   0  0  0  0  0  0  0  0  0  0  0  0
    7.7365    4.6508   21.6987 C   0  0  0  0  0  0  0  0  0  0  0  0
   13.0186   11.0102   18.0020 C   0  0  0  0  0  0  0  0  0  0  0  0
    8.6628    5.7088   21.8871 N   0  0  0  0  0  0  0  0  0  0  0  0
    5.6516    3.5258   21.9140 C   0  0  0  0  0  0  0  0  0  0  0  0
   11.5863    9.6815   19.4539 C   0  0  0  0  0  0  0  0  0  0  0  0
   12.9648    4.1543   20.9205 C   0  0  0  0  0  0  0  0  0  0  0  0
    8.2089    3.6265   20.8929 C   0  0  0  0  0  0  0  0  0  0  0  0
    7.3827    2.5724   20.5432 C   0  0  0  0  0  0  0  0  0  0  0  0
   11.1529    7.2750   20.8025 C   0  0  0  0  0  0  0  0  0  0  0  0
   10.2573    8.3215   20.9827 C   0  0  0  0  0  0  0  0  0  0  0  0
   11.1606    5.9378   21.2366 N   0  0  0  0  0  0  0  0  0  0  0  0
    9.8932   11.6736   19.0677 O   0  0  0  0  0  0  0  0  0  0  0  0
    6.4470    4.5850   22.2321 C   0  0  0  0  0  0  0  0  0  0  0  0
    8.4619    6.9895   22.2968 C   0  0  0  0  0  0  0  0  0  0  0  0
   12.2747    7.5102   20.0420 C   0  0  0  0  0  0  0  0  0  0  0  0
   14.2544    6.2142   19.4191 C   0  0  0  0  0  0  0  0  0  0  0  0
   13.0695    6.3705   20.0375 N   0  0  0  0  0  0  0  0  0  0  0  0
    9.1913    8.0876   21.8361 N   0  0  0  0  0  0  0  0  0  0  0  0
   10.4739    9.4813   20.2889 C   0  0  0  0  0  0  0  0  0  0  0  0
    7.5551    7.1270   23.1200 O   0  0  0  0  0  0  0  0  0  0  0  0
  1 11  4  0
  1 21  4  0
  2  4  1  0
  2  8  1  0
  2 11  1  0
  3 10  4  0
  3 14  4  0
  4  5  1  0
  4 18  2  0
  6 12  1  0
  6 17  4  0
  6 23  4  0
  7  9  1  0
  7 13  4  0
  7 19  4  0
  9 20  1  0
 10 19  4  0
 11 25  4  0
 13 14  4  0
 15 16  4  0
 15 17  4  0
 15 21  4  0
 16 24  1  0
 16 25  4  0
 20 24  1  0
 20 26  2  0
 21 23  4  0
 22 23  1  0
M  END
$$$$

 Created by Python create_sdf_string function

 26 28  0  0  0  0  0  0  0  0999 V2000
   12.4616    8.6700   19.4180 N   0  0  0  0  0  0  0  0  0  0  0  0
   11.8329   10.8148   18.6769 N   0  0  0  0  0  0  0  0  0  0  0  0
    6.1021    2.5564   21.0678 C   0  0  0  0  0  0  0  0  0  0  0  0
   10.9097   11.8051   18.4804 C   0  0  0  0  0  0  0  0  0  0  0  0
   11.2280   12.9135   17.5669 C   0  0  0  0  0  0  0  0  0  0  0  0
   12.3782    5.4231   20.7777 C   0  0  0  0  0  0  0  0  0  0  0  0
    7.7365    4.6508   21.6987 C   0  0  0  0  0  0  0  0  0  0  0  0
   13.0186   11.0102   18.0020 C   0  0  0  0  0  0  0  0  0  0  0  0
    8.6628    5.7088   21.8871 N   0  0  0  0  0  0  0  0  0  0  0  0
    5.6516    3.5258   21.9140 C   0  0  0  0  0  0  0  0  0  0  0  0
   11.5863    9.6815   19.4539 C   0  0  0  0  0  0  0  0  0  0  0  0
   12.9648    4.1543   20.9205 C   0  0  0  0  0  0  0  0  0  0  0  0
    8.2089    3.6265   20.8929 C   0  0  0  0  0  0  0  0  0  0  0  0
    7.3827    2.5724   20.5432 C   0  0  0  0  0  0  0  0  0  0  0  0
   11.1529    7.2750   20.8025 C   0  0  0  0  0  0  0  0  0  0  0  0
   10.2573    8.3215   20.9827 C   0  0  0  0  0  0  0  0  0  0  0  0
   11.1606    5.9378   21.2366 N   0  0  0  0  0  0  0  0  0  0  0  0
    9.8932   11.6736   19.0677 O   0  0  0  0  0  0  0  0  0  0  0  0
    6.4470    4.5850   22.2321 C   0  0  0  0  0  0  0  0  0  0  0  0
    8.4619    6.9895   22.2968 C   0  0  0  0  0  0  0  0  0  0  0  0
   12.2747    7.5102   20.0420 C   0  0  0  0  0  0  0  0  0  0  0  0
   14.2544    6.2142   19.4191 C   0  0  0  0  0  0  0  0  0  0  0  0
   13.0695    6.3705   20.0375 N   0  0  0  0  0  0  0  0  0  0  0  0
    9.1913    8.0876   21.8361 N   0  0  0  0  0  0  0  0  0  0  0  0
   10.4739    9.4813   20.2889 C   0  0  0  0  0  0  0  0  0  0  0  0
    7.5551    7.1270   23.1200 O   0  0  0  0  0  0  0  0  0  0  0  0
  1 11  4  0
  1 21  4  0
  2  4  1  0
  2  8  1  0
  2 11  1  0
  3 10  4  0
  3 14  4  0
  4  5  1  0
  4 18  2  0
  6 12  1  0
  6 17  4  0
  6 23  4  0
  7  9  1  0
  7 13  4  0
  7 19  4  0
  9 20  1  0
 10 19  4  0
 11 25  4  0
 13 14  4  0
 15 16  4  0
 15 17  4  0
 15 21  4  0
 16 24  1  0
 16 25  4  0
 20 24  1  0
 20 26  2  0
 21 23  4  0
 22 23  1  0
M  END
$$$$

 Created by Python create_sdf_string function

 26 28  0  0  0  0  0  0  0  0999 V2000
   12.4616    8.6700   19.4180 N   0  0  0  0  0  0  0  0  0  0  0  0
   11.8329   10.8148   18.6769 N   0  0  0  0  0  0  0  0  0  0  0  0
    6.1021    2.5564   21.0678 C   0  0  0  0  0  0  0  0  0  0  0  0
   10.9097   11.8051   18.4804 C   0  0  0  0  0  0  0  0  0  0  0  0
   11.2280   12.9135   17.5669 C   0  0  0  0  0  0  0  0  0  0  0  0
   12.3782    5.4231   20.7777 C   0  0  0  0  0  0  0  0  0  0  0  0
    7.7365    4.6508   21.6987 C   0  0  0  0  0  0  0  0  0  0  0  0
   13.0186   11.0102   18.0020 C   0  0  0  0  0  0  0  0  0  0  0  0
    8.6628    5.7088   21.8871 N   0  0  0  0  0  0  0  0  0  0  0  0
    5.6516    3.5258   21.9140 C   0  0  0  0  0  0  0  0  0  0  0  0
   11.5863    9.6815   19.4539 C   0  0  0  0  0  0  0  0  0  0  0  0
   12.9648    4.1543   20.9205 C   0  0  0  0  0  0  0  0  0  0  0  0
    8.2089    3.6265   20.8929 C   0  0  0  0  0  0  0  0  0  0  0  0
    7.3827    2.5724   20.5432 C   0  0  0  0  0  0  0  0  0  0  0  0
   11.1529    7.2750   20.8025 C   0  0  0  0  0  0  0  0  0  0  0  0
   10.2573    8.3215   20.9827 C   0  0  0  0  0  0  0  0  0  0  0  0
   11.1606    5.9378   21.2366 N   0  0  0  0  0  0  0  0  0  0  0  0
    9.8932   11.6736   19.0677 O   0  0  0  0  0  0  0  0  0  0  0  0
    6.4470    4.5850   22.2321 C   0  0  0  0  0  0  0  0  0  0  0  0
    8.4619    6.9895   22.2968 C   0  0  0  0  0  0  0  0  0  0  0  0
   12.2747    7.5102   20.0420 C   0  0  0  0  0  0  0  0  0  0  0  0
   14.2544    6.2142   19.4191 C   0  0  0  0  0  0  0  0  0  0  0  0
   13.0695    6.3705   20.0375 N   0  0  0  0  0  0  0  0  0  0  0  0
    9.1913    8.0876   21.8361 N   0  0  0  0  0  0  0  0  0  0  0  0
   10.4739    9.4813   20.2889 C   0  0  0  0  0  0  0  0  0  0  0  0
    7.5551    7.1270   23.1200 O   0  0  0  0  0  0  0  0  0  0  0  0
  1 11  4  0
  1 21  4  0
  2  4  1  0
  2  8  1  0
  2 11  1  0
  3 10  4  0
  3 14  4  0
  4  5  1  0
  4 18  2  0
  6 12  1  0
  6 17  4  0
  6 23  4  0
  7  9  1  0
  7 13  4  0
  7 19  4  0
  9 20  1  0
 10 19  4  0
 11 25  4  0
 13 14  4  0
 15 16  4  0
 15 17  4  0
 15 21  4  0
 16 24  1  0
 16 25  4  0
 20 24  1  0
 20 26  2  0
 21 23  4  0
 22 23  1  0
M  END
$$$$

 Created by Python create_sdf_string function

 26 28  0  0  0  0  0  0  0  0999 V2000
   12.4616    8.6700   19.4180 N   0  0  0  0  0  0  0  0  0  0  0  0
   11.8329   10.8148   18.6769 N   0  0  0  0  0  0  0  0  0  0  0  0
    6.1021    2.5564   21.0678 C   0  0  0  0  0  0  0  0  0  0  0  0
   10.9097   11.8051   18.4804 C   0  0  0  0  0  0  0  0  0  0  0  0
   11.2280   12.9135   17.5669 C   0  0  0  0  0  0  0  0  0  0  0  0
   12.3782    5.4231   20.7777 C   0  0  0  0  0  0  0  0  0  0  0  0
    7.7365    4.6508   21.6987 C   0  0  0  0  0  0  0  0  0  0  0  0
   13.0186   11.0102   18.0020 C   0  0  0  0  0  0  0  0  0  0  0  0
    8.6628    5.7088   21.8871 N   0  0  0  0  0  0  0  0  0  0  0  0
    5.6516    3.5258   21.9140 C   0  0  0  0  0  0  0  0  0  0  0  0
   11.5863    9.6815   19.4539 C   0  0  0  0  0  0  0  0  0  0  0  0
   12.9648    4.1543   20.9205 C   0  0  0  0  0  0  0  0  0  0  0  0
    8.2089    3.6265   20.8929 C   0  0  0  0  0  0  0  0  0  0  0  0
    7.3827    2.5724   20.5432 C   0  0  0  0  0  0  0  0  0  0  0  0
   11.1529    7.2750   20.8025 C   0  0  0  0  0  0  0  0  0  0  0  0
   10.2573    8.3215   20.9827 C   0  0  0  0  0  0  0  0  0  0  0  0
   11.1606    5.9378   21.2366 N   0  0  0  0  0  0  0  0  0  0  0  0
    9.8932   11.6736   19.0677 O   0  0  0  0  0  0  0  0  0  0  0  0
    6.4470    4.5850   22.2321 C   0  0  0  0  0  0  0  0  0  0  0  0
    8.4619    6.9895   22.2968 C   0  0  0  0  0  0  0  0  0  0  0  0
   12.2747    7.5102   20.0420 C   0  0  0  0  0  0  0  0  0  0  0  0
   14.2544    6.2142   19.4191 C   0  0  0  0  0  0  0  0  0  0  0  0
   13.0695    6.3705   20.0375 N   0  0  0  0  0  0  0  0  0  0  0  0
    9.1913    8.0876   21.8361 N   0  0  0  0  0  0  0  0  0  0  0  0
   10.4739    9.4813   20.2889 C   0  0  0  0  0  0  0  0  0  0  0  0
    7.5551    7.1270   23.1200 O   0  0  0  0  0  0  0  0  0  0  0  0
  1 11  4  0
  1 21  4  0
  2  4  1  0
  2  8  1  0
  2 11  1  0
  3 10  4  0
  3 14  4  0
  4  5  1  0
  4 18  2  0
  6 12  1  0
  6 17  4  0
  6 23  4  0
  7  9  1  0
  7 13  4  0
  7 19  4  0
  9 20  1  0
 10 19  4  0
 11 25  4  0
 13 14  4  0
 15 16  4  0
 15 17  4  0
 15 21  4  0
 16 24  1  0
 16 25  4  0
 20 24  1  0
 20 26  2  0
 21 23  4  0
 22 23  1  0
M  END
$$$$

 Created by Python create_sdf_string function

 26 28  0  0  0  0  0  0  0  0999 V2000
   12.4616    8.6700   19.4180 N   0  0  0  0  0  0  0  0  0  0  0  0
   11.8329   10.8148   18.6769 N   0  0  0  0  0  0  0  0  0  0  0  0
    6.1021    2.5564   21.0678 C   0  0  0  0  0  0  0  0  0  0  0  0
   10.9097   11.8051   18.4804 C   0  0  0  0  0  0  0  0  0  0  0  0
   11.2280   12.9135   17.5669 C   0  0  0  0  0  0  0  0  0  0  0  0
   12.3782    5.4231   20.7777 C   0  0  0  0  0  0  0  0  0  0  0  0
    7.7365    4.6508   21.6987 C   0  0  0  0  0  0  0  0  0  0  0  0
   13.0186   11.0102   18.0020 C   0  0  0  0  0  0  0  0  0  0  0  0
    8.6628    5.7088   21.8871 N   0  0  0  0  0  0  0  0  0  0  0  0
    5.6516    3.5258   21.9140 C   0  0  0  0  0  0  0  0  0  0  0  0
   11.5863    9.6815   19.4539 C   0  0  0  0  0  0  0  0  0  0  0  0
   12.9648    4.1543   20.9205 C   0  0  0  0  0  0  0  0  0  0  0  0
    8.2089    3.6265   20.8929 C   0  0  0  0  0  0  0  0  0  0  0  0
    7.3827    2.5724   20.5432 C   0  0  0  0  0  0  0  0  0  0  0  0
   11.1529    7.2750   20.8025 C   0  0  0  0  0  0  0  0  0  0  0  0
   10.2573    8.3215   20.9827 C   0  0  0  0  0  0  0  0  0  0  0  0
   11.1606    5.9378   21.2366 N   0  0  0  0  0  0  0  0  0  0  0  0
    9.8932   11.6736   19.0677 O   0  0  0  0  0  0  0  0  0  0  0  0
    6.4470    4.5850   22.2321 C   0  0  0  0  0  0  0  0  0  0  0  0
    8.4619    6.9895   22.2968 C   0  0  0  0  0  0  0  0  0  0  0  0
   12.2747    7.5102   20.0420 C   0  0  0  0  0  0  0  0  0  0  0  0
   14.2544    6.2142   19.4191 C   0  0  0  0  0  0  0  0  0  0  0  0
   13.0695    6.3705   20.0375 N   0  0  0  0  0  0  0  0  0  0  0  0
    9.1913    8.0876   21.8361 N   0  0  0  0  0  0  0  0  0  0  0  0
   10.4739    9.4813   20.2889 C   0  0  0  0  0  0  0  0  0  0  0  0
    7.5551    7.1270   23.1200 O   0  0  0  0  0  0  0  0  0  0  0  0
  1 11  4  0
  1 21  4  0
  2  4  1  0
  2  8  1  0
  2 11  1  0
  3 10  4  0
  3 14  4  0
  4  5  1  0
  4 18  2  0
  6 12  1  0
  6 17  4  0
  6 23  4  0
  7  9  1  0
  7 13  4  0
  7 19  4  0
  9 20  1  0
 10 19  4  0
 11 25  4  0
 13 14  4  0
 15 16  4  0
 15 17  4  0
 15 21  4  0
 16 24  1  0
 16 25  4  0
 20 24  1  0
 20 26  2  0
 21 23  4  0
 22 23  1  0
M  END
$$$$

 Created by Python create_sdf_string function

 26 28  0  0  0  0  0  0  0  0999 V2000
   12.4616    8.6700   19.4180 N   0  0  0  0  0  0  0  0  0  0  0  0
   11.8329   10.8148   18.6769 N   0  0  0  0  0  0  0  0  0  0  0  0
    6.1021    2.5564   21.0678 C   0  0  0  0  0  0  0  0  0  0  0  0
   10.9097   11.8051   18.4804 C   0  0  0  0  0  0  0  0  0  0  0  0
   11.2280   12.9135   17.5669 C   0  0  0  0  0  0  0  0  0  0  0  0
   12.3782    5.4231   20.7777 C   0  0  0  0  0  0  0  0  0  0  0  0
    7.7365    4.6508   21.6987 C   0  0  0  0  0  0  0  0  0  0  0  0
   13.0186   11.0102   18.0020 C   0  0  0  0  0  0  0  0  0  0  0  0
    8.6628    5.7088   21.8871 N   0  0  0  0  0  0  0  0  0  0  0  0
    5.6516    3.5258   21.9140 C   0  0  0  0  0  0  0  0  0  0  0  0
   11.5863    9.6815   19.4539 C   0  0  0  0  0  0  0  0  0  0  0  0
   12.9648    4.1543   20.9205 C   0  0  0  0  0  0  0  0  0  0  0  0
    8.2089    3.6265   20.8929 C   0  0  0  0  0  0  0  0  0  0  0  0
    7.3827    2.5724   20.5432 C   0  0  0  0  0  0  0  0  0  0  0  0
   11.1529    7.2750   20.8025 C   0  0  0  0  0  0  0  0  0  0  0  0
   10.2573    8.3215   20.9827 C   0  0  0  0  0  0  0  0  0  0  0  0
   11.1606    5.9378   21.2366 N   0  0  0  0  0  0  0  0  0  0  0  0
    9.8932   11.6736   19.0677 O   0  0  0  0  0  0  0  0  0  0  0  0
    6.4470    4.5850   22.2321 C   0  0  0  0  0  0  0  0  0  0  0  0
    8.4619    6.9895   22.2968 C   0  0  0  0  0  0  0  0  0  0  0  0
   12.2747    7.5102   20.0420 C   0  0  0  0  0  0  0  0  0  0  0  0
   14.2544    6.2142   19.4191 C   0  0  0  0  0  0  0  0  0  0  0  0
   13.0695    6.3705   20.0375 N   0  0  0  0  0  0  0  0  0  0  0  0
    9.1913    8.0876   21.8361 N   0  0  0  0  0  0  0  0  0  0  0  0
   10.4739    9.4813   20.2889 C   0  0  0  0  0  0  0  0  0  0  0  0
    7.5551    7.1270   23.1200 O   0  0  0  0  0  0  0  0  0  0  0  0
  1 11  4  0
  1 21  4  0
  2  4  1  0
  2  8  1  0
  2 11  1  0
  3 10  4  0
  3 14  4  0
  4  5  1  0
  4 18  2  0
  6 12  1  0
  6 17  4  0
  6 23  4  0
  7  9  1  0
  7 13  4  0
  7 19  4  0
  9 20  1  0
 10 19  4  0
 11 25  4  0
 13 14  4  0
 15 16  4  0
 15 17  4  0
 15 21  4  0
 16 24  1  0
 16 25  4  0
 20 24  1  0
 20 26  2  0
 21 23  4  0
 22 23  1  0
M  END
$$$$

 Created by Python create_sdf_string function

 26 28  0  0  0  0  0  0  0  0999 V2000
   12.4616    8.6700   19.4180 N   0  0  0  0  0  0  0  0  0  0  0  0
   11.8329   10.8148   18.6769 N   0  0  0  0  0  0  0  0  0  0  0  0
    6.1021    2.5564   21.0678 C   0  0  0  0  0  0  0  0  0  0  0  0
   10.9097   11.8051   18.4804 C   0  0  0  0  0  0  0  0  0  0  0  0
   11.2280   12.9135   17.5669 C   0  0  0  0  0  0  0  0  0  0  0  0
   12.3782    5.4231   20.7777 C   0  0  0  0  0  0  0  0  0  0  0  0
    7.7365    4.6508   21.6987 C   0  0  0  0  0  0  0  0  0  0  0  0
   13.0186   11.0102   18.0020 C   0  0  0  0  0  0  0  0  0  0  0  0
    8.6628    5.7088   21.8871 N   0  0  0  0  0  0  0  0  0  0  0  0
    5.6516    3.5258   21.9140 C   0  0  0  0  0  0  0  0  0  0  0  0
   11.5863    9.6815   19.4539 C   0  0  0  0  0  0  0  0  0  0  0  0
   12.9648    4.1543   20.9205 C   0  0  0  0  0  0  0  0  0  0  0  0
    8.2089    3.6265   20.8929 C   0  0  0  0  0  0  0  0  0  0  0  0
    7.3827    2.5724   20.5432 C   0  0  0  0  0  0  0  0  0  0  0  0
   11.1529    7.2750   20.8025 C   0  0  0  0  0  0  0  0  0  0  0  0
   10.2573    8.3215   20.9827 C   0  0  0  0  0  0  0  0  0  0  0  0
   11.1606    5.9378   21.2366 N   0  0  0  0  0  0  0  0  0  0  0  0
    9.8932   11.6736   19.0677 O   0  0  0  0  0  0  0  0  0  0  0  0
    6.4470    4.5850   22.2321 C   0  0  0  0  0  0  0  0  0  0  0  0
    8.4619    6.9895   22.2968 C   0  0  0  0  0  0  0  0  0  0  0  0
   12.2747    7.5102   20.0420 C   0  0  0  0  0  0  0  0  0  0  0  0
   14.2544    6.2142   19.4191 C   0  0  0  0  0  0  0  0  0  0  0  0
   13.0695    6.3705   20.0375 N   0  0  0  0  0  0  0  0  0  0  0  0
    9.1913    8.0876   21.8361 N   0  0  0  0  0  0  0  0  0  0  0  0
   10.4739    9.4813   20.2889 C   0  0  0  0  0  0  0  0  0  0  0  0
    7.5551    7.1270   23.1200 O   0  0  0  0  0  0  0  0  0  0  0  0
  1 11  4  0
  1 21  4  0
  2  4  1  0
  2  8  1  0
  2 11  1  0
  3 10  4  0
  3 14  4  0
  4  5  1  0
  4 18  2  0
  6 12  1  0
  6 17  4  0
  6 23  4  0
  7  9  1  0
  7 13  4  0
  7 19  4  0
  9 20  1  0
 10 19  4  0
 11 25  4  0
 13 14  4  0
 15 16  4  0
 15 17  4  0
 15 21  4  0
 16 24  1  0
 16 25  4  0
 20 24  1  0
 20 26  2  0
 21 23  4  0
 22 23  1  0
M  END
$$$$

 Created by Python create_sdf_string function

 26 28  0  0  0  0  0  0  0  0999 V2000
   12.4616    8.6700   19.4180 N   0  0  0  0  0  0  0  0  0  0  0  0
   11.8329   10.8148   18.6769 N   0  0  0  0  0  0  0  0  0  0  0  0
    6.1021    2.5564   21.0678 C   0  0  0  0  0  0  0  0  0  0  0  0
   10.9097   11.8051   18.4804 C   0  0  0  0  0  0  0  0  0  0  0  0
   11.2280   12.9135   17.5669 C   0  0  0  0  0  0  0  0  0  0  0  0
   12.3782    5.4231   20.7777 C   0  0  0  0  0  0  0  0  0  0  0  0
    7.7365    4.6508   21.6987 C   0  0  0  0  0  0  0  0  0  0  0  0
   13.0186   11.0102   18.0020 C   0  0  0  0  0  0  0  0  0  0  0  0
    8.6628    5.7088   21.8871 N   0  0  0  0  0  0  0  0  0  0  0  0
    5.6516    3.5258   21.9140 C   0  0  0  0  0  0  0  0  0  0  0  0
   11.5863    9.6815   19.4539 C   0  0  0  0  0  0  0  0  0  0  0  0
   12.9648    4.1543   20.9205 C   0  0  0  0  0  0  0  0  0  0  0  0
    8.2089    3.6265   20.8929 C   0  0  0  0  0  0  0  0  0  0  0  0
    7.3827    2.5724   20.5432 C   0  0  0  0  0  0  0  0  0  0  0  0
   11.1529    7.2750   20.8025 C   0  0  0  0  0  0  0  0  0  0  0  0
   10.2573    8.3215   20.9827 C   0  0  0  0  0  0  0  0  0  0  0  0
   11.1606    5.9378   21.2366 N   0  0  0  0  0  0  0  0  0  0  0  0
    9.8932   11.6736   19.0677 O   0  0  0  0  0  0  0  0  0  0  0  0
    6.4470    4.5850   22.2321 C   0  0  0  0  0  0  0  0  0  0  0  0
    8.4619    6.9895   22.2968 C   0  0  0  0  0  0  0  0  0  0  0  0
   12.2747    7.5102   20.0420 C   0  0  0  0  0  0  0  0  0  0  0  0
   14.2544    6.2142   19.4191 C   0  0  0  0  0  0  0  0  0  0  0  0
   13.0695    6.3705   20.0375 N   0  0  0  0  0  0  0  0  0  0  0  0
    9.1913    8.0876   21.8361 N   0  0  0  0  0  0  0  0  0  0  0  0
   10.4739    9.4813   20.2889 C   0  0  0  0  0  0  0  0  0  0  0  0
    7.5551    7.1270   23.1200 O   0  0  0  0  0  0  0  0  0  0  0  0
  1 11  4  0
  1 21  4  0
  2  4  1  0
  2  8  1  0
  2 11  1  0
  3 10  4  0
  3 14  4  0
  4  5  1  0
  4 18  2  0
  6 12  1  0
  6 17  4  0
  6 23  4  0
  7  9  1  0
  7 13  4  0
  7 19  4  0
  9 20  1  0
 10 19  4  0
 11 25  4  0
 13 14  4  0
 15 16  4  0
 15 17  4  0
 15 21  4  0
 16 24  1  0
 16 25  4  0
 20 24  1  0
 20 26  2  0
 21 23  4  0
 22 23  1  0
M  END
$$$$

 Created by Python create_sdf_string function

 26 28  0  0  0  0  0  0  0  0999 V2000
   12.4616    8.6700   19.4180 N   0  0  0  0  0  0  0  0  0  0  0  0
   11.8329   10.8148   18.6769 N   0  0  0  0  0  0  0  0  0  0  0  0
    6.1021    2.5564   21.0678 C   0  0  0  0  0  0  0  0  0  0  0  0
   10.9097   11.8051   18.4804 C   0  0  0  0  0  0  0  0  0  0  0  0
   11.2280   12.9135   17.5669 C   0  0  0  0  0  0  0  0  0  0  0  0
   12.3782    5.4231   20.7777 C   0  0  0  0  0  0  0  0  0  0  0  0
    7.7365    4.6508   21.6987 C   0  0  0  0  0  0  0  0  0  0  0  0
   13.0186   11.0102   18.0020 C   0  0  0  0  0  0  0  0  0  0  0  0
    8.6628    5.7088   21.8871 N   0  0  0  0  0  0  0  0  0  0  0  0
    5.6516    3.5258   21.9140 C   0  0  0  0  0  0  0  0  0  0  0  0
   11.5863    9.6815   19.4539 C   0  0  0  0  0  0  0  0  0  0  0  0
   12.9648    4.1543   20.9205 C   0  0  0  0  0  0  0  0  0  0  0  0
    8.2089    3.6265   20.8929 C   0  0  0  0  0  0  0  0  0  0  0  0
    7.3827    2.5724   20.5432 C   0  0  0  0  0  0  0  0  0  0  0  0
   11.1529    7.2750   20.8025 C   0  0  0  0  0  0  0  0  0  0  0  0
   10.2573    8.3215   20.9827 C   0  0  0  0  0  0  0  0  0  0  0  0
   11.1606    5.9378   21.2366 N   0  0  0  0  0  0  0  0  0  0  0  0
    9.8932   11.6736   19.0677 O   0  0  0  0  0  0  0  0  0  0  0  0
    6.4470    4.5850   22.2321 C   0  0  0  0  0  0  0  0  0  0  0  0
    8.4619    6.9895   22.2968 C   0  0  0  0  0  0  0  0  0  0  0  0
   12.2747    7.5102   20.0420 C   0  0  0  0  0  0  0  0  0  0  0  0
   14.2544    6.2142   19.4191 C   0  0  0  0  0  0  0  0  0  0  0  0
   13.0695    6.3705   20.0375 N   0  0  0  0  0  0  0  0  0  0  0  0
    9.1913    8.0876   21.8361 N   0  0  0  0  0  0  0  0  0  0  0  0
   10.4739    9.4813   20.2889 C   0  0  0  0  0  0  0  0  0  0  0  0
    7.5551    7.1270   23.1200 O   0  0  0  0  0  0  0  0  0  0  0  0
  1 11  4  0
  1 21  4  0
  2  4  1  0
  2  8  1  0
  2 11  1  0
  3 10  4  0
  3 14  4  0
  4  5  1  0
  4 18  2  0
  6 12  1  0
  6 17  4  0
  6 23  4  0
  7  9  1  0
  7 13  4  0
  7 19  4  0
  9 20  1  0
 10 19  4  0
 11 25  4  0
 13 14  4  0
 15 16  4  0
 15 17  4  0
 15 21  4  0
 16 24  1  0
 16 25  4  0
 20 24  1  0
 20 26  2  0
 21 23  4  0
 22 23  1  0
M  END
$$$$

 Created by Python create_sdf_string function

 26 28  0  0  0  0  0  0  0  0999 V2000
   12.4616    8.6700   19.4180 N   0  0  0  0  0  0  0  0  0  0  0  0
   11.8329   10.8148   18.6769 N   0  0  0  0  0  0  0  0  0  0  0  0
    6.1021    2.5564   21.0678 C   0  0  0  0  0  0  0  0  0  0  0  0
   10.9097   11.8051   18.4804 C   0  0  0  0  0  0  0  0  0  0  0  0
   11.2280   12.9135   17.5669 C   0  0  0  0  0  0  0  0  0  0  0  0
   12.3782    5.4231   20.7777 C   0  0  0  0  0  0  0  0  0  0  0  0
    7.7365    4.6508   21.6987 C   0  0  0  0  0  0  0  0  0  0  0  0
   13.0186   11.0102   18.0020 C   0  0  0  0  0  0  0  0  0  0  0  0
    8.6628    5.7088   21.8871 N   0  0  0  0  0  0  0  0  0  0  0  0
    5.6516    3.5258   21.9140 C   0  0  0  0  0  0  0  0  0  0  0  0
   11.5863    9.6815   19.4539 C   0  0  0  0  0  0  0  0  0  0  0  0
   12.9648    4.1543   20.9205 C   0  0  0  0  0  0  0  0  0  0  0  0
    8.2089    3.6265   20.8929 C   0  0  0  0  0  0  0  0  0  0  0  0
    7.3827    2.5724   20.5432 C   0  0  0  0  0  0  0  0  0  0  0  0
   11.1529    7.2750   20.8025 C   0  0  0  0  0  0  0  0  0  0  0  0
   10.2573    8.3215   20.9827 C   0  0  0  0  0  0  0  0  0  0  0  0
   11.1606    5.9378   21.2366 N   0  0  0  0  0  0  0  0  0  0  0  0
    9.8932   11.6736   19.0677 O   0  0  0  0  0  0  0  0  0  0  0  0
    6.4470    4.5850   22.2321 C   0  0  0  0  0  0  0  0  0  0  0  0
    8.4619    6.9895   22.2968 C   0  0  0  0  0  0  0  0  0  0  0  0
   12.2747    7.5102   20.0420 C   0  0  0  0  0  0  0  0  0  0  0  0
   14.2544    6.2142   19.4191 C   0  0  0  0  0  0  0  0  0  0  0  0
   13.0695    6.3705   20.0375 N   0  0  0  0  0  0  0  0  0  0  0  0
    9.1913    8.0876   21.8361 N   0  0  0  0  0  0  0  0  0  0  0  0
   10.4739    9.4813   20.2889 C   0  0  0  0  0  0  0  0  0  0  0  0
    7.5551    7.1270   23.1200 O   0  0  0  0  0  0  0  0  0  0  0  0
  1 11  4  0
  1 21  4  0
  2  4  1  0
  2  8  1  0
  2 11  1  0
  3 10  4  0
  3 14  4  0
  4  5  1  0
  4 18  2  0
  6 12  1  0
  6 17  4  0
  6 23  4  0
  7  9  1  0
  7 13  4  0
  7 19  4  0
  9 20  1  0
 10 19  4  0
 11 25  4  0
 13 14  4  0
 15 16  4  0
 15 17  4  0
 15 21  4  0
 16 24  1  0
 16 25  4  0
 20 24  1  0
 20 26  2  0
 21 23  4  0
 22 23  1  0
M  END
$$$$

 Created by Python create_sdf_string function

 26 28  0  0  0  0  0  0  0  0999 V2000
   12.4616    8.6700   19.4180 N   0  0  0  0  0  0  0  0  0  0  0  0
   11.8329   10.8148   18.6769 N   0  0  0  0  0  0  0  0  0  0  0  0
    6.1021    2.5564   21.0678 C   0  0  0  0  0  0  0  0  0  0  0  0
   10.9097   11.8051   18.4804 C   0  0  0  0  0  0  0  0  0  0  0  0
   11.2280   12.9135   17.5669 C   0  0  0  0  0  0  0  0  0  0  0  0
   12.3782    5.4231   20.7777 C   0  0  0  0  0  0  0  0  0  0  0  0
    7.7365    4.6508   21.6987 C   0  0  0  0  0  0  0  0  0  0  0  0
   13.0186   11.0102   18.0020 C   0  0  0  0  0  0  0  0  0  0  0  0
    8.6628    5.7088   21.8871 N   0  0  0  0  0  0  0  0  0  0  0  0
    5.6516    3.5258   21.9140 C   0  0  0  0  0  0  0  0  0  0  0  0
   11.5863    9.6815   19.4539 C   0  0  0  0  0  0  0  0  0  0  0  0
   12.9648    4.1543   20.9205 C   0  0  0  0  0  0  0  0  0  0  0  0
    8.2089    3.6265   20.8929 C   0  0  0  0  0  0  0  0  0  0  0  0
    7.3827    2.5724   20.5432 C   0  0  0  0  0  0  0  0  0  0  0  0
   11.1529    7.2750   20.8025 C   0  0  0  0  0  0  0  0  0  0  0  0
   10.2573    8.3215   20.9827 C   0  0  0  0  0  0  0  0  0  0  0  0
   11.1606    5.9378   21.2366 N   0  0  0  0  0  0  0  0  0  0  0  0
    9.8932   11.6736   19.0677 O   0  0  0  0  0  0  0  0  0  0  0  0
    6.4470    4.5850   22.2321 C   0  0  0  0  0  0  0  0  0  0  0  0
    8.4619    6.9895   22.2968 C   0  0  0  0  0  0  0  0  0  0  0  0
   12.2747    7.5102   20.0420 C   0  0  0  0  0  0  0  0  0  0  0  0
   14.2544    6.2142   19.4191 C   0  0  0  0  0  0  0  0  0  0  0  0
   13.0695    6.3705   20.0375 N   0  0  0  0  0  0  0  0  0  0  0  0
    9.1913    8.0876   21.8361 N   0  0  0  0  0  0  0  0  0  0  0  0
   10.4739    9.4813   20.2889 C   0  0  0  0  0  0  0  0  0  0  0  0
    7.5551    7.1270   23.1200 O   0  0  0  0  0  0  0  0  0  0  0  0
  1 11  4  0
  1 21  4  0
  2  4  1  0
  2  8  1  0
  2 11  1  0
  3 10  4  0
  3 14  4  0
  4  5  1  0
  4 18  2  0
  6 12  1  0
  6 17  4  0
  6 23  4  0
  7  9  1  0
  7 13  4  0
  7 19  4  0
  9 20  1  0
 10 19  4  0
 11 25  4  0
 13 14  4  0
 15 16  4  0
 15 17  4  0
 15 21  4  0
 16 24  1  0
 16 25  4  0
 20 24  1  0
 20 26  2  0
 21 23  4  0
 22 23  1  0
M  END
$$$$

 Created by Python create_sdf_string function

 26 28  0  0  0  0  0  0  0  0999 V2000
   12.4616    8.6700   19.4180 N   0  0  0  0  0  0  0  0  0  0  0  0
   11.8329   10.8148   18.6769 N   0  0  0  0  0  0  0  0  0  0  0  0
    6.1021    2.5564   21.0678 C   0  0  0  0  0  0  0  0  0  0  0  0
   10.9097   11.8051   18.4804 C   0  0  0  0  0  0  0  0  0  0  0  0
   11.2280   12.9135   17.5669 C   0  0  0  0  0  0  0  0  0  0  0  0
   12.3782    5.4231   20.7777 C   0  0  0  0  0  0  0  0  0  0  0  0
    7.7365    4.6508   21.6987 C   0  0  0  0  0  0  0  0  0  0  0  0
   13.0186   11.0102   18.0020 C   0  0  0  0  0  0  0  0  0  0  0  0
    8.6628    5.7088   21.8871 N   0  0  0  0  0  0  0  0  0  0  0  0
    5.6516    3.5258   21.9140 C   0  0  0  0  0  0  0  0  0  0  0  0
   11.5863    9.6815   19.4539 C   0  0  0  0  0  0  0  0  0  0  0  0
   12.9648    4.1543   20.9205 C   0  0  0  0  0  0  0  0  0  0  0  0
    8.2089    3.6265   20.8929 C   0  0  0  0  0  0  0  0  0  0  0  0
    7.3827    2.5724   20.5432 C   0  0  0  0  0  0  0  0  0  0  0  0
   11.1529    7.2750   20.8025 C   0  0  0  0  0  0  0  0  0  0  0  0
   10.2573    8.3215   20.9827 C   0  0  0  0  0  0  0  0  0  0  0  0
   11.1606    5.9378   21.2366 N   0  0  0  0  0  0  0  0  0  0  0  0
    9.8932   11.6736   19.0677 O   0  0  0  0  0  0  0  0  0  0  0  0
    6.4470    4.5850   22.2321 C   0  0  0  0  0  0  0  0  0  0  0  0
    8.4619    6.9895   22.2968 C   0  0  0  0  0  0  0  0  0  0  0  0
   12.2747    7.5102   20.0420 C   0  0  0  0  0  0  0  0  0  0  0  0
   14.2544    6.2142   19.4191 C   0  0  0  0  0  0  0  0  0  0  0  0
   13.0695    6.3705   20.0375 N   0  0  0  0  0  0  0  0  0  0  0  0
    9.1913    8.0876   21.8361 N   0  0  0  0  0  0  0  0  0  0  0  0
   10.4739    9.4813   20.2889 C   0  0  0  0  0  0  0  0  0  0  0  0
    7.5551    7.1270   23.1200 O   0  0  0  0  0  0  0  0  0  0  0  0
  1 11  4  0
  1 21  4  0
  2  4  1  0
  2  8  1  0
  2 11  1  0
  3 10  4  0
  3 14  4  0
  4  5  1  0
  4 18  2  0
  6 12  1  0
  6 17  4  0
  6 23  4  0
  7  9  1  0
  7 13  4  0
  7 19  4  0
  9 20  1  0
 10 19  4  0
 11 25  4  0
 13 14  4  0
 15 16  4  0
 15 17  4  0
 15 21  4  0
 16 24  1  0
 16 25  4  0
 20 24  1  0
 20 26  2  0
 21 23  4  0
 22 23  1  0
M  END
$$$$

 Created by Python create_sdf_string function

 26 28  0  0  0  0  0  0  0  0999 V2000
   12.4616    8.6700   19.4180 N   0  0  0  0  0  0  0  0  0  0  0  0
   11.8329   10.8148   18.6769 N   0  0  0  0  0  0  0  0  0  0  0  0
    6.1021    2.5564   21.0678 C   0  0  0  0  0  0  0  0  0  0  0  0
   10.9097   11.8051   18.4804 C   0  0  0  0  0  0  0  0  0  0  0  0
   11.2280   12.9135   17.5669 C   0  0  0  0  0  0  0  0  0  0  0  0
   12.3782    5.4231   20.7777 C   0  0  0  0  0  0  0  0  0  0  0  0
    7.7365    4.6508   21.6987 C   0  0  0  0  0  0  0  0  0  0  0  0
   13.0186   11.0102   18.0020 C   0  0  0  0  0  0  0  0  0  0  0  0
    8.6628    5.7088   21.8871 N   0  0  0  0  0  0  0  0  0  0  0  0
    5.6516    3.5258   21.9140 C   0  0  0  0  0  0  0  0  0  0  0  0
   11.5863    9.6815   19.4539 C   0  0  0  0  0  0  0  0  0  0  0  0
   12.9648    4.1543   20.9205 C   0  0  0  0  0  0  0  0  0  0  0  0
    8.2089    3.6265   20.8929 C   0  0  0  0  0  0  0  0  0  0  0  0
    7.3827    2.5724   20.5432 C   0  0  0  0  0  0  0  0  0  0  0  0
   11.1529    7.2750   20.8025 C   0  0  0  0  0  0  0  0  0  0  0  0
   10.2573    8.3215   20.9827 C   0  0  0  0  0  0  0  0  0  0  0  0
   11.1606    5.9378   21.2366 N   0  0  0  0  0  0  0  0  0  0  0  0
    9.8932   11.6736   19.0677 O   0  0  0  0  0  0  0  0  0  0  0  0
    6.4470    4.5850   22.2321 C   0  0  0  0  0  0  0  0  0  0  0  0
    8.4619    6.9895   22.2968 C   0  0  0  0  0  0  0  0  0  0  0  0
   12.2747    7.5102   20.0420 C   0  0  0  0  0  0  0  0  0  0  0  0
   14.2544    6.2142   19.4191 C   0  0  0  0  0  0  0  0  0  0  0  0
   13.0695    6.3705   20.0375 N   0  0  0  0  0  0  0  0  0  0  0  0
    9.1913    8.0876   21.8361 N   0  0  0  0  0  0  0  0  0  0  0  0
   10.4739    9.4813   20.2889 C   0  0  0  0  0  0  0  0  0  0  0  0
    7.5551    7.1270   23.1200 O   0  0  0  0  0  0  0  0  0  0  0  0
  1 11  4  0
  1 21  4  0
  2  4  1  0
  2  8  1  0
  2 11  1  0
  3 10  4  0
  3 14  4  0
  4  5  1  0
  4 18  2  0
  6 12  1  0
  6 17  4  0
  6 23  4  0
  7  9  1  0
  7 13  4  0
  7 19  4  0
  9 20  1  0
 10 19  4  0
 11 25  4  0
 13 14  4  0
 15 16  4  0
 15 17  4  0
 15 21  4  0
 16 24  1  0
 16 25  4  0
 20 24  1  0
 20 26  2  0
 21 23  4  0
 22 23  1  0
M  END
$$$$

 Created by Python create_sdf_string function

 26 28  0  0  0  0  0  0  0  0999 V2000
   12.4616    8.6700   19.4180 N   0  0  0  0  0  0  0  0  0  0  0  0
   11.8329   10.8148   18.6769 N   0  0  0  0  0  0  0  0  0  0  0  0
    6.1021    2.5564   21.0678 C   0  0  0  0  0  0  0  0  0  0  0  0
   10.9097   11.8051   18.4804 C   0  0  0  0  0  0  0  0  0  0  0  0
   11.2280   12.9135   17.5669 C   0  0  0  0  0  0  0  0  0  0  0  0
   12.3782    5.4231   20.7777 C   0  0  0  0  0  0  0  0  0  0  0  0
    7.7365    4.6508   21.6987 C   0  0  0  0  0  0  0  0  0  0  0  0
   13.0186   11.0102   18.0020 C   0  0  0  0  0  0  0  0  0  0  0  0
    8.6628    5.7088   21.8871 N   0  0  0  0  0  0  0  0  0  0  0  0
    5.6516    3.5258   21.9140 C   0  0  0  0  0  0  0  0  0  0  0  0
   11.5863    9.6815   19.4539 C   0  0  0  0  0  0  0  0  0  0  0  0
   12.9648    4.1543   20.9205 C   0  0  0  0  0  0  0  0  0  0  0  0
    8.2089    3.6265   20.8929 C   0  0  0  0  0  0  0  0  0  0  0  0
    7.3827    2.5724   20.5432 C   0  0  0  0  0  0  0  0  0  0  0  0
   11.1529    7.2750   20.8025 C   0  0  0  0  0  0  0  0  0  0  0  0
   10.2573    8.3215   20.9827 C   0  0  0  0  0  0  0  0  0  0  0  0
   11.1606    5.9378   21.2366 N   0  0  0  0  0  0  0  0  0  0  0  0
    9.8932   11.6736   19.0677 O   0  0  0  0  0  0  0  0  0  0  0  0
    6.4470    4.5850   22.2321 C   0  0  0  0  0  0  0  0  0  0  0  0
    8.4619    6.9895   22.2968 C   0  0  0  0  0  0  0  0  0  0  0  0
   12.2747    7.5102   20.0420 C   0  0  0  0  0  0  0  0  0  0  0  0
   14.2544    6.2142   19.4191 C   0  0  0  0  0  0  0  0  0  0  0  0
   13.0695    6.3705   20.0375 N   0  0  0  0  0  0  0  0  0  0  0  0
    9.1913    8.0876   21.8361 N   0  0  0  0  0  0  0  0  0  0  0  0
   10.4739    9.4813   20.2889 C   0  0  0  0  0  0  0  0  0  0  0  0
    7.5551    7.1270   23.1200 O   0  0  0  0  0  0  0  0  0  0  0  0
  1 11  4  0
  1 21  4  0
  2  4  1  0
  2  8  1  0
  2 11  1  0
  3 10  4  0
  3 14  4  0
  4  5  1  0
  4 18  2  0
  6 12  1  0
  6 17  4  0
  6 23  4  0
  7  9  1  0
  7 13  4  0
  7 19  4  0
  9 20  1  0
 10 19  4  0
 11 25  4  0
 13 14  4  0
 15 16  4  0
 15 17  4  0
 15 21  4  0
 16 24  1  0
 16 25  4  0
 20 24  1  0
 20 26  2  0
 21 23  4  0
 22 23  1  0
M  END
$$$$

 Created by Python create_sdf_string function

 26 28  0  0  0  0  0  0  0  0999 V2000
   12.4616    8.6700   19.4180 N   0  0  0  0  0  0  0  0  0  0  0  0
   11.8329   10.8148   18.6769 N   0  0  0  0  0  0  0  0  0  0  0  0
    6.1021    2.5564   21.0678 C   0  0  0  0  0  0  0  0  0  0  0  0
   10.9097   11.8051   18.4804 C   0  0  0  0  0  0  0  0  0  0  0  0
   11.2280   12.9135   17.5669 C   0  0  0  0  0  0  0  0  0  0  0  0
   12.3782    5.4231   20.7777 C   0  0  0  0  0  0  0  0  0  0  0  0
    7.7365    4.6508   21.6987 C   0  0  0  0  0  0  0  0  0  0  0  0
   13.0186   11.0102   18.0020 C   0  0  0  0  0  0  0  0  0  0  0  0
    8.6628    5.7088   21.8871 N   0  0  0  0  0  0  0  0  0  0  0  0
    5.6516    3.5258   21.9140 C   0  0  0  0  0  0  0  0  0  0  0  0
   11.5863    9.6815   19.4539 C   0  0  0  0  0  0  0  0  0  0  0  0
   12.9648    4.1543   20.9205 C   0  0  0  0  0  0  0  0  0  0  0  0
    8.2089    3.6265   20.8929 C   0  0  0  0  0  0  0  0  0  0  0  0
    7.3827    2.5724   20.5432 C   0  0  0  0  0  0  0  0  0  0  0  0
   11.1529    7.2750   20.8025 C   0  0  0  0  0  0  0  0  0  0  0  0
   10.2573    8.3215   20.9827 C   0  0  0  0  0  0  0  0  0  0  0  0
   11.1606    5.9378   21.2366 N   0  0  0  0  0  0  0  0  0  0  0  0
    9.8932   11.6736   19.0677 O   0  0  0  0  0  0  0  0  0  0  0  0
    6.4470    4.5850   22.2321 C   0  0  0  0  0  0  0  0  0  0  0  0
    8.4619    6.9895   22.2968 C   0  0  0  0  0  0  0  0  0  0  0  0
   12.2747    7.5102   20.0420 C   0  0  0  0  0  0  0  0  0  0  0  0
   14.2544    6.2142   19.4191 C   0  0  0  0  0  0  0  0  0  0  0  0
   13.0695    6.3705   20.0375 N   0  0  0  0  0  0  0  0  0  0  0  0
    9.1913    8.0876   21.8361 N   0  0  0  0  0  0  0  0  0  0  0  0
   10.4739    9.4813   20.2889 C   0  0  0  0  0  0  0  0  0  0  0  0
    7.5551    7.1270   23.1200 O   0  0  0  0  0  0  0  0  0  0  0  0
  1 11  4  0
  1 21  4  0
  2  4  1  0
  2  8  1  0
  2 11  1  0
  3 10  4  0
  3 14  4  0
  4  5  1  0
  4 18  2  0
  6 12  1  0
  6 17  4  0
  6 23  4  0
  7  9  1  0
  7 13  4  0
  7 19  4  0
  9 20  1  0
 10 19  4  0
 11 25  4  0
 13 14  4  0
 15 16  4  0
 15 17  4  0
 15 21  4  0
 16 24  1  0
 16 25  4  0
 20 24  1  0
 20 26  2  0
 21 23  4  0
 22 23  1  0
M  END
$$$$

 Created by Python create_sdf_string function

 26 28  0  0  0  0  0  0  0  0999 V2000
   12.4616    8.6700   19.4180 N   0  0  0  0  0  0  0  0  0  0  0  0
   11.8329   10.8148   18.6769 N   0  0  0  0  0  0  0  0  0  0  0  0
    6.1021    2.5564   21.0678 C   0  0  0  0  0  0  0  0  0  0  0  0
   10.9097   11.8051   18.4804 C   0  0  0  0  0  0  0  0  0  0  0  0
   11.2280   12.9135   17.5669 C   0  0  0  0  0  0  0  0  0  0  0  0
   12.3782    5.4231   20.7777 C   0  0  0  0  0  0  0  0  0  0  0  0
    7.7365    4.6508   21.6987 C   0  0  0  0  0  0  0  0  0  0  0  0
   13.0186   11.0102   18.0020 C   0  0  0  0  0  0  0  0  0  0  0  0
    8.6628    5.7088   21.8871 N   0  0  0  0  0  0  0  0  0  0  0  0
    5.6516    3.5258   21.9140 C   0  0  0  0  0  0  0  0  0  0  0  0
   11.5863    9.6815   19.4539 C   0  0  0  0  0  0  0  0  0  0  0  0
   12.9648    4.1543   20.9205 C   0  0  0  0  0  0  0  0  0  0  0  0
    8.2089    3.6265   20.8929 C   0  0  0  0  0  0  0  0  0  0  0  0
    7.3827    2.5724   20.5432 C   0  0  0  0  0  0  0  0  0  0  0  0
   11.1529    7.2750   20.8025 C   0  0  0  0  0  0  0  0  0  0  0  0
   10.2573    8.3215   20.9827 C   0  0  0  0  0  0  0  0  0  0  0  0
   11.1606    5.9378   21.2366 N   0  0  0  0  0  0  0  0  0  0  0  0
    9.8932   11.6736   19.0677 O   0  0  0  0  0  0  0  0  0  0  0  0
    6.4470    4.5850   22.2321 C   0  0  0  0  0  0  0  0  0  0  0  0
    8.4619    6.9895   22.2968 C   0  0  0  0  0  0  0  0  0  0  0  0
   12.2747    7.5102   20.0420 C   0  0  0  0  0  0  0  0  0  0  0  0
   14.2544    6.2142   19.4191 C   0  0  0  0  0  0  0  0  0  0  0  0
   13.0695    6.3705   20.0375 N   0  0  0  0  0  0  0  0  0  0  0  0
    9.1913    8.0876   21.8361 N   0  0  0  0  0  0  0  0  0  0  0  0
   10.4739    9.4813   20.2889 C   0  0  0  0  0  0  0  0  0  0  0  0
    7.5551    7.1270   23.1200 O   0  0  0  0  0  0  0  0  0  0  0  0
  1 11  4  0
  1 21  4  0
  2  4  1  0
  2  8  1  0
  2 11  1  0
  3 10  4  0
  3 14  4  0
  4  5  1  0
  4 18  2  0
  6 12  1  0
  6 17  4  0
  6 23  4  0
  7  9  1  0
  7 13  4  0
  7 19  4  0
  9 20  1  0
 10 19  4  0
 11 25  4  0
 13 14  4  0
 15 16  4  0
 15 17  4  0
 15 21  4  0
 16 24  1  0
 16 25  4  0
 20 24  1  0
 20 26  2  0
 21 23  4  0
 22 23  1  0
M  END
$$$$

 Created by Python create_sdf_string function

 26 28  0  0  0  0  0  0  0  0999 V2000
   12.4616    8.6700   19.4180 N   0  0  0  0  0  0  0  0  0  0  0  0
   11.8329   10.8148   18.6769 N   0  0  0  0  0  0  0  0  0  0  0  0
    6.1021    2.5564   21.0678 C   0  0  0  0  0  0  0  0  0  0  0  0
   10.9097   11.8051   18.4804 C   0  0  0  0  0  0  0  0  0  0  0  0
   11.2280   12.9135   17.5669 C   0  0  0  0  0  0  0  0  0  0  0  0
   12.3782    5.4231   20.7777 C   0  0  0  0  0  0  0  0  0  0  0  0
    7.7365    4.6508   21.6987 C   0  0  0  0  0  0  0  0  0  0  0  0
   13.0186   11.0102   18.0020 C   0  0  0  0  0  0  0  0  0  0  0  0
    8.6628    5.7088   21.8871 N   0  0  0  0  0  0  0  0  0  0  0  0
    5.6516    3.5258   21.9140 C   0  0  0  0  0  0  0  0  0  0  0  0
   11.5863    9.6815   19.4539 C   0  0  0  0  0  0  0  0  0  0  0  0
   12.9648    4.1543   20.9205 C   0  0  0  0  0  0  0  0  0  0  0  0
    8.2089    3.6265   20.8929 C   0  0  0  0  0  0  0  0  0  0  0  0
    7.3827    2.5724   20.5432 C   0  0  0  0  0  0  0  0  0  0  0  0
   11.1529    7.2750   20.8025 C   0  0  0  0  0  0  0  0  0  0  0  0
   10.2573    8.3215   20.9827 C   0  0  0  0  0  0  0  0  0  0  0  0
   11.1606    5.9378   21.2366 N   0  0  0  0  0  0  0  0  0  0  0  0
    9.8932   11.6736   19.0677 O   0  0  0  0  0  0  0  0  0  0  0  0
    6.4470    4.5850   22.2321 C   0  0  0  0  0  0  0  0  0  0  0  0
    8.4619    6.9895   22.2968 C   0  0  0  0  0  0  0  0  0  0  0  0
   12.2747    7.5102   20.0420 C   0  0  0  0  0  0  0  0  0  0  0  0
   14.2544    6.2142   19.4191 C   0  0  0  0  0  0  0  0  0  0  0  0
   13.0695    6.3705   20.0375 N   0  0  0  0  0  0  0  0  0  0  0  0
    9.1913    8.0876   21.8361 N   0  0  0  0  0  0  0  0  0  0  0  0
   10.4739    9.4813   20.2889 C   0  0  0  0  0  0  0  0  0  0  0  0
    7.5551    7.1270   23.1200 O   0  0  0  0  0  0  0  0  0  0  0  0
  1 11  4  0
  1 21  4  0
  2  4  1  0
  2  8  1  0
  2 11  1  0
  3 10  4  0
  3 14  4  0
  4  5  1  0
  4 18  2  0
  6 12  1  0
  6 17  4  0
  6 23  4  0
  7  9  1  0
  7 13  4  0
  7 19  4  0
  9 20  1  0
 10 19  4  0
 11 25  4  0
 13 14  4  0
 15 16  4  0
 15 17  4  0
 15 21  4  0
 16 24  1  0
 16 25  4  0
 20 24  1  0
 20 26  2  0
 21 23  4  0
 22 23  1  0
M  END
$$$$

 Created by Python create_sdf_string function

 26 28  0  0  0  0  0  0  0  0999 V2000
   12.4616    8.6700   19.4180 N   0  0  0  0  0  0  0  0  0  0  0  0
   11.8329   10.8148   18.6769 N   0  0  0  0  0  0  0  0  0  0  0  0
    6.1021    2.5564   21.0678 C   0  0  0  0  0  0  0  0  0  0  0  0
   10.9097   11.8051   18.4804 C   0  0  0  0  0  0  0  0  0  0  0  0
   11.2280   12.9135   17.5669 C   0  0  0  0  0  0  0  0  0  0  0  0
   12.3782    5.4231   20.7777 C   0  0  0  0  0  0  0  0  0  0  0  0
    7.7365    4.6508   21.6987 C   0  0  0  0  0  0  0  0  0  0  0  0
   13.0186   11.0102   18.0020 C   0  0  0  0  0  0  0  0  0  0  0  0
    8.6628    5.7088   21.8871 N   0  0  0  0  0  0  0  0  0  0  0  0
    5.6516    3.5258   21.9140 C   0  0  0  0  0  0  0  0  0  0  0  0
   11.5863    9.6815   19.4539 C   0  0  0  0  0  0  0  0  0  0  0  0
   12.9648    4.1543   20.9205 C   0  0  0  0  0  0  0  0  0  0  0  0
    8.2089    3.6265   20.8929 C   0  0  0  0  0  0  0  0  0  0  0  0
    7.3827    2.5724   20.5432 C   0  0  0  0  0  0  0  0  0  0  0  0
   11.1529    7.2750   20.8025 C   0  0  0  0  0  0  0  0  0  0  0  0
   10.2573    8.3215   20.9827 C   0  0  0  0  0  0  0  0  0  0  0  0
   11.1606    5.9378   21.2366 N   0  0  0  0  0  0  0  0  0  0  0  0
    9.8932   11.6736   19.0677 O   0  0  0  0  0  0  0  0  0  0  0  0
    6.4470    4.5850   22.2321 C   0  0  0  0  0  0  0  0  0  0  0  0
    8.4619    6.9895   22.2968 C   0  0  0  0  0  0  0  0  0  0  0  0
   12.2747    7.5102   20.0420 C   0  0  0  0  0  0  0  0  0  0  0  0
   14.2544    6.2142   19.4191 C   0  0  0  0  0  0  0  0  0  0  0  0
   13.0695    6.3705   20.0375 N   0  0  0  0  0  0  0  0  0  0  0  0
    9.1913    8.0876   21.8361 N   0  0  0  0  0  0  0  0  0  0  0  0
   10.4739    9.4813   20.2889 C   0  0  0  0  0  0  0  0  0  0  0  0
    7.5551    7.1270   23.1200 O   0  0  0  0  0  0  0  0  0  0  0  0
  1 11  4  0
  1 21  4  0
  2  4  1  0
  2  8  1  0
  2 11  1  0
  3 10  4  0
  3 14  4  0
  4  5  1  0
  4 18  2  0
  6 12  1  0
  6 17  4  0
  6 23  4  0
  7  9  1  0
  7 13  4  0
  7 19  4  0
  9 20  1  0
 10 19  4  0
 11 25  4  0
 13 14  4  0
 15 16  4  0
 15 17  4  0
 15 21  4  0
 16 24  1  0
 16 25  4  0
 20 24  1  0
 20 26  2  0
 21 23  4  0
 22 23  1  0
M  END
$$$$

 Created by Python create_sdf_string function

 26 28  0  0  0  0  0  0  0  0999 V2000
   12.4616    8.6700   19.4180 N   0  0  0  0  0  0  0  0  0  0  0  0
   11.8329   10.8148   18.6769 N   0  0  0  0  0  0  0  0  0  0  0  0
    6.1021    2.5564   21.0678 C   0  0  0  0  0  0  0  0  0  0  0  0
   10.9097   11.8051   18.4804 C   0  0  0  0  0  0  0  0  0  0  0  0
   11.2280   12.9135   17.5669 C   0  0  0  0  0  0  0  0  0  0  0  0
   12.3782    5.4231   20.7777 C   0  0  0  0  0  0  0  0  0  0  0  0
    7.7365    4.6508   21.6987 C   0  0  0  0  0  0  0  0  0  0  0  0
   13.0186   11.0102   18.0020 C   0  0  0  0  0  0  0  0  0  0  0  0
    8.6628    5.7088   21.8871 N   0  0  0  0  0  0  0  0  0  0  0  0
    5.6516    3.5258   21.9140 C   0  0  0  0  0  0  0  0  0  0  0  0
   11.5863    9.6815   19.4539 C   0  0  0  0  0  0  0  0  0  0  0  0
   12.9648    4.1543   20.9205 C   0  0  0  0  0  0  0  0  0  0  0  0
    8.2089    3.6265   20.8929 C   0  0  0  0  0  0  0  0  0  0  0  0
    7.3827    2.5724   20.5432 C   0  0  0  0  0  0  0  0  0  0  0  0
   11.1529    7.2750   20.8025 C   0  0  0  0  0  0  0  0  0  0  0  0
   10.2573    8.3215   20.9827 C   0  0  0  0  0  0  0  0  0  0  0  0
   11.1606    5.9378   21.2366 N   0  0  0  0  0  0  0  0  0  0  0  0
    9.8932   11.6736   19.0677 O   0  0  0  0  0  0  0  0  0  0  0  0
    6.4470    4.5850   22.2321 C   0  0  0  0  0  0  0  0  0  0  0  0
    8.4619    6.9895   22.2968 C   0  0  0  0  0  0  0  0  0  0  0  0
   12.2747    7.5102   20.0420 C   0  0  0  0  0  0  0  0  0  0  0  0
   14.2544    6.2142   19.4191 C   0  0  0  0  0  0  0  0  0  0  0  0
   13.0695    6.3705   20.0375 N   0  0  0  0  0  0  0  0  0  0  0  0
    9.1913    8.0876   21.8361 N   0  0  0  0  0  0  0  0  0  0  0  0
   10.4739    9.4813   20.2889 C   0  0  0  0  0  0  0  0  0  0  0  0
    7.5551    7.1270   23.1200 O   0  0  0  0  0  0  0  0  0  0  0  0
  1 11  4  0
  1 21  4  0
  2  4  1  0
  2  8  1  0
  2 11  1  0
  3 10  4  0
  3 14  4  0
  4  5  1  0
  4 18  2  0
  6 12  1  0
  6 17  4  0
  6 23  4  0
  7  9  1  0
  7 13  4  0
  7 19  4  0
  9 20  1  0
 10 19  4  0
 11 25  4  0
 13 14  4  0
 15 16  4  0
 15 17  4  0
 15 21  4  0
 16 24  1  0
 16 25  4  0
 20 24  1  0
 20 26  2  0
 21 23  4  0
 22 23  1  0
M  END
$$$$

 Created by Python create_sdf_string function

 26 28  0  0  0  0  0  0  0  0999 V2000
   12.4616    8.6700   19.4180 N   0  0  0  0  0  0  0  0  0  0  0  0
   11.8329   10.8148   18.6769 N   0  0  0  0  0  0  0  0  0  0  0  0
    6.1021    2.5564   21.0678 C   0  0  0  0  0  0  0  0  0  0  0  0
   10.9097   11.8051   18.4804 C   0  0  0  0  0  0  0  0  0  0  0  0
   11.2280   12.9135   17.5669 C   0  0  0  0  0  0  0  0  0  0  0  0
   12.3782    5.4231   20.7777 C   0  0  0  0  0  0  0  0  0  0  0  0
    7.7365    4.6508   21.6987 C   0  0  0  0  0  0  0  0  0  0  0  0
   13.0186   11.0102   18.0020 C   0  0  0  0  0  0  0  0  0  0  0  0
    8.6628    5.7088   21.8871 N   0  0  0  0  0  0  0  0  0  0  0  0
    5.6516    3.5258   21.9140 C   0  0  0  0  0  0  0  0  0  0  0  0
   11.5863    9.6815   19.4539 C   0  0  0  0  0  0  0  0  0  0  0  0
   12.9648    4.1543   20.9205 C   0  0  0  0  0  0  0  0  0  0  0  0
    8.2089    3.6265   20.8929 C   0  0  0  0  0  0  0  0  0  0  0  0
    7.3827    2.5724   20.5432 C   0  0  0  0  0  0  0  0  0  0  0  0
   11.1529    7.2750   20.8025 C   0  0  0  0  0  0  0  0  0  0  0  0
   10.2573    8.3215   20.9827 C   0  0  0  0  0  0  0  0  0  0  0  0
   11.1606    5.9378   21.2366 N   0  0  0  0  0  0  0  0  0  0  0  0
    9.8932   11.6736   19.0677 O   0  0  0  0  0  0  0  0  0  0  0  0
    6.4470    4.5850   22.2321 C   0  0  0  0  0  0  0  0  0  0  0  0
    8.4619    6.9895   22.2968 C   0  0  0  0  0  0  0  0  0  0  0  0
   12.2747    7.5102   20.0420 C   0  0  0  0  0  0  0  0  0  0  0  0
   14.2544    6.2142   19.4191 C   0  0  0  0  0  0  0  0  0  0  0  0
   13.0695    6.3705   20.0375 N   0  0  0  0  0  0  0  0  0  0  0  0
    9.1913    8.0876   21.8361 N   0  0  0  0  0  0  0  0  0  0  0  0
   10.4739    9.4813   20.2889 C   0  0  0  0  0  0  0  0  0  0  0  0
    7.5551    7.1270   23.1200 O   0  0  0  0  0  0  0  0  0  0  0  0
  1 11  4  0
  1 21  4  0
  2  4  1  0
  2  8  1  0
  2 11  1  0
  3 10  4  0
  3 14  4  0
  4  5  1  0
  4 18  2  0
  6 12  1  0
  6 17  4  0
  6 23  4  0
  7  9  1  0
  7 13  4  0
  7 19  4  0
  9 20  1  0
 10 19  4  0
 11 25  4  0
 13 14  4  0
 15 16  4  0
 15 17  4  0
 15 21  4  0
 16 24  1  0
 16 25  4  0
 20 24  1  0
 20 26  2  0
 21 23  4  0
 22 23  1  0
M  END
$$$$

 Created by Python create_sdf_string function

 26 28  0  0  0  0  0  0  0  0999 V2000
   12.4616    8.6700   19.4180 N   0  0  0  0  0  0  0  0  0  0  0  0
   11.8329   10.8148   18.6769 N   0  0  0  0  0  0  0  0  0  0  0  0
    6.1021    2.5564   21.0678 C   0  0  0  0  0  0  0  0  0  0  0  0
   10.9097   11.8051   18.4804 C   0  0  0  0  0  0  0  0  0  0  0  0
   11.2280   12.9135   17.5669 C   0  0  0  0  0  0  0  0  0  0  0  0
   12.3782    5.4231   20.7777 C   0  0  0  0  0  0  0  0  0  0  0  0
    7.7365    4.6508   21.6987 C   0  0  0  0  0  0  0  0  0  0  0  0
   13.0186   11.0102   18.0020 C   0  0  0  0  0  0  0  0  0  0  0  0
    8.6628    5.7088   21.8871 N   0  0  0  0  0  0  0  0  0  0  0  0
    5.6516    3.5258   21.9140 C   0  0  0  0  0  0  0  0  0  0  0  0
   11.5863    9.6815   19.4539 C   0  0  0  0  0  0  0  0  0  0  0  0
   12.9648    4.1543   20.9205 C   0  0  0  0  0  0  0  0  0  0  0  0
    8.2089    3.6265   20.8929 C   0  0  0  0  0  0  0  0  0  0  0  0
    7.3827    2.5724   20.5432 C   0  0  0  0  0  0  0  0  0  0  0  0
   11.1529    7.2750   20.8025 C   0  0  0  0  0  0  0  0  0  0  0  0
   10.2573    8.3215   20.9827 C   0  0  0  0  0  0  0  0  0  0  0  0
   11.1606    5.9378   21.2366 N   0  0  0  0  0  0  0  0  0  0  0  0
    9.8932   11.6736   19.0677 O   0  0  0  0  0  0  0  0  0  0  0  0
    6.4470    4.5850   22.2321 C   0  0  0  0  0  0  0  0  0  0  0  0
    8.4619    6.9895   22.2968 C   0  0  0  0  0  0  0  0  0  0  0  0
   12.2747    7.5102   20.0420 C   0  0  0  0  0  0  0  0  0  0  0  0
   14.2544    6.2142   19.4191 C   0  0  0  0  0  0  0  0  0  0  0  0
   13.0695    6.3705   20.0375 N   0  0  0  0  0  0  0  0  0  0  0  0
    9.1913    8.0876   21.8361 N   0  0  0  0  0  0  0  0  0  0  0  0
   10.4739    9.4813   20.2889 C   0  0  0  0  0  0  0  0  0  0  0  0
    7.5551    7.1270   23.1200 O   0  0  0  0  0  0  0  0  0  0  0  0
  1 11  4  0
  1 21  4  0
  2  4  1  0
  2  8  1  0
  2 11  1  0
  3 10  4  0
  3 14  4  0
  4  5  1  0
  4 18  2  0
  6 12  1  0
  6 17  4  0
  6 23  4  0
  7  9  1  0
  7 13  4  0
  7 19  4  0
  9 20  1  0
 10 19  4  0
 11 25  4  0
 13 14  4  0
 15 16  4  0
 15 17  4  0
 15 21  4  0
 16 24  1  0
 16 25  4  0
 20 24  1  0
 20 26  2  0
 21 23  4  0
 22 23  1  0
M  END
$$$$

 Created by Python create_sdf_string function

 26 28  0  0  0  0  0  0  0  0999 V2000
   12.4616    8.6700   19.4180 N   0  0  0  0  0  0  0  0  0  0  0  0
   11.8329   10.8148   18.6769 N   0  0  0  0  0  0  0  0  0  0  0  0
    6.1021    2.5564   21.0678 C   0  0  0  0  0  0  0  0  0  0  0  0
   10.9097   11.8051   18.4804 C   0  0  0  0  0  0  0  0  0  0  0  0
   11.2280   12.9135   17.5669 C   0  0  0  0  0  0  0  0  0  0  0  0
   12.3782    5.4231   20.7777 C   0  0  0  0  0  0  0  0  0  0  0  0
    7.7365    4.6508   21.6987 C   0  0  0  0  0  0  0  0  0  0  0  0
   13.0186   11.0102   18.0020 C   0  0  0  0  0  0  0  0  0  0  0  0
    8.6628    5.7088   21.8871 N   0  0  0  0  0  0  0  0  0  0  0  0
    5.6516    3.5258   21.9140 C   0  0  0  0  0  0  0  0  0  0  0  0
   11.5863    9.6815   19.4539 C   0  0  0  0  0  0  0  0  0  0  0  0
   12.9648    4.1543   20.9205 C   0  0  0  0  0  0  0  0  0  0  0  0
    8.2089    3.6265   20.8929 C   0  0  0  0  0  0  0  0  0  0  0  0
    7.3827    2.5724   20.5432 C   0  0  0  0  0  0  0  0  0  0  0  0
   11.1529    7.2750   20.8025 C   0  0  0  0  0  0  0  0  0  0  0  0
   10.2573    8.3215   20.9827 C   0  0  0  0  0  0  0  0  0  0  0  0
   11.1606    5.9378   21.2366 N   0  0  0  0  0  0  0  0  0  0  0  0
    9.8932   11.6736   19.0677 O   0  0  0  0  0  0  0  0  0  0  0  0
    6.4470    4.5850   22.2321 C   0  0  0  0  0  0  0  0  0  0  0  0
    8.4619    6.9895   22.2968 C   0  0  0  0  0  0  0  0  0  0  0  0
   12.2747    7.5102   20.0420 C   0  0  0  0  0  0  0  0  0  0  0  0
   14.2544    6.2142   19.4191 C   0  0  0  0  0  0  0  0  0  0  0  0
   13.0695    6.3705   20.0375 N   0  0  0  0  0  0  0  0  0  0  0  0
    9.1913    8.0876   21.8361 N   0  0  0  0  0  0  0  0  0  0  0  0
   10.4739    9.4813   20.2889 C   0  0  0  0  0  0  0  0  0  0  0  0
    7.5551    7.1270   23.1200 O   0  0  0  0  0  0  0  0  0  0  0  0
  1 11  4  0
  1 21  4  0
  2  4  1  0
  2  8  1  0
  2 11  1  0
  3 10  4  0
  3 14  4  0
  4  5  1  0
  4 18  2  0
  6 12  1  0
  6 17  4  0
  6 23  4  0
  7  9  1  0
  7 13  4  0
  7 19  4  0
  9 20  1  0
 10 19  4  0
 11 25  4  0
 13 14  4  0
 15 16  4  0
 15 17  4  0
 15 21  4  0
 16 24  1  0
 16 25  4  0
 20 24  1  0
 20 26  2  0
 21 23  4  0
 22 23  1  0
M  END
$$$$

 Created by Python create_sdf_string function

 26 28  0  0  0  0  0  0  0  0999 V2000
   12.4616    8.6700   19.4180 N   0  0  0  0  0  0  0  0  0  0  0  0
   11.8329   10.8148   18.6769 N   0  0  0  0  0  0  0  0  0  0  0  0
    6.1021    2.5564   21.0678 C   0  0  0  0  0  0  0  0  0  0  0  0
   10.9097   11.8051   18.4804 C   0  0  0  0  0  0  0  0  0  0  0  0
   11.2280   12.9135   17.5669 C   0  0  0  0  0  0  0  0  0  0  0  0
   12.3782    5.4231   20.7777 C   0  0  0  0  0  0  0  0  0  0  0  0
    7.7365    4.6508   21.6987 C   0  0  0  0  0  0  0  0  0  0  0  0
   13.0186   11.0102   18.0020 C   0  0  0  0  0  0  0  0  0  0  0  0
    8.6628    5.7088   21.8871 N   0  0  0  0  0  0  0  0  0  0  0  0
    5.6516    3.5258   21.9140 C   0  0  0  0  0  0  0  0  0  0  0  0
   11.5863    9.6815   19.4539 C   0  0  0  0  0  0  0  0  0  0  0  0
   12.9648    4.1543   20.9205 C   0  0  0  0  0  0  0  0  0  0  0  0
    8.2089    3.6265   20.8929 C   0  0  0  0  0  0  0  0  0  0  0  0
    7.3827    2.5724   20.5432 C   0  0  0  0  0  0  0  0  0  0  0  0
   11.1529    7.2750   20.8025 C   0  0  0  0  0  0  0  0  0  0  0  0
   10.2573    8.3215   20.9827 C   0  0  0  0  0  0  0  0  0  0  0  0
   11.1606    5.9378   21.2366 N   0  0  0  0  0  0  0  0  0  0  0  0
    9.8932   11.6736   19.0677 O   0  0  0  0  0  0  0  0  0  0  0  0
    6.4470    4.5850   22.2321 C   0  0  0  0  0  0  0  0  0  0  0  0
    8.4619    6.9895   22.2968 C   0  0  0  0  0  0  0  0  0  0  0  0
   12.2747    7.5102   20.0420 C   0  0  0  0  0  0  0  0  0  0  0  0
   14.2544    6.2142   19.4191 C   0  0  0  0  0  0  0  0  0  0  0  0
   13.0695    6.3705   20.0375 N   0  0  0  0  0  0  0  0  0  0  0  0
    9.1913    8.0876   21.8361 N   0  0  0  0  0  0  0  0  0  0  0  0
   10.4739    9.4813   20.2889 C   0  0  0  0  0  0  0  0  0  0  0  0
    7.5551    7.1270   23.1200 O   0  0  0  0  0  0  0  0  0  0  0  0
  1 11  4  0
  1 21  4  0
  2  4  1  0
  2  8  1  0
  2 11  1  0
  3 10  4  0
  3 14  4  0
  4  5  1  0
  4 18  2  0
  6 12  1  0
  6 17  4  0
  6 23  4  0
  7  9  1  0
  7 13  4  0
  7 19  4  0
  9 20  1  0
 10 19  4  0
 11 25  4  0
 13 14  4  0
 15 16  4  0
 15 17  4  0
 15 21  4  0
 16 24  1  0
 16 25  4  0
 20 24  1  0
 20 26  2  0
 21 23  4  0
 22 23  1  0
M  END
$$$$

 Created by Python create_sdf_string function

 26 28  0  0  0  0  0  0  0  0999 V2000
   12.4616    8.6700   19.4180 N   0  0  0  0  0  0  0  0  0  0  0  0
   11.8329   10.8148   18.6769 N   0  0  0  0  0  0  0  0  0  0  0  0
    6.1021    2.5564   21.0678 C   0  0  0  0  0  0  0  0  0  0  0  0
   10.9097   11.8051   18.4804 C   0  0  0  0  0  0  0  0  0  0  0  0
   11.2280   12.9135   17.5669 C   0  0  0  0  0  0  0  0  0  0  0  0
   12.3782    5.4231   20.7777 C   0  0  0  0  0  0  0  0  0  0  0  0
    7.7365    4.6508   21.6987 C   0  0  0  0  0  0  0  0  0  0  0  0
   13.0186   11.0102   18.0020 C   0  0  0  0  0  0  0  0  0  0  0  0
    8.6628    5.7088   21.8871 N   0  0  0  0  0  0  0  0  0  0  0  0
    5.6516    3.5258   21.9140 C   0  0  0  0  0  0  0  0  0  0  0  0
   11.5863    9.6815   19.4539 C   0  0  0  0  0  0  0  0  0  0  0  0
   12.9648    4.1543   20.9205 C   0  0  0  0  0  0  0  0  0  0  0  0
    8.2089    3.6265   20.8929 C   0  0  0  0  0  0  0  0  0  0  0  0
    7.3827    2.5724   20.5432 C   0  0  0  0  0  0  0  0  0  0  0  0
   11.1529    7.2750   20.8025 C   0  0  0  0  0  0  0  0  0  0  0  0
   10.2573    8.3215   20.9827 C   0  0  0  0  0  0  0  0  0  0  0  0
   11.1606    5.9378   21.2366 N   0  0  0  0  0  0  0  0  0  0  0  0
    9.8932   11.6736   19.0677 O   0  0  0  0  0  0  0  0  0  0  0  0
    6.4470    4.5850   22.2321 C   0  0  0  0  0  0  0  0  0  0  0  0
    8.4619    6.9895   22.2968 C   0  0  0  0  0  0  0  0  0  0  0  0
   12.2747    7.5102   20.0420 C   0  0  0  0  0  0  0  0  0  0  0  0
   14.2544    6.2142   19.4191 C   0  0  0  0  0  0  0  0  0  0  0  0
   13.0695    6.3705   20.0375 N   0  0  0  0  0  0  0  0  0  0  0  0
    9.1913    8.0876   21.8361 N   0  0  0  0  0  0  0  0  0  0  0  0
   10.4739    9.4813   20.2889 C   0  0  0  0  0  0  0  0  0  0  0  0
    7.5551    7.1270   23.1200 O   0  0  0  0  0  0  0  0  0  0  0  0
  1 11  4  0
  1 21  4  0
  2  4  1  0
  2  8  1  0
  2 11  1  0
  3 10  4  0
  3 14  4  0
  4  5  1  0
  4 18  2  0
  6 12  1  0
  6 17  4  0
  6 23  4  0
  7  9  1  0
  7 13  4  0
  7 19  4  0
  9 20  1  0
 10 19  4  0
 11 25  4  0
 13 14  4  0
 15 16  4  0
 15 17  4  0
 15 21  4  0
 16 24  1  0
 16 25  4  0
 20 24  1  0
 20 26  2  0
 21 23  4  0
 22 23  1  0
M  END
$$$$

 Created by Python create_sdf_string function

 26 28  0  0  0  0  0  0  0  0999 V2000
   12.4616    8.6700   19.4180 N   0  0  0  0  0  0  0  0  0  0  0  0
   11.8329   10.8148   18.6769 N   0  0  0  0  0  0  0  0  0  0  0  0
    6.1021    2.5564   21.0678 C   0  0  0  0  0  0  0  0  0  0  0  0
   10.9097   11.8051   18.4804 C   0  0  0  0  0  0  0  0  0  0  0  0
   11.2280   12.9135   17.5669 C   0  0  0  0  0  0  0  0  0  0  0  0
   12.3782    5.4231   20.7777 C   0  0  0  0  0  0  0  0  0  0  0  0
    7.7365    4.6508   21.6987 C   0  0  0  0  0  0  0  0  0  0  0  0
   13.0186   11.0102   18.0020 C   0  0  0  0  0  0  0  0  0  0  0  0
    8.6628    5.7088   21.8871 N   0  0  0  0  0  0  0  0  0  0  0  0
    5.6516    3.5258   21.9140 C   0  0  0  0  0  0  0  0  0  0  0  0
   11.5863    9.6815   19.4539 C   0  0  0  0  0  0  0  0  0  0  0  0
   12.9648    4.1543   20.9205 C   0  0  0  0  0  0  0  0  0  0  0  0
    8.2089    3.6265   20.8929 C   0  0  0  0  0  0  0  0  0  0  0  0
    7.3827    2.5724   20.5432 C   0  0  0  0  0  0  0  0  0  0  0  0
   11.1529    7.2750   20.8025 C   0  0  0  0  0  0  0  0  0  0  0  0
   10.2573    8.3215   20.9827 C   0  0  0  0  0  0  0  0  0  0  0  0
   11.1606    5.9378   21.2366 N   0  0  0  0  0  0  0  0  0  0  0  0
    9.8932   11.6736   19.0677 O   0  0  0  0  0  0  0  0  0  0  0  0
    6.4470    4.5850   22.2321 C   0  0  0  0  0  0  0  0  0  0  0  0
    8.4619    6.9895   22.2968 C   0  0  0  0  0  0  0  0  0  0  0  0
   12.2747    7.5102   20.0420 C   0  0  0  0  0  0  0  0  0  0  0  0
   14.2544    6.2142   19.4191 C   0  0  0  0  0  0  0  0  0  0  0  0
   13.0695    6.3705   20.0375 N   0  0  0  0  0  0  0  0  0  0  0  0
    9.1913    8.0876   21.8361 N   0  0  0  0  0  0  0  0  0  0  0  0
   10.4739    9.4813   20.2889 C   0  0  0  0  0  0  0  0  0  0  0  0
    7.5551    7.1270   23.1200 O   0  0  0  0  0  0  0  0  0  0  0  0
  1 11  4  0
  1 21  4  0
  2  4  1  0
  2  8  1  0
  2 11  1  0
  3 10  4  0
  3 14  4  0
  4  5  1  0
  4 18  2  0
  6 12  1  0
  6 17  4  0
  6 23  4  0
  7  9  1  0
  7 13  4  0
  7 19  4  0
  9 20  1  0
 10 19  4  0
 11 25  4  0
 13 14  4  0
 15 16  4  0
 15 17  4  0
 15 21  4  0
 16 24  1  0
 16 25  4  0
 20 24  1  0
 20 26  2  0
 21 23  4  0
 22 23  1  0
M  END
$$$$

 Created by Python create_sdf_string function

 26 28  0  0  0  0  0  0  0  0999 V2000
   12.4616    8.6700   19.4180 N   0  0  0  0  0  0  0  0  0  0  0  0
   11.8329   10.8148   18.6769 N   0  0  0  0  0  0  0  0  0  0  0  0
    6.1021    2.5564   21.0678 C   0  0  0  0  0  0  0  0  0  0  0  0
   10.9097   11.8051   18.4804 C   0  0  0  0  0  0  0  0  0  0  0  0
   11.2280   12.9135   17.5669 C   0  0  0  0  0  0  0  0  0  0  0  0
   12.3782    5.4231   20.7777 C   0  0  0  0  0  0  0  0  0  0  0  0
    7.7365    4.6508   21.6987 C   0  0  0  0  0  0  0  0  0  0  0  0
   13.0186   11.0102   18.0020 C   0  0  0  0  0  0  0  0  0  0  0  0
    8.6628    5.7088   21.8871 N   0  0  0  0  0  0  0  0  0  0  0  0
    5.6516    3.5258   21.9140 C   0  0  0  0  0  0  0  0  0  0  0  0
   11.5863    9.6815   19.4539 C   0  0  0  0  0  0  0  0  0  0  0  0
   12.9648    4.1543   20.9205 C   0  0  0  0  0  0  0  0  0  0  0  0
    8.2089    3.6265   20.8929 C   0  0  0  0  0  0  0  0  0  0  0  0
    7.3827    2.5724   20.5432 C   0  0  0  0  0  0  0  0  0  0  0  0
   11.1529    7.2750   20.8025 C   0  0  0  0  0  0  0  0  0  0  0  0
   10.2573    8.3215   20.9827 C   0  0  0  0  0  0  0  0  0  0  0  0
   11.1606    5.9378   21.2366 N   0  0  0  0  0  0  0  0  0  0  0  0
    9.8932   11.6736   19.0677 O   0  0  0  0  0  0  0  0  0  0  0  0
    6.4470    4.5850   22.2321 C   0  0  0  0  0  0  0  0  0  0  0  0
    8.4619    6.9895   22.2968 C   0  0  0  0  0  0  0  0  0  0  0  0
   12.2747    7.5102   20.0420 C   0  0  0  0  0  0  0  0  0  0  0  0
   14.2544    6.2142   19.4191 C   0  0  0  0  0  0  0  0  0  0  0  0
   13.0695    6.3705   20.0375 N   0  0  0  0  0  0  0  0  0  0  0  0
    9.1913    8.0876   21.8361 N   0  0  0  0  0  0  0  0  0  0  0  0
   10.4739    9.4813   20.2889 C   0  0  0  0  0  0  0  0  0  0  0  0
    7.5551    7.1270   23.1200 O   0  0  0  0  0  0  0  0  0  0  0  0
  1 11  4  0
  1 21  4  0
  2  4  1  0
  2  8  1  0
  2 11  1  0
  3 10  4  0
  3 14  4  0
  4  5  1  0
  4 18  2  0
  6 12  1  0
  6 17  4  0
  6 23  4  0
  7  9  1  0
  7 13  4  0
  7 19  4  0
  9 20  1  0
 10 19  4  0
 11 25  4  0
 13 14  4  0
 15 16  4  0
 15 17  4  0
 15 21  4  0
 16 24  1  0
 16 25  4  0
 20 24  1  0
 20 26  2  0
 21 23  4  0
 22 23  1  0
M  END
$$$$

 Created by Python create_sdf_string function

 26 28  0  0  0  0  0  0  0  0999 V2000
   12.4616    8.6700   19.4180 N   0  0  0  0  0  0  0  0  0  0  0  0
   11.8329   10.8148   18.6769 N   0  0  0  0  0  0  0  0  0  0  0  0
    6.1021    2.5564   21.0678 C   0  0  0  0  0  0  0  0  0  0  0  0
   10.9097   11.8051   18.4804 C   0  0  0  0  0  0  0  0  0  0  0  0
   11.2280   12.9135   17.5669 C   0  0  0  0  0  0  0  0  0  0  0  0
   12.3782    5.4231   20.7777 C   0  0  0  0  0  0  0  0  0  0  0  0
    7.7365    4.6508   21.6987 C   0  0  0  0  0  0  0  0  0  0  0  0
   13.0186   11.0102   18.0020 C   0  0  0  0  0  0  0  0  0  0  0  0
    8.6628    5.7088   21.8871 N   0  0  0  0  0  0  0  0  0  0  0  0
    5.6516    3.5258   21.9140 C   0  0  0  0  0  0  0  0  0  0  0  0
   11.5863    9.6815   19.4539 C   0  0  0  0  0  0  0  0  0  0  0  0
   12.9648    4.1543   20.9205 C   0  0  0  0  0  0  0  0  0  0  0  0
    8.2089    3.6265   20.8929 C   0  0  0  0  0  0  0  0  0  0  0  0
    7.3827    2.5724   20.5432 C   0  0  0  0  0  0  0  0  0  0  0  0
   11.1529    7.2750   20.8025 C   0  0  0  0  0  0  0  0  0  0  0  0
   10.2573    8.3215   20.9827 C   0  0  0  0  0  0  0  0  0  0  0  0
   11.1606    5.9378   21.2366 N   0  0  0  0  0  0  0  0  0  0  0  0
    9.8932   11.6736   19.0677 O   0  0  0  0  0  0  0  0  0  0  0  0
    6.4470    4.5850   22.2321 C   0  0  0  0  0  0  0  0  0  0  0  0
    8.4619    6.9895   22.2968 C   0  0  0  0  0  0  0  0  0  0  0  0
   12.2747    7.5102   20.0420 C   0  0  0  0  0  0  0  0  0  0  0  0
   14.2544    6.2142   19.4191 C   0  0  0  0  0  0  0  0  0  0  0  0
   13.0695    6.3705   20.0375 N   0  0  0  0  0  0  0  0  0  0  0  0
    9.1913    8.0876   21.8361 N   0  0  0  0  0  0  0  0  0  0  0  0
   10.4739    9.4813   20.2889 C   0  0  0  0  0  0  0  0  0  0  0  0
    7.5551    7.1270   23.1200 O   0  0  0  0  0  0  0  0  0  0  0  0
  1 11  4  0
  1 21  4  0
  2  4  1  0
  2  8  1  0
  2 11  1  0
  3 10  4  0
  3 14  4  0
  4  5  1  0
  4 18  2  0
  6 12  1  0
  6 17  4  0
  6 23  4  0
  7  9  1  0
  7 13  4  0
  7 19  4  0
  9 20  1  0
 10 19  4  0
 11 25  4  0
 13 14  4  0
 15 16  4  0
 15 17  4  0
 15 21  4  0
 16 24  1  0
 16 25  4  0
 20 24  1  0
 20 26  2  0
 21 23  4  0
 22 23  1  0
M  END
$$$$

 Created by Python create_sdf_string function

 26 28  0  0  0  0  0  0  0  0999 V2000
   12.4616    8.6700   19.4180 N   0  0  0  0  0  0  0  0  0  0  0  0
   11.8329   10.8148   18.6769 N   0  0  0  0  0  0  0  0  0  0  0  0
    6.1021    2.5564   21.0678 C   0  0  0  0  0  0  0  0  0  0  0  0
   10.9097   11.8051   18.4804 C   0  0  0  0  0  0  0  0  0  0  0  0
   11.2280   12.9135   17.5669 C   0  0  0  0  0  0  0  0  0  0  0  0
   12.3782    5.4231   20.7777 C   0  0  0  0  0  0  0  0  0  0  0  0
    7.7365    4.6508   21.6987 C   0  0  0  0  0  0  0  0  0  0  0  0
   13.0186   11.0102   18.0020 C   0  0  0  0  0  0  0  0  0  0  0  0
    8.6628    5.7088   21.8871 N   0  0  0  0  0  0  0  0  0  0  0  0
    5.6516    3.5258   21.9140 C   0  0  0  0  0  0  0  0  0  0  0  0
   11.5863    9.6815   19.4539 C   0  0  0  0  0  0  0  0  0  0  0  0
   12.9648    4.1543   20.9205 C   0  0  0  0  0  0  0  0  0  0  0  0
    8.2089    3.6265   20.8929 C   0  0  0  0  0  0  0  0  0  0  0  0
    7.3827    2.5724   20.5432 C   0  0  0  0  0  0  0  0  0  0  0  0
   11.1529    7.2750   20.8025 C   0  0  0  0  0  0  0  0  0  0  0  0
   10.2573    8.3215   20.9827 C   0  0  0  0  0  0  0  0  0  0  0  0
   11.1606    5.9378   21.2366 N   0  0  0  0  0  0  0  0  0  0  0  0
    9.8932   11.6736   19.0677 O   0  0  0  0  0  0  0  0  0  0  0  0
    6.4470    4.5850   22.2321 C   0  0  0  0  0  0  0  0  0  0  0  0
    8.4619    6.9895   22.2968 C   0  0  0  0  0  0  0  0  0  0  0  0
   12.2747    7.5102   20.0420 C   0  0  0  0  0  0  0  0  0  0  0  0
   14.2544    6.2142   19.4191 C   0  0  0  0  0  0  0  0  0  0  0  0
   13.0695    6.3705   20.0375 N   0  0  0  0  0  0  0  0  0  0  0  0
    9.1913    8.0876   21.8361 N   0  0  0  0  0  0  0  0  0  0  0  0
   10.4739    9.4813   20.2889 C   0  0  0  0  0  0  0  0  0  0  0  0
    7.5551    7.1270   23.1200 O   0  0  0  0  0  0  0  0  0  0  0  0
  1 11  4  0
  1 21  4  0
  2  4  1  0
  2  8  1  0
  2 11  1  0
  3 10  4  0
  3 14  4  0
  4  5  1  0
  4 18  2  0
  6 12  1  0
  6 17  4  0
  6 23  4  0
  7  9  1  0
  7 13  4  0
  7 19  4  0
  9 20  1  0
 10 19  4  0
 11 25  4  0
 13 14  4  0
 15 16  4  0
 15 17  4  0
 15 21  4  0
 16 24  1  0
 16 25  4  0
 20 24  1  0
 20 26  2  0
 21 23  4  0
 22 23  1  0
M  END
$$$$

 Created by Python create_sdf_string function

 26 28  0  0  0  0  0  0  0  0999 V2000
   12.4616    8.6700   19.4180 N   0  0  0  0  0  0  0  0  0  0  0  0
   11.8329   10.8148   18.6769 N   0  0  0  0  0  0  0  0  0  0  0  0
    6.1021    2.5564   21.0678 C   0  0  0  0  0  0  0  0  0  0  0  0
   10.9097   11.8051   18.4804 C   0  0  0  0  0  0  0  0  0  0  0  0
   11.2280   12.9135   17.5669 C   0  0  0  0  0  0  0  0  0  0  0  0
   12.3782    5.4231   20.7777 C   0  0  0  0  0  0  0  0  0  0  0  0
    7.7365    4.6508   21.6987 C   0  0  0  0  0  0  0  0  0  0  0  0
   13.0186   11.0102   18.0020 C   0  0  0  0  0  0  0  0  0  0  0  0
    8.6628    5.7088   21.8871 N   0  0  0  0  0  0  0  0  0  0  0  0
    5.6516    3.5258   21.9140 C   0  0  0  0  0  0  0  0  0  0  0  0
   11.5863    9.6815   19.4539 C   0  0  0  0  0  0  0  0  0  0  0  0
   12.9648    4.1543   20.9205 C   0  0  0  0  0  0  0  0  0  0  0  0
    8.2089    3.6265   20.8929 C   0  0  0  0  0  0  0  0  0  0  0  0
    7.3827    2.5724   20.5432 C   0  0  0  0  0  0  0  0  0  0  0  0
   11.1529    7.2750   20.8025 C   0  0  0  0  0  0  0  0  0  0  0  0
   10.2573    8.3215   20.9827 C   0  0  0  0  0  0  0  0  0  0  0  0
   11.1606    5.9378   21.2366 N   0  0  0  0  0  0  0  0  0  0  0  0
    9.8932   11.6736   19.0677 O   0  0  0  0  0  0  0  0  0  0  0  0
    6.4470    4.5850   22.2321 C   0  0  0  0  0  0  0  0  0  0  0  0
    8.4619    6.9895   22.2968 C   0  0  0  0  0  0  0  0  0  0  0  0
   12.2747    7.5102   20.0420 C   0  0  0  0  0  0  0  0  0  0  0  0
   14.2544    6.2142   19.4191 C   0  0  0  0  0  0  0  0  0  0  0  0
   13.0695    6.3705   20.0375 N   0  0  0  0  0  0  0  0  0  0  0  0
    9.1913    8.0876   21.8361 N   0  0  0  0  0  0  0  0  0  0  0  0
   10.4739    9.4813   20.2889 C   0  0  0  0  0  0  0  0  0  0  0  0
    7.5551    7.1270   23.1200 O   0  0  0  0  0  0  0  0  0  0  0  0
  1 11  4  0
  1 21  4  0
  2  4  1  0
  2  8  1  0
  2 11  1  0
  3 10  4  0
  3 14  4  0
  4  5  1  0
  4 18  2  0
  6 12  1  0
  6 17  4  0
  6 23  4  0
  7  9  1  0
  7 13  4  0
  7 19  4  0
  9 20  1  0
 10 19  4  0
 11 25  4  0
 13 14  4  0
 15 16  4  0
 15 17  4  0
 15 21  4  0
 16 24  1  0
 16 25  4  0
 20 24  1  0
 20 26  2  0
 21 23  4  0
 22 23  1  0
M  END
$$$$

 Created by Python create_sdf_string function

 26 28  0  0  0  0  0  0  0  0999 V2000
   12.4616    8.6700   19.4180 N   0  0  0  0  0  0  0  0  0  0  0  0
   11.8329   10.8148   18.6769 N   0  0  0  0  0  0  0  0  0  0  0  0
    6.1021    2.5564   21.0678 C   0  0  0  0  0  0  0  0  0  0  0  0
   10.9097   11.8051   18.4804 C   0  0  0  0  0  0  0  0  0  0  0  0
   11.2280   12.9135   17.5669 C   0  0  0  0  0  0  0  0  0  0  0  0
   12.3782    5.4231   20.7777 C   0  0  0  0  0  0  0  0  0  0  0  0
    7.7365    4.6508   21.6987 C   0  0  0  0  0  0  0  0  0  0  0  0
   13.0186   11.0102   18.0020 C   0  0  0  0  0  0  0  0  0  0  0  0
    8.6628    5.7088   21.8871 N   0  0  0  0  0  0  0  0  0  0  0  0
    5.6516    3.5258   21.9140 C   0  0  0  0  0  0  0  0  0  0  0  0
   11.5863    9.6815   19.4539 C   0  0  0  0  0  0  0  0  0  0  0  0
   12.9648    4.1543   20.9205 C   0  0  0  0  0  0  0  0  0  0  0  0
    8.2089    3.6265   20.8929 C   0  0  0  0  0  0  0  0  0  0  0  0
    7.3827    2.5724   20.5432 C   0  0  0  0  0  0  0  0  0  0  0  0
   11.1529    7.2750   20.8025 C   0  0  0  0  0  0  0  0  0  0  0  0
   10.2573    8.3215   20.9827 C   0  0  0  0  0  0  0  0  0  0  0  0
   11.1606    5.9378   21.2366 N   0  0  0  0  0  0  0  0  0  0  0  0
    9.8932   11.6736   19.0677 O   0  0  0  0  0  0  0  0  0  0  0  0
    6.4470    4.5850   22.2321 C   0  0  0  0  0  0  0  0  0  0  0  0
    8.4619    6.9895   22.2968 C   0  0  0  0  0  0  0  0  0  0  0  0
   12.2747    7.5102   20.0420 C   0  0  0  0  0  0  0  0  0  0  0  0
   14.2544    6.2142   19.4191 C   0  0  0  0  0  0  0  0  0  0  0  0
   13.0695    6.3705   20.0375 N   0  0  0  0  0  0  0  0  0  0  0  0
    9.1913    8.0876   21.8361 N   0  0  0  0  0  0  0  0  0  0  0  0
   10.4739    9.4813   20.2889 C   0  0  0  0  0  0  0  0  0  0  0  0
    7.5551    7.1270   23.1200 O   0  0  0  0  0  0  0  0  0  0  0  0
  1 11  4  0
  1 21  4  0
  2  4  1  0
  2  8  1  0
  2 11  1  0
  3 10  4  0
  3 14  4  0
  4  5  1  0
  4 18  2  0
  6 12  1  0
  6 17  4  0
  6 23  4  0
  7  9  1  0
  7 13  4  0
  7 19  4  0
  9 20  1  0
 10 19  4  0
 11 25  4  0
 13 14  4  0
 15 16  4  0
 15 17  4  0
 15 21  4  0
 16 24  1  0
 16 25  4  0
 20 24  1  0
 20 26  2  0
 21 23  4  0
 22 23  1  0
M  END
$$$$

 Created by Python create_sdf_string function

 26 28  0  0  0  0  0  0  0  0999 V2000
   12.4616    8.6700   19.4180 N   0  0  0  0  0  0  0  0  0  0  0  0
   11.8329   10.8148   18.6769 N   0  0  0  0  0  0  0  0  0  0  0  0
    6.1021    2.5564   21.0678 C   0  0  0  0  0  0  0  0  0  0  0  0
   10.9097   11.8051   18.4804 C   0  0  0  0  0  0  0  0  0  0  0  0
   11.2280   12.9135   17.5669 C   0  0  0  0  0  0  0  0  0  0  0  0
   12.3782    5.4231   20.7777 C   0  0  0  0  0  0  0  0  0  0  0  0
    7.7365    4.6508   21.6987 C   0  0  0  0  0  0  0  0  0  0  0  0
   13.0186   11.0102   18.0020 C   0  0  0  0  0  0  0  0  0  0  0  0
    8.6628    5.7088   21.8871 N   0  0  0  0  0  0  0  0  0  0  0  0
    5.6516    3.5258   21.9140 C   0  0  0  0  0  0  0  0  0  0  0  0
   11.5863    9.6815   19.4539 C   0  0  0  0  0  0  0  0  0  0  0  0
   12.9648    4.1543   20.9205 C   0  0  0  0  0  0  0  0  0  0  0  0
    8.2089    3.6265   20.8929 C   0  0  0  0  0  0  0  0  0  0  0  0
    7.3827    2.5724   20.5432 C   0  0  0  0  0  0  0  0  0  0  0  0
   11.1529    7.2750   20.8025 C   0  0  0  0  0  0  0  0  0  0  0  0
   10.2573    8.3215   20.9827 C   0  0  0  0  0  0  0  0  0  0  0  0
   11.1606    5.9378   21.2366 N   0  0  0  0  0  0  0  0  0  0  0  0
    9.8932   11.6736   19.0677 O   0  0  0  0  0  0  0  0  0  0  0  0
    6.4470    4.5850   22.2321 C   0  0  0  0  0  0  0  0  0  0  0  0
    8.4619    6.9895   22.2968 C   0  0  0  0  0  0  0  0  0  0  0  0
   12.2747    7.5102   20.0420 C   0  0  0  0  0  0  0  0  0  0  0  0
   14.2544    6.2142   19.4191 C   0  0  0  0  0  0  0  0  0  0  0  0
   13.0695    6.3705   20.0375 N   0  0  0  0  0  0  0  0  0  0  0  0
    9.1913    8.0876   21.8361 N   0  0  0  0  0  0  0  0  0  0  0  0
   10.4739    9.4813   20.2889 C   0  0  0  0  0  0  0  0  0  0  0  0
    7.5551    7.1270   23.1200 O   0  0  0  0  0  0  0  0  0  0  0  0
  1 11  4  0
  1 21  4  0
  2  4  1  0
  2  8  1  0
  2 11  1  0
  3 10  4  0
  3 14  4  0
  4  5  1  0
  4 18  2  0
  6 12  1  0
  6 17  4  0
  6 23  4  0
  7  9  1  0
  7 13  4  0
  7 19  4  0
  9 20  1  0
 10 19  4  0
 11 25  4  0
 13 14  4  0
 15 16  4  0
 15 17  4  0
 15 21  4  0
 16 24  1  0
 16 25  4  0
 20 24  1  0
 20 26  2  0
 21 23  4  0
 22 23  1  0
M  END
$$$$

 Created by Python create_sdf_string function

 26 28  0  0  0  0  0  0  0  0999 V2000
   12.4616    8.6700   19.4180 N   0  0  0  0  0  0  0  0  0  0  0  0
   11.8329   10.8148   18.6769 N   0  0  0  0  0  0  0  0  0  0  0  0
    6.1021    2.5564   21.0678 C   0  0  0  0  0  0  0  0  0  0  0  0
   10.9097   11.8051   18.4804 C   0  0  0  0  0  0  0  0  0  0  0  0
   11.2280   12.9135   17.5669 C   0  0  0  0  0  0  0  0  0  0  0  0
   12.3782    5.4231   20.7777 C   0  0  0  0  0  0  0  0  0  0  0  0
    7.7365    4.6508   21.6987 C   0  0  0  0  0  0  0  0  0  0  0  0
   13.0186   11.0102   18.0020 C   0  0  0  0  0  0  0  0  0  0  0  0
    8.6628    5.7088   21.8871 N   0  0  0  0  0  0  0  0  0  0  0  0
    5.6516    3.5258   21.9140 C   0  0  0  0  0  0  0  0  0  0  0  0
   11.5863    9.6815   19.4539 C   0  0  0  0  0  0  0  0  0  0  0  0
   12.9648    4.1543   20.9205 C   0  0  0  0  0  0  0  0  0  0  0  0
    8.2089    3.6265   20.8929 C   0  0  0  0  0  0  0  0  0  0  0  0
    7.3827    2.5724   20.5432 C   0  0  0  0  0  0  0  0  0  0  0  0
   11.1529    7.2750   20.8025 C   0  0  0  0  0  0  0  0  0  0  0  0
   10.2573    8.3215   20.9827 C   0  0  0  0  0  0  0  0  0  0  0  0
   11.1606    5.9378   21.2366 N   0  0  0  0  0  0  0  0  0  0  0  0
    9.8932   11.6736   19.0677 O   0  0  0  0  0  0  0  0  0  0  0  0
    6.4470    4.5850   22.2321 C   0  0  0  0  0  0  0  0  0  0  0  0
    8.4619    6.9895   22.2968 C   0  0  0  0  0  0  0  0  0  0  0  0
   12.2747    7.5102   20.0420 C   0  0  0  0  0  0  0  0  0  0  0  0
   14.2544    6.2142   19.4191 C   0  0  0  0  0  0  0  0  0  0  0  0
   13.0695    6.3705   20.0375 N   0  0  0  0  0  0  0  0  0  0  0  0
    9.1913    8.0876   21.8361 N   0  0  0  0  0  0  0  0  0  0  0  0
   10.4739    9.4813   20.2889 C   0  0  0  0  0  0  0  0  0  0  0  0
    7.5551    7.1270   23.1200 O   0  0  0  0  0  0  0  0  0  0  0  0
  1 11  4  0
  1 21  4  0
  2  4  1  0
  2  8  1  0
  2 11  1  0
  3 10  4  0
  3 14  4  0
  4  5  1  0
  4 18  2  0
  6 12  1  0
  6 17  4  0
  6 23  4  0
  7  9  1  0
  7 13  4  0
  7 19  4  0
  9 20  1  0
 10 19  4  0
 11 25  4  0
 13 14  4  0
 15 16  4  0
 15 17  4  0
 15 21  4  0
 16 24  1  0
 16 25  4  0
 20 24  1  0
 20 26  2  0
 21 23  4  0
 22 23  1  0
M  END
$$$$

 Created by Python create_sdf_string function

 26 28  0  0  0  0  0  0  0  0999 V2000
   12.4616    8.6700   19.4180 N   0  0  0  0  0  0  0  0  0  0  0  0
   11.8329   10.8148   18.6769 N   0  0  0  0  0  0  0  0  0  0  0  0
    6.1021    2.5564   21.0678 C   0  0  0  0  0  0  0  0  0  0  0  0
   10.9097   11.8051   18.4804 C   0  0  0  0  0  0  0  0  0  0  0  0
   11.2280   12.9135   17.5669 C   0  0  0  0  0  0  0  0  0  0  0  0
   12.3782    5.4231   20.7777 C   0  0  0  0  0  0  0  0  0  0  0  0
    7.7365    4.6508   21.6987 C   0  0  0  0  0  0  0  0  0  0  0  0
   13.0186   11.0102   18.0020 C   0  0  0  0  0  0  0  0  0  0  0  0
    8.6628    5.7088   21.8871 N   0  0  0  0  0  0  0  0  0  0  0  0
    5.6516    3.5258   21.9140 C   0  0  0  0  0  0  0  0  0  0  0  0
   11.5863    9.6815   19.4539 C   0  0  0  0  0  0  0  0  0  0  0  0
   12.9648    4.1543   20.9205 C   0  0  0  0  0  0  0  0  0  0  0  0
    8.2089    3.6265   20.8929 C   0  0  0  0  0  0  0  0  0  0  0  0
    7.3827    2.5724   20.5432 C   0  0  0  0  0  0  0  0  0  0  0  0
   11.1529    7.2750   20.8025 C   0  0  0  0  0  0  0  0  0  0  0  0
   10.2573    8.3215   20.9827 C   0  0  0  0  0  0  0  0  0  0  0  0
   11.1606    5.9378   21.2366 N   0  0  0  0  0  0  0  0  0  0  0  0
    9.8932   11.6736   19.0677 O   0  0  0  0  0  0  0  0  0  0  0  0
    6.4470    4.5850   22.2321 C   0  0  0  0  0  0  0  0  0  0  0  0
    8.4619    6.9895   22.2968 C   0  0  0  0  0  0  0  0  0  0  0  0
   12.2747    7.5102   20.0420 C   0  0  0  0  0  0  0  0  0  0  0  0
   14.2544    6.2142   19.4191 C   0  0  0  0  0  0  0  0  0  0  0  0
   13.0695    6.3705   20.0375 N   0  0  0  0  0  0  0  0  0  0  0  0
    9.1913    8.0876   21.8361 N   0  0  0  0  0  0  0  0  0  0  0  0
   10.4739    9.4813   20.2889 C   0  0  0  0  0  0  0  0  0  0  0  0
    7.5551    7.1270   23.1200 O   0  0  0  0  0  0  0  0  0  0  0  0
  1 11  4  0
  1 21  4  0
  2  4  1  0
  2  8  1  0
  2 11  1  0
  3 10  4  0
  3 14  4  0
  4  5  1  0
  4 18  2  0
  6 12  1  0
  6 17  4  0
  6 23  4  0
  7  9  1  0
  7 13  4  0
  7 19  4  0
  9 20  1  0
 10 19  4  0
 11 25  4  0
 13 14  4  0
 15 16  4  0
 15 17  4  0
 15 21  4  0
 16 24  1  0
 16 25  4  0
 20 24  1  0
 20 26  2  0
 21 23  4  0
 22 23  1  0
M  END
$$$$

 Created by Python create_sdf_string function

 26 28  0  0  0  0  0  0  0  0999 V2000
   12.4616    8.6700   19.4180 N   0  0  0  0  0  0  0  0  0  0  0  0
   11.8329   10.8148   18.6769 N   0  0  0  0  0  0  0  0  0  0  0  0
    6.1021    2.5564   21.0678 C   0  0  0  0  0  0  0  0  0  0  0  0
   10.9097   11.8051   18.4804 C   0  0  0  0  0  0  0  0  0  0  0  0
   11.2280   12.9135   17.5669 C   0  0  0  0  0  0  0  0  0  0  0  0
   12.3782    5.4231   20.7777 C   0  0  0  0  0  0  0  0  0  0  0  0
    7.7365    4.6508   21.6987 C   0  0  0  0  0  0  0  0  0  0  0  0
   13.0186   11.0102   18.0020 C   0  0  0  0  0  0  0  0  0  0  0  0
    8.6628    5.7088   21.8871 N   0  0  0  0  0  0  0  0  0  0  0  0
    5.6516    3.5258   21.9140 C   0  0  0  0  0  0  0  0  0  0  0  0
   11.5863    9.6815   19.4539 C   0  0  0  0  0  0  0  0  0  0  0  0
   12.9648    4.1543   20.9205 C   0  0  0  0  0  0  0  0  0  0  0  0
    8.2089    3.6265   20.8929 C   0  0  0  0  0  0  0  0  0  0  0  0
    7.3827    2.5724   20.5432 C   0  0  0  0  0  0  0  0  0  0  0  0
   11.1529    7.2750   20.8025 C   0  0  0  0  0  0  0  0  0  0  0  0
   10.2573    8.3215   20.9827 C   0  0  0  0  0  0  0  0  0  0  0  0
   11.1606    5.9378   21.2366 N   0  0  0  0  0  0  0  0  0  0  0  0
    9.8932   11.6736   19.0677 O   0  0  0  0  0  0  0  0  0  0  0  0
    6.4470    4.5850   22.2321 C   0  0  0  0  0  0  0  0  0  0  0  0
    8.4619    6.9895   22.2968 C   0  0  0  0  0  0  0  0  0  0  0  0
   12.2747    7.5102   20.0420 C   0  0  0  0  0  0  0  0  0  0  0  0
   14.2544    6.2142   19.4191 C   0  0  0  0  0  0  0  0  0  0  0  0
   13.0695    6.3705   20.0375 N   0  0  0  0  0  0  0  0  0  0  0  0
    9.1913    8.0876   21.8361 N   0  0  0  0  0  0  0  0  0  0  0  0
   10.4739    9.4813   20.2889 C   0  0  0  0  0  0  0  0  0  0  0  0
    7.5551    7.1270   23.1200 O   0  0  0  0  0  0  0  0  0  0  0  0
  1 11  4  0
  1 21  4  0
  2  4  1  0
  2  8  1  0
  2 11  1  0
  3 10  4  0
  3 14  4  0
  4  5  1  0
  4 18  2  0
  6 12  1  0
  6 17  4  0
  6 23  4  0
  7  9  1  0
  7 13  4  0
  7 19  4  0
  9 20  1  0
 10 19  4  0
 11 25  4  0
 13 14  4  0
 15 16  4  0
 15 17  4  0
 15 21  4  0
 16 24  1  0
 16 25  4  0
 20 24  1  0
 20 26  2  0
 21 23  4  0
 22 23  1  0
M  END
$$$$

 Created by Python create_sdf_string function

 26 28  0  0  0  0  0  0  0  0999 V2000
   12.4616    8.6700   19.4180 N   0  0  0  0  0  0  0  0  0  0  0  0
   11.8329   10.8148   18.6769 N   0  0  0  0  0  0  0  0  0  0  0  0
    6.1021    2.5564   21.0678 C   0  0  0  0  0  0  0  0  0  0  0  0
   10.9097   11.8051   18.4804 C   0  0  0  0  0  0  0  0  0  0  0  0
   11.2280   12.9135   17.5669 C   0  0  0  0  0  0  0  0  0  0  0  0
   12.3782    5.4231   20.7777 C   0  0  0  0  0  0  0  0  0  0  0  0
    7.7365    4.6508   21.6987 C   0  0  0  0  0  0  0  0  0  0  0  0
   13.0186   11.0102   18.0020 C   0  0  0  0  0  0  0  0  0  0  0  0
    8.6628    5.7088   21.8871 N   0  0  0  0  0  0  0  0  0  0  0  0
    5.6516    3.5258   21.9140 C   0  0  0  0  0  0  0  0  0  0  0  0
   11.5863    9.6815   19.4539 C   0  0  0  0  0  0  0  0  0  0  0  0
   12.9648    4.1543   20.9205 C   0  0  0  0  0  0  0  0  0  0  0  0
    8.2089    3.6265   20.8929 C   0  0  0  0  0  0  0  0  0  0  0  0
    7.3827    2.5724   20.5432 C   0  0  0  0  0  0  0  0  0  0  0  0
   11.1529    7.2750   20.8025 C   0  0  0  0  0  0  0  0  0  0  0  0
   10.2573    8.3215   20.9827 C   0  0  0  0  0  0  0  0  0  0  0  0
   11.1606    5.9378   21.2366 N   0  0  0  0  0  0  0  0  0  0  0  0
    9.8932   11.6736   19.0677 O   0  0  0  0  0  0  0  0  0  0  0  0
    6.4470    4.5850   22.2321 C   0  0  0  0  0  0  0  0  0  0  0  0
    8.4619    6.9895   22.2968 C   0  0  0  0  0  0  0  0  0  0  0  0
   12.2747    7.5102   20.0420 C   0  0  0  0  0  0  0  0  0  0  0  0
   14.2544    6.2142   19.4191 C   0  0  0  0  0  0  0  0  0  0  0  0
   13.0695    6.3705   20.0375 N   0  0  0  0  0  0  0  0  0  0  0  0
    9.1913    8.0876   21.8361 N   0  0  0  0  0  0  0  0  0  0  0  0
   10.4739    9.4813   20.2889 C   0  0  0  0  0  0  0  0  0  0  0  0
    7.5551    7.1270   23.1200 O   0  0  0  0  0  0  0  0  0  0  0  0
  1 11  4  0
  1 21  4  0
  2  4  1  0
  2  8  1  0
  2 11  1  0
  3 10  4  0
  3 14  4  0
  4  5  1  0
  4 18  2  0
  6 12  1  0
  6 17  4  0
  6 23  4  0
  7  9  1  0
  7 13  4  0
  7 19  4  0
  9 20  1  0
 10 19  4  0
 11 25  4  0
 13 14  4  0
 15 16  4  0
 15 17  4  0
 15 21  4  0
 16 24  1  0
 16 25  4  0
 20 24  1  0
 20 26  2  0
 21 23  4  0
 22 23  1  0
M  END
$$$$

 Created by Python create_sdf_string function

 26 28  0  0  0  0  0  0  0  0999 V2000
   12.4616    8.6700   19.4180 N   0  0  0  0  0  0  0  0  0  0  0  0
   11.8329   10.8148   18.6769 N   0  0  0  0  0  0  0  0  0  0  0  0
    6.1021    2.5564   21.0678 C   0  0  0  0  0  0  0  0  0  0  0  0
   10.9097   11.8051   18.4804 C   0  0  0  0  0  0  0  0  0  0  0  0
   11.2280   12.9135   17.5669 C   0  0  0  0  0  0  0  0  0  0  0  0
   12.3782    5.4231   20.7777 C   0  0  0  0  0  0  0  0  0  0  0  0
    7.7365    4.6508   21.6987 C   0  0  0  0  0  0  0  0  0  0  0  0
   13.0186   11.0102   18.0020 C   0  0  0  0  0  0  0  0  0  0  0  0
    8.6628    5.7088   21.8871 N   0  0  0  0  0  0  0  0  0  0  0  0
    5.6516    3.5258   21.9140 C   0  0  0  0  0  0  0  0  0  0  0  0
   11.5863    9.6815   19.4539 C   0  0  0  0  0  0  0  0  0  0  0  0
   12.9648    4.1543   20.9205 C   0  0  0  0  0  0  0  0  0  0  0  0
    8.2089    3.6265   20.8929 C   0  0  0  0  0  0  0  0  0  0  0  0
    7.3827    2.5724   20.5432 C   0  0  0  0  0  0  0  0  0  0  0  0
   11.1529    7.2750   20.8025 C   0  0  0  0  0  0  0  0  0  0  0  0
   10.2573    8.3215   20.9827 C   0  0  0  0  0  0  0  0  0  0  0  0
   11.1606    5.9378   21.2366 N   0  0  0  0  0  0  0  0  0  0  0  0
    9.8932   11.6736   19.0677 O   0  0  0  0  0  0  0  0  0  0  0  0
    6.4470    4.5850   22.2321 C   0  0  0  0  0  0  0  0  0  0  0  0
    8.4619    6.9895   22.2968 C   0  0  0  0  0  0  0  0  0  0  0  0
   12.2747    7.5102   20.0420 C   0  0  0  0  0  0  0  0  0  0  0  0
   14.2544    6.2142   19.4191 C   0  0  0  0  0  0  0  0  0  0  0  0
   13.0695    6.3705   20.0375 N   0  0  0  0  0  0  0  0  0  0  0  0
    9.1913    8.0876   21.8361 N   0  0  0  0  0  0  0  0  0  0  0  0
   10.4739    9.4813   20.2889 C   0  0  0  0  0  0  0  0  0  0  0  0
    7.5551    7.1270   23.1200 O   0  0  0  0  0  0  0  0  0  0  0  0
  1 11  4  0
  1 21  4  0
  2  4  1  0
  2  8  1  0
  2 11  1  0
  3 10  4  0
  3 14  4  0
  4  5  1  0
  4 18  2  0
  6 12  1  0
  6 17  4  0
  6 23  4  0
  7  9  1  0
  7 13  4  0
  7 19  4  0
  9 20  1  0
 10 19  4  0
 11 25  4  0
 13 14  4  0
 15 16  4  0
 15 17  4  0
 15 21  4  0
 16 24  1  0
 16 25  4  0
 20 24  1  0
 20 26  2  0
 21 23  4  0
 22 23  1  0
M  END
$$$$

 Created by Python create_sdf_string function

 26 28  0  0  0  0  0  0  0  0999 V2000
   12.4616    8.6700   19.4180 N   0  0  0  0  0  0  0  0  0  0  0  0
   11.8329   10.8148   18.6769 N   0  0  0  0  0  0  0  0  0  0  0  0
    6.1021    2.5564   21.0678 C   0  0  0  0  0  0  0  0  0  0  0  0
   10.9097   11.8051   18.4804 C   0  0  0  0  0  0  0  0  0  0  0  0
   11.2280   12.9135   17.5669 C   0  0  0  0  0  0  0  0  0  0  0  0
   12.3782    5.4231   20.7777 C   0  0  0  0  0  0  0  0  0  0  0  0
    7.7365    4.6508   21.6987 C   0  0  0  0  0  0  0  0  0  0  0  0
   13.0186   11.0102   18.0020 C   0  0  0  0  0  0  0  0  0  0  0  0
    8.6628    5.7088   21.8871 N   0  0  0  0  0  0  0  0  0  0  0  0
    5.6516    3.5258   21.9140 C   0  0  0  0  0  0  0  0  0  0  0  0
   11.5863    9.6815   19.4539 C   0  0  0  0  0  0  0  0  0  0  0  0
   12.9648    4.1543   20.9205 C   0  0  0  0  0  0  0  0  0  0  0  0
    8.2089    3.6265   20.8929 C   0  0  0  0  0  0  0  0  0  0  0  0
    7.3827    2.5724   20.5432 C   0  0  0  0  0  0  0  0  0  0  0  0
   11.1529    7.2750   20.8025 C   0  0  0  0  0  0  0  0  0  0  0  0
   10.2573    8.3215   20.9827 C   0  0  0  0  0  0  0  0  0  0  0  0
   11.1606    5.9378   21.2366 N   0  0  0  0  0  0  0  0  0  0  0  0
    9.8932   11.6736   19.0677 O   0  0  0  0  0  0  0  0  0  0  0  0
    6.4470    4.5850   22.2321 C   0  0  0  0  0  0  0  0  0  0  0  0
    8.4619    6.9895   22.2968 C   0  0  0  0  0  0  0  0  0  0  0  0
   12.2747    7.5102   20.0420 C   0  0  0  0  0  0  0  0  0  0  0  0
   14.2544    6.2142   19.4191 C   0  0  0  0  0  0  0  0  0  0  0  0
   13.0695    6.3705   20.0375 N   0  0  0  0  0  0  0  0  0  0  0  0
    9.1913    8.0876   21.8361 N   0  0  0  0  0  0  0  0  0  0  0  0
   10.4739    9.4813   20.2889 C   0  0  0  0  0  0  0  0  0  0  0  0
    7.5551    7.1270   23.1200 O   0  0  0  0  0  0  0  0  0  0  0  0
  1 11  4  0
  1 21  4  0
  2  4  1  0
  2  8  1  0
  2 11  1  0
  3 10  4  0
  3 14  4  0
  4  5  1  0
  4 18  2  0
  6 12  1  0
  6 17  4  0
  6 23  4  0
  7  9  1  0
  7 13  4  0
  7 19  4  0
  9 20  1  0
 10 19  4  0
 11 25  4  0
 13 14  4  0
 15 16  4  0
 15 17  4  0
 15 21  4  0
 16 24  1  0
 16 25  4  0
 20 24  1  0
 20 26  2  0
 21 23  4  0
 22 23  1  0
M  END
$$$$

 Created by Python create_sdf_string function

 26 28  0  0  0  0  0  0  0  0999 V2000
   12.4616    8.6700   19.4180 N   0  0  0  0  0  0  0  0  0  0  0  0
   11.8329   10.8148   18.6769 N   0  0  0  0  0  0  0  0  0  0  0  0
    6.1021    2.5564   21.0678 C   0  0  0  0  0  0  0  0  0  0  0  0
   10.9097   11.8051   18.4804 C   0  0  0  0  0  0  0  0  0  0  0  0
   11.2280   12.9135   17.5669 C   0  0  0  0  0  0  0  0  0  0  0  0
   12.3782    5.4231   20.7777 C   0  0  0  0  0  0  0  0  0  0  0  0
    7.7365    4.6508   21.6987 C   0  0  0  0  0  0  0  0  0  0  0  0
   13.0186   11.0102   18.0020 C   0  0  0  0  0  0  0  0  0  0  0  0
    8.6628    5.7088   21.8871 N   0  0  0  0  0  0  0  0  0  0  0  0
    5.6516    3.5258   21.9140 C   0  0  0  0  0  0  0  0  0  0  0  0
   11.5863    9.6815   19.4539 C   0  0  0  0  0  0  0  0  0  0  0  0
   12.9648    4.1543   20.9205 C   0  0  0  0  0  0  0  0  0  0  0  0
    8.2089    3.6265   20.8929 C   0  0  0  0  0  0  0  0  0  0  0  0
    7.3827    2.5724   20.5432 C   0  0  0  0  0  0  0  0  0  0  0  0
   11.1529    7.2750   20.8025 C   0  0  0  0  0  0  0  0  0  0  0  0
   10.2573    8.3215   20.9827 C   0  0  0  0  0  0  0  0  0  0  0  0
   11.1606    5.9378   21.2366 N   0  0  0  0  0  0  0  0  0  0  0  0
    9.8932   11.6736   19.0677 O   0  0  0  0  0  0  0  0  0  0  0  0
    6.4470    4.5850   22.2321 C   0  0  0  0  0  0  0  0  0  0  0  0
    8.4619    6.9895   22.2968 C   0  0  0  0  0  0  0  0  0  0  0  0
   12.2747    7.5102   20.0420 C   0  0  0  0  0  0  0  0  0  0  0  0
   14.2544    6.2142   19.4191 C   0  0  0  0  0  0  0  0  0  0  0  0
   13.0695    6.3705   20.0375 N   0  0  0  0  0  0  0  0  0  0  0  0
    9.1913    8.0876   21.8361 N   0  0  0  0  0  0  0  0  0  0  0  0
   10.4739    9.4813   20.2889 C   0  0  0  0  0  0  0  0  0  0  0  0
    7.5551    7.1270   23.1200 O   0  0  0  0  0  0  0  0  0  0  0  0
  1 11  4  0
  1 21  4  0
  2  4  1  0
  2  8  1  0
  2 11  1  0
  3 10  4  0
  3 14  4  0
  4  5  1  0
  4 18  2  0
  6 12  1  0
  6 17  4  0
  6 23  4  0
  7  9  1  0
  7 13  4  0
  7 19  4  0
  9 20  1  0
 10 19  4  0
 11 25  4  0
 13 14  4  0
 15 16  4  0
 15 17  4  0
 15 21  4  0
 16 24  1  0
 16 25  4  0
 20 24  1  0
 20 26  2  0
 21 23  4  0
 22 23  1  0
M  END
$$$$

 Created by Python create_sdf_string function

 26 28  0  0  0  0  0  0  0  0999 V2000
   12.4616    8.6700   19.4180 N   0  0  0  0  0  0  0  0  0  0  0  0
   11.8329   10.8148   18.6769 N   0  0  0  0  0  0  0  0  0  0  0  0
    6.1021    2.5564   21.0678 C   0  0  0  0  0  0  0  0  0  0  0  0
   10.9097   11.8051   18.4804 C   0  0  0  0  0  0  0  0  0  0  0  0
   11.2280   12.9135   17.5669 C   0  0  0  0  0  0  0  0  0  0  0  0
   12.3782    5.4231   20.7777 C   0  0  0  0  0  0  0  0  0  0  0  0
    7.7365    4.6508   21.6987 C   0  0  0  0  0  0  0  0  0  0  0  0
   13.0186   11.0102   18.0020 C   0  0  0  0  0  0  0  0  0  0  0  0
    8.6628    5.7088   21.8871 N   0  0  0  0  0  0  0  0  0  0  0  0
    5.6516    3.5258   21.9140 C   0  0  0  0  0  0  0  0  0  0  0  0
   11.5863    9.6815   19.4539 C   0  0  0  0  0  0  0  0  0  0  0  0
   12.9648    4.1543   20.9205 C   0  0  0  0  0  0  0  0  0  0  0  0
    8.2089    3.6265   20.8929 C   0  0  0  0  0  0  0  0  0  0  0  0
    7.3827    2.5724   20.5432 C   0  0  0  0  0  0  0  0  0  0  0  0
   11.1529    7.2750   20.8025 C   0  0  0  0  0  0  0  0  0  0  0  0
   10.2573    8.3215   20.9827 C   0  0  0  0  0  0  0  0  0  0  0  0
   11.1606    5.9378   21.2366 N   0  0  0  0  0  0  0  0  0  0  0  0
    9.8932   11.6736   19.0677 O   0  0  0  0  0  0  0  0  0  0  0  0
    6.4470    4.5850   22.2321 C   0  0  0  0  0  0  0  0  0  0  0  0
    8.4619    6.9895   22.2968 C   0  0  0  0  0  0  0  0  0  0  0  0
   12.2747    7.5102   20.0420 C   0  0  0  0  0  0  0  0  0  0  0  0
   14.2544    6.2142   19.4191 C   0  0  0  0  0  0  0  0  0  0  0  0
   13.0695    6.3705   20.0375 N   0  0  0  0  0  0  0  0  0  0  0  0
    9.1913    8.0876   21.8361 N   0  0  0  0  0  0  0  0  0  0  0  0
   10.4739    9.4813   20.2889 C   0  0  0  0  0  0  0  0  0  0  0  0
    7.5551    7.1270   23.1200 O   0  0  0  0  0  0  0  0  0  0  0  0
  1 11  4  0
  1 21  4  0
  2  4  1  0
  2  8  1  0
  2 11  1  0
  3 10  4  0
  3 14  4  0
  4  5  1  0
  4 18  2  0
  6 12  1  0
  6 17  4  0
  6 23  4  0
  7  9  1  0
  7 13  4  0
  7 19  4  0
  9 20  1  0
 10 19  4  0
 11 25  4  0
 13 14  4  0
 15 16  4  0
 15 17  4  0
 15 21  4  0
 16 24  1  0
 16 25  4  0
 20 24  1  0
 20 26  2  0
 21 23  4  0
 22 23  1  0
M  END
$$$$

 Created by Python create_sdf_string function

 26 28  0  0  0  0  0  0  0  0999 V2000
   12.4616    8.6700   19.4180 N   0  0  0  0  0  0  0  0  0  0  0  0
   11.8329   10.8148   18.6769 N   0  0  0  0  0  0  0  0  0  0  0  0
    6.1021    2.5564   21.0678 C   0  0  0  0  0  0  0  0  0  0  0  0
   10.9097   11.8051   18.4804 C   0  0  0  0  0  0  0  0  0  0  0  0
   11.2280   12.9135   17.5669 C   0  0  0  0  0  0  0  0  0  0  0  0
   12.3782    5.4231   20.7777 C   0  0  0  0  0  0  0  0  0  0  0  0
    7.7365    4.6508   21.6987 C   0  0  0  0  0  0  0  0  0  0  0  0
   13.0186   11.0102   18.0020 C   0  0  0  0  0  0  0  0  0  0  0  0
    8.6628    5.7088   21.8871 N   0  0  0  0  0  0  0  0  0  0  0  0
    5.6516    3.5258   21.9140 C   0  0  0  0  0  0  0  0  0  0  0  0
   11.5863    9.6815   19.4539 C   0  0  0  0  0  0  0  0  0  0  0  0
   12.9648    4.1543   20.9205 C   0  0  0  0  0  0  0  0  0  0  0  0
    8.2089    3.6265   20.8929 C   0  0  0  0  0  0  0  0  0  0  0  0
    7.3827    2.5724   20.5432 C   0  0  0  0  0  0  0  0  0  0  0  0
   11.1529    7.2750   20.8025 C   0  0  0  0  0  0  0  0  0  0  0  0
   10.2573    8.3215   20.9827 C   0  0  0  0  0  0  0  0  0  0  0  0
   11.1606    5.9378   21.2366 N   0  0  0  0  0  0  0  0  0  0  0  0
    9.8932   11.6736   19.0677 O   0  0  0  0  0  0  0  0  0  0  0  0
    6.4470    4.5850   22.2321 C   0  0  0  0  0  0  0  0  0  0  0  0
    8.4619    6.9895   22.2968 C   0  0  0  0  0  0  0  0  0  0  0  0
   12.2747    7.5102   20.0420 C   0  0  0  0  0  0  0  0  0  0  0  0
   14.2544    6.2142   19.4191 C   0  0  0  0  0  0  0  0  0  0  0  0
   13.0695    6.3705   20.0375 N   0  0  0  0  0  0  0  0  0  0  0  0
    9.1913    8.0876   21.8361 N   0  0  0  0  0  0  0  0  0  0  0  0
   10.4739    9.4813   20.2889 C   0  0  0  0  0  0  0  0  0  0  0  0
    7.5551    7.1270   23.1200 O   0  0  0  0  0  0  0  0  0  0  0  0
  1 11  4  0
  1 21  4  0
  2  4  1  0
  2  8  1  0
  2 11  1  0
  3 10  4  0
  3 14  4  0
  4  5  1  0
  4 18  2  0
  6 12  1  0
  6 17  4  0
  6 23  4  0
  7  9  1  0
  7 13  4  0
  7 19  4  0
  9 20  1  0
 10 19  4  0
 11 25  4  0
 13 14  4  0
 15 16  4  0
 15 17  4  0
 15 21  4  0
 16 24  1  0
 16 25  4  0
 20 24  1  0
 20 26  2  0
 21 23  4  0
 22 23  1  0
M  END
$$$$

 Created by Python create_sdf_string function

 26 28  0  0  0  0  0  0  0  0999 V2000
   12.4616    8.6700   19.4180 N   0  0  0  0  0  0  0  0  0  0  0  0
   11.8329   10.8148   18.6769 N   0  0  0  0  0  0  0  0  0  0  0  0
    6.1021    2.5564   21.0678 C   0  0  0  0  0  0  0  0  0  0  0  0
   10.9097   11.8051   18.4804 C   0  0  0  0  0  0  0  0  0  0  0  0
   11.2280   12.9135   17.5669 C   0  0  0  0  0  0  0  0  0  0  0  0
   12.3782    5.4231   20.7777 C   0  0  0  0  0  0  0  0  0  0  0  0
    7.7365    4.6508   21.6987 C   0  0  0  0  0  0  0  0  0  0  0  0
   13.0186   11.0102   18.0020 C   0  0  0  0  0  0  0  0  0  0  0  0
    8.6628    5.7088   21.8871 N   0  0  0  0  0  0  0  0  0  0  0  0
    5.6516    3.5258   21.9140 C   0  0  0  0  0  0  0  0  0  0  0  0
   11.5863    9.6815   19.4539 C   0  0  0  0  0  0  0  0  0  0  0  0
   12.9648    4.1543   20.9205 C   0  0  0  0  0  0  0  0  0  0  0  0
    8.2089    3.6265   20.8929 C   0  0  0  0  0  0  0  0  0  0  0  0
    7.3827    2.5724   20.5432 C   0  0  0  0  0  0  0  0  0  0  0  0
   11.1529    7.2750   20.8025 C   0  0  0  0  0  0  0  0  0  0  0  0
   10.2573    8.3215   20.9827 C   0  0  0  0  0  0  0  0  0  0  0  0
   11.1606    5.9378   21.2366 N   0  0  0  0  0  0  0  0  0  0  0  0
    9.8932   11.6736   19.0677 O   0  0  0  0  0  0  0  0  0  0  0  0
    6.4470    4.5850   22.2321 C   0  0  0  0  0  0  0  0  0  0  0  0
    8.4619    6.9895   22.2968 C   0  0  0  0  0  0  0  0  0  0  0  0
   12.2747    7.5102   20.0420 C   0  0  0  0  0  0  0  0  0  0  0  0
   14.2544    6.2142   19.4191 C   0  0  0  0  0  0  0  0  0  0  0  0
   13.0695    6.3705   20.0375 N   0  0  0  0  0  0  0  0  0  0  0  0
    9.1913    8.0876   21.8361 N   0  0  0  0  0  0  0  0  0  0  0  0
   10.4739    9.4813   20.2889 C   0  0  0  0  0  0  0  0  0  0  0  0
    7.5551    7.1270   23.1200 O   0  0  0  0  0  0  0  0  0  0  0  0
  1 11  4  0
  1 21  4  0
  2  4  1  0
  2  8  1  0
  2 11  1  0
  3 10  4  0
  3 14  4  0
  4  5  1  0
  4 18  2  0
  6 12  1  0
  6 17  4  0
  6 23  4  0
  7  9  1  0
  7 13  4  0
  7 19  4  0
  9 20  1  0
 10 19  4  0
 11 25  4  0
 13 14  4  0
 15 16  4  0
 15 17  4  0
 15 21  4  0
 16 24  1  0
 16 25  4  0
 20 24  1  0
 20 26  2  0
 21 23  4  0
 22 23  1  0
M  END
$$$$

 Created by Python create_sdf_string function

 26 28  0  0  0  0  0  0  0  0999 V2000
   12.4616    8.6700   19.4180 N   0  0  0  0  0  0  0  0  0  0  0  0
   11.8329   10.8148   18.6769 N   0  0  0  0  0  0  0  0  0  0  0  0
    6.1021    2.5564   21.0678 C   0  0  0  0  0  0  0  0  0  0  0  0
   10.9097   11.8051   18.4804 C   0  0  0  0  0  0  0  0  0  0  0  0
   11.2280   12.9135   17.5669 C   0  0  0  0  0  0  0  0  0  0  0  0
   12.3782    5.4231   20.7777 C   0  0  0  0  0  0  0  0  0  0  0  0
    7.7365    4.6508   21.6987 C   0  0  0  0  0  0  0  0  0  0  0  0
   13.0186   11.0102   18.0020 C   0  0  0  0  0  0  0  0  0  0  0  0
    8.6628    5.7088   21.8871 N   0  0  0  0  0  0  0  0  0  0  0  0
    5.6516    3.5258   21.9140 C   0  0  0  0  0  0  0  0  0  0  0  0
   11.5863    9.6815   19.4539 C   0  0  0  0  0  0  0  0  0  0  0  0
   12.9648    4.1543   20.9205 C   0  0  0  0  0  0  0  0  0  0  0  0
    8.2089    3.6265   20.8929 C   0  0  0  0  0  0  0  0  0  0  0  0
    7.3827    2.5724   20.5432 C   0  0  0  0  0  0  0  0  0  0  0  0
   11.1529    7.2750   20.8025 C   0  0  0  0  0  0  0  0  0  0  0  0
   10.2573    8.3215   20.9827 C   0  0  0  0  0  0  0  0  0  0  0  0
   11.1606    5.9378   21.2366 N   0  0  0  0  0  0  0  0  0  0  0  0
    9.8932   11.6736   19.0677 O   0  0  0  0  0  0  0  0  0  0  0  0
    6.4470    4.5850   22.2321 C   0  0  0  0  0  0  0  0  0  0  0  0
    8.4619    6.9895   22.2968 C   0  0  0  0  0  0  0  0  0  0  0  0
   12.2747    7.5102   20.0420 C   0  0  0  0  0  0  0  0  0  0  0  0
   14.2544    6.2142   19.4191 C   0  0  0  0  0  0  0  0  0  0  0  0
   13.0695    6.3705   20.0375 N   0  0  0  0  0  0  0  0  0  0  0  0
    9.1913    8.0876   21.8361 N   0  0  0  0  0  0  0  0  0  0  0  0
   10.4739    9.4813   20.2889 C   0  0  0  0  0  0  0  0  0  0  0  0
    7.5551    7.1270   23.1200 O   0  0  0  0  0  0  0  0  0  0  0  0
  1 11  4  0
  1 21  4  0
  2  4  1  0
  2  8  1  0
  2 11  1  0
  3 10  4  0
  3 14  4  0
  4  5  1  0
  4 18  2  0
  6 12  1  0
  6 17  4  0
  6 23  4  0
  7  9  1  0
  7 13  4  0
  7 19  4  0
  9 20  1  0
 10 19  4  0
 11 25  4  0
 13 14  4  0
 15 16  4  0
 15 17  4  0
 15 21  4  0
 16 24  1  0
 16 25  4  0
 20 24  1  0
 20 26  2  0
 21 23  4  0
 22 23  1  0
M  END
$$$$

 Created by Python create_sdf_string function

 26 28  0  0  0  0  0  0  0  0999 V2000
   12.4616    8.6700   19.4180 N   0  0  0  0  0  0  0  0  0  0  0  0
   11.8329   10.8148   18.6769 N   0  0  0  0  0  0  0  0  0  0  0  0
    6.1021    2.5564   21.0678 C   0  0  0  0  0  0  0  0  0  0  0  0
   10.9097   11.8051   18.4804 C   0  0  0  0  0  0  0  0  0  0  0  0
   11.2280   12.9135   17.5669 C   0  0  0  0  0  0  0  0  0  0  0  0
   12.3782    5.4231   20.7777 C   0  0  0  0  0  0  0  0  0  0  0  0
    7.7365    4.6508   21.6987 C   0  0  0  0  0  0  0  0  0  0  0  0
   13.0186   11.0102   18.0020 C   0  0  0  0  0  0  0  0  0  0  0  0
    8.6628    5.7088   21.8871 N   0  0  0  0  0  0  0  0  0  0  0  0
    5.6516    3.5258   21.9140 C   0  0  0  0  0  0  0  0  0  0  0  0
   11.5863    9.6815   19.4539 C   0  0  0  0  0  0  0  0  0  0  0  0
   12.9648    4.1543   20.9205 C   0  0  0  0  0  0  0  0  0  0  0  0
    8.2089    3.6265   20.8929 C   0  0  0  0  0  0  0  0  0  0  0  0
    7.3827    2.5724   20.5432 C   0  0  0  0  0  0  0  0  0  0  0  0
   11.1529    7.2750   20.8025 C   0  0  0  0  0  0  0  0  0  0  0  0
   10.2573    8.3215   20.9827 C   0  0  0  0  0  0  0  0  0  0  0  0
   11.1606    5.9378   21.2366 N   0  0  0  0  0  0  0  0  0  0  0  0
    9.8932   11.6736   19.0677 O   0  0  0  0  0  0  0  0  0  0  0  0
    6.4470    4.5850   22.2321 C   0  0  0  0  0  0  0  0  0  0  0  0
    8.4619    6.9895   22.2968 C   0  0  0  0  0  0  0  0  0  0  0  0
   12.2747    7.5102   20.0420 C   0  0  0  0  0  0  0  0  0  0  0  0
   14.2544    6.2142   19.4191 C   0  0  0  0  0  0  0  0  0  0  0  0
   13.0695    6.3705   20.0375 N   0  0  0  0  0  0  0  0  0  0  0  0
    9.1913    8.0876   21.8361 N   0  0  0  0  0  0  0  0  0  0  0  0
   10.4739    9.4813   20.2889 C   0  0  0  0  0  0  0  0  0  0  0  0
    7.5551    7.1270   23.1200 O   0  0  0  0  0  0  0  0  0  0  0  0
  1 11  4  0
  1 21  4  0
  2  4  1  0
  2  8  1  0
  2 11  1  0
  3 10  4  0
  3 14  4  0
  4  5  1  0
  4 18  2  0
  6 12  1  0
  6 17  4  0
  6 23  4  0
  7  9  1  0
  7 13  4  0
  7 19  4  0
  9 20  1  0
 10 19  4  0
 11 25  4  0
 13 14  4  0
 15 16  4  0
 15 17  4  0
 15 21  4  0
 16 24  1  0
 16 25  4  0
 20 24  1  0
 20 26  2  0
 21 23  4  0
 22 23  1  0
M  END
$$$$

 Created by Python create_sdf_string function

 26 28  0  0  0  0  0  0  0  0999 V2000
   12.4616    8.6700   19.4180 N   0  0  0  0  0  0  0  0  0  0  0  0
   11.8329   10.8148   18.6769 N   0  0  0  0  0  0  0  0  0  0  0  0
    6.1021    2.5564   21.0678 C   0  0  0  0  0  0  0  0  0  0  0  0
   10.9097   11.8051   18.4804 C   0  0  0  0  0  0  0  0  0  0  0  0
   11.2280   12.9135   17.5669 C   0  0  0  0  0  0  0  0  0  0  0  0
   12.3782    5.4231   20.7777 C   0  0  0  0  0  0  0  0  0  0  0  0
    7.7365    4.6508   21.6987 C   0  0  0  0  0  0  0  0  0  0  0  0
   13.0186   11.0102   18.0020 C   0  0  0  0  0  0  0  0  0  0  0  0
    8.6628    5.7088   21.8871 N   0  0  0  0  0  0  0  0  0  0  0  0
    5.6516    3.5258   21.9140 C   0  0  0  0  0  0  0  0  0  0  0  0
   11.5863    9.6815   19.4539 C   0  0  0  0  0  0  0  0  0  0  0  0
   12.9648    4.1543   20.9205 C   0  0  0  0  0  0  0  0  0  0  0  0
    8.2089    3.6265   20.8929 C   0  0  0  0  0  0  0  0  0  0  0  0
    7.3827    2.5724   20.5432 C   0  0  0  0  0  0  0  0  0  0  0  0
   11.1529    7.2750   20.8025 C   0  0  0  0  0  0  0  0  0  0  0  0
   10.2573    8.3215   20.9827 C   0  0  0  0  0  0  0  0  0  0  0  0
   11.1606    5.9378   21.2366 N   0  0  0  0  0  0  0  0  0  0  0  0
    9.8932   11.6736   19.0677 O   0  0  0  0  0  0  0  0  0  0  0  0
    6.4470    4.5850   22.2321 C   0  0  0  0  0  0  0  0  0  0  0  0
    8.4619    6.9895   22.2968 C   0  0  0  0  0  0  0  0  0  0  0  0
   12.2747    7.5102   20.0420 C   0  0  0  0  0  0  0  0  0  0  0  0
   14.2544    6.2142   19.4191 C   0  0  0  0  0  0  0  0  0  0  0  0
   13.0695    6.3705   20.0375 N   0  0  0  0  0  0  0  0  0  0  0  0
    9.1913    8.0876   21.8361 N   0  0  0  0  0  0  0  0  0  0  0  0
   10.4739    9.4813   20.2889 C   0  0  0  0  0  0  0  0  0  0  0  0
    7.5551    7.1270   23.1200 O   0  0  0  0  0  0  0  0  0  0  0  0
  1 11  4  0
  1 21  4  0
  2  4  1  0
  2  8  1  0
  2 11  1  0
  3 10  4  0
  3 14  4  0
  4  5  1  0
  4 18  2  0
  6 12  1  0
  6 17  4  0
  6 23  4  0
  7  9  1  0
  7 13  4  0
  7 19  4  0
  9 20  1  0
 10 19  4  0
 11 25  4  0
 13 14  4  0
 15 16  4  0
 15 17  4  0
 15 21  4  0
 16 24  1  0
 16 25  4  0
 20 24  1  0
 20 26  2  0
 21 23  4  0
 22 23  1  0
M  END
$$$$

 Created by Python create_sdf_string function

 26 28  0  0  0  0  0  0  0  0999 V2000
   12.4616    8.6700   19.4180 N   0  0  0  0  0  0  0  0  0  0  0  0
   11.8329   10.8148   18.6769 N   0  0  0  0  0  0  0  0  0  0  0  0
    6.1021    2.5564   21.0678 C   0  0  0  0  0  0  0  0  0  0  0  0
   10.9097   11.8051   18.4804 C   0  0  0  0  0  0  0  0  0  0  0  0
   11.2280   12.9135   17.5669 C   0  0  0  0  0  0  0  0  0  0  0  0
   12.3782    5.4231   20.7777 C   0  0  0  0  0  0  0  0  0  0  0  0
    7.7365    4.6508   21.6987 C   0  0  0  0  0  0  0  0  0  0  0  0
   13.0186   11.0102   18.0020 C   0  0  0  0  0  0  0  0  0  0  0  0
    8.6628    5.7088   21.8871 N   0  0  0  0  0  0  0  0  0  0  0  0
    5.6516    3.5258   21.9140 C   0  0  0  0  0  0  0  0  0  0  0  0
   11.5863    9.6815   19.4539 C   0  0  0  0  0  0  0  0  0  0  0  0
   12.9648    4.1543   20.9205 C   0  0  0  0  0  0  0  0  0  0  0  0
    8.2089    3.6265   20.8929 C   0  0  0  0  0  0  0  0  0  0  0  0
    7.3827    2.5724   20.5432 C   0  0  0  0  0  0  0  0  0  0  0  0
   11.1529    7.2750   20.8025 C   0  0  0  0  0  0  0  0  0  0  0  0
   10.2573    8.3215   20.9827 C   0  0  0  0  0  0  0  0  0  0  0  0
   11.1606    5.9378   21.2366 N   0  0  0  0  0  0  0  0  0  0  0  0
    9.8932   11.6736   19.0677 O   0  0  0  0  0  0  0  0  0  0  0  0
    6.4470    4.5850   22.2321 C   0  0  0  0  0  0  0  0  0  0  0  0
    8.4619    6.9895   22.2968 C   0  0  0  0  0  0  0  0  0  0  0  0
   12.2747    7.5102   20.0420 C   0  0  0  0  0  0  0  0  0  0  0  0
   14.2544    6.2142   19.4191 C   0  0  0  0  0  0  0  0  0  0  0  0
   13.0695    6.3705   20.0375 N   0  0  0  0  0  0  0  0  0  0  0  0
    9.1913    8.0876   21.8361 N   0  0  0  0  0  0  0  0  0  0  0  0
   10.4739    9.4813   20.2889 C   0  0  0  0  0  0  0  0  0  0  0  0
    7.5551    7.1270   23.1200 O   0  0  0  0  0  0  0  0  0  0  0  0
  1 11  4  0
  1 21  4  0
  2  4  1  0
  2  8  1  0
  2 11  1  0
  3 10  4  0
  3 14  4  0
  4  5  1  0
  4 18  2  0
  6 12  1  0
  6 17  4  0
  6 23  4  0
  7  9  1  0
  7 13  4  0
  7 19  4  0
  9 20  1  0
 10 19  4  0
 11 25  4  0
 13 14  4  0
 15 16  4  0
 15 17  4  0
 15 21  4  0
 16 24  1  0
 16 25  4  0
 20 24  1  0
 20 26  2  0
 21 23  4  0
 22 23  1  0
M  END
$$$$

 Created by Python create_sdf_string function

 26 28  0  0  0  0  0  0  0  0999 V2000
   12.4616    8.6700   19.4180 N   0  0  0  0  0  0  0  0  0  0  0  0
   11.8329   10.8148   18.6769 N   0  0  0  0  0  0  0  0  0  0  0  0
    6.1021    2.5564   21.0678 C   0  0  0  0  0  0  0  0  0  0  0  0
   10.9097   11.8051   18.4804 C   0  0  0  0  0  0  0  0  0  0  0  0
   11.2280   12.9135   17.5669 C   0  0  0  0  0  0  0  0  0  0  0  0
   12.3782    5.4231   20.7777 C   0  0  0  0  0  0  0  0  0  0  0  0
    7.7365    4.6508   21.6987 C   0  0  0  0  0  0  0  0  0  0  0  0
   13.0186   11.0102   18.0020 C   0  0  0  0  0  0  0  0  0  0  0  0
    8.6628    5.7088   21.8871 N   0  0  0  0  0  0  0  0  0  0  0  0
    5.6516    3.5258   21.9140 C   0  0  0  0  0  0  0  0  0  0  0  0
   11.5863    9.6815   19.4539 C   0  0  0  0  0  0  0  0  0  0  0  0
   12.9648    4.1543   20.9205 C   0  0  0  0  0  0  0  0  0  0  0  0
    8.2089    3.6265   20.8929 C   0  0  0  0  0  0  0  0  0  0  0  0
    7.3827    2.5724   20.5432 C   0  0  0  0  0  0  0  0  0  0  0  0
   11.1529    7.2750   20.8025 C   0  0  0  0  0  0  0  0  0  0  0  0
   10.2573    8.3215   20.9827 C   0  0  0  0  0  0  0  0  0  0  0  0
   11.1606    5.9378   21.2366 N   0  0  0  0  0  0  0  0  0  0  0  0
    9.8932   11.6736   19.0677 O   0  0  0  0  0  0  0  0  0  0  0  0
    6.4470    4.5850   22.2321 C   0  0  0  0  0  0  0  0  0  0  0  0
    8.4619    6.9895   22.2968 C   0  0  0  0  0  0  0  0  0  0  0  0
   12.2747    7.5102   20.0420 C   0  0  0  0  0  0  0  0  0  0  0  0
   14.2544    6.2142   19.4191 C   0  0  0  0  0  0  0  0  0  0  0  0
   13.0695    6.3705   20.0375 N   0  0  0  0  0  0  0  0  0  0  0  0
    9.1913    8.0876   21.8361 N   0  0  0  0  0  0  0  0  0  0  0  0
   10.4739    9.4813   20.2889 C   0  0  0  0  0  0  0  0  0  0  0  0
    7.5551    7.1270   23.1200 O   0  0  0  0  0  0  0  0  0  0  0  0
  1 11  4  0
  1 21  4  0
  2  4  1  0
  2  8  1  0
  2 11  1  0
  3 10  4  0
  3 14  4  0
  4  5  1  0
  4 18  2  0
  6 12  1  0
  6 17  4  0
  6 23  4  0
  7  9  1  0
  7 13  4  0
  7 19  4  0
  9 20  1  0
 10 19  4  0
 11 25  4  0
 13 14  4  0
 15 16  4  0
 15 17  4  0
 15 21  4  0
 16 24  1  0
 16 25  4  0
 20 24  1  0
 20 26  2  0
 21 23  4  0
 22 23  1  0
M  END
$$$$

 Created by Python create_sdf_string function

 26 28  0  0  0  0  0  0  0  0999 V2000
   12.4616    8.6700   19.4180 N   0  0  0  0  0  0  0  0  0  0  0  0
   11.8329   10.8148   18.6769 N   0  0  0  0  0  0  0  0  0  0  0  0
    6.1021    2.5564   21.0678 C   0  0  0  0  0  0  0  0  0  0  0  0
   10.9097   11.8051   18.4804 C   0  0  0  0  0  0  0  0  0  0  0  0
   11.2280   12.9135   17.5669 C   0  0  0  0  0  0  0  0  0  0  0  0
   12.3782    5.4231   20.7777 C   0  0  0  0  0  0  0  0  0  0  0  0
    7.7365    4.6508   21.6987 C   0  0  0  0  0  0  0  0  0  0  0  0
   13.0186   11.0102   18.0020 C   0  0  0  0  0  0  0  0  0  0  0  0
    8.6628    5.7088   21.8871 N   0  0  0  0  0  0  0  0  0  0  0  0
    5.6516    3.5258   21.9140 C   0  0  0  0  0  0  0  0  0  0  0  0
   11.5863    9.6815   19.4539 C   0  0  0  0  0  0  0  0  0  0  0  0
   12.9648    4.1543   20.9205 C   0  0  0  0  0  0  0  0  0  0  0  0
    8.2089    3.6265   20.8929 C   0  0  0  0  0  0  0  0  0  0  0  0
    7.3827    2.5724   20.5432 C   0  0  0  0  0  0  0  0  0  0  0  0
   11.1529    7.2750   20.8025 C   0  0  0  0  0  0  0  0  0  0  0  0
   10.2573    8.3215   20.9827 C   0  0  0  0  0  0  0  0  0  0  0  0
   11.1606    5.9378   21.2366 N   0  0  0  0  0  0  0  0  0  0  0  0
    9.8932   11.6736   19.0677 O   0  0  0  0  0  0  0  0  0  0  0  0
    6.4470    4.5850   22.2321 C   0  0  0  0  0  0  0  0  0  0  0  0
    8.4619    6.9895   22.2968 C   0  0  0  0  0  0  0  0  0  0  0  0
   12.2747    7.5102   20.0420 C   0  0  0  0  0  0  0  0  0  0  0  0
   14.2544    6.2142   19.4191 C   0  0  0  0  0  0  0  0  0  0  0  0
   13.0695    6.3705   20.0375 N   0  0  0  0  0  0  0  0  0  0  0  0
    9.1913    8.0876   21.8361 N   0  0  0  0  0  0  0  0  0  0  0  0
   10.4739    9.4813   20.2889 C   0  0  0  0  0  0  0  0  0  0  0  0
    7.5551    7.1270   23.1200 O   0  0  0  0  0  0  0  0  0  0  0  0
  1 11  4  0
  1 21  4  0
  2  4  1  0
  2  8  1  0
  2 11  1  0
  3 10  4  0
  3 14  4  0
  4  5  1  0
  4 18  2  0
  6 12  1  0
  6 17  4  0
  6 23  4  0
  7  9  1  0
  7 13  4  0
  7 19  4  0
  9 20  1  0
 10 19  4  0
 11 25  4  0
 13 14  4  0
 15 16  4  0
 15 17  4  0
 15 21  4  0
 16 24  1  0
 16 25  4  0
 20 24  1  0
 20 26  2  0
 21 23  4  0
 22 23  1  0
M  END
$$$$

 Created by Python create_sdf_string function

 26 28  0  0  0  0  0  0  0  0999 V2000
   12.4616    8.6700   19.4180 N   0  0  0  0  0  0  0  0  0  0  0  0
   11.8329   10.8148   18.6769 N   0  0  0  0  0  0  0  0  0  0  0  0
    6.1021    2.5564   21.0678 C   0  0  0  0  0  0  0  0  0  0  0  0
   10.9097   11.8051   18.4804 C   0  0  0  0  0  0  0  0  0  0  0  0
   11.2280   12.9135   17.5669 C   0  0  0  0  0  0  0  0  0  0  0  0
   12.3782    5.4231   20.7777 C   0  0  0  0  0  0  0  0  0  0  0  0
    7.7365    4.6508   21.6987 C   0  0  0  0  0  0  0  0  0  0  0  0
   13.0186   11.0102   18.0020 C   0  0  0  0  0  0  0  0  0  0  0  0
    8.6628    5.7088   21.8871 N   0  0  0  0  0  0  0  0  0  0  0  0
    5.6516    3.5258   21.9140 C   0  0  0  0  0  0  0  0  0  0  0  0
   11.5863    9.6815   19.4539 C   0  0  0  0  0  0  0  0  0  0  0  0
   12.9648    4.1543   20.9205 C   0  0  0  0  0  0  0  0  0  0  0  0
    8.2089    3.6265   20.8929 C   0  0  0  0  0  0  0  0  0  0  0  0
    7.3827    2.5724   20.5432 C   0  0  0  0  0  0  0  0  0  0  0  0
   11.1529    7.2750   20.8025 C   0  0  0  0  0  0  0  0  0  0  0  0
   10.2573    8.3215   20.9827 C   0  0  0  0  0  0  0  0  0  0  0  0
   11.1606    5.9378   21.2366 N   0  0  0  0  0  0  0  0  0  0  0  0
    9.8932   11.6736   19.0677 O   0  0  0  0  0  0  0  0  0  0  0  0
    6.4470    4.5850   22.2321 C   0  0  0  0  0  0  0  0  0  0  0  0
    8.4619    6.9895   22.2968 C   0  0  0  0  0  0  0  0  0  0  0  0
   12.2747    7.5102   20.0420 C   0  0  0  0  0  0  0  0  0  0  0  0
   14.2544    6.2142   19.4191 C   0  0  0  0  0  0  0  0  0  0  0  0
   13.0695    6.3705   20.0375 N   0  0  0  0  0  0  0  0  0  0  0  0
    9.1913    8.0876   21.8361 N   0  0  0  0  0  0  0  0  0  0  0  0
   10.4739    9.4813   20.2889 C   0  0  0  0  0  0  0  0  0  0  0  0
    7.5551    7.1270   23.1200 O   0  0  0  0  0  0  0  0  0  0  0  0
  1 11  4  0
  1 21  4  0
  2  4  1  0
  2  8  1  0
  2 11  1  0
  3 10  4  0
  3 14  4  0
  4  5  1  0
  4 18  2  0
  6 12  1  0
  6 17  4  0
  6 23  4  0
  7  9  1  0
  7 13  4  0
  7 19  4  0
  9 20  1  0
 10 19  4  0
 11 25  4  0
 13 14  4  0
 15 16  4  0
 15 17  4  0
 15 21  4  0
 16 24  1  0
 16 25  4  0
 20 24  1  0
 20 26  2  0
 21 23  4  0
 22 23  1  0
M  END
$$$$

 Created by Python create_sdf_string function

 26 28  0  0  0  0  0  0  0  0999 V2000
   12.4616    8.6700   19.4180 N   0  0  0  0  0  0  0  0  0  0  0  0
   11.8329   10.8148   18.6769 N   0  0  0  0  0  0  0  0  0  0  0  0
    6.1021    2.5564   21.0678 C   0  0  0  0  0  0  0  0  0  0  0  0
   10.9097   11.8051   18.4804 C   0  0  0  0  0  0  0  0  0  0  0  0
   11.2280   12.9135   17.5669 C   0  0  0  0  0  0  0  0  0  0  0  0
   12.3782    5.4231   20.7777 C   0  0  0  0  0  0  0  0  0  0  0  0
    7.7365    4.6508   21.6987 C   0  0  0  0  0  0  0  0  0  0  0  0
   13.0186   11.0102   18.0020 C   0  0  0  0  0  0  0  0  0  0  0  0
    8.6628    5.7088   21.8871 N   0  0  0  0  0  0  0  0  0  0  0  0
    5.6516    3.5258   21.9140 C   0  0  0  0  0  0  0  0  0  0  0  0
   11.5863    9.6815   19.4539 C   0  0  0  0  0  0  0  0  0  0  0  0
   12.9648    4.1543   20.9205 C   0  0  0  0  0  0  0  0  0  0  0  0
    8.2089    3.6265   20.8929 C   0  0  0  0  0  0  0  0  0  0  0  0
    7.3827    2.5724   20.5432 C   0  0  0  0  0  0  0  0  0  0  0  0
   11.1529    7.2750   20.8025 C   0  0  0  0  0  0  0  0  0  0  0  0
   10.2573    8.3215   20.9827 C   0  0  0  0  0  0  0  0  0  0  0  0
   11.1606    5.9378   21.2366 N   0  0  0  0  0  0  0  0  0  0  0  0
    9.8932   11.6736   19.0677 O   0  0  0  0  0  0  0  0  0  0  0  0
    6.4470    4.5850   22.2321 C   0  0  0  0  0  0  0  0  0  0  0  0
    8.4619    6.9895   22.2968 C   0  0  0  0  0  0  0  0  0  0  0  0
   12.2747    7.5102   20.0420 C   0  0  0  0  0  0  0  0  0  0  0  0
   14.2544    6.2142   19.4191 C   0  0  0  0  0  0  0  0  0  0  0  0
   13.0695    6.3705   20.0375 N   0  0  0  0  0  0  0  0  0  0  0  0
    9.1913    8.0876   21.8361 N   0  0  0  0  0  0  0  0  0  0  0  0
   10.4739    9.4813   20.2889 C   0  0  0  0  0  0  0  0  0  0  0  0
    7.5551    7.1270   23.1200 O   0  0  0  0  0  0  0  0  0  0  0  0
  1 11  4  0
  1 21  4  0
  2  4  1  0
  2  8  1  0
  2 11  1  0
  3 10  4  0
  3 14  4  0
  4  5  1  0
  4 18  2  0
  6 12  1  0
  6 17  4  0
  6 23  4  0
  7  9  1  0
  7 13  4  0
  7 19  4  0
  9 20  1  0
 10 19  4  0
 11 25  4  0
 13 14  4  0
 15 16  4  0
 15 17  4  0
 15 21  4  0
 16 24  1  0
 16 25  4  0
 20 24  1  0
 20 26  2  0
 21 23  4  0
 22 23  1  0
M  END
$$$$

 Created by Python create_sdf_string function

 26 28  0  0  0  0  0  0  0  0999 V2000
   12.4616    8.6700   19.4180 N   0  0  0  0  0  0  0  0  0  0  0  0
   11.8329   10.8148   18.6769 N   0  0  0  0  0  0  0  0  0  0  0  0
    6.1021    2.5564   21.0678 C   0  0  0  0  0  0  0  0  0  0  0  0
   10.9097   11.8051   18.4804 C   0  0  0  0  0  0  0  0  0  0  0  0
   11.2280   12.9135   17.5669 C   0  0  0  0  0  0  0  0  0  0  0  0
   12.3782    5.4231   20.7777 C   0  0  0  0  0  0  0  0  0  0  0  0
    7.7365    4.6508   21.6987 C   0  0  0  0  0  0  0  0  0  0  0  0
   13.0186   11.0102   18.0020 C   0  0  0  0  0  0  0  0  0  0  0  0
    8.6628    5.7088   21.8871 N   0  0  0  0  0  0  0  0  0  0  0  0
    5.6516    3.5258   21.9140 C   0  0  0  0  0  0  0  0  0  0  0  0
   11.5863    9.6815   19.4539 C   0  0  0  0  0  0  0  0  0  0  0  0
   12.9648    4.1543   20.9205 C   0  0  0  0  0  0  0  0  0  0  0  0
    8.2089    3.6265   20.8929 C   0  0  0  0  0  0  0  0  0  0  0  0
    7.3827    2.5724   20.5432 C   0  0  0  0  0  0  0  0  0  0  0  0
   11.1529    7.2750   20.8025 C   0  0  0  0  0  0  0  0  0  0  0  0
   10.2573    8.3215   20.9827 C   0  0  0  0  0  0  0  0  0  0  0  0
   11.1606    5.9378   21.2366 N   0  0  0  0  0  0  0  0  0  0  0  0
    9.8932   11.6736   19.0677 O   0  0  0  0  0  0  0  0  0  0  0  0
    6.4470    4.5850   22.2321 C   0  0  0  0  0  0  0  0  0  0  0  0
    8.4619    6.9895   22.2968 C   0  0  0  0  0  0  0  0  0  0  0  0
   12.2747    7.5102   20.0420 C   0  0  0  0  0  0  0  0  0  0  0  0
   14.2544    6.2142   19.4191 C   0  0  0  0  0  0  0  0  0  0  0  0
   13.0695    6.3705   20.0375 N   0  0  0  0  0  0  0  0  0  0  0  0
    9.1913    8.0876   21.8361 N   0  0  0  0  0  0  0  0  0  0  0  0
   10.4739    9.4813   20.2889 C   0  0  0  0  0  0  0  0  0  0  0  0
    7.5551    7.1270   23.1200 O   0  0  0  0  0  0  0  0  0  0  0  0
  1 11  4  0
  1 21  4  0
  2  4  1  0
  2  8  1  0
  2 11  1  0
  3 10  4  0
  3 14  4  0
  4  5  1  0
  4 18  2  0
  6 12  1  0
  6 17  4  0
  6 23  4  0
  7  9  1  0
  7 13  4  0
  7 19  4  0
  9 20  1  0
 10 19  4  0
 11 25  4  0
 13 14  4  0
 15 16  4  0
 15 17  4  0
 15 21  4  0
 16 24  1  0
 16 25  4  0
 20 24  1  0
 20 26  2  0
 21 23  4  0
 22 23  1  0
M  END
$$$$

 Created by Python create_sdf_string function

 26 28  0  0  0  0  0  0  0  0999 V2000
   12.4616    8.6700   19.4180 N   0  0  0  0  0  0  0  0  0  0  0  0
   11.8329   10.8148   18.6769 N   0  0  0  0  0  0  0  0  0  0  0  0
    6.1021    2.5564   21.0678 C   0  0  0  0  0  0  0  0  0  0  0  0
   10.9097   11.8051   18.4804 C   0  0  0  0  0  0  0  0  0  0  0  0
   11.2280   12.9135   17.5669 C   0  0  0  0  0  0  0  0  0  0  0  0
   12.3782    5.4231   20.7777 C   0  0  0  0  0  0  0  0  0  0  0  0
    7.7365    4.6508   21.6987 C   0  0  0  0  0  0  0  0  0  0  0  0
   13.0186   11.0102   18.0020 C   0  0  0  0  0  0  0  0  0  0  0  0
    8.6628    5.7088   21.8871 N   0  0  0  0  0  0  0  0  0  0  0  0
    5.6516    3.5258   21.9140 C   0  0  0  0  0  0  0  0  0  0  0  0
   11.5863    9.6815   19.4539 C   0  0  0  0  0  0  0  0  0  0  0  0
   12.9648    4.1543   20.9205 C   0  0  0  0  0  0  0  0  0  0  0  0
    8.2089    3.6265   20.8929 C   0  0  0  0  0  0  0  0  0  0  0  0
    7.3827    2.5724   20.5432 C   0  0  0  0  0  0  0  0  0  0  0  0
   11.1529    7.2750   20.8025 C   0  0  0  0  0  0  0  0  0  0  0  0
   10.2573    8.3215   20.9827 C   0  0  0  0  0  0  0  0  0  0  0  0
   11.1606    5.9378   21.2366 N   0  0  0  0  0  0  0  0  0  0  0  0
    9.8932   11.6736   19.0677 O   0  0  0  0  0  0  0  0  0  0  0  0
    6.4470    4.5850   22.2321 C   0  0  0  0  0  0  0  0  0  0  0  0
    8.4619    6.9895   22.2968 C   0  0  0  0  0  0  0  0  0  0  0  0
   12.2747    7.5102   20.0420 C   0  0  0  0  0  0  0  0  0  0  0  0
   14.2544    6.2142   19.4191 C   0  0  0  0  0  0  0  0  0  0  0  0
   13.0695    6.3705   20.0375 N   0  0  0  0  0  0  0  0  0  0  0  0
    9.1913    8.0876   21.8361 N   0  0  0  0  0  0  0  0  0  0  0  0
   10.4739    9.4813   20.2889 C   0  0  0  0  0  0  0  0  0  0  0  0
    7.5551    7.1270   23.1200 O   0  0  0  0  0  0  0  0  0  0  0  0
  1 11  4  0
  1 21  4  0
  2  4  1  0
  2  8  1  0
  2 11  1  0
  3 10  4  0
  3 14  4  0
  4  5  1  0
  4 18  2  0
  6 12  1  0
  6 17  4  0
  6 23  4  0
  7  9  1  0
  7 13  4  0
  7 19  4  0
  9 20  1  0
 10 19  4  0
 11 25  4  0
 13 14  4  0
 15 16  4  0
 15 17  4  0
 15 21  4  0
 16 24  1  0
 16 25  4  0
 20 24  1  0
 20 26  2  0
 21 23  4  0
 22 23  1  0
M  END
$$$$

 Created by Python create_sdf_string function

 26 28  0  0  0  0  0  0  0  0999 V2000
   12.4616    8.6700   19.4180 N   0  0  0  0  0  0  0  0  0  0  0  0
   11.8329   10.8148   18.6769 N   0  0  0  0  0  0  0  0  0  0  0  0
    6.1021    2.5564   21.0678 C   0  0  0  0  0  0  0  0  0  0  0  0
   10.9097   11.8051   18.4804 C   0  0  0  0  0  0  0  0  0  0  0  0
   11.2280   12.9135   17.5669 C   0  0  0  0  0  0  0  0  0  0  0  0
   12.3782    5.4231   20.7777 C   0  0  0  0  0  0  0  0  0  0  0  0
    7.7365    4.6508   21.6987 C   0  0  0  0  0  0  0  0  0  0  0  0
   13.0186   11.0102   18.0020 C   0  0  0  0  0  0  0  0  0  0  0  0
    8.6628    5.7088   21.8871 N   0  0  0  0  0  0  0  0  0  0  0  0
    5.6516    3.5258   21.9140 C   0  0  0  0  0  0  0  0  0  0  0  0
   11.5863    9.6815   19.4539 C   0  0  0  0  0  0  0  0  0  0  0  0
   12.9648    4.1543   20.9205 C   0  0  0  0  0  0  0  0  0  0  0  0
    8.2089    3.6265   20.8929 C   0  0  0  0  0  0  0  0  0  0  0  0
    7.3827    2.5724   20.5432 C   0  0  0  0  0  0  0  0  0  0  0  0
   11.1529    7.2750   20.8025 C   0  0  0  0  0  0  0  0  0  0  0  0
   10.2573    8.3215   20.9827 C   0  0  0  0  0  0  0  0  0  0  0  0
   11.1606    5.9378   21.2366 N   0  0  0  0  0  0  0  0  0  0  0  0
    9.8932   11.6736   19.0677 O   0  0  0  0  0  0  0  0  0  0  0  0
    6.4470    4.5850   22.2321 C   0  0  0  0  0  0  0  0  0  0  0  0
    8.4619    6.9895   22.2968 C   0  0  0  0  0  0  0  0  0  0  0  0
   12.2747    7.5102   20.0420 C   0  0  0  0  0  0  0  0  0  0  0  0
   14.2544    6.2142   19.4191 C   0  0  0  0  0  0  0  0  0  0  0  0
   13.0695    6.3705   20.0375 N   0  0  0  0  0  0  0  0  0  0  0  0
    9.1913    8.0876   21.8361 N   0  0  0  0  0  0  0  0  0  0  0  0
   10.4739    9.4813   20.2889 C   0  0  0  0  0  0  0  0  0  0  0  0
    7.5551    7.1270   23.1200 O   0  0  0  0  0  0  0  0  0  0  0  0
  1 11  4  0
  1 21  4  0
  2  4  1  0
  2  8  1  0
  2 11  1  0
  3 10  4  0
  3 14  4  0
  4  5  1  0
  4 18  2  0
  6 12  1  0
  6 17  4  0
  6 23  4  0
  7  9  1  0
  7 13  4  0
  7 19  4  0
  9 20  1  0
 10 19  4  0
 11 25  4  0
 13 14  4  0
 15 16  4  0
 15 17  4  0
 15 21  4  0
 16 24  1  0
 16 25  4  0
 20 24  1  0
 20 26  2  0
 21 23  4  0
 22 23  1  0
M  END
$$$$

 Created by Python create_sdf_string function

 26 28  0  0  0  0  0  0  0  0999 V2000
   12.4616    8.6700   19.4180 N   0  0  0  0  0  0  0  0  0  0  0  0
   11.8329   10.8148   18.6769 N   0  0  0  0  0  0  0  0  0  0  0  0
    6.1021    2.5564   21.0678 C   0  0  0  0  0  0  0  0  0  0  0  0
   10.9097   11.8051   18.4804 C   0  0  0  0  0  0  0  0  0  0  0  0
   11.2280   12.9135   17.5669 C   0  0  0  0  0  0  0  0  0  0  0  0
   12.3782    5.4231   20.7777 C   0  0  0  0  0  0  0  0  0  0  0  0
    7.7365    4.6508   21.6987 C   0  0  0  0  0  0  0  0  0  0  0  0
   13.0186   11.0102   18.0020 C   0  0  0  0  0  0  0  0  0  0  0  0
    8.6628    5.7088   21.8871 N   0  0  0  0  0  0  0  0  0  0  0  0
    5.6516    3.5258   21.9140 C   0  0  0  0  0  0  0  0  0  0  0  0
   11.5863    9.6815   19.4539 C   0  0  0  0  0  0  0  0  0  0  0  0
   12.9648    4.1543   20.9205 C   0  0  0  0  0  0  0  0  0  0  0  0
    8.2089    3.6265   20.8929 C   0  0  0  0  0  0  0  0  0  0  0  0
    7.3827    2.5724   20.5432 C   0  0  0  0  0  0  0  0  0  0  0  0
   11.1529    7.2750   20.8025 C   0  0  0  0  0  0  0  0  0  0  0  0
   10.2573    8.3215   20.9827 C   0  0  0  0  0  0  0  0  0  0  0  0
   11.1606    5.9378   21.2366 N   0  0  0  0  0  0  0  0  0  0  0  0
    9.8932   11.6736   19.0677 O   0  0  0  0  0  0  0  0  0  0  0  0
    6.4470    4.5850   22.2321 C   0  0  0  0  0  0  0  0  0  0  0  0
    8.4619    6.9895   22.2968 C   0  0  0  0  0  0  0  0  0  0  0  0
   12.2747    7.5102   20.0420 C   0  0  0  0  0  0  0  0  0  0  0  0
   14.2544    6.2142   19.4191 C   0  0  0  0  0  0  0  0  0  0  0  0
   13.0695    6.3705   20.0375 N   0  0  0  0  0  0  0  0  0  0  0  0
    9.1913    8.0876   21.8361 N   0  0  0  0  0  0  0  0  0  0  0  0
   10.4739    9.4813   20.2889 C   0  0  0  0  0  0  0  0  0  0  0  0
    7.5551    7.1270   23.1200 O   0  0  0  0  0  0  0  0  0  0  0  0
  1 11  4  0
  1 21  4  0
  2  4  1  0
  2  8  1  0
  2 11  1  0
  3 10  4  0
  3 14  4  0
  4  5  1  0
  4 18  2  0
  6 12  1  0
  6 17  4  0
  6 23  4  0
  7  9  1  0
  7 13  4  0
  7 19  4  0
  9 20  1  0
 10 19  4  0
 11 25  4  0
 13 14  4  0
 15 16  4  0
 15 17  4  0
 15 21  4  0
 16 24  1  0
 16 25  4  0
 20 24  1  0
 20 26  2  0
 21 23  4  0
 22 23  1  0
M  END
$$$$

 Created by Python create_sdf_string function

 26 28  0  0  0  0  0  0  0  0999 V2000
   12.4616    8.6700   19.4180 N   0  0  0  0  0  0  0  0  0  0  0  0
   11.8329   10.8148   18.6769 N   0  0  0  0  0  0  0  0  0  0  0  0
    6.1021    2.5564   21.0678 C   0  0  0  0  0  0  0  0  0  0  0  0
   10.9097   11.8051   18.4804 C   0  0  0  0  0  0  0  0  0  0  0  0
   11.2280   12.9135   17.5669 C   0  0  0  0  0  0  0  0  0  0  0  0
   12.3782    5.4231   20.7777 C   0  0  0  0  0  0  0  0  0  0  0  0
    7.7365    4.6508   21.6987 C   0  0  0  0  0  0  0  0  0  0  0  0
   13.0186   11.0102   18.0020 C   0  0  0  0  0  0  0  0  0  0  0  0
    8.6628    5.7088   21.8871 N   0  0  0  0  0  0  0  0  0  0  0  0
    5.6516    3.5258   21.9140 C   0  0  0  0  0  0  0  0  0  0  0  0
   11.5863    9.6815   19.4539 C   0  0  0  0  0  0  0  0  0  0  0  0
   12.9648    4.1543   20.9205 C   0  0  0  0  0  0  0  0  0  0  0  0
    8.2089    3.6265   20.8929 C   0  0  0  0  0  0  0  0  0  0  0  0
    7.3827    2.5724   20.5432 C   0  0  0  0  0  0  0  0  0  0  0  0
   11.1529    7.2750   20.8025 C   0  0  0  0  0  0  0  0  0  0  0  0
   10.2573    8.3215   20.9827 C   0  0  0  0  0  0  0  0  0  0  0  0
   11.1606    5.9378   21.2366 N   0  0  0  0  0  0  0  0  0  0  0  0
    9.8932   11.6736   19.0677 O   0  0  0  0  0  0  0  0  0  0  0  0
    6.4470    4.5850   22.2321 C   0  0  0  0  0  0  0  0  0  0  0  0
    8.4619    6.9895   22.2968 C   0  0  0  0  0  0  0  0  0  0  0  0
   12.2747    7.5102   20.0420 C   0  0  0  0  0  0  0  0  0  0  0  0
   14.2544    6.2142   19.4191 C   0  0  0  0  0  0  0  0  0  0  0  0
   13.0695    6.3705   20.0375 N   0  0  0  0  0  0  0  0  0  0  0  0
    9.1913    8.0876   21.8361 N   0  0  0  0  0  0  0  0  0  0  0  0
   10.4739    9.4813   20.2889 C   0  0  0  0  0  0  0  0  0  0  0  0
    7.5551    7.1270   23.1200 O   0  0  0  0  0  0  0  0  0  0  0  0
  1 11  4  0
  1 21  4  0
  2  4  1  0
  2  8  1  0
  2 11  1  0
  3 10  4  0
  3 14  4  0
  4  5  1  0
  4 18  2  0
  6 12  1  0
  6 17  4  0
  6 23  4  0
  7  9  1  0
  7 13  4  0
  7 19  4  0
  9 20  1  0
 10 19  4  0
 11 25  4  0
 13 14  4  0
 15 16  4  0
 15 17  4  0
 15 21  4  0
 16 24  1  0
 16 25  4  0
 20 24  1  0
 20 26  2  0
 21 23  4  0
 22 23  1  0
M  END
$$$$

 Created by Python create_sdf_string function

 26 28  0  0  0  0  0  0  0  0999 V2000
   12.4616    8.6700   19.4180 N   0  0  0  0  0  0  0  0  0  0  0  0
   11.8329   10.8148   18.6769 N   0  0  0  0  0  0  0  0  0  0  0  0
    6.1021    2.5564   21.0678 C   0  0  0  0  0  0  0  0  0  0  0  0
   10.9097   11.8051   18.4804 C   0  0  0  0  0  0  0  0  0  0  0  0
   11.2280   12.9135   17.5669 C   0  0  0  0  0  0  0  0  0  0  0  0
   12.3782    5.4231   20.7777 C   0  0  0  0  0  0  0  0  0  0  0  0
    7.7365    4.6508   21.6987 C   0  0  0  0  0  0  0  0  0  0  0  0
   13.0186   11.0102   18.0020 C   0  0  0  0  0  0  0  0  0  0  0  0
    8.6628    5.7088   21.8871 N   0  0  0  0  0  0  0  0  0  0  0  0
    5.6516    3.5258   21.9140 C   0  0  0  0  0  0  0  0  0  0  0  0
   11.5863    9.6815   19.4539 C   0  0  0  0  0  0  0  0  0  0  0  0
   12.9648    4.1543   20.9205 C   0  0  0  0  0  0  0  0  0  0  0  0
    8.2089    3.6265   20.8929 C   0  0  0  0  0  0  0  0  0  0  0  0
    7.3827    2.5724   20.5432 C   0  0  0  0  0  0  0  0  0  0  0  0
   11.1529    7.2750   20.8025 C   0  0  0  0  0  0  0  0  0  0  0  0
   10.2573    8.3215   20.9827 C   0  0  0  0  0  0  0  0  0  0  0  0
   11.1606    5.9378   21.2366 N   0  0  0  0  0  0  0  0  0  0  0  0
    9.8932   11.6736   19.0677 O   0  0  0  0  0  0  0  0  0  0  0  0
    6.4470    4.5850   22.2321 C   0  0  0  0  0  0  0  0  0  0  0  0
    8.4619    6.9895   22.2968 C   0  0  0  0  0  0  0  0  0  0  0  0
   12.2747    7.5102   20.0420 C   0  0  0  0  0  0  0  0  0  0  0  0
   14.2544    6.2142   19.4191 C   0  0  0  0  0  0  0  0  0  0  0  0
   13.0695    6.3705   20.0375 N   0  0  0  0  0  0  0  0  0  0  0  0
    9.1913    8.0876   21.8361 N   0  0  0  0  0  0  0  0  0  0  0  0
   10.4739    9.4813   20.2889 C   0  0  0  0  0  0  0  0  0  0  0  0
    7.5551    7.1270   23.1200 O   0  0  0  0  0  0  0  0  0  0  0  0
  1 11  4  0
  1 21  4  0
  2  4  1  0
  2  8  1  0
  2 11  1  0
  3 10  4  0
  3 14  4  0
  4  5  1  0
  4 18  2  0
  6 12  1  0
  6 17  4  0
  6 23  4  0
  7  9  1  0
  7 13  4  0
  7 19  4  0
  9 20  1  0
 10 19  4  0
 11 25  4  0
 13 14  4  0
 15 16  4  0
 15 17  4  0
 15 21  4  0
 16 24  1  0
 16 25  4  0
 20 24  1  0
 20 26  2  0
 21 23  4  0
 22 23  1  0
M  END
$$$$

 Created by Python create_sdf_string function

 26 28  0  0  0  0  0  0  0  0999 V2000
   12.4616    8.6700   19.4180 N   0  0  0  0  0  0  0  0  0  0  0  0
   11.8329   10.8148   18.6769 N   0  0  0  0  0  0  0  0  0  0  0  0
    6.1021    2.5564   21.0678 C   0  0  0  0  0  0  0  0  0  0  0  0
   10.9097   11.8051   18.4804 C   0  0  0  0  0  0  0  0  0  0  0  0
   11.2280   12.9135   17.5669 C   0  0  0  0  0  0  0  0  0  0  0  0
   12.3782    5.4231   20.7777 C   0  0  0  0  0  0  0  0  0  0  0  0
    7.7365    4.6508   21.6987 C   0  0  0  0  0  0  0  0  0  0  0  0
   13.0186   11.0102   18.0020 C   0  0  0  0  0  0  0  0  0  0  0  0
    8.6628    5.7088   21.8871 N   0  0  0  0  0  0  0  0  0  0  0  0
    5.6516    3.5258   21.9140 C   0  0  0  0  0  0  0  0  0  0  0  0
   11.5863    9.6815   19.4539 C   0  0  0  0  0  0  0  0  0  0  0  0
   12.9648    4.1543   20.9205 C   0  0  0  0  0  0  0  0  0  0  0  0
    8.2089    3.6265   20.8929 C   0  0  0  0  0  0  0  0  0  0  0  0
    7.3827    2.5724   20.5432 C   0  0  0  0  0  0  0  0  0  0  0  0
   11.1529    7.2750   20.8025 C   0  0  0  0  0  0  0  0  0  0  0  0
   10.2573    8.3215   20.9827 C   0  0  0  0  0  0  0  0  0  0  0  0
   11.1606    5.9378   21.2366 N   0  0  0  0  0  0  0  0  0  0  0  0
    9.8932   11.6736   19.0677 O   0  0  0  0  0  0  0  0  0  0  0  0
    6.4470    4.5850   22.2321 C   0  0  0  0  0  0  0  0  0  0  0  0
    8.4619    6.9895   22.2968 C   0  0  0  0  0  0  0  0  0  0  0  0
   12.2747    7.5102   20.0420 C   0  0  0  0  0  0  0  0  0  0  0  0
   14.2544    6.2142   19.4191 C   0  0  0  0  0  0  0  0  0  0  0  0
   13.0695    6.3705   20.0375 N   0  0  0  0  0  0  0  0  0  0  0  0
    9.1913    8.0876   21.8361 N   0  0  0  0  0  0  0  0  0  0  0  0
   10.4739    9.4813   20.2889 C   0  0  0  0  0  0  0  0  0  0  0  0
    7.5551    7.1270   23.1200 O   0  0  0  0  0  0  0  0  0  0  0  0
  1 11  4  0
  1 21  4  0
  2  4  1  0
  2  8  1  0
  2 11  1  0
  3 10  4  0
  3 14  4  0
  4  5  1  0
  4 18  2  0
  6 12  1  0
  6 17  4  0
  6 23  4  0
  7  9  1  0
  7 13  4  0
  7 19  4  0
  9 20  1  0
 10 19  4  0
 11 25  4  0
 13 14  4  0
 15 16  4  0
 15 17  4  0
 15 21  4  0
 16 24  1  0
 16 25  4  0
 20 24  1  0
 20 26  2  0
 21 23  4  0
 22 23  1  0
M  END
$$$$

 Created by Python create_sdf_string function

 26 28  0  0  0  0  0  0  0  0999 V2000
   12.4616    8.6700   19.4180 N   0  0  0  0  0  0  0  0  0  0  0  0
   11.8329   10.8148   18.6769 N   0  0  0  0  0  0  0  0  0  0  0  0
    6.1021    2.5564   21.0678 C   0  0  0  0  0  0  0  0  0  0  0  0
   10.9097   11.8051   18.4804 C   0  0  0  0  0  0  0  0  0  0  0  0
   11.2280   12.9135   17.5669 C   0  0  0  0  0  0  0  0  0  0  0  0
   12.3782    5.4231   20.7777 C   0  0  0  0  0  0  0  0  0  0  0  0
    7.7365    4.6508   21.6987 C   0  0  0  0  0  0  0  0  0  0  0  0
   13.0186   11.0102   18.0020 C   0  0  0  0  0  0  0  0  0  0  0  0
    8.6628    5.7088   21.8871 N   0  0  0  0  0  0  0  0  0  0  0  0
    5.6516    3.5258   21.9140 C   0  0  0  0  0  0  0  0  0  0  0  0
   11.5863    9.6815   19.4539 C   0  0  0  0  0  0  0  0  0  0  0  0
   12.9648    4.1543   20.9205 C   0  0  0  0  0  0  0  0  0  0  0  0
    8.2089    3.6265   20.8929 C   0  0  0  0  0  0  0  0  0  0  0  0
    7.3827    2.5724   20.5432 C   0  0  0  0  0  0  0  0  0  0  0  0
   11.1529    7.2750   20.8025 C   0  0  0  0  0  0  0  0  0  0  0  0
   10.2573    8.3215   20.9827 C   0  0  0  0  0  0  0  0  0  0  0  0
   11.1606    5.9378   21.2366 N   0  0  0  0  0  0  0  0  0  0  0  0
    9.8932   11.6736   19.0677 O   0  0  0  0  0  0  0  0  0  0  0  0
    6.4470    4.5850   22.2321 C   0  0  0  0  0  0  0  0  0  0  0  0
    8.4619    6.9895   22.2968 C   0  0  0  0  0  0  0  0  0  0  0  0
   12.2747    7.5102   20.0420 C   0  0  0  0  0  0  0  0  0  0  0  0
   14.2544    6.2142   19.4191 C   0  0  0  0  0  0  0  0  0  0  0  0
   13.0695    6.3705   20.0375 N   0  0  0  0  0  0  0  0  0  0  0  0
    9.1913    8.0876   21.8361 N   0  0  0  0  0  0  0  0  0  0  0  0
   10.4739    9.4813   20.2889 C   0  0  0  0  0  0  0  0  0  0  0  0
    7.5551    7.1270   23.1200 O   0  0  0  0  0  0  0  0  0  0  0  0
  1 11  4  0
  1 21  4  0
  2  4  1  0
  2  8  1  0
  2 11  1  0
  3 10  4  0
  3 14  4  0
  4  5  1  0
  4 18  2  0
  6 12  1  0
  6 17  4  0
  6 23  4  0
  7  9  1  0
  7 13  4  0
  7 19  4  0
  9 20  1  0
 10 19  4  0
 11 25  4  0
 13 14  4  0
 15 16  4  0
 15 17  4  0
 15 21  4  0
 16 24  1  0
 16 25  4  0
 20 24  1  0
 20 26  2  0
 21 23  4  0
 22 23  1  0
M  END
$$$$

 Created by Python create_sdf_string function

 26 28  0  0  0  0  0  0  0  0999 V2000
   12.4616    8.6700   19.4180 N   0  0  0  0  0  0  0  0  0  0  0  0
   11.8329   10.8148   18.6769 N   0  0  0  0  0  0  0  0  0  0  0  0
    6.1021    2.5564   21.0678 C   0  0  0  0  0  0  0  0  0  0  0  0
   10.9097   11.8051   18.4804 C   0  0  0  0  0  0  0  0  0  0  0  0
   11.2280   12.9135   17.5669 C   0  0  0  0  0  0  0  0  0  0  0  0
   12.3782    5.4231   20.7777 C   0  0  0  0  0  0  0  0  0  0  0  0
    7.7365    4.6508   21.6987 C   0  0  0  0  0  0  0  0  0  0  0  0
   13.0186   11.0102   18.0020 C   0  0  0  0  0  0  0  0  0  0  0  0
    8.6628    5.7088   21.8871 N   0  0  0  0  0  0  0  0  0  0  0  0
    5.6516    3.5258   21.9140 C   0  0  0  0  0  0  0  0  0  0  0  0
   11.5863    9.6815   19.4539 C   0  0  0  0  0  0  0  0  0  0  0  0
   12.9648    4.1543   20.9205 C   0  0  0  0  0  0  0  0  0  0  0  0
    8.2089    3.6265   20.8929 C   0  0  0  0  0  0  0  0  0  0  0  0
    7.3827    2.5724   20.5432 C   0  0  0  0  0  0  0  0  0  0  0  0
   11.1529    7.2750   20.8025 C   0  0  0  0  0  0  0  0  0  0  0  0
   10.2573    8.3215   20.9827 C   0  0  0  0  0  0  0  0  0  0  0  0
   11.1606    5.9378   21.2366 N   0  0  0  0  0  0  0  0  0  0  0  0
    9.8932   11.6736   19.0677 O   0  0  0  0  0  0  0  0  0  0  0  0
    6.4470    4.5850   22.2321 C   0  0  0  0  0  0  0  0  0  0  0  0
    8.4619    6.9895   22.2968 C   0  0  0  0  0  0  0  0  0  0  0  0
   12.2747    7.5102   20.0420 C   0  0  0  0  0  0  0  0  0  0  0  0
   14.2544    6.2142   19.4191 C   0  0  0  0  0  0  0  0  0  0  0  0
   13.0695    6.3705   20.0375 N   0  0  0  0  0  0  0  0  0  0  0  0
    9.1913    8.0876   21.8361 N   0  0  0  0  0  0  0  0  0  0  0  0
   10.4739    9.4813   20.2889 C   0  0  0  0  0  0  0  0  0  0  0  0
    7.5551    7.1270   23.1200 O   0  0  0  0  0  0  0  0  0  0  0  0
  1 11  4  0
  1 21  4  0
  2  4  1  0
  2  8  1  0
  2 11  1  0
  3 10  4  0
  3 14  4  0
  4  5  1  0
  4 18  2  0
  6 12  1  0
  6 17  4  0
  6 23  4  0
  7  9  1  0
  7 13  4  0
  7 19  4  0
  9 20  1  0
 10 19  4  0
 11 25  4  0
 13 14  4  0
 15 16  4  0
 15 17  4  0
 15 21  4  0
 16 24  1  0
 16 25  4  0
 20 24  1  0
 20 26  2  0
 21 23  4  0
 22 23  1  0
M  END
$$$$

 Created by Python create_sdf_string function

 26 28  0  0  0  0  0  0  0  0999 V2000
   12.4616    8.6700   19.4180 N   0  0  0  0  0  0  0  0  0  0  0  0
   11.8329   10.8148   18.6769 N   0  0  0  0  0  0  0  0  0  0  0  0
    6.1021    2.5564   21.0678 C   0  0  0  0  0  0  0  0  0  0  0  0
   10.9097   11.8051   18.4804 C   0  0  0  0  0  0  0  0  0  0  0  0
   11.2280   12.9135   17.5669 C   0  0  0  0  0  0  0  0  0  0  0  0
   12.3782    5.4231   20.7777 C   0  0  0  0  0  0  0  0  0  0  0  0
    7.7365    4.6508   21.6987 C   0  0  0  0  0  0  0  0  0  0  0  0
   13.0186   11.0102   18.0020 C   0  0  0  0  0  0  0  0  0  0  0  0
    8.6628    5.7088   21.8871 N   0  0  0  0  0  0  0  0  0  0  0  0
    5.6516    3.5258   21.9140 C   0  0  0  0  0  0  0  0  0  0  0  0
   11.5863    9.6815   19.4539 C   0  0  0  0  0  0  0  0  0  0  0  0
   12.9648    4.1543   20.9205 C   0  0  0  0  0  0  0  0  0  0  0  0
    8.2089    3.6265   20.8929 C   0  0  0  0  0  0  0  0  0  0  0  0
    7.3827    2.5724   20.5432 C   0  0  0  0  0  0  0  0  0  0  0  0
   11.1529    7.2750   20.8025 C   0  0  0  0  0  0  0  0  0  0  0  0
   10.2573    8.3215   20.9827 C   0  0  0  0  0  0  0  0  0  0  0  0
   11.1606    5.9378   21.2366 N   0  0  0  0  0  0  0  0  0  0  0  0
    9.8932   11.6736   19.0677 O   0  0  0  0  0  0  0  0  0  0  0  0
    6.4470    4.5850   22.2321 C   0  0  0  0  0  0  0  0  0  0  0  0
    8.4619    6.9895   22.2968 C   0  0  0  0  0  0  0  0  0  0  0  0
   12.2747    7.5102   20.0420 C   0  0  0  0  0  0  0  0  0  0  0  0
   14.2544    6.2142   19.4191 C   0  0  0  0  0  0  0  0  0  0  0  0
   13.0695    6.3705   20.0375 N   0  0  0  0  0  0  0  0  0  0  0  0
    9.1913    8.0876   21.8361 N   0  0  0  0  0  0  0  0  0  0  0  0
   10.4739    9.4813   20.2889 C   0  0  0  0  0  0  0  0  0  0  0  0
    7.5551    7.1270   23.1200 O   0  0  0  0  0  0  0  0  0  0  0  0
  1 11  4  0
  1 21  4  0
  2  4  1  0
  2  8  1  0
  2 11  1  0
  3 10  4  0
  3 14  4  0
  4  5  1  0
  4 18  2  0
  6 12  1  0
  6 17  4  0
  6 23  4  0
  7  9  1  0
  7 13  4  0
  7 19  4  0
  9 20  1  0
 10 19  4  0
 11 25  4  0
 13 14  4  0
 15 16  4  0
 15 17  4  0
 15 21  4  0
 16 24  1  0
 16 25  4  0
 20 24  1  0
 20 26  2  0
 21 23  4  0
 22 23  1  0
M  END
$$$$

 Created by Python create_sdf_string function

 26 28  0  0  0  0  0  0  0  0999 V2000
   12.4616    8.6700   19.4180 N   0  0  0  0  0  0  0  0  0  0  0  0
   11.8329   10.8148   18.6769 N   0  0  0  0  0  0  0  0  0  0  0  0
    6.1021    2.5564   21.0678 C   0  0  0  0  0  0  0  0  0  0  0  0
   10.9097   11.8051   18.4804 C   0  0  0  0  0  0  0  0  0  0  0  0
   11.2280   12.9135   17.5669 C   0  0  0  0  0  0  0  0  0  0  0  0
   12.3782    5.4231   20.7777 C   0  0  0  0  0  0  0  0  0  0  0  0
    7.7365    4.6508   21.6987 C   0  0  0  0  0  0  0  0  0  0  0  0
   13.0186   11.0102   18.0020 C   0  0  0  0  0  0  0  0  0  0  0  0
    8.6628    5.7088   21.8871 N   0  0  0  0  0  0  0  0  0  0  0  0
    5.6516    3.5258   21.9140 C   0  0  0  0  0  0  0  0  0  0  0  0
   11.5863    9.6815   19.4539 C   0  0  0  0  0  0  0  0  0  0  0  0
   12.9648    4.1543   20.9205 C   0  0  0  0  0  0  0  0  0  0  0  0
    8.2089    3.6265   20.8929 C   0  0  0  0  0  0  0  0  0  0  0  0
    7.3827    2.5724   20.5432 C   0  0  0  0  0  0  0  0  0  0  0  0
   11.1529    7.2750   20.8025 C   0  0  0  0  0  0  0  0  0  0  0  0
   10.2573    8.3215   20.9827 C   0  0  0  0  0  0  0  0  0  0  0  0
   11.1606    5.9378   21.2366 N   0  0  0  0  0  0  0  0  0  0  0  0
    9.8932   11.6736   19.0677 O   0  0  0  0  0  0  0  0  0  0  0  0
    6.4470    4.5850   22.2321 C   0  0  0  0  0  0  0  0  0  0  0  0
    8.4619    6.9895   22.2968 C   0  0  0  0  0  0  0  0  0  0  0  0
   12.2747    7.5102   20.0420 C   0  0  0  0  0  0  0  0  0  0  0  0
   14.2544    6.2142   19.4191 C   0  0  0  0  0  0  0  0  0  0  0  0
   13.0695    6.3705   20.0375 N   0  0  0  0  0  0  0  0  0  0  0  0
    9.1913    8.0876   21.8361 N   0  0  0  0  0  0  0  0  0  0  0  0
   10.4739    9.4813   20.2889 C   0  0  0  0  0  0  0  0  0  0  0  0
    7.5551    7.1270   23.1200 O   0  0  0  0  0  0  0  0  0  0  0  0
  1 11  4  0
  1 21  4  0
  2  4  1  0
  2  8  1  0
  2 11  1  0
  3 10  4  0
  3 14  4  0
  4  5  1  0
  4 18  2  0
  6 12  1  0
  6 17  4  0
  6 23  4  0
  7  9  1  0
  7 13  4  0
  7 19  4  0
  9 20  1  0
 10 19  4  0
 11 25  4  0
 13 14  4  0
 15 16  4  0
 15 17  4  0
 15 21  4  0
 16 24  1  0
 16 25  4  0
 20 24  1  0
 20 26  2  0
 21 23  4  0
 22 23  1  0
M  END
$$$$

 Created by Python create_sdf_string function

 26 28  0  0  0  0  0  0  0  0999 V2000
   12.4616    8.6700   19.4180 N   0  0  0  0  0  0  0  0  0  0  0  0
   11.8329   10.8148   18.6769 N   0  0  0  0  0  0  0  0  0  0  0  0
    6.1021    2.5564   21.0678 C   0  0  0  0  0  0  0  0  0  0  0  0
   10.9097   11.8051   18.4804 C   0  0  0  0  0  0  0  0  0  0  0  0
   11.2280   12.9135   17.5669 C   0  0  0  0  0  0  0  0  0  0  0  0
   12.3782    5.4231   20.7777 C   0  0  0  0  0  0  0  0  0  0  0  0
    7.7365    4.6508   21.6987 C   0  0  0  0  0  0  0  0  0  0  0  0
   13.0186   11.0102   18.0020 C   0  0  0  0  0  0  0  0  0  0  0  0
    8.6628    5.7088   21.8871 N   0  0  0  0  0  0  0  0  0  0  0  0
    5.6516    3.5258   21.9140 C   0  0  0  0  0  0  0  0  0  0  0  0
   11.5863    9.6815   19.4539 C   0  0  0  0  0  0  0  0  0  0  0  0
   12.9648    4.1543   20.9205 C   0  0  0  0  0  0  0  0  0  0  0  0
    8.2089    3.6265   20.8929 C   0  0  0  0  0  0  0  0  0  0  0  0
    7.3827    2.5724   20.5432 C   0  0  0  0  0  0  0  0  0  0  0  0
   11.1529    7.2750   20.8025 C   0  0  0  0  0  0  0  0  0  0  0  0
   10.2573    8.3215   20.9827 C   0  0  0  0  0  0  0  0  0  0  0  0
   11.1606    5.9378   21.2366 N   0  0  0  0  0  0  0  0  0  0  0  0
    9.8932   11.6736   19.0677 O   0  0  0  0  0  0  0  0  0  0  0  0
    6.4470    4.5850   22.2321 C   0  0  0  0  0  0  0  0  0  0  0  0
    8.4619    6.9895   22.2968 C   0  0  0  0  0  0  0  0  0  0  0  0
   12.2747    7.5102   20.0420 C   0  0  0  0  0  0  0  0  0  0  0  0
   14.2544    6.2142   19.4191 C   0  0  0  0  0  0  0  0  0  0  0  0
   13.0695    6.3705   20.0375 N   0  0  0  0  0  0  0  0  0  0  0  0
    9.1913    8.0876   21.8361 N   0  0  0  0  0  0  0  0  0  0  0  0
   10.4739    9.4813   20.2889 C   0  0  0  0  0  0  0  0  0  0  0  0
    7.5551    7.1270   23.1200 O   0  0  0  0  0  0  0  0  0  0  0  0
  1 11  4  0
  1 21  4  0
  2  4  1  0
  2  8  1  0
  2 11  1  0
  3 10  4  0
  3 14  4  0
  4  5  1  0
  4 18  2  0
  6 12  1  0
  6 17  4  0
  6 23  4  0
  7  9  1  0
  7 13  4  0
  7 19  4  0
  9 20  1  0
 10 19  4  0
 11 25  4  0
 13 14  4  0
 15 16  4  0
 15 17  4  0
 15 21  4  0
 16 24  1  0
 16 25  4  0
 20 24  1  0
 20 26  2  0
 21 23  4  0
 22 23  1  0
M  END
$$$$

 Created by Python create_sdf_string function

 26 28  0  0  0  0  0  0  0  0999 V2000
   12.4616    8.6700   19.4180 N   0  0  0  0  0  0  0  0  0  0  0  0
   11.8329   10.8148   18.6769 N   0  0  0  0  0  0  0  0  0  0  0  0
    6.1021    2.5564   21.0678 C   0  0  0  0  0  0  0  0  0  0  0  0
   10.9097   11.8051   18.4804 C   0  0  0  0  0  0  0  0  0  0  0  0
   11.2280   12.9135   17.5669 C   0  0  0  0  0  0  0  0  0  0  0  0
   12.3782    5.4231   20.7777 C   0  0  0  0  0  0  0  0  0  0  0  0
    7.7365    4.6508   21.6987 C   0  0  0  0  0  0  0  0  0  0  0  0
   13.0186   11.0102   18.0020 C   0  0  0  0  0  0  0  0  0  0  0  0
    8.6628    5.7088   21.8871 N   0  0  0  0  0  0  0  0  0  0  0  0
    5.6516    3.5258   21.9140 C   0  0  0  0  0  0  0  0  0  0  0  0
   11.5863    9.6815   19.4539 C   0  0  0  0  0  0  0  0  0  0  0  0
   12.9648    4.1543   20.9205 C   0  0  0  0  0  0  0  0  0  0  0  0
    8.2089    3.6265   20.8929 C   0  0  0  0  0  0  0  0  0  0  0  0
    7.3827    2.5724   20.5432 C   0  0  0  0  0  0  0  0  0  0  0  0
   11.1529    7.2750   20.8025 C   0  0  0  0  0  0  0  0  0  0  0  0
   10.2573    8.3215   20.9827 C   0  0  0  0  0  0  0  0  0  0  0  0
   11.1606    5.9378   21.2366 N   0  0  0  0  0  0  0  0  0  0  0  0
    9.8932   11.6736   19.0677 O   0  0  0  0  0  0  0  0  0  0  0  0
    6.4470    4.5850   22.2321 C   0  0  0  0  0  0  0  0  0  0  0  0
    8.4619    6.9895   22.2968 C   0  0  0  0  0  0  0  0  0  0  0  0
   12.2747    7.5102   20.0420 C   0  0  0  0  0  0  0  0  0  0  0  0
   14.2544    6.2142   19.4191 C   0  0  0  0  0  0  0  0  0  0  0  0
   13.0695    6.3705   20.0375 N   0  0  0  0  0  0  0  0  0  0  0  0
    9.1913    8.0876   21.8361 N   0  0  0  0  0  0  0  0  0  0  0  0
   10.4739    9.4813   20.2889 C   0  0  0  0  0  0  0  0  0  0  0  0
    7.5551    7.1270   23.1200 O   0  0  0  0  0  0  0  0  0  0  0  0
  1 11  4  0
  1 21  4  0
  2  4  1  0
  2  8  1  0
  2 11  1  0
  3 10  4  0
  3 14  4  0
  4  5  1  0
  4 18  2  0
  6 12  1  0
  6 17  4  0
  6 23  4  0
  7  9  1  0
  7 13  4  0
  7 19  4  0
  9 20  1  0
 10 19  4  0
 11 25  4  0
 13 14  4  0
 15 16  4  0
 15 17  4  0
 15 21  4  0
 16 24  1  0
 16 25  4  0
 20 24  1  0
 20 26  2  0
 21 23  4  0
 22 23  1  0
M  END
$$$$

 Created by Python create_sdf_string function

 26 28  0  0  0  0  0  0  0  0999 V2000
   12.4616    8.6700   19.4180 N   0  0  0  0  0  0  0  0  0  0  0  0
   11.8329   10.8148   18.6769 N   0  0  0  0  0  0  0  0  0  0  0  0
    6.1021    2.5564   21.0678 C   0  0  0  0  0  0  0  0  0  0  0  0
   10.9097   11.8051   18.4804 C   0  0  0  0  0  0  0  0  0  0  0  0
   11.2280   12.9135   17.5669 C   0  0  0  0  0  0  0  0  0  0  0  0
   12.3782    5.4231   20.7777 C   0  0  0  0  0  0  0  0  0  0  0  0
    7.7365    4.6508   21.6987 C   0  0  0  0  0  0  0  0  0  0  0  0
   13.0186   11.0102   18.0020 C   0  0  0  0  0  0  0  0  0  0  0  0
    8.6628    5.7088   21.8871 N   0  0  0  0  0  0  0  0  0  0  0  0
    5.6516    3.5258   21.9140 C   0  0  0  0  0  0  0  0  0  0  0  0
   11.5863    9.6815   19.4539 C   0  0  0  0  0  0  0  0  0  0  0  0
   12.9648    4.1543   20.9205 C   0  0  0  0  0  0  0  0  0  0  0  0
    8.2089    3.6265   20.8929 C   0  0  0  0  0  0  0  0  0  0  0  0
    7.3827    2.5724   20.5432 C   0  0  0  0  0  0  0  0  0  0  0  0
   11.1529    7.2750   20.8025 C   0  0  0  0  0  0  0  0  0  0  0  0
   10.2573    8.3215   20.9827 C   0  0  0  0  0  0  0  0  0  0  0  0
   11.1606    5.9378   21.2366 N   0  0  0  0  0  0  0  0  0  0  0  0
    9.8932   11.6736   19.0677 O   0  0  0  0  0  0  0  0  0  0  0  0
    6.4470    4.5850   22.2321 C   0  0  0  0  0  0  0  0  0  0  0  0
    8.4619    6.9895   22.2968 C   0  0  0  0  0  0  0  0  0  0  0  0
   12.2747    7.5102   20.0420 C   0  0  0  0  0  0  0  0  0  0  0  0
   14.2544    6.2142   19.4191 C   0  0  0  0  0  0  0  0  0  0  0  0
   13.0695    6.3705   20.0375 N   0  0  0  0  0  0  0  0  0  0  0  0
    9.1913    8.0876   21.8361 N   0  0  0  0  0  0  0  0  0  0  0  0
   10.4739    9.4813   20.2889 C   0  0  0  0  0  0  0  0  0  0  0  0
    7.5551    7.1270   23.1200 O   0  0  0  0  0  0  0  0  0  0  0  0
  1 11  4  0
  1 21  4  0
  2  4  1  0
  2  8  1  0
  2 11  1  0
  3 10  4  0
  3 14  4  0
  4  5  1  0
  4 18  2  0
  6 12  1  0
  6 17  4  0
  6 23  4  0
  7  9  1  0
  7 13  4  0
  7 19  4  0
  9 20  1  0
 10 19  4  0
 11 25  4  0
 13 14  4  0
 15 16  4  0
 15 17  4  0
 15 21  4  0
 16 24  1  0
 16 25  4  0
 20 24  1  0
 20 26  2  0
 21 23  4  0
 22 23  1  0
M  END
$$$$

 Created by Python create_sdf_string function

 26 28  0  0  0  0  0  0  0  0999 V2000
   12.4616    8.6700   19.4180 N   0  0  0  0  0  0  0  0  0  0  0  0
   11.8329   10.8148   18.6769 N   0  0  0  0  0  0  0  0  0  0  0  0
    6.1021    2.5564   21.0678 C   0  0  0  0  0  0  0  0  0  0  0  0
   10.9097   11.8051   18.4804 C   0  0  0  0  0  0  0  0  0  0  0  0
   11.2280   12.9135   17.5669 C   0  0  0  0  0  0  0  0  0  0  0  0
   12.3782    5.4231   20.7777 C   0  0  0  0  0  0  0  0  0  0  0  0
    7.7365    4.6508   21.6987 C   0  0  0  0  0  0  0  0  0  0  0  0
   13.0186   11.0102   18.0020 C   0  0  0  0  0  0  0  0  0  0  0  0
    8.6628    5.7088   21.8871 N   0  0  0  0  0  0  0  0  0  0  0  0
    5.6516    3.5258   21.9140 C   0  0  0  0  0  0  0  0  0  0  0  0
   11.5863    9.6815   19.4539 C   0  0  0  0  0  0  0  0  0  0  0  0
   12.9648    4.1543   20.9205 C   0  0  0  0  0  0  0  0  0  0  0  0
    8.2089    3.6265   20.8929 C   0  0  0  0  0  0  0  0  0  0  0  0
    7.3827    2.5724   20.5432 C   0  0  0  0  0  0  0  0  0  0  0  0
   11.1529    7.2750   20.8025 C   0  0  0  0  0  0  0  0  0  0  0  0
   10.2573    8.3215   20.9827 C   0  0  0  0  0  0  0  0  0  0  0  0
   11.1606    5.9378   21.2366 N   0  0  0  0  0  0  0  0  0  0  0  0
    9.8932   11.6736   19.0677 O   0  0  0  0  0  0  0  0  0  0  0  0
    6.4470    4.5850   22.2321 C   0  0  0  0  0  0  0  0  0  0  0  0
    8.4619    6.9895   22.2968 C   0  0  0  0  0  0  0  0  0  0  0  0
   12.2747    7.5102   20.0420 C   0  0  0  0  0  0  0  0  0  0  0  0
   14.2544    6.2142   19.4191 C   0  0  0  0  0  0  0  0  0  0  0  0
   13.0695    6.3705   20.0375 N   0  0  0  0  0  0  0  0  0  0  0  0
    9.1913    8.0876   21.8361 N   0  0  0  0  0  0  0  0  0  0  0  0
   10.4739    9.4813   20.2889 C   0  0  0  0  0  0  0  0  0  0  0  0
    7.5551    7.1270   23.1200 O   0  0  0  0  0  0  0  0  0  0  0  0
  1 11  4  0
  1 21  4  0
  2  4  1  0
  2  8  1  0
  2 11  1  0
  3 10  4  0
  3 14  4  0
  4  5  1  0
  4 18  2  0
  6 12  1  0
  6 17  4  0
  6 23  4  0
  7  9  1  0
  7 13  4  0
  7 19  4  0
  9 20  1  0
 10 19  4  0
 11 25  4  0
 13 14  4  0
 15 16  4  0
 15 17  4  0
 15 21  4  0
 16 24  1  0
 16 25  4  0
 20 24  1  0
 20 26  2  0
 21 23  4  0
 22 23  1  0
M  END
$$$$

 Created by Python create_sdf_string function

 26 28  0  0  0  0  0  0  0  0999 V2000
   12.4616    8.6700   19.4180 N   0  0  0  0  0  0  0  0  0  0  0  0
   11.8329   10.8148   18.6769 N   0  0  0  0  0  0  0  0  0  0  0  0
    6.1021    2.5564   21.0678 C   0  0  0  0  0  0  0  0  0  0  0  0
   10.9097   11.8051   18.4804 C   0  0  0  0  0  0  0  0  0  0  0  0
   11.2280   12.9135   17.5669 C   0  0  0  0  0  0  0  0  0  0  0  0
   12.3782    5.4231   20.7777 C   0  0  0  0  0  0  0  0  0  0  0  0
    7.7365    4.6508   21.6987 C   0  0  0  0  0  0  0  0  0  0  0  0
   13.0186   11.0102   18.0020 C   0  0  0  0  0  0  0  0  0  0  0  0
    8.6628    5.7088   21.8871 N   0  0  0  0  0  0  0  0  0  0  0  0
    5.6516    3.5258   21.9140 C   0  0  0  0  0  0  0  0  0  0  0  0
   11.5863    9.6815   19.4539 C   0  0  0  0  0  0  0  0  0  0  0  0
   12.9648    4.1543   20.9205 C   0  0  0  0  0  0  0  0  0  0  0  0
    8.2089    3.6265   20.8929 C   0  0  0  0  0  0  0  0  0  0  0  0
    7.3827    2.5724   20.5432 C   0  0  0  0  0  0  0  0  0  0  0  0
   11.1529    7.2750   20.8025 C   0  0  0  0  0  0  0  0  0  0  0  0
   10.2573    8.3215   20.9827 C   0  0  0  0  0  0  0  0  0  0  0  0
   11.1606    5.9378   21.2366 N   0  0  0  0  0  0  0  0  0  0  0  0
    9.8932   11.6736   19.0677 O   0  0  0  0  0  0  0  0  0  0  0  0
    6.4470    4.5850   22.2321 C   0  0  0  0  0  0  0  0  0  0  0  0
    8.4619    6.9895   22.2968 C   0  0  0  0  0  0  0  0  0  0  0  0
   12.2747    7.5102   20.0420 C   0  0  0  0  0  0  0  0  0  0  0  0
   14.2544    6.2142   19.4191 C   0  0  0  0  0  0  0  0  0  0  0  0
   13.0695    6.3705   20.0375 N   0  0  0  0  0  0  0  0  0  0  0  0
    9.1913    8.0876   21.8361 N   0  0  0  0  0  0  0  0  0  0  0  0
   10.4739    9.4813   20.2889 C   0  0  0  0  0  0  0  0  0  0  0  0
    7.5551    7.1270   23.1200 O   0  0  0  0  0  0  0  0  0  0  0  0
  1 11  4  0
  1 21  4  0
  2  4  1  0
  2  8  1  0
  2 11  1  0
  3 10  4  0
  3 14  4  0
  4  5  1  0
  4 18  2  0
  6 12  1  0
  6 17  4  0
  6 23  4  0
  7  9  1  0
  7 13  4  0
  7 19  4  0
  9 20  1  0
 10 19  4  0
 11 25  4  0
 13 14  4  0
 15 16  4  0
 15 17  4  0
 15 21  4  0
 16 24  1  0
 16 25  4  0
 20 24  1  0
 20 26  2  0
 21 23  4  0
 22 23  1  0
M  END
$$$$

 Created by Python create_sdf_string function

 26 28  0  0  0  0  0  0  0  0999 V2000
   12.4616    8.6700   19.4180 N   0  0  0  0  0  0  0  0  0  0  0  0
   11.8329   10.8148   18.6769 N   0  0  0  0  0  0  0  0  0  0  0  0
    6.1021    2.5564   21.0678 C   0  0  0  0  0  0  0  0  0  0  0  0
   10.9097   11.8051   18.4804 C   0  0  0  0  0  0  0  0  0  0  0  0
   11.2280   12.9135   17.5669 C   0  0  0  0  0  0  0  0  0  0  0  0
   12.3782    5.4231   20.7777 C   0  0  0  0  0  0  0  0  0  0  0  0
    7.7365    4.6508   21.6987 C   0  0  0  0  0  0  0  0  0  0  0  0
   13.0186   11.0102   18.0020 C   0  0  0  0  0  0  0  0  0  0  0  0
    8.6628    5.7088   21.8871 N   0  0  0  0  0  0  0  0  0  0  0  0
    5.6516    3.5258   21.9140 C   0  0  0  0  0  0  0  0  0  0  0  0
   11.5863    9.6815   19.4539 C   0  0  0  0  0  0  0  0  0  0  0  0
   12.9648    4.1543   20.9205 C   0  0  0  0  0  0  0  0  0  0  0  0
    8.2089    3.6265   20.8929 C   0  0  0  0  0  0  0  0  0  0  0  0
    7.3827    2.5724   20.5432 C   0  0  0  0  0  0  0  0  0  0  0  0
   11.1529    7.2750   20.8025 C   0  0  0  0  0  0  0  0  0  0  0  0
   10.2573    8.3215   20.9827 C   0  0  0  0  0  0  0  0  0  0  0  0
   11.1606    5.9378   21.2366 N   0  0  0  0  0  0  0  0  0  0  0  0
    9.8932   11.6736   19.0677 O   0  0  0  0  0  0  0  0  0  0  0  0
    6.4470    4.5850   22.2321 C   0  0  0  0  0  0  0  0  0  0  0  0
    8.4619    6.9895   22.2968 C   0  0  0  0  0  0  0  0  0  0  0  0
   12.2747    7.5102   20.0420 C   0  0  0  0  0  0  0  0  0  0  0  0
   14.2544    6.2142   19.4191 C   0  0  0  0  0  0  0  0  0  0  0  0
   13.0695    6.3705   20.0375 N   0  0  0  0  0  0  0  0  0  0  0  0
    9.1913    8.0876   21.8361 N   0  0  0  0  0  0  0  0  0  0  0  0
   10.4739    9.4813   20.2889 C   0  0  0  0  0  0  0  0  0  0  0  0
    7.5551    7.1270   23.1200 O   0  0  0  0  0  0  0  0  0  0  0  0
  1 11  4  0
  1 21  4  0
  2  4  1  0
  2  8  1  0
  2 11  1  0
  3 10  4  0
  3 14  4  0
  4  5  1  0
  4 18  2  0
  6 12  1  0
  6 17  4  0
  6 23  4  0
  7  9  1  0
  7 13  4  0
  7 19  4  0
  9 20  1  0
 10 19  4  0
 11 25  4  0
 13 14  4  0
 15 16  4  0
 15 17  4  0
 15 21  4  0
 16 24  1  0
 16 25  4  0
 20 24  1  0
 20 26  2  0
 21 23  4  0
 22 23  1  0
M  END
$$$$

 Created by Python create_sdf_string function

 26 28  0  0  0  0  0  0  0  0999 V2000
   12.4616    8.6700   19.4180 N   0  0  0  0  0  0  0  0  0  0  0  0
   11.8329   10.8148   18.6769 N   0  0  0  0  0  0  0  0  0  0  0  0
    6.1021    2.5564   21.0678 C   0  0  0  0  0  0  0  0  0  0  0  0
   10.9097   11.8051   18.4804 C   0  0  0  0  0  0  0  0  0  0  0  0
   11.2280   12.9135   17.5669 C   0  0  0  0  0  0  0  0  0  0  0  0
   12.3782    5.4231   20.7777 C   0  0  0  0  0  0  0  0  0  0  0  0
    7.7365    4.6508   21.6987 C   0  0  0  0  0  0  0  0  0  0  0  0
   13.0186   11.0102   18.0020 C   0  0  0  0  0  0  0  0  0  0  0  0
    8.6628    5.7088   21.8871 N   0  0  0  0  0  0  0  0  0  0  0  0
    5.6516    3.5258   21.9140 C   0  0  0  0  0  0  0  0  0  0  0  0
   11.5863    9.6815   19.4539 C   0  0  0  0  0  0  0  0  0  0  0  0
   12.9648    4.1543   20.9205 C   0  0  0  0  0  0  0  0  0  0  0  0
    8.2089    3.6265   20.8929 C   0  0  0  0  0  0  0  0  0  0  0  0
    7.3827    2.5724   20.5432 C   0  0  0  0  0  0  0  0  0  0  0  0
   11.1529    7.2750   20.8025 C   0  0  0  0  0  0  0  0  0  0  0  0
   10.2573    8.3215   20.9827 C   0  0  0  0  0  0  0  0  0  0  0  0
   11.1606    5.9378   21.2366 N   0  0  0  0  0  0  0  0  0  0  0  0
    9.8932   11.6736   19.0677 O   0  0  0  0  0  0  0  0  0  0  0  0
    6.4470    4.5850   22.2321 C   0  0  0  0  0  0  0  0  0  0  0  0
    8.4619    6.9895   22.2968 C   0  0  0  0  0  0  0  0  0  0  0  0
   12.2747    7.5102   20.0420 C   0  0  0  0  0  0  0  0  0  0  0  0
   14.2544    6.2142   19.4191 C   0  0  0  0  0  0  0  0  0  0  0  0
   13.0695    6.3705   20.0375 N   0  0  0  0  0  0  0  0  0  0  0  0
    9.1913    8.0876   21.8361 N   0  0  0  0  0  0  0  0  0  0  0  0
   10.4739    9.4813   20.2889 C   0  0  0  0  0  0  0  0  0  0  0  0
    7.5551    7.1270   23.1200 O   0  0  0  0  0  0  0  0  0  0  0  0
  1 11  4  0
  1 21  4  0
  2  4  1  0
  2  8  1  0
  2 11  1  0
  3 10  4  0
  3 14  4  0
  4  5  1  0
  4 18  2  0
  6 12  1  0
  6 17  4  0
  6 23  4  0
  7  9  1  0
  7 13  4  0
  7 19  4  0
  9 20  1  0
 10 19  4  0
 11 25  4  0
 13 14  4  0
 15 16  4  0
 15 17  4  0
 15 21  4  0
 16 24  1  0
 16 25  4  0
 20 24  1  0
 20 26  2  0
 21 23  4  0
 22 23  1  0
M  END
$$$$

 Created by Python create_sdf_string function

 26 28  0  0  0  0  0  0  0  0999 V2000
   12.4616    8.6700   19.4180 N   0  0  0  0  0  0  0  0  0  0  0  0
   11.8329   10.8148   18.6769 N   0  0  0  0  0  0  0  0  0  0  0  0
    6.1021    2.5564   21.0678 C   0  0  0  0  0  0  0  0  0  0  0  0
   10.9097   11.8051   18.4804 C   0  0  0  0  0  0  0  0  0  0  0  0
   11.2280   12.9135   17.5669 C   0  0  0  0  0  0  0  0  0  0  0  0
   12.3782    5.4231   20.7777 C   0  0  0  0  0  0  0  0  0  0  0  0
    7.7365    4.6508   21.6987 C   0  0  0  0  0  0  0  0  0  0  0  0
   13.0186   11.0102   18.0020 C   0  0  0  0  0  0  0  0  0  0  0  0
    8.6628    5.7088   21.8871 N   0  0  0  0  0  0  0  0  0  0  0  0
    5.6516    3.5258   21.9140 C   0  0  0  0  0  0  0  0  0  0  0  0
   11.5863    9.6815   19.4539 C   0  0  0  0  0  0  0  0  0  0  0  0
   12.9648    4.1543   20.9205 C   0  0  0  0  0  0  0  0  0  0  0  0
    8.2089    3.6265   20.8929 C   0  0  0  0  0  0  0  0  0  0  0  0
    7.3827    2.5724   20.5432 C   0  0  0  0  0  0  0  0  0  0  0  0
   11.1529    7.2750   20.8025 C   0  0  0  0  0  0  0  0  0  0  0  0
   10.2573    8.3215   20.9827 C   0  0  0  0  0  0  0  0  0  0  0  0
   11.1606    5.9378   21.2366 N   0  0  0  0  0  0  0  0  0  0  0  0
    9.8932   11.6736   19.0677 O   0  0  0  0  0  0  0  0  0  0  0  0
    6.4470    4.5850   22.2321 C   0  0  0  0  0  0  0  0  0  0  0  0
    8.4619    6.9895   22.2968 C   0  0  0  0  0  0  0  0  0  0  0  0
   12.2747    7.5102   20.0420 C   0  0  0  0  0  0  0  0  0  0  0  0
   14.2544    6.2142   19.4191 C   0  0  0  0  0  0  0  0  0  0  0  0
   13.0695    6.3705   20.0375 N   0  0  0  0  0  0  0  0  0  0  0  0
    9.1913    8.0876   21.8361 N   0  0  0  0  0  0  0  0  0  0  0  0
   10.4739    9.4813   20.2889 C   0  0  0  0  0  0  0  0  0  0  0  0
    7.5551    7.1270   23.1200 O   0  0  0  0  0  0  0  0  0  0  0  0
  1 11  4  0
  1 21  4  0
  2  4  1  0
  2  8  1  0
  2 11  1  0
  3 10  4  0
  3 14  4  0
  4  5  1  0
  4 18  2  0
  6 12  1  0
  6 17  4  0
  6 23  4  0
  7  9  1  0
  7 13  4  0
  7 19  4  0
  9 20  1  0
 10 19  4  0
 11 25  4  0
 13 14  4  0
 15 16  4  0
 15 17  4  0
 15 21  4  0
 16 24  1  0
 16 25  4  0
 20 24  1  0
 20 26  2  0
 21 23  4  0
 22 23  1  0
M  END
$$$$

 Created by Python create_sdf_string function

 26 28  0  0  0  0  0  0  0  0999 V2000
   12.4616    8.6700   19.4180 N   0  0  0  0  0  0  0  0  0  0  0  0
   11.8329   10.8148   18.6769 N   0  0  0  0  0  0  0  0  0  0  0  0
    6.1021    2.5564   21.0678 C   0  0  0  0  0  0  0  0  0  0  0  0
   10.9097   11.8051   18.4804 C   0  0  0  0  0  0  0  0  0  0  0  0
   11.2280   12.9135   17.5669 C   0  0  0  0  0  0  0  0  0  0  0  0
   12.3782    5.4231   20.7777 C   0  0  0  0  0  0  0  0  0  0  0  0
    7.7365    4.6508   21.6987 C   0  0  0  0  0  0  0  0  0  0  0  0
   13.0186   11.0102   18.0020 C   0  0  0  0  0  0  0  0  0  0  0  0
    8.6628    5.7088   21.8871 N   0  0  0  0  0  0  0  0  0  0  0  0
    5.6516    3.5258   21.9140 C   0  0  0  0  0  0  0  0  0  0  0  0
   11.5863    9.6815   19.4539 C   0  0  0  0  0  0  0  0  0  0  0  0
   12.9648    4.1543   20.9205 C   0  0  0  0  0  0  0  0  0  0  0  0
    8.2089    3.6265   20.8929 C   0  0  0  0  0  0  0  0  0  0  0  0
    7.3827    2.5724   20.5432 C   0  0  0  0  0  0  0  0  0  0  0  0
   11.1529    7.2750   20.8025 C   0  0  0  0  0  0  0  0  0  0  0  0
   10.2573    8.3215   20.9827 C   0  0  0  0  0  0  0  0  0  0  0  0
   11.1606    5.9378   21.2366 N   0  0  0  0  0  0  0  0  0  0  0  0
    9.8932   11.6736   19.0677 O   0  0  0  0  0  0  0  0  0  0  0  0
    6.4470    4.5850   22.2321 C   0  0  0  0  0  0  0  0  0  0  0  0
    8.4619    6.9895   22.2968 C   0  0  0  0  0  0  0  0  0  0  0  0
   12.2747    7.5102   20.0420 C   0  0  0  0  0  0  0  0  0  0  0  0
   14.2544    6.2142   19.4191 C   0  0  0  0  0  0  0  0  0  0  0  0
   13.0695    6.3705   20.0375 N   0  0  0  0  0  0  0  0  0  0  0  0
    9.1913    8.0876   21.8361 N   0  0  0  0  0  0  0  0  0  0  0  0
   10.4739    9.4813   20.2889 C   0  0  0  0  0  0  0  0  0  0  0  0
    7.5551    7.1270   23.1200 O   0  0  0  0  0  0  0  0  0  0  0  0
  1 11  4  0
  1 21  4  0
  2  4  1  0
  2  8  1  0
  2 11  1  0
  3 10  4  0
  3 14  4  0
  4  5  1  0
  4 18  2  0
  6 12  1  0
  6 17  4  0
  6 23  4  0
  7  9  1  0
  7 13  4  0
  7 19  4  0
  9 20  1  0
 10 19  4  0
 11 25  4  0
 13 14  4  0
 15 16  4  0
 15 17  4  0
 15 21  4  0
 16 24  1  0
 16 25  4  0
 20 24  1  0
 20 26  2  0
 21 23  4  0
 22 23  1  0
M  END
$$$$

 Created by Python create_sdf_string function

 26 28  0  0  0  0  0  0  0  0999 V2000
   12.4616    8.6700   19.4180 N   0  0  0  0  0  0  0  0  0  0  0  0
   11.8329   10.8148   18.6769 N   0  0  0  0  0  0  0  0  0  0  0  0
    6.1021    2.5564   21.0678 C   0  0  0  0  0  0  0  0  0  0  0  0
   10.9097   11.8051   18.4804 C   0  0  0  0  0  0  0  0  0  0  0  0
   11.2280   12.9135   17.5669 C   0  0  0  0  0  0  0  0  0  0  0  0
   12.3782    5.4231   20.7777 C   0  0  0  0  0  0  0  0  0  0  0  0
    7.7365    4.6508   21.6987 C   0  0  0  0  0  0  0  0  0  0  0  0
   13.0186   11.0102   18.0020 C   0  0  0  0  0  0  0  0  0  0  0  0
    8.6628    5.7088   21.8871 N   0  0  0  0  0  0  0  0  0  0  0  0
    5.6516    3.5258   21.9140 C   0  0  0  0  0  0  0  0  0  0  0  0
   11.5863    9.6815   19.4539 C   0  0  0  0  0  0  0  0  0  0  0  0
   12.9648    4.1543   20.9205 C   0  0  0  0  0  0  0  0  0  0  0  0
    8.2089    3.6265   20.8929 C   0  0  0  0  0  0  0  0  0  0  0  0
    7.3827    2.5724   20.5432 C   0  0  0  0  0  0  0  0  0  0  0  0
   11.1529    7.2750   20.8025 C   0  0  0  0  0  0  0  0  0  0  0  0
   10.2573    8.3215   20.9827 C   0  0  0  0  0  0  0  0  0  0  0  0
   11.1606    5.9378   21.2366 N   0  0  0  0  0  0  0  0  0  0  0  0
    9.8932   11.6736   19.0677 O   0  0  0  0  0  0  0  0  0  0  0  0
    6.4470    4.5850   22.2321 C   0  0  0  0  0  0  0  0  0  0  0  0
    8.4619    6.9895   22.2968 C   0  0  0  0  0  0  0  0  0  0  0  0
   12.2747    7.5102   20.0420 C   0  0  0  0  0  0  0  0  0  0  0  0
   14.2544    6.2142   19.4191 C   0  0  0  0  0  0  0  0  0  0  0  0
   13.0695    6.3705   20.0375 N   0  0  0  0  0  0  0  0  0  0  0  0
    9.1913    8.0876   21.8361 N   0  0  0  0  0  0  0  0  0  0  0  0
   10.4739    9.4813   20.2889 C   0  0  0  0  0  0  0  0  0  0  0  0
    7.5551    7.1270   23.1200 O   0  0  0  0  0  0  0  0  0  0  0  0
  1 11  4  0
  1 21  4  0
  2  4  1  0
  2  8  1  0
  2 11  1  0
  3 10  4  0
  3 14  4  0
  4  5  1  0
  4 18  2  0
  6 12  1  0
  6 17  4  0
  6 23  4  0
  7  9  1  0
  7 13  4  0
  7 19  4  0
  9 20  1  0
 10 19  4  0
 11 25  4  0
 13 14  4  0
 15 16  4  0
 15 17  4  0
 15 21  4  0
 16 24  1  0
 16 25  4  0
 20 24  1  0
 20 26  2  0
 21 23  4  0
 22 23  1  0
M  END
$$$$

 Created by Python create_sdf_string function

 26 28  0  0  0  0  0  0  0  0999 V2000
   12.4616    8.6700   19.4180 N   0  0  0  0  0  0  0  0  0  0  0  0
   11.8329   10.8148   18.6769 N   0  0  0  0  0  0  0  0  0  0  0  0
    6.1021    2.5564   21.0678 C   0  0  0  0  0  0  0  0  0  0  0  0
   10.9097   11.8051   18.4804 C   0  0  0  0  0  0  0  0  0  0  0  0
   11.2280   12.9135   17.5669 C   0  0  0  0  0  0  0  0  0  0  0  0
   12.3782    5.4231   20.7777 C   0  0  0  0  0  0  0  0  0  0  0  0
    7.7365    4.6508   21.6987 C   0  0  0  0  0  0  0  0  0  0  0  0
   13.0186   11.0102   18.0020 C   0  0  0  0  0  0  0  0  0  0  0  0
    8.6628    5.7088   21.8871 N   0  0  0  0  0  0  0  0  0  0  0  0
    5.6516    3.5258   21.9140 C   0  0  0  0  0  0  0  0  0  0  0  0
   11.5863    9.6815   19.4539 C   0  0  0  0  0  0  0  0  0  0  0  0
   12.9648    4.1543   20.9205 C   0  0  0  0  0  0  0  0  0  0  0  0
    8.2089    3.6265   20.8929 C   0  0  0  0  0  0  0  0  0  0  0  0
    7.3827    2.5724   20.5432 C   0  0  0  0  0  0  0  0  0  0  0  0
   11.1529    7.2750   20.8025 C   0  0  0  0  0  0  0  0  0  0  0  0
   10.2573    8.3215   20.9827 C   0  0  0  0  0  0  0  0  0  0  0  0
   11.1606    5.9378   21.2366 N   0  0  0  0  0  0  0  0  0  0  0  0
    9.8932   11.6736   19.0677 O   0  0  0  0  0  0  0  0  0  0  0  0
    6.4470    4.5850   22.2321 C   0  0  0  0  0  0  0  0  0  0  0  0
    8.4619    6.9895   22.2968 C   0  0  0  0  0  0  0  0  0  0  0  0
   12.2747    7.5102   20.0420 C   0  0  0  0  0  0  0  0  0  0  0  0
   14.2544    6.2142   19.4191 C   0  0  0  0  0  0  0  0  0  0  0  0
   13.0695    6.3705   20.0375 N   0  0  0  0  0  0  0  0  0  0  0  0
    9.1913    8.0876   21.8361 N   0  0  0  0  0  0  0  0  0  0  0  0
   10.4739    9.4813   20.2889 C   0  0  0  0  0  0  0  0  0  0  0  0
    7.5551    7.1270   23.1200 O   0  0  0  0  0  0  0  0  0  0  0  0
  1 11  4  0
  1 21  4  0
  2  4  1  0
  2  8  1  0
  2 11  1  0
  3 10  4  0
  3 14  4  0
  4  5  1  0
  4 18  2  0
  6 12  1  0
  6 17  4  0
  6 23  4  0
  7  9  1  0
  7 13  4  0
  7 19  4  0
  9 20  1  0
 10 19  4  0
 11 25  4  0
 13 14  4  0
 15 16  4  0
 15 17  4  0
 15 21  4  0
 16 24  1  0
 16 25  4  0
 20 24  1  0
 20 26  2  0
 21 23  4  0
 22 23  1  0
M  END
$$$$

 Created by Python create_sdf_string function

 26 28  0  0  0  0  0  0  0  0999 V2000
   12.4616    8.6700   19.4180 N   0  0  0  0  0  0  0  0  0  0  0  0
   11.8329   10.8148   18.6769 N   0  0  0  0  0  0  0  0  0  0  0  0
    6.1021    2.5564   21.0678 C   0  0  0  0  0  0  0  0  0  0  0  0
   10.9097   11.8051   18.4804 C   0  0  0  0  0  0  0  0  0  0  0  0
   11.2280   12.9135   17.5669 C   0  0  0  0  0  0  0  0  0  0  0  0
   12.3782    5.4231   20.7777 C   0  0  0  0  0  0  0  0  0  0  0  0
    7.7365    4.6508   21.6987 C   0  0  0  0  0  0  0  0  0  0  0  0
   13.0186   11.0102   18.0020 C   0  0  0  0  0  0  0  0  0  0  0  0
    8.6628    5.7088   21.8871 N   0  0  0  0  0  0  0  0  0  0  0  0
    5.6516    3.5258   21.9140 C   0  0  0  0  0  0  0  0  0  0  0  0
   11.5863    9.6815   19.4539 C   0  0  0  0  0  0  0  0  0  0  0  0
   12.9648    4.1543   20.9205 C   0  0  0  0  0  0  0  0  0  0  0  0
    8.2089    3.6265   20.8929 C   0  0  0  0  0  0  0  0  0  0  0  0
    7.3827    2.5724   20.5432 C   0  0  0  0  0  0  0  0  0  0  0  0
   11.1529    7.2750   20.8025 C   0  0  0  0  0  0  0  0  0  0  0  0
   10.2573    8.3215   20.9827 C   0  0  0  0  0  0  0  0  0  0  0  0
   11.1606    5.9378   21.2366 N   0  0  0  0  0  0  0  0  0  0  0  0
    9.8932   11.6736   19.0677 O   0  0  0  0  0  0  0  0  0  0  0  0
    6.4470    4.5850   22.2321 C   0  0  0  0  0  0  0  0  0  0  0  0
    8.4619    6.9895   22.2968 C   0  0  0  0  0  0  0  0  0  0  0  0
   12.2747    7.5102   20.0420 C   0  0  0  0  0  0  0  0  0  0  0  0
   14.2544    6.2142   19.4191 C   0  0  0  0  0  0  0  0  0  0  0  0
   13.0695    6.3705   20.0375 N   0  0  0  0  0  0  0  0  0  0  0  0
    9.1913    8.0876   21.8361 N   0  0  0  0  0  0  0  0  0  0  0  0
   10.4739    9.4813   20.2889 C   0  0  0  0  0  0  0  0  0  0  0  0
    7.5551    7.1270   23.1200 O   0  0  0  0  0  0  0  0  0  0  0  0
  1 11  4  0
  1 21  4  0
  2  4  1  0
  2  8  1  0
  2 11  1  0
  3 10  4  0
  3 14  4  0
  4  5  1  0
  4 18  2  0
  6 12  1  0
  6 17  4  0
  6 23  4  0
  7  9  1  0
  7 13  4  0
  7 19  4  0
  9 20  1  0
 10 19  4  0
 11 25  4  0
 13 14  4  0
 15 16  4  0
 15 17  4  0
 15 21  4  0
 16 24  1  0
 16 25  4  0
 20 24  1  0
 20 26  2  0
 21 23  4  0
 22 23  1  0
M  END
$$$$

 Created by Python create_sdf_string function

 26 28  0  0  0  0  0  0  0  0999 V2000
   12.4616    8.6700   19.4180 N   0  0  0  0  0  0  0  0  0  0  0  0
   11.8329   10.8148   18.6769 N   0  0  0  0  0  0  0  0  0  0  0  0
    6.1021    2.5564   21.0678 C   0  0  0  0  0  0  0  0  0  0  0  0
   10.9097   11.8051   18.4804 C   0  0  0  0  0  0  0  0  0  0  0  0
   11.2280   12.9135   17.5669 C   0  0  0  0  0  0  0  0  0  0  0  0
   12.3782    5.4231   20.7777 C   0  0  0  0  0  0  0  0  0  0  0  0
    7.7365    4.6508   21.6987 C   0  0  0  0  0  0  0  0  0  0  0  0
   13.0186   11.0102   18.0020 C   0  0  0  0  0  0  0  0  0  0  0  0
    8.6628    5.7088   21.8871 N   0  0  0  0  0  0  0  0  0  0  0  0
    5.6516    3.5258   21.9140 C   0  0  0  0  0  0  0  0  0  0  0  0
   11.5863    9.6815   19.4539 C   0  0  0  0  0  0  0  0  0  0  0  0
   12.9648    4.1543   20.9205 C   0  0  0  0  0  0  0  0  0  0  0  0
    8.2089    3.6265   20.8929 C   0  0  0  0  0  0  0  0  0  0  0  0
    7.3827    2.5724   20.5432 C   0  0  0  0  0  0  0  0  0  0  0  0
   11.1529    7.2750   20.8025 C   0  0  0  0  0  0  0  0  0  0  0  0
   10.2573    8.3215   20.9827 C   0  0  0  0  0  0  0  0  0  0  0  0
   11.1606    5.9378   21.2366 N   0  0  0  0  0  0  0  0  0  0  0  0
    9.8932   11.6736   19.0677 O   0  0  0  0  0  0  0  0  0  0  0  0
    6.4470    4.5850   22.2321 C   0  0  0  0  0  0  0  0  0  0  0  0
    8.4619    6.9895   22.2968 C   0  0  0  0  0  0  0  0  0  0  0  0
   12.2747    7.5102   20.0420 C   0  0  0  0  0  0  0  0  0  0  0  0
   14.2544    6.2142   19.4191 C   0  0  0  0  0  0  0  0  0  0  0  0
   13.0695    6.3705   20.0375 N   0  0  0  0  0  0  0  0  0  0  0  0
    9.1913    8.0876   21.8361 N   0  0  0  0  0  0  0  0  0  0  0  0
   10.4739    9.4813   20.2889 C   0  0  0  0  0  0  0  0  0  0  0  0
    7.5551    7.1270   23.1200 O   0  0  0  0  0  0  0  0  0  0  0  0
  1 11  4  0
  1 21  4  0
  2  4  1  0
  2  8  1  0
  2 11  1  0
  3 10  4  0
  3 14  4  0
  4  5  1  0
  4 18  2  0
  6 12  1  0
  6 17  4  0
  6 23  4  0
  7  9  1  0
  7 13  4  0
  7 19  4  0
  9 20  1  0
 10 19  4  0
 11 25  4  0
 13 14  4  0
 15 16  4  0
 15 17  4  0
 15 21  4  0
 16 24  1  0
 16 25  4  0
 20 24  1  0
 20 26  2  0
 21 23  4  0
 22 23  1  0
M  END
$$$$

 Created by Python create_sdf_string function

 26 28  0  0  0  0  0  0  0  0999 V2000
   12.4616    8.6700   19.4180 N   0  0  0  0  0  0  0  0  0  0  0  0
   11.8329   10.8148   18.6769 N   0  0  0  0  0  0  0  0  0  0  0  0
    6.1021    2.5564   21.0678 C   0  0  0  0  0  0  0  0  0  0  0  0
   10.9097   11.8051   18.4804 C   0  0  0  0  0  0  0  0  0  0  0  0
   11.2280   12.9135   17.5669 C   0  0  0  0  0  0  0  0  0  0  0  0
   12.3782    5.4231   20.7777 C   0  0  0  0  0  0  0  0  0  0  0  0
    7.7365    4.6508   21.6987 C   0  0  0  0  0  0  0  0  0  0  0  0
   13.0186   11.0102   18.0020 C   0  0  0  0  0  0  0  0  0  0  0  0
    8.6628    5.7088   21.8871 N   0  0  0  0  0  0  0  0  0  0  0  0
    5.6516    3.5258   21.9140 C   0  0  0  0  0  0  0  0  0  0  0  0
   11.5863    9.6815   19.4539 C   0  0  0  0  0  0  0  0  0  0  0  0
   12.9648    4.1543   20.9205 C   0  0  0  0  0  0  0  0  0  0  0  0
    8.2089    3.6265   20.8929 C   0  0  0  0  0  0  0  0  0  0  0  0
    7.3827    2.5724   20.5432 C   0  0  0  0  0  0  0  0  0  0  0  0
   11.1529    7.2750   20.8025 C   0  0  0  0  0  0  0  0  0  0  0  0
   10.2573    8.3215   20.9827 C   0  0  0  0  0  0  0  0  0  0  0  0
   11.1606    5.9378   21.2366 N   0  0  0  0  0  0  0  0  0  0  0  0
    9.8932   11.6736   19.0677 O   0  0  0  0  0  0  0  0  0  0  0  0
    6.4470    4.5850   22.2321 C   0  0  0  0  0  0  0  0  0  0  0  0
    8.4619    6.9895   22.2968 C   0  0  0  0  0  0  0  0  0  0  0  0
   12.2747    7.5102   20.0420 C   0  0  0  0  0  0  0  0  0  0  0  0
   14.2544    6.2142   19.4191 C   0  0  0  0  0  0  0  0  0  0  0  0
   13.0695    6.3705   20.0375 N   0  0  0  0  0  0  0  0  0  0  0  0
    9.1913    8.0876   21.8361 N   0  0  0  0  0  0  0  0  0  0  0  0
   10.4739    9.4813   20.2889 C   0  0  0  0  0  0  0  0  0  0  0  0
    7.5551    7.1270   23.1200 O   0  0  0  0  0  0  0  0  0  0  0  0
  1 11  4  0
  1 21  4  0
  2  4  1  0
  2  8  1  0
  2 11  1  0
  3 10  4  0
  3 14  4  0
  4  5  1  0
  4 18  2  0
  6 12  1  0
  6 17  4  0
  6 23  4  0
  7  9  1  0
  7 13  4  0
  7 19  4  0
  9 20  1  0
 10 19  4  0
 11 25  4  0
 13 14  4  0
 15 16  4  0
 15 17  4  0
 15 21  4  0
 16 24  1  0
 16 25  4  0
 20 24  1  0
 20 26  2  0
 21 23  4  0
 22 23  1  0
M  END
$$$$

 Created by Python create_sdf_string function

 26 28  0  0  0  0  0  0  0  0999 V2000
   12.4616    8.6700   19.4180 N   0  0  0  0  0  0  0  0  0  0  0  0
   11.8329   10.8148   18.6769 N   0  0  0  0  0  0  0  0  0  0  0  0
    6.1021    2.5564   21.0678 C   0  0  0  0  0  0  0  0  0  0  0  0
   10.9097   11.8051   18.4804 C   0  0  0  0  0  0  0  0  0  0  0  0
   11.2280   12.9135   17.5669 C   0  0  0  0  0  0  0  0  0  0  0  0
   12.3782    5.4231   20.7777 C   0  0  0  0  0  0  0  0  0  0  0  0
    7.7365    4.6508   21.6987 C   0  0  0  0  0  0  0  0  0  0  0  0
   13.0186   11.0102   18.0020 C   0  0  0  0  0  0  0  0  0  0  0  0
    8.6628    5.7088   21.8871 N   0  0  0  0  0  0  0  0  0  0  0  0
    5.6516    3.5258   21.9140 C   0  0  0  0  0  0  0  0  0  0  0  0
   11.5863    9.6815   19.4539 C   0  0  0  0  0  0  0  0  0  0  0  0
   12.9648    4.1543   20.9205 C   0  0  0  0  0  0  0  0  0  0  0  0
    8.2089    3.6265   20.8929 C   0  0  0  0  0  0  0  0  0  0  0  0
    7.3827    2.5724   20.5432 C   0  0  0  0  0  0  0  0  0  0  0  0
   11.1529    7.2750   20.8025 C   0  0  0  0  0  0  0  0  0  0  0  0
   10.2573    8.3215   20.9827 C   0  0  0  0  0  0  0  0  0  0  0  0
   11.1606    5.9378   21.2366 N   0  0  0  0  0  0  0  0  0  0  0  0
    9.8932   11.6736   19.0677 O   0  0  0  0  0  0  0  0  0  0  0  0
    6.4470    4.5850   22.2321 C   0  0  0  0  0  0  0  0  0  0  0  0
    8.4619    6.9895   22.2968 C   0  0  0  0  0  0  0  0  0  0  0  0
   12.2747    7.5102   20.0420 C   0  0  0  0  0  0  0  0  0  0  0  0
   14.2544    6.2142   19.4191 C   0  0  0  0  0  0  0  0  0  0  0  0
   13.0695    6.3705   20.0375 N   0  0  0  0  0  0  0  0  0  0  0  0
    9.1913    8.0876   21.8361 N   0  0  0  0  0  0  0  0  0  0  0  0
   10.4739    9.4813   20.2889 C   0  0  0  0  0  0  0  0  0  0  0  0
    7.5551    7.1270   23.1200 O   0  0  0  0  0  0  0  0  0  0  0  0
  1 11  4  0
  1 21  4  0
  2  4  1  0
  2  8  1  0
  2 11  1  0
  3 10  4  0
  3 14  4  0
  4  5  1  0
  4 18  2  0
  6 12  1  0
  6 17  4  0
  6 23  4  0
  7  9  1  0
  7 13  4  0
  7 19  4  0
  9 20  1  0
 10 19  4  0
 11 25  4  0
 13 14  4  0
 15 16  4  0
 15 17  4  0
 15 21  4  0
 16 24  1  0
 16 25  4  0
 20 24  1  0
 20 26  2  0
 21 23  4  0
 22 23  1  0
M  END
$$$$

 Created by Python create_sdf_string function

 26 28  0  0  0  0  0  0  0  0999 V2000
   12.4616    8.6700   19.4180 N   0  0  0  0  0  0  0  0  0  0  0  0
   11.8329   10.8148   18.6769 N   0  0  0  0  0  0  0  0  0  0  0  0
    6.1021    2.5564   21.0678 C   0  0  0  0  0  0  0  0  0  0  0  0
   10.9097   11.8051   18.4804 C   0  0  0  0  0  0  0  0  0  0  0  0
   11.2280   12.9135   17.5669 C   0  0  0  0  0  0  0  0  0  0  0  0
   12.3782    5.4231   20.7777 C   0  0  0  0  0  0  0  0  0  0  0  0
    7.7365    4.6508   21.6987 C   0  0  0  0  0  0  0  0  0  0  0  0
   13.0186   11.0102   18.0020 C   0  0  0  0  0  0  0  0  0  0  0  0
    8.6628    5.7088   21.8871 N   0  0  0  0  0  0  0  0  0  0  0  0
    5.6516    3.5258   21.9140 C   0  0  0  0  0  0  0  0  0  0  0  0
   11.5863    9.6815   19.4539 C   0  0  0  0  0  0  0  0  0  0  0  0
   12.9648    4.1543   20.9205 C   0  0  0  0  0  0  0  0  0  0  0  0
    8.2089    3.6265   20.8929 C   0  0  0  0  0  0  0  0  0  0  0  0
    7.3827    2.5724   20.5432 C   0  0  0  0  0  0  0  0  0  0  0  0
   11.1529    7.2750   20.8025 C   0  0  0  0  0  0  0  0  0  0  0  0
   10.2573    8.3215   20.9827 C   0  0  0  0  0  0  0  0  0  0  0  0
   11.1606    5.9378   21.2366 N   0  0  0  0  0  0  0  0  0  0  0  0
    9.8932   11.6736   19.0677 O   0  0  0  0  0  0  0  0  0  0  0  0
    6.4470    4.5850   22.2321 C   0  0  0  0  0  0  0  0  0  0  0  0
    8.4619    6.9895   22.2968 C   0  0  0  0  0  0  0  0  0  0  0  0
   12.2747    7.5102   20.0420 C   0  0  0  0  0  0  0  0  0  0  0  0
   14.2544    6.2142   19.4191 C   0  0  0  0  0  0  0  0  0  0  0  0
   13.0695    6.3705   20.0375 N   0  0  0  0  0  0  0  0  0  0  0  0
    9.1913    8.0876   21.8361 N   0  0  0  0  0  0  0  0  0  0  0  0
   10.4739    9.4813   20.2889 C   0  0  0  0  0  0  0  0  0  0  0  0
    7.5551    7.1270   23.1200 O   0  0  0  0  0  0  0  0  0  0  0  0
  1 11  4  0
  1 21  4  0
  2  4  1  0
  2  8  1  0
  2 11  1  0
  3 10  4  0
  3 14  4  0
  4  5  1  0
  4 18  2  0
  6 12  1  0
  6 17  4  0
  6 23  4  0
  7  9  1  0
  7 13  4  0
  7 19  4  0
  9 20  1  0
 10 19  4  0
 11 25  4  0
 13 14  4  0
 15 16  4  0
 15 17  4  0
 15 21  4  0
 16 24  1  0
 16 25  4  0
 20 24  1  0
 20 26  2  0
 21 23  4  0
 22 23  1  0
M  END
$$$$

 Created by Python create_sdf_string function

 26 28  0  0  0  0  0  0  0  0999 V2000
   12.4616    8.6700   19.4180 N   0  0  0  0  0  0  0  0  0  0  0  0
   11.8329   10.8148   18.6769 N   0  0  0  0  0  0  0  0  0  0  0  0
    6.1021    2.5564   21.0678 C   0  0  0  0  0  0  0  0  0  0  0  0
   10.9097   11.8051   18.4804 C   0  0  0  0  0  0  0  0  0  0  0  0
   11.2280   12.9135   17.5669 C   0  0  0  0  0  0  0  0  0  0  0  0
   12.3782    5.4231   20.7777 C   0  0  0  0  0  0  0  0  0  0  0  0
    7.7365    4.6508   21.6987 C   0  0  0  0  0  0  0  0  0  0  0  0
   13.0186   11.0102   18.0020 C   0  0  0  0  0  0  0  0  0  0  0  0
    8.6628    5.7088   21.8871 N   0  0  0  0  0  0  0  0  0  0  0  0
    5.6516    3.5258   21.9140 C   0  0  0  0  0  0  0  0  0  0  0  0
   11.5863    9.6815   19.4539 C   0  0  0  0  0  0  0  0  0  0  0  0
   12.9648    4.1543   20.9205 C   0  0  0  0  0  0  0  0  0  0  0  0
    8.2089    3.6265   20.8929 C   0  0  0  0  0  0  0  0  0  0  0  0
    7.3827    2.5724   20.5432 C   0  0  0  0  0  0  0  0  0  0  0  0
   11.1529    7.2750   20.8025 C   0  0  0  0  0  0  0  0  0  0  0  0
   10.2573    8.3215   20.9827 C   0  0  0  0  0  0  0  0  0  0  0  0
   11.1606    5.9378   21.2366 N   0  0  0  0  0  0  0  0  0  0  0  0
    9.8932   11.6736   19.0677 O   0  0  0  0  0  0  0  0  0  0  0  0
    6.4470    4.5850   22.2321 C   0  0  0  0  0  0  0  0  0  0  0  0
    8.4619    6.9895   22.2968 C   0  0  0  0  0  0  0  0  0  0  0  0
   12.2747    7.5102   20.0420 C   0  0  0  0  0  0  0  0  0  0  0  0
   14.2544    6.2142   19.4191 C   0  0  0  0  0  0  0  0  0  0  0  0
   13.0695    6.3705   20.0375 N   0  0  0  0  0  0  0  0  0  0  0  0
    9.1913    8.0876   21.8361 N   0  0  0  0  0  0  0  0  0  0  0  0
   10.4739    9.4813   20.2889 C   0  0  0  0  0  0  0  0  0  0  0  0
    7.5551    7.1270   23.1200 O   0  0  0  0  0  0  0  0  0  0  0  0
  1 11  4  0
  1 21  4  0
  2  4  1  0
  2  8  1  0
  2 11  1  0
  3 10  4  0
  3 14  4  0
  4  5  1  0
  4 18  2  0
  6 12  1  0
  6 17  4  0
  6 23  4  0
  7  9  1  0
  7 13  4  0
  7 19  4  0
  9 20  1  0
 10 19  4  0
 11 25  4  0
 13 14  4  0
 15 16  4  0
 15 17  4  0
 15 21  4  0
 16 24  1  0
 16 25  4  0
 20 24  1  0
 20 26  2  0
 21 23  4  0
 22 23  1  0
M  END
$$$$

 Created by Python create_sdf_string function

 26 28  0  0  0  0  0  0  0  0999 V2000
   12.4616    8.6700   19.4180 N   0  0  0  0  0  0  0  0  0  0  0  0
   11.8329   10.8148   18.6769 N   0  0  0  0  0  0  0  0  0  0  0  0
    6.1021    2.5564   21.0678 C   0  0  0  0  0  0  0  0  0  0  0  0
   10.9097   11.8051   18.4804 C   0  0  0  0  0  0  0  0  0  0  0  0
   11.2280   12.9135   17.5669 C   0  0  0  0  0  0  0  0  0  0  0  0
   12.3782    5.4231   20.7777 C   0  0  0  0  0  0  0  0  0  0  0  0
    7.7365    4.6508   21.6987 C   0  0  0  0  0  0  0  0  0  0  0  0
   13.0186   11.0102   18.0020 C   0  0  0  0  0  0  0  0  0  0  0  0
    8.6628    5.7088   21.8871 N   0  0  0  0  0  0  0  0  0  0  0  0
    5.6516    3.5258   21.9140 C   0  0  0  0  0  0  0  0  0  0  0  0
   11.5863    9.6815   19.4539 C   0  0  0  0  0  0  0  0  0  0  0  0
   12.9648    4.1543   20.9205 C   0  0  0  0  0  0  0  0  0  0  0  0
    8.2089    3.6265   20.8929 C   0  0  0  0  0  0  0  0  0  0  0  0
    7.3827    2.5724   20.5432 C   0  0  0  0  0  0  0  0  0  0  0  0
   11.1529    7.2750   20.8025 C   0  0  0  0  0  0  0  0  0  0  0  0
   10.2573    8.3215   20.9827 C   0  0  0  0  0  0  0  0  0  0  0  0
   11.1606    5.9378   21.2366 N   0  0  0  0  0  0  0  0  0  0  0  0
    9.8932   11.6736   19.0677 O   0  0  0  0  0  0  0  0  0  0  0  0
    6.4470    4.5850   22.2321 C   0  0  0  0  0  0  0  0  0  0  0  0
    8.4619    6.9895   22.2968 C   0  0  0  0  0  0  0  0  0  0  0  0
   12.2747    7.5102   20.0420 C   0  0  0  0  0  0  0  0  0  0  0  0
   14.2544    6.2142   19.4191 C   0  0  0  0  0  0  0  0  0  0  0  0
   13.0695    6.3705   20.0375 N   0  0  0  0  0  0  0  0  0  0  0  0
    9.1913    8.0876   21.8361 N   0  0  0  0  0  0  0  0  0  0  0  0
   10.4739    9.4813   20.2889 C   0  0  0  0  0  0  0  0  0  0  0  0
    7.5551    7.1270   23.1200 O   0  0  0  0  0  0  0  0  0  0  0  0
  1 11  4  0
  1 21  4  0
  2  4  1  0
  2  8  1  0
  2 11  1  0
  3 10  4  0
  3 14  4  0
  4  5  1  0
  4 18  2  0
  6 12  1  0
  6 17  4  0
  6 23  4  0
  7  9  1  0
  7 13  4  0
  7 19  4  0
  9 20  1  0
 10 19  4  0
 11 25  4  0
 13 14  4  0
 15 16  4  0
 15 17  4  0
 15 21  4  0
 16 24  1  0
 16 25  4  0
 20 24  1  0
 20 26  2  0
 21 23  4  0
 22 23  1  0
M  END
$$$$

 Created by Python create_sdf_string function

 26 28  0  0  0  0  0  0  0  0999 V2000
   12.4616    8.6700   19.4180 N   0  0  0  0  0  0  0  0  0  0  0  0
   11.8329   10.8148   18.6769 N   0  0  0  0  0  0  0  0  0  0  0  0
    6.1021    2.5564   21.0678 C   0  0  0  0  0  0  0  0  0  0  0  0
   10.9097   11.8051   18.4804 C   0  0  0  0  0  0  0  0  0  0  0  0
   11.2280   12.9135   17.5669 C   0  0  0  0  0  0  0  0  0  0  0  0
   12.3782    5.4231   20.7777 C   0  0  0  0  0  0  0  0  0  0  0  0
    7.7365    4.6508   21.6987 C   0  0  0  0  0  0  0  0  0  0  0  0
   13.0186   11.0102   18.0020 C   0  0  0  0  0  0  0  0  0  0  0  0
    8.6628    5.7088   21.8871 N   0  0  0  0  0  0  0  0  0  0  0  0
    5.6516    3.5258   21.9140 C   0  0  0  0  0  0  0  0  0  0  0  0
   11.5863    9.6815   19.4539 C   0  0  0  0  0  0  0  0  0  0  0  0
   12.9648    4.1543   20.9205 C   0  0  0  0  0  0  0  0  0  0  0  0
    8.2089    3.6265   20.8929 C   0  0  0  0  0  0  0  0  0  0  0  0
    7.3827    2.5724   20.5432 C   0  0  0  0  0  0  0  0  0  0  0  0
   11.1529    7.2750   20.8025 C   0  0  0  0  0  0  0  0  0  0  0  0
   10.2573    8.3215   20.9827 C   0  0  0  0  0  0  0  0  0  0  0  0
   11.1606    5.9378   21.2366 N   0  0  0  0  0  0  0  0  0  0  0  0
    9.8932   11.6736   19.0677 O   0  0  0  0  0  0  0  0  0  0  0  0
    6.4470    4.5850   22.2321 C   0  0  0  0  0  0  0  0  0  0  0  0
    8.4619    6.9895   22.2968 C   0  0  0  0  0  0  0  0  0  0  0  0
   12.2747    7.5102   20.0420 C   0  0  0  0  0  0  0  0  0  0  0  0
   14.2544    6.2142   19.4191 C   0  0  0  0  0  0  0  0  0  0  0  0
   13.0695    6.3705   20.0375 N   0  0  0  0  0  0  0  0  0  0  0  0
    9.1913    8.0876   21.8361 N   0  0  0  0  0  0  0  0  0  0  0  0
   10.4739    9.4813   20.2889 C   0  0  0  0  0  0  0  0  0  0  0  0
    7.5551    7.1270   23.1200 O   0  0  0  0  0  0  0  0  0  0  0  0
  1 11  4  0
  1 21  4  0
  2  4  1  0
  2  8  1  0
  2 11  1  0
  3 10  4  0
  3 14  4  0
  4  5  1  0
  4 18  2  0
  6 12  1  0
  6 17  4  0
  6 23  4  0
  7  9  1  0
  7 13  4  0
  7 19  4  0
  9 20  1  0
 10 19  4  0
 11 25  4  0
 13 14  4  0
 15 16  4  0
 15 17  4  0
 15 21  4  0
 16 24  1  0
 16 25  4  0
 20 24  1  0
 20 26  2  0
 21 23  4  0
 22 23  1  0
M  END
$$$$

 Created by Python create_sdf_string function

 26 28  0  0  0  0  0  0  0  0999 V2000
   12.4616    8.6700   19.4180 N   0  0  0  0  0  0  0  0  0  0  0  0
   11.8329   10.8148   18.6769 N   0  0  0  0  0  0  0  0  0  0  0  0
    6.1021    2.5564   21.0678 C   0  0  0  0  0  0  0  0  0  0  0  0
   10.9097   11.8051   18.4804 C   0  0  0  0  0  0  0  0  0  0  0  0
   11.2280   12.9135   17.5669 C   0  0  0  0  0  0  0  0  0  0  0  0
   12.3782    5.4231   20.7777 C   0  0  0  0  0  0  0  0  0  0  0  0
    7.7365    4.6508   21.6987 C   0  0  0  0  0  0  0  0  0  0  0  0
   13.0186   11.0102   18.0020 C   0  0  0  0  0  0  0  0  0  0  0  0
    8.6628    5.7088   21.8871 N   0  0  0  0  0  0  0  0  0  0  0  0
    5.6516    3.5258   21.9140 C   0  0  0  0  0  0  0  0  0  0  0  0
   11.5863    9.6815   19.4539 C   0  0  0  0  0  0  0  0  0  0  0  0
   12.9648    4.1543   20.9205 C   0  0  0  0  0  0  0  0  0  0  0  0
    8.2089    3.6265   20.8929 C   0  0  0  0  0  0  0  0  0  0  0  0
    7.3827    2.5724   20.5432 C   0  0  0  0  0  0  0  0  0  0  0  0
   11.1529    7.2750   20.8025 C   0  0  0  0  0  0  0  0  0  0  0  0
   10.2573    8.3215   20.9827 C   0  0  0  0  0  0  0  0  0  0  0  0
   11.1606    5.9378   21.2366 N   0  0  0  0  0  0  0  0  0  0  0  0
    9.8932   11.6736   19.0677 O   0  0  0  0  0  0  0  0  0  0  0  0
    6.4470    4.5850   22.2321 C   0  0  0  0  0  0  0  0  0  0  0  0
    8.4619    6.9895   22.2968 C   0  0  0  0  0  0  0  0  0  0  0  0
   12.2747    7.5102   20.0420 C   0  0  0  0  0  0  0  0  0  0  0  0
   14.2544    6.2142   19.4191 C   0  0  0  0  0  0  0  0  0  0  0  0
   13.0695    6.3705   20.0375 N   0  0  0  0  0  0  0  0  0  0  0  0
    9.1913    8.0876   21.8361 N   0  0  0  0  0  0  0  0  0  0  0  0
   10.4739    9.4813   20.2889 C   0  0  0  0  0  0  0  0  0  0  0  0
    7.5551    7.1270   23.1200 O   0  0  0  0  0  0  0  0  0  0  0  0
  1 11  4  0
  1 21  4  0
  2  4  1  0
  2  8  1  0
  2 11  1  0
  3 10  4  0
  3 14  4  0
  4  5  1  0
  4 18  2  0
  6 12  1  0
  6 17  4  0
  6 23  4  0
  7  9  1  0
  7 13  4  0
  7 19  4  0
  9 20  1  0
 10 19  4  0
 11 25  4  0
 13 14  4  0
 15 16  4  0
 15 17  4  0
 15 21  4  0
 16 24  1  0
 16 25  4  0
 20 24  1  0
 20 26  2  0
 21 23  4  0
 22 23  1  0
M  END
$$$$

 Created by Python create_sdf_string function

 26 28  0  0  0  0  0  0  0  0999 V2000
   12.4616    8.6700   19.4180 N   0  0  0  0  0  0  0  0  0  0  0  0
   11.8329   10.8148   18.6769 N   0  0  0  0  0  0  0  0  0  0  0  0
    6.1021    2.5564   21.0678 C   0  0  0  0  0  0  0  0  0  0  0  0
   10.9097   11.8051   18.4804 C   0  0  0  0  0  0  0  0  0  0  0  0
   11.2280   12.9135   17.5669 C   0  0  0  0  0  0  0  0  0  0  0  0
   12.3782    5.4231   20.7777 C   0  0  0  0  0  0  0  0  0  0  0  0
    7.7365    4.6508   21.6987 C   0  0  0  0  0  0  0  0  0  0  0  0
   13.0186   11.0102   18.0020 C   0  0  0  0  0  0  0  0  0  0  0  0
    8.6628    5.7088   21.8871 N   0  0  0  0  0  0  0  0  0  0  0  0
    5.6516    3.5258   21.9140 C   0  0  0  0  0  0  0  0  0  0  0  0
   11.5863    9.6815   19.4539 C   0  0  0  0  0  0  0  0  0  0  0  0
   12.9648    4.1543   20.9205 C   0  0  0  0  0  0  0  0  0  0  0  0
    8.2089    3.6265   20.8929 C   0  0  0  0  0  0  0  0  0  0  0  0
    7.3827    2.5724   20.5432 C   0  0  0  0  0  0  0  0  0  0  0  0
   11.1529    7.2750   20.8025 C   0  0  0  0  0  0  0  0  0  0  0  0
   10.2573    8.3215   20.9827 C   0  0  0  0  0  0  0  0  0  0  0  0
   11.1606    5.9378   21.2366 N   0  0  0  0  0  0  0  0  0  0  0  0
    9.8932   11.6736   19.0677 O   0  0  0  0  0  0  0  0  0  0  0  0
    6.4470    4.5850   22.2321 C   0  0  0  0  0  0  0  0  0  0  0  0
    8.4619    6.9895   22.2968 C   0  0  0  0  0  0  0  0  0  0  0  0
   12.2747    7.5102   20.0420 C   0  0  0  0  0  0  0  0  0  0  0  0
   14.2544    6.2142   19.4191 C   0  0  0  0  0  0  0  0  0  0  0  0
   13.0695    6.3705   20.0375 N   0  0  0  0  0  0  0  0  0  0  0  0
    9.1913    8.0876   21.8361 N   0  0  0  0  0  0  0  0  0  0  0  0
   10.4739    9.4813   20.2889 C   0  0  0  0  0  0  0  0  0  0  0  0
    7.5551    7.1270   23.1200 O   0  0  0  0  0  0  0  0  0  0  0  0
  1 11  4  0
  1 21  4  0
  2  4  1  0
  2  8  1  0
  2 11  1  0
  3 10  4  0
  3 14  4  0
  4  5  1  0
  4 18  2  0
  6 12  1  0
  6 17  4  0
  6 23  4  0
  7  9  1  0
  7 13  4  0
  7 19  4  0
  9 20  1  0
 10 19  4  0
 11 25  4  0
 13 14  4  0
 15 16  4  0
 15 17  4  0
 15 21  4  0
 16 24  1  0
 16 25  4  0
 20 24  1  0
 20 26  2  0
 21 23  4  0
 22 23  1  0
M  END
$$$$

 Created by Python create_sdf_string function

 26 28  0  0  0  0  0  0  0  0999 V2000
   12.4616    8.6700   19.4180 N   0  0  0  0  0  0  0  0  0  0  0  0
   11.8329   10.8148   18.6769 N   0  0  0  0  0  0  0  0  0  0  0  0
    6.1021    2.5564   21.0678 C   0  0  0  0  0  0  0  0  0  0  0  0
   10.9097   11.8051   18.4804 C   0  0  0  0  0  0  0  0  0  0  0  0
   11.2280   12.9135   17.5669 C   0  0  0  0  0  0  0  0  0  0  0  0
   12.3782    5.4231   20.7777 C   0  0  0  0  0  0  0  0  0  0  0  0
    7.7365    4.6508   21.6987 C   0  0  0  0  0  0  0  0  0  0  0  0
   13.0186   11.0102   18.0020 C   0  0  0  0  0  0  0  0  0  0  0  0
    8.6628    5.7088   21.8871 N   0  0  0  0  0  0  0  0  0  0  0  0
    5.6516    3.5258   21.9140 C   0  0  0  0  0  0  0  0  0  0  0  0
   11.5863    9.6815   19.4539 C   0  0  0  0  0  0  0  0  0  0  0  0
   12.9648    4.1543   20.9205 C   0  0  0  0  0  0  0  0  0  0  0  0
    8.2089    3.6265   20.8929 C   0  0  0  0  0  0  0  0  0  0  0  0
    7.3827    2.5724   20.5432 C   0  0  0  0  0  0  0  0  0  0  0  0
   11.1529    7.2750   20.8025 C   0  0  0  0  0  0  0  0  0  0  0  0
   10.2573    8.3215   20.9827 C   0  0  0  0  0  0  0  0  0  0  0  0
   11.1606    5.9378   21.2366 N   0  0  0  0  0  0  0  0  0  0  0  0
    9.8932   11.6736   19.0677 O   0  0  0  0  0  0  0  0  0  0  0  0
    6.4470    4.5850   22.2321 C   0  0  0  0  0  0  0  0  0  0  0  0
    8.4619    6.9895   22.2968 C   0  0  0  0  0  0  0  0  0  0  0  0
   12.2747    7.5102   20.0420 C   0  0  0  0  0  0  0  0  0  0  0  0
   14.2544    6.2142   19.4191 C   0  0  0  0  0  0  0  0  0  0  0  0
   13.0695    6.3705   20.0375 N   0  0  0  0  0  0  0  0  0  0  0  0
    9.1913    8.0876   21.8361 N   0  0  0  0  0  0  0  0  0  0  0  0
   10.4739    9.4813   20.2889 C   0  0  0  0  0  0  0  0  0  0  0  0
    7.5551    7.1270   23.1200 O   0  0  0  0  0  0  0  0  0  0  0  0
  1 11  4  0
  1 21  4  0
  2  4  1  0
  2  8  1  0
  2 11  1  0
  3 10  4  0
  3 14  4  0
  4  5  1  0
  4 18  2  0
  6 12  1  0
  6 17  4  0
  6 23  4  0
  7  9  1  0
  7 13  4  0
  7 19  4  0
  9 20  1  0
 10 19  4  0
 11 25  4  0
 13 14  4  0
 15 16  4  0
 15 17  4  0
 15 21  4  0
 16 24  1  0
 16 25  4  0
 20 24  1  0
 20 26  2  0
 21 23  4  0
 22 23  1  0
M  END
$$$$

 Created by Python create_sdf_string function

 26 28  0  0  0  0  0  0  0  0999 V2000
   12.4616    8.6700   19.4180 N   0  0  0  0  0  0  0  0  0  0  0  0
   11.8329   10.8148   18.6769 N   0  0  0  0  0  0  0  0  0  0  0  0
    6.1021    2.5564   21.0678 C   0  0  0  0  0  0  0  0  0  0  0  0
   10.9097   11.8051   18.4804 C   0  0  0  0  0  0  0  0  0  0  0  0
   11.2280   12.9135   17.5669 C   0  0  0  0  0  0  0  0  0  0  0  0
   12.3782    5.4231   20.7777 C   0  0  0  0  0  0  0  0  0  0  0  0
    7.7365    4.6508   21.6987 C   0  0  0  0  0  0  0  0  0  0  0  0
   13.0186   11.0102   18.0020 C   0  0  0  0  0  0  0  0  0  0  0  0
    8.6628    5.7088   21.8871 N   0  0  0  0  0  0  0  0  0  0  0  0
    5.6516    3.5258   21.9140 C   0  0  0  0  0  0  0  0  0  0  0  0
   11.5863    9.6815   19.4539 C   0  0  0  0  0  0  0  0  0  0  0  0
   12.9648    4.1543   20.9205 C   0  0  0  0  0  0  0  0  0  0  0  0
    8.2089    3.6265   20.8929 C   0  0  0  0  0  0  0  0  0  0  0  0
    7.3827    2.5724   20.5432 C   0  0  0  0  0  0  0  0  0  0  0  0
   11.1529    7.2750   20.8025 C   0  0  0  0  0  0  0  0  0  0  0  0
   10.2573    8.3215   20.9827 C   0  0  0  0  0  0  0  0  0  0  0  0
   11.1606    5.9378   21.2366 N   0  0  0  0  0  0  0  0  0  0  0  0
    9.8932   11.6736   19.0677 O   0  0  0  0  0  0  0  0  0  0  0  0
    6.4470    4.5850   22.2321 C   0  0  0  0  0  0  0  0  0  0  0  0
    8.4619    6.9895   22.2968 C   0  0  0  0  0  0  0  0  0  0  0  0
   12.2747    7.5102   20.0420 C   0  0  0  0  0  0  0  0  0  0  0  0
   14.2544    6.2142   19.4191 C   0  0  0  0  0  0  0  0  0  0  0  0
   13.0695    6.3705   20.0375 N   0  0  0  0  0  0  0  0  0  0  0  0
    9.1913    8.0876   21.8361 N   0  0  0  0  0  0  0  0  0  0  0  0
   10.4739    9.4813   20.2889 C   0  0  0  0  0  0  0  0  0  0  0  0
    7.5551    7.1270   23.1200 O   0  0  0  0  0  0  0  0  0  0  0  0
  1 11  4  0
  1 21  4  0
  2  4  1  0
  2  8  1  0
  2 11  1  0
  3 10  4  0
  3 14  4  0
  4  5  1  0
  4 18  2  0
  6 12  1  0
  6 17  4  0
  6 23  4  0
  7  9  1  0
  7 13  4  0
  7 19  4  0
  9 20  1  0
 10 19  4  0
 11 25  4  0
 13 14  4  0
 15 16  4  0
 15 17  4  0
 15 21  4  0
 16 24  1  0
 16 25  4  0
 20 24  1  0
 20 26  2  0
 21 23  4  0
 22 23  1  0
M  END
$$$$

 Created by Python create_sdf_string function

 26 28  0  0  0  0  0  0  0  0999 V2000
   12.4616    8.6700   19.4180 N   0  0  0  0  0  0  0  0  0  0  0  0
   11.8329   10.8148   18.6769 N   0  0  0  0  0  0  0  0  0  0  0  0
    6.1021    2.5564   21.0678 C   0  0  0  0  0  0  0  0  0  0  0  0
   10.9097   11.8051   18.4804 C   0  0  0  0  0  0  0  0  0  0  0  0
   11.2280   12.9135   17.5669 C   0  0  0  0  0  0  0  0  0  0  0  0
   12.3782    5.4231   20.7777 C   0  0  0  0  0  0  0  0  0  0  0  0
    7.7365    4.6508   21.6987 C   0  0  0  0  0  0  0  0  0  0  0  0
   13.0186   11.0102   18.0020 C   0  0  0  0  0  0  0  0  0  0  0  0
    8.6628    5.7088   21.8871 N   0  0  0  0  0  0  0  0  0  0  0  0
    5.6516    3.5258   21.9140 C   0  0  0  0  0  0  0  0  0  0  0  0
   11.5863    9.6815   19.4539 C   0  0  0  0  0  0  0  0  0  0  0  0
   12.9648    4.1543   20.9205 C   0  0  0  0  0  0  0  0  0  0  0  0
    8.2089    3.6265   20.8929 C   0  0  0  0  0  0  0  0  0  0  0  0
    7.3827    2.5724   20.5432 C   0  0  0  0  0  0  0  0  0  0  0  0
   11.1529    7.2750   20.8025 C   0  0  0  0  0  0  0  0  0  0  0  0
   10.2573    8.3215   20.9827 C   0  0  0  0  0  0  0  0  0  0  0  0
   11.1606    5.9378   21.2366 N   0  0  0  0  0  0  0  0  0  0  0  0
    9.8932   11.6736   19.0677 O   0  0  0  0  0  0  0  0  0  0  0  0
    6.4470    4.5850   22.2321 C   0  0  0  0  0  0  0  0  0  0  0  0
    8.4619    6.9895   22.2968 C   0  0  0  0  0  0  0  0  0  0  0  0
   12.2747    7.5102   20.0420 C   0  0  0  0  0  0  0  0  0  0  0  0
   14.2544    6.2142   19.4191 C   0  0  0  0  0  0  0  0  0  0  0  0
   13.0695    6.3705   20.0375 N   0  0  0  0  0  0  0  0  0  0  0  0
    9.1913    8.0876   21.8361 N   0  0  0  0  0  0  0  0  0  0  0  0
   10.4739    9.4813   20.2889 C   0  0  0  0  0  0  0  0  0  0  0  0
    7.5551    7.1270   23.1200 O   0  0  0  0  0  0  0  0  0  0  0  0
  1 11  4  0
  1 21  4  0
  2  4  1  0
  2  8  1  0
  2 11  1  0
  3 10  4  0
  3 14  4  0
  4  5  1  0
  4 18  2  0
  6 12  1  0
  6 17  4  0
  6 23  4  0
  7  9  1  0
  7 13  4  0
  7 19  4  0
  9 20  1  0
 10 19  4  0
 11 25  4  0
 13 14  4  0
 15 16  4  0
 15 17  4  0
 15 21  4  0
 16 24  1  0
 16 25  4  0
 20 24  1  0
 20 26  2  0
 21 23  4  0
 22 23  1  0
M  END
$$$$

 Created by Python create_sdf_string function

 26 28  0  0  0  0  0  0  0  0999 V2000
   12.4616    8.6700   19.4180 N   0  0  0  0  0  0  0  0  0  0  0  0
   11.8329   10.8148   18.6769 N   0  0  0  0  0  0  0  0  0  0  0  0
    6.1021    2.5564   21.0678 C   0  0  0  0  0  0  0  0  0  0  0  0
   10.9097   11.8051   18.4804 C   0  0  0  0  0  0  0  0  0  0  0  0
   11.2280   12.9135   17.5669 C   0  0  0  0  0  0  0  0  0  0  0  0
   12.3782    5.4231   20.7777 C   0  0  0  0  0  0  0  0  0  0  0  0
    7.7365    4.6508   21.6987 C   0  0  0  0  0  0  0  0  0  0  0  0
   13.0186   11.0102   18.0020 C   0  0  0  0  0  0  0  0  0  0  0  0
    8.6628    5.7088   21.8871 N   0  0  0  0  0  0  0  0  0  0  0  0
    5.6516    3.5258   21.9140 C   0  0  0  0  0  0  0  0  0  0  0  0
   11.5863    9.6815   19.4539 C   0  0  0  0  0  0  0  0  0  0  0  0
   12.9648    4.1543   20.9205 C   0  0  0  0  0  0  0  0  0  0  0  0
    8.2089    3.6265   20.8929 C   0  0  0  0  0  0  0  0  0  0  0  0
    7.3827    2.5724   20.5432 C   0  0  0  0  0  0  0  0  0  0  0  0
   11.1529    7.2750   20.8025 C   0  0  0  0  0  0  0  0  0  0  0  0
   10.2573    8.3215   20.9827 C   0  0  0  0  0  0  0  0  0  0  0  0
   11.1606    5.9378   21.2366 N   0  0  0  0  0  0  0  0  0  0  0  0
    9.8932   11.6736   19.0677 O   0  0  0  0  0  0  0  0  0  0  0  0
    6.4470    4.5850   22.2321 C   0  0  0  0  0  0  0  0  0  0  0  0
    8.4619    6.9895   22.2968 C   0  0  0  0  0  0  0  0  0  0  0  0
   12.2747    7.5102   20.0420 C   0  0  0  0  0  0  0  0  0  0  0  0
   14.2544    6.2142   19.4191 C   0  0  0  0  0  0  0  0  0  0  0  0
   13.0695    6.3705   20.0375 N   0  0  0  0  0  0  0  0  0  0  0  0
    9.1913    8.0876   21.8361 N   0  0  0  0  0  0  0  0  0  0  0  0
   10.4739    9.4813   20.2889 C   0  0  0  0  0  0  0  0  0  0  0  0
    7.5551    7.1270   23.1200 O   0  0  0  0  0  0  0  0  0  0  0  0
  1 11  4  0
  1 21  4  0
  2  4  1  0
  2  8  1  0
  2 11  1  0
  3 10  4  0
  3 14  4  0
  4  5  1  0
  4 18  2  0
  6 12  1  0
  6 17  4  0
  6 23  4  0
  7  9  1  0
  7 13  4  0
  7 19  4  0
  9 20  1  0
 10 19  4  0
 11 25  4  0
 13 14  4  0
 15 16  4  0
 15 17  4  0
 15 21  4  0
 16 24  1  0
 16 25  4  0
 20 24  1  0
 20 26  2  0
 21 23  4  0
 22 23  1  0
M  END
$$$$

 Created by Python create_sdf_string function

 26 28  0  0  0  0  0  0  0  0999 V2000
   12.4616    8.6700   19.4180 N   0  0  0  0  0  0  0  0  0  0  0  0
   11.8329   10.8148   18.6769 N   0  0  0  0  0  0  0  0  0  0  0  0
    6.1021    2.5564   21.0678 C   0  0  0  0  0  0  0  0  0  0  0  0
   10.9097   11.8051   18.4804 C   0  0  0  0  0  0  0  0  0  0  0  0
   11.2280   12.9135   17.5669 C   0  0  0  0  0  0  0  0  0  0  0  0
   12.3782    5.4231   20.7777 C   0  0  0  0  0  0  0  0  0  0  0  0
    7.7365    4.6508   21.6987 C   0  0  0  0  0  0  0  0  0  0  0  0
   13.0186   11.0102   18.0020 C   0  0  0  0  0  0  0  0  0  0  0  0
    8.6628    5.7088   21.8871 N   0  0  0  0  0  0  0  0  0  0  0  0
    5.6516    3.5258   21.9140 C   0  0  0  0  0  0  0  0  0  0  0  0
   11.5863    9.6815   19.4539 C   0  0  0  0  0  0  0  0  0  0  0  0
   12.9648    4.1543   20.9205 C   0  0  0  0  0  0  0  0  0  0  0  0
    8.2089    3.6265   20.8929 C   0  0  0  0  0  0  0  0  0  0  0  0
    7.3827    2.5724   20.5432 C   0  0  0  0  0  0  0  0  0  0  0  0
   11.1529    7.2750   20.8025 C   0  0  0  0  0  0  0  0  0  0  0  0
   10.2573    8.3215   20.9827 C   0  0  0  0  0  0  0  0  0  0  0  0
   11.1606    5.9378   21.2366 N   0  0  0  0  0  0  0  0  0  0  0  0
    9.8932   11.6736   19.0677 O   0  0  0  0  0  0  0  0  0  0  0  0
    6.4470    4.5850   22.2321 C   0  0  0  0  0  0  0  0  0  0  0  0
    8.4619    6.9895   22.2968 C   0  0  0  0  0  0  0  0  0  0  0  0
   12.2747    7.5102   20.0420 C   0  0  0  0  0  0  0  0  0  0  0  0
   14.2544    6.2142   19.4191 C   0  0  0  0  0  0  0  0  0  0  0  0
   13.0695    6.3705   20.0375 N   0  0  0  0  0  0  0  0  0  0  0  0
    9.1913    8.0876   21.8361 N   0  0  0  0  0  0  0  0  0  0  0  0
   10.4739    9.4813   20.2889 C   0  0  0  0  0  0  0  0  0  0  0  0
    7.5551    7.1270   23.1200 O   0  0  0  0  0  0  0  0  0  0  0  0
  1 11  4  0
  1 21  4  0
  2  4  1  0
  2  8  1  0
  2 11  1  0
  3 10  4  0
  3 14  4  0
  4  5  1  0
  4 18  2  0
  6 12  1  0
  6 17  4  0
  6 23  4  0
  7  9  1  0
  7 13  4  0
  7 19  4  0
  9 20  1  0
 10 19  4  0
 11 25  4  0
 13 14  4  0
 15 16  4  0
 15 17  4  0
 15 21  4  0
 16 24  1  0
 16 25  4  0
 20 24  1  0
 20 26  2  0
 21 23  4  0
 22 23  1  0
M  END
$$$$

 Created by Python create_sdf_string function

 26 28  0  0  0  0  0  0  0  0999 V2000
   12.4616    8.6700   19.4180 N   0  0  0  0  0  0  0  0  0  0  0  0
   11.8329   10.8148   18.6769 N   0  0  0  0  0  0  0  0  0  0  0  0
    6.1021    2.5564   21.0678 C   0  0  0  0  0  0  0  0  0  0  0  0
   10.9097   11.8051   18.4804 C   0  0  0  0  0  0  0  0  0  0  0  0
   11.2280   12.9135   17.5669 C   0  0  0  0  0  0  0  0  0  0  0  0
   12.3782    5.4231   20.7777 C   0  0  0  0  0  0  0  0  0  0  0  0
    7.7365    4.6508   21.6987 C   0  0  0  0  0  0  0  0  0  0  0  0
   13.0186   11.0102   18.0020 C   0  0  0  0  0  0  0  0  0  0  0  0
    8.6628    5.7088   21.8871 N   0  0  0  0  0  0  0  0  0  0  0  0
    5.6516    3.5258   21.9140 C   0  0  0  0  0  0  0  0  0  0  0  0
   11.5863    9.6815   19.4539 C   0  0  0  0  0  0  0  0  0  0  0  0
   12.9648    4.1543   20.9205 C   0  0  0  0  0  0  0  0  0  0  0  0
    8.2089    3.6265   20.8929 C   0  0  0  0  0  0  0  0  0  0  0  0
    7.3827    2.5724   20.5432 C   0  0  0  0  0  0  0  0  0  0  0  0
   11.1529    7.2750   20.8025 C   0  0  0  0  0  0  0  0  0  0  0  0
   10.2573    8.3215   20.9827 C   0  0  0  0  0  0  0  0  0  0  0  0
   11.1606    5.9378   21.2366 N   0  0  0  0  0  0  0  0  0  0  0  0
    9.8932   11.6736   19.0677 O   0  0  0  0  0  0  0  0  0  0  0  0
    6.4470    4.5850   22.2321 C   0  0  0  0  0  0  0  0  0  0  0  0
    8.4619    6.9895   22.2968 C   0  0  0  0  0  0  0  0  0  0  0  0
   12.2747    7.5102   20.0420 C   0  0  0  0  0  0  0  0  0  0  0  0
   14.2544    6.2142   19.4191 C   0  0  0  0  0  0  0  0  0  0  0  0
   13.0695    6.3705   20.0375 N   0  0  0  0  0  0  0  0  0  0  0  0
    9.1913    8.0876   21.8361 N   0  0  0  0  0  0  0  0  0  0  0  0
   10.4739    9.4813   20.2889 C   0  0  0  0  0  0  0  0  0  0  0  0
    7.5551    7.1270   23.1200 O   0  0  0  0  0  0  0  0  0  0  0  0
  1 11  4  0
  1 21  4  0
  2  4  1  0
  2  8  1  0
  2 11  1  0
  3 10  4  0
  3 14  4  0
  4  5  1  0
  4 18  2  0
  6 12  1  0
  6 17  4  0
  6 23  4  0
  7  9  1  0
  7 13  4  0
  7 19  4  0
  9 20  1  0
 10 19  4  0
 11 25  4  0
 13 14  4  0
 15 16  4  0
 15 17  4  0
 15 21  4  0
 16 24  1  0
 16 25  4  0
 20 24  1  0
 20 26  2  0
 21 23  4  0
 22 23  1  0
M  END
$$$$

 Created by Python create_sdf_string function

 26 28  0  0  0  0  0  0  0  0999 V2000
   12.4616    8.6700   19.4180 N   0  0  0  0  0  0  0  0  0  0  0  0
   11.8329   10.8148   18.6769 N   0  0  0  0  0  0  0  0  0  0  0  0
    6.1021    2.5564   21.0678 C   0  0  0  0  0  0  0  0  0  0  0  0
   10.9097   11.8051   18.4804 C   0  0  0  0  0  0  0  0  0  0  0  0
   11.2280   12.9135   17.5669 C   0  0  0  0  0  0  0  0  0  0  0  0
   12.3782    5.4231   20.7777 C   0  0  0  0  0  0  0  0  0  0  0  0
    7.7365    4.6508   21.6987 C   0  0  0  0  0  0  0  0  0  0  0  0
   13.0186   11.0102   18.0020 C   0  0  0  0  0  0  0  0  0  0  0  0
    8.6628    5.7088   21.8871 N   0  0  0  0  0  0  0  0  0  0  0  0
    5.6516    3.5258   21.9140 C   0  0  0  0  0  0  0  0  0  0  0  0
   11.5863    9.6815   19.4539 C   0  0  0  0  0  0  0  0  0  0  0  0
   12.9648    4.1543   20.9205 C   0  0  0  0  0  0  0  0  0  0  0  0
    8.2089    3.6265   20.8929 C   0  0  0  0  0  0  0  0  0  0  0  0
    7.3827    2.5724   20.5432 C   0  0  0  0  0  0  0  0  0  0  0  0
   11.1529    7.2750   20.8025 C   0  0  0  0  0  0  0  0  0  0  0  0
   10.2573    8.3215   20.9827 C   0  0  0  0  0  0  0  0  0  0  0  0
   11.1606    5.9378   21.2366 N   0  0  0  0  0  0  0  0  0  0  0  0
    9.8932   11.6736   19.0677 O   0  0  0  0  0  0  0  0  0  0  0  0
    6.4470    4.5850   22.2321 C   0  0  0  0  0  0  0  0  0  0  0  0
    8.4619    6.9895   22.2968 C   0  0  0  0  0  0  0  0  0  0  0  0
   12.2747    7.5102   20.0420 C   0  0  0  0  0  0  0  0  0  0  0  0
   14.2544    6.2142   19.4191 C   0  0  0  0  0  0  0  0  0  0  0  0
   13.0695    6.3705   20.0375 N   0  0  0  0  0  0  0  0  0  0  0  0
    9.1913    8.0876   21.8361 N   0  0  0  0  0  0  0  0  0  0  0  0
   10.4739    9.4813   20.2889 C   0  0  0  0  0  0  0  0  0  0  0  0
    7.5551    7.1270   23.1200 O   0  0  0  0  0  0  0  0  0  0  0  0
  1 11  4  0
  1 21  4  0
  2  4  1  0
  2  8  1  0
  2 11  1  0
  3 10  4  0
  3 14  4  0
  4  5  1  0
  4 18  2  0
  6 12  1  0
  6 17  4  0
  6 23  4  0
  7  9  1  0
  7 13  4  0
  7 19  4  0
  9 20  1  0
 10 19  4  0
 11 25  4  0
 13 14  4  0
 15 16  4  0
 15 17  4  0
 15 21  4  0
 16 24  1  0
 16 25  4  0
 20 24  1  0
 20 26  2  0
 21 23  4  0
 22 23  1  0
M  END
$$$$

 Created by Python create_sdf_string function

 26 28  0  0  0  0  0  0  0  0999 V2000
   12.4616    8.6700   19.4180 N   0  0  0  0  0  0  0  0  0  0  0  0
   11.8329   10.8148   18.6769 N   0  0  0  0  0  0  0  0  0  0  0  0
    6.1021    2.5564   21.0678 C   0  0  0  0  0  0  0  0  0  0  0  0
   10.9097   11.8051   18.4804 C   0  0  0  0  0  0  0  0  0  0  0  0
   11.2280   12.9135   17.5669 C   0  0  0  0  0  0  0  0  0  0  0  0
   12.3782    5.4231   20.7777 C   0  0  0  0  0  0  0  0  0  0  0  0
    7.7365    4.6508   21.6987 C   0  0  0  0  0  0  0  0  0  0  0  0
   13.0186   11.0102   18.0020 C   0  0  0  0  0  0  0  0  0  0  0  0
    8.6628    5.7088   21.8871 N   0  0  0  0  0  0  0  0  0  0  0  0
    5.6516    3.5258   21.9140 C   0  0  0  0  0  0  0  0  0  0  0  0
   11.5863    9.6815   19.4539 C   0  0  0  0  0  0  0  0  0  0  0  0
   12.9648    4.1543   20.9205 C   0  0  0  0  0  0  0  0  0  0  0  0
    8.2089    3.6265   20.8929 C   0  0  0  0  0  0  0  0  0  0  0  0
    7.3827    2.5724   20.5432 C   0  0  0  0  0  0  0  0  0  0  0  0
   11.1529    7.2750   20.8025 C   0  0  0  0  0  0  0  0  0  0  0  0
   10.2573    8.3215   20.9827 C   0  0  0  0  0  0  0  0  0  0  0  0
   11.1606    5.9378   21.2366 N   0  0  0  0  0  0  0  0  0  0  0  0
    9.8932   11.6736   19.0677 O   0  0  0  0  0  0  0  0  0  0  0  0
    6.4470    4.5850   22.2321 C   0  0  0  0  0  0  0  0  0  0  0  0
    8.4619    6.9895   22.2968 C   0  0  0  0  0  0  0  0  0  0  0  0
   12.2747    7.5102   20.0420 C   0  0  0  0  0  0  0  0  0  0  0  0
   14.2544    6.2142   19.4191 C   0  0  0  0  0  0  0  0  0  0  0  0
   13.0695    6.3705   20.0375 N   0  0  0  0  0  0  0  0  0  0  0  0
    9.1913    8.0876   21.8361 N   0  0  0  0  0  0  0  0  0  0  0  0
   10.4739    9.4813   20.2889 C   0  0  0  0  0  0  0  0  0  0  0  0
    7.5551    7.1270   23.1200 O   0  0  0  0  0  0  0  0  0  0  0  0
  1 11  4  0
  1 21  4  0
  2  4  1  0
  2  8  1  0
  2 11  1  0
  3 10  4  0
  3 14  4  0
  4  5  1  0
  4 18  2  0
  6 12  1  0
  6 17  4  0
  6 23  4  0
  7  9  1  0
  7 13  4  0
  7 19  4  0
  9 20  1  0
 10 19  4  0
 11 25  4  0
 13 14  4  0
 15 16  4  0
 15 17  4  0
 15 21  4  0
 16 24  1  0
 16 25  4  0
 20 24  1  0
 20 26  2  0
 21 23  4  0
 22 23  1  0
M  END
$$$$

 Created by Python create_sdf_string function

 26 28  0  0  0  0  0  0  0  0999 V2000
   12.4616    8.6700   19.4180 N   0  0  0  0  0  0  0  0  0  0  0  0
   11.8329   10.8148   18.6769 N   0  0  0  0  0  0  0  0  0  0  0  0
    6.1021    2.5564   21.0678 C   0  0  0  0  0  0  0  0  0  0  0  0
   10.9097   11.8051   18.4804 C   0  0  0  0  0  0  0  0  0  0  0  0
   11.2280   12.9135   17.5669 C   0  0  0  0  0  0  0  0  0  0  0  0
   12.3782    5.4231   20.7777 C   0  0  0  0  0  0  0  0  0  0  0  0
    7.7365    4.6508   21.6987 C   0  0  0  0  0  0  0  0  0  0  0  0
   13.0186   11.0102   18.0020 C   0  0  0  0  0  0  0  0  0  0  0  0
    8.6628    5.7088   21.8871 N   0  0  0  0  0  0  0  0  0  0  0  0
    5.6516    3.5258   21.9140 C   0  0  0  0  0  0  0  0  0  0  0  0
   11.5863    9.6815   19.4539 C   0  0  0  0  0  0  0  0  0  0  0  0
   12.9648    4.1543   20.9205 C   0  0  0  0  0  0  0  0  0  0  0  0
    8.2089    3.6265   20.8929 C   0  0  0  0  0  0  0  0  0  0  0  0
    7.3827    2.5724   20.5432 C   0  0  0  0  0  0  0  0  0  0  0  0
   11.1529    7.2750   20.8025 C   0  0  0  0  0  0  0  0  0  0  0  0
   10.2573    8.3215   20.9827 C   0  0  0  0  0  0  0  0  0  0  0  0
   11.1606    5.9378   21.2366 N   0  0  0  0  0  0  0  0  0  0  0  0
    9.8932   11.6736   19.0677 O   0  0  0  0  0  0  0  0  0  0  0  0
    6.4470    4.5850   22.2321 C   0  0  0  0  0  0  0  0  0  0  0  0
    8.4619    6.9895   22.2968 C   0  0  0  0  0  0  0  0  0  0  0  0
   12.2747    7.5102   20.0420 C   0  0  0  0  0  0  0  0  0  0  0  0
   14.2544    6.2142   19.4191 C   0  0  0  0  0  0  0  0  0  0  0  0
   13.0695    6.3705   20.0375 N   0  0  0  0  0  0  0  0  0  0  0  0
    9.1913    8.0876   21.8361 N   0  0  0  0  0  0  0  0  0  0  0  0
   10.4739    9.4813   20.2889 C   0  0  0  0  0  0  0  0  0  0  0  0
    7.5551    7.1270   23.1200 O   0  0  0  0  0  0  0  0  0  0  0  0
  1 11  4  0
  1 21  4  0
  2  4  1  0
  2  8  1  0
  2 11  1  0
  3 10  4  0
  3 14  4  0
  4  5  1  0
  4 18  2  0
  6 12  1  0
  6 17  4  0
  6 23  4  0
  7  9  1  0
  7 13  4  0
  7 19  4  0
  9 20  1  0
 10 19  4  0
 11 25  4  0
 13 14  4  0
 15 16  4  0
 15 17  4  0
 15 21  4  0
 16 24  1  0
 16 25  4  0
 20 24  1  0
 20 26  2  0
 21 23  4  0
 22 23  1  0
M  END
$$$$

 Created by Python create_sdf_string function

 26 28  0  0  0  0  0  0  0  0999 V2000
   12.4616    8.6700   19.4180 N   0  0  0  0  0  0  0  0  0  0  0  0
   11.8329   10.8148   18.6769 N   0  0  0  0  0  0  0  0  0  0  0  0
    6.1021    2.5564   21.0678 C   0  0  0  0  0  0  0  0  0  0  0  0
   10.9097   11.8051   18.4804 C   0  0  0  0  0  0  0  0  0  0  0  0
   11.2280   12.9135   17.5669 C   0  0  0  0  0  0  0  0  0  0  0  0
   12.3782    5.4231   20.7777 C   0  0  0  0  0  0  0  0  0  0  0  0
    7.7365    4.6508   21.6987 C   0  0  0  0  0  0  0  0  0  0  0  0
   13.0186   11.0102   18.0020 C   0  0  0  0  0  0  0  0  0  0  0  0
    8.6628    5.7088   21.8871 N   0  0  0  0  0  0  0  0  0  0  0  0
    5.6516    3.5258   21.9140 C   0  0  0  0  0  0  0  0  0  0  0  0
   11.5863    9.6815   19.4539 C   0  0  0  0  0  0  0  0  0  0  0  0
   12.9648    4.1543   20.9205 C   0  0  0  0  0  0  0  0  0  0  0  0
    8.2089    3.6265   20.8929 C   0  0  0  0  0  0  0  0  0  0  0  0
    7.3827    2.5724   20.5432 C   0  0  0  0  0  0  0  0  0  0  0  0
   11.1529    7.2750   20.8025 C   0  0  0  0  0  0  0  0  0  0  0  0
   10.2573    8.3215   20.9827 C   0  0  0  0  0  0  0  0  0  0  0  0
   11.1606    5.9378   21.2366 N   0  0  0  0  0  0  0  0  0  0  0  0
    9.8932   11.6736   19.0677 O   0  0  0  0  0  0  0  0  0  0  0  0
    6.4470    4.5850   22.2321 C   0  0  0  0  0  0  0  0  0  0  0  0
    8.4619    6.9895   22.2968 C   0  0  0  0  0  0  0  0  0  0  0  0
   12.2747    7.5102   20.0420 C   0  0  0  0  0  0  0  0  0  0  0  0
   14.2544    6.2142   19.4191 C   0  0  0  0  0  0  0  0  0  0  0  0
   13.0695    6.3705   20.0375 N   0  0  0  0  0  0  0  0  0  0  0  0
    9.1913    8.0876   21.8361 N   0  0  0  0  0  0  0  0  0  0  0  0
   10.4739    9.4813   20.2889 C   0  0  0  0  0  0  0  0  0  0  0  0
    7.5551    7.1270   23.1200 O   0  0  0  0  0  0  0  0  0  0  0  0
  1 11  4  0
  1 21  4  0
  2  4  1  0
  2  8  1  0
  2 11  1  0
  3 10  4  0
  3 14  4  0
  4  5  1  0
  4 18  2  0
  6 12  1  0
  6 17  4  0
  6 23  4  0
  7  9  1  0
  7 13  4  0
  7 19  4  0
  9 20  1  0
 10 19  4  0
 11 25  4  0
 13 14  4  0
 15 16  4  0
 15 17  4  0
 15 21  4  0
 16 24  1  0
 16 25  4  0
 20 24  1  0
 20 26  2  0
 21 23  4  0
 22 23  1  0
M  END
$$$$

 Created by Python create_sdf_string function

 26 28  0  0  0  0  0  0  0  0999 V2000
   12.4616    8.6700   19.4180 N   0  0  0  0  0  0  0  0  0  0  0  0
   11.8329   10.8148   18.6769 N   0  0  0  0  0  0  0  0  0  0  0  0
    6.1021    2.5564   21.0678 C   0  0  0  0  0  0  0  0  0  0  0  0
   10.9097   11.8051   18.4804 C   0  0  0  0  0  0  0  0  0  0  0  0
   11.2280   12.9135   17.5669 C   0  0  0  0  0  0  0  0  0  0  0  0
   12.3782    5.4231   20.7777 C   0  0  0  0  0  0  0  0  0  0  0  0
    7.7365    4.6508   21.6987 C   0  0  0  0  0  0  0  0  0  0  0  0
   13.0186   11.0102   18.0020 C   0  0  0  0  0  0  0  0  0  0  0  0
    8.6628    5.7088   21.8871 N   0  0  0  0  0  0  0  0  0  0  0  0
    5.6516    3.5258   21.9140 C   0  0  0  0  0  0  0  0  0  0  0  0
   11.5863    9.6815   19.4539 C   0  0  0  0  0  0  0  0  0  0  0  0
   12.9648    4.1543   20.9205 C   0  0  0  0  0  0  0  0  0  0  0  0
    8.2089    3.6265   20.8929 C   0  0  0  0  0  0  0  0  0  0  0  0
    7.3827    2.5724   20.5432 C   0  0  0  0  0  0  0  0  0  0  0  0
   11.1529    7.2750   20.8025 C   0  0  0  0  0  0  0  0  0  0  0  0
   10.2573    8.3215   20.9827 C   0  0  0  0  0  0  0  0  0  0  0  0
   11.1606    5.9378   21.2366 N   0  0  0  0  0  0  0  0  0  0  0  0
    9.8932   11.6736   19.0677 O   0  0  0  0  0  0  0  0  0  0  0  0
    6.4470    4.5850   22.2321 C   0  0  0  0  0  0  0  0  0  0  0  0
    8.4619    6.9895   22.2968 C   0  0  0  0  0  0  0  0  0  0  0  0
   12.2747    7.5102   20.0420 C   0  0  0  0  0  0  0  0  0  0  0  0
   14.2544    6.2142   19.4191 C   0  0  0  0  0  0  0  0  0  0  0  0
   13.0695    6.3705   20.0375 N   0  0  0  0  0  0  0  0  0  0  0  0
    9.1913    8.0876   21.8361 N   0  0  0  0  0  0  0  0  0  0  0  0
   10.4739    9.4813   20.2889 C   0  0  0  0  0  0  0  0  0  0  0  0
    7.5551    7.1270   23.1200 O   0  0  0  0  0  0  0  0  0  0  0  0
  1 11  4  0
  1 21  4  0
  2  4  1  0
  2  8  1  0
  2 11  1  0
  3 10  4  0
  3 14  4  0
  4  5  1  0
  4 18  2  0
  6 12  1  0
  6 17  4  0
  6 23  4  0
  7  9  1  0
  7 13  4  0
  7 19  4  0
  9 20  1  0
 10 19  4  0
 11 25  4  0
 13 14  4  0
 15 16  4  0
 15 17  4  0
 15 21  4  0
 16 24  1  0
 16 25  4  0
 20 24  1  0
 20 26  2  0
 21 23  4  0
 22 23  1  0
M  END
$$$$

 Created by Python create_sdf_string function

 26 28  0  0  0  0  0  0  0  0999 V2000
   12.4616    8.6700   19.4180 N   0  0  0  0  0  0  0  0  0  0  0  0
   11.8329   10.8148   18.6769 N   0  0  0  0  0  0  0  0  0  0  0  0
    6.1021    2.5564   21.0678 C   0  0  0  0  0  0  0  0  0  0  0  0
   10.9097   11.8051   18.4804 C   0  0  0  0  0  0  0  0  0  0  0  0
   11.2280   12.9135   17.5669 C   0  0  0  0  0  0  0  0  0  0  0  0
   12.3782    5.4231   20.7777 C   0  0  0  0  0  0  0  0  0  0  0  0
    7.7365    4.6508   21.6987 C   0  0  0  0  0  0  0  0  0  0  0  0
   13.0186   11.0102   18.0020 C   0  0  0  0  0  0  0  0  0  0  0  0
    8.6628    5.7088   21.8871 N   0  0  0  0  0  0  0  0  0  0  0  0
    5.6516    3.5258   21.9140 C   0  0  0  0  0  0  0  0  0  0  0  0
   11.5863    9.6815   19.4539 C   0  0  0  0  0  0  0  0  0  0  0  0
   12.9648    4.1543   20.9205 C   0  0  0  0  0  0  0  0  0  0  0  0
    8.2089    3.6265   20.8929 C   0  0  0  0  0  0  0  0  0  0  0  0
    7.3827    2.5724   20.5432 C   0  0  0  0  0  0  0  0  0  0  0  0
   11.1529    7.2750   20.8025 C   0  0  0  0  0  0  0  0  0  0  0  0
   10.2573    8.3215   20.9827 C   0  0  0  0  0  0  0  0  0  0  0  0
   11.1606    5.9378   21.2366 N   0  0  0  0  0  0  0  0  0  0  0  0
    9.8932   11.6736   19.0677 O   0  0  0  0  0  0  0  0  0  0  0  0
    6.4470    4.5850   22.2321 C   0  0  0  0  0  0  0  0  0  0  0  0
    8.4619    6.9895   22.2968 C   0  0  0  0  0  0  0  0  0  0  0  0
   12.2747    7.5102   20.0420 C   0  0  0  0  0  0  0  0  0  0  0  0
   14.2544    6.2142   19.4191 C   0  0  0  0  0  0  0  0  0  0  0  0
   13.0695    6.3705   20.0375 N   0  0  0  0  0  0  0  0  0  0  0  0
    9.1913    8.0876   21.8361 N   0  0  0  0  0  0  0  0  0  0  0  0
   10.4739    9.4813   20.2889 C   0  0  0  0  0  0  0  0  0  0  0  0
    7.5551    7.1270   23.1200 O   0  0  0  0  0  0  0  0  0  0  0  0
  1 11  4  0
  1 21  4  0
  2  4  1  0
  2  8  1  0
  2 11  1  0
  3 10  4  0
  3 14  4  0
  4  5  1  0
  4 18  2  0
  6 12  1  0
  6 17  4  0
  6 23  4  0
  7  9  1  0
  7 13  4  0
  7 19  4  0
  9 20  1  0
 10 19  4  0
 11 25  4  0
 13 14  4  0
 15 16  4  0
 15 17  4  0
 15 21  4  0
 16 24  1  0
 16 25  4  0
 20 24  1  0
 20 26  2  0
 21 23  4  0
 22 23  1  0
M  END
$$$$

 Created by Python create_sdf_string function

 26 28  0  0  0  0  0  0  0  0999 V2000
   12.4616    8.6700   19.4180 N   0  0  0  0  0  0  0  0  0  0  0  0
   11.8329   10.8148   18.6769 N   0  0  0  0  0  0  0  0  0  0  0  0
    6.1021    2.5564   21.0678 C   0  0  0  0  0  0  0  0  0  0  0  0
   10.9097   11.8051   18.4804 C   0  0  0  0  0  0  0  0  0  0  0  0
   11.2280   12.9135   17.5669 C   0  0  0  0  0  0  0  0  0  0  0  0
   12.3782    5.4231   20.7777 C   0  0  0  0  0  0  0  0  0  0  0  0
    7.7365    4.6508   21.6987 C   0  0  0  0  0  0  0  0  0  0  0  0
   13.0186   11.0102   18.0020 C   0  0  0  0  0  0  0  0  0  0  0  0
    8.6628    5.7088   21.8871 N   0  0  0  0  0  0  0  0  0  0  0  0
    5.6516    3.5258   21.9140 C   0  0  0  0  0  0  0  0  0  0  0  0
   11.5863    9.6815   19.4539 C   0  0  0  0  0  0  0  0  0  0  0  0
   12.9648    4.1543   20.9205 C   0  0  0  0  0  0  0  0  0  0  0  0
    8.2089    3.6265   20.8929 C   0  0  0  0  0  0  0  0  0  0  0  0
    7.3827    2.5724   20.5432 C   0  0  0  0  0  0  0  0  0  0  0  0
   11.1529    7.2750   20.8025 C   0  0  0  0  0  0  0  0  0  0  0  0
   10.2573    8.3215   20.9827 C   0  0  0  0  0  0  0  0  0  0  0  0
   11.1606    5.9378   21.2366 N   0  0  0  0  0  0  0  0  0  0  0  0
    9.8932   11.6736   19.0677 O   0  0  0  0  0  0  0  0  0  0  0  0
    6.4470    4.5850   22.2321 C   0  0  0  0  0  0  0  0  0  0  0  0
    8.4619    6.9895   22.2968 C   0  0  0  0  0  0  0  0  0  0  0  0
   12.2747    7.5102   20.0420 C   0  0  0  0  0  0  0  0  0  0  0  0
   14.2544    6.2142   19.4191 C   0  0  0  0  0  0  0  0  0  0  0  0
   13.0695    6.3705   20.0375 N   0  0  0  0  0  0  0  0  0  0  0  0
    9.1913    8.0876   21.8361 N   0  0  0  0  0  0  0  0  0  0  0  0
   10.4739    9.4813   20.2889 C   0  0  0  0  0  0  0  0  0  0  0  0
    7.5551    7.1270   23.1200 O   0  0  0  0  0  0  0  0  0  0  0  0
  1 11  4  0
  1 21  4  0
  2  4  1  0
  2  8  1  0
  2 11  1  0
  3 10  4  0
  3 14  4  0
  4  5  1  0
  4 18  2  0
  6 12  1  0
  6 17  4  0
  6 23  4  0
  7  9  1  0
  7 13  4  0
  7 19  4  0
  9 20  1  0
 10 19  4  0
 11 25  4  0
 13 14  4  0
 15 16  4  0
 15 17  4  0
 15 21  4  0
 16 24  1  0
 16 25  4  0
 20 24  1  0
 20 26  2  0
 21 23  4  0
 22 23  1  0
M  END
$$$$

 Created by Python create_sdf_string function

 26 28  0  0  0  0  0  0  0  0999 V2000
   12.4616    8.6700   19.4180 N   0  0  0  0  0  0  0  0  0  0  0  0
   11.8329   10.8148   18.6769 N   0  0  0  0  0  0  0  0  0  0  0  0
    6.1021    2.5564   21.0678 C   0  0  0  0  0  0  0  0  0  0  0  0
   10.9097   11.8051   18.4804 C   0  0  0  0  0  0  0  0  0  0  0  0
   11.2280   12.9135   17.5669 C   0  0  0  0  0  0  0  0  0  0  0  0
   12.3782    5.4231   20.7777 C   0  0  0  0  0  0  0  0  0  0  0  0
    7.7365    4.6508   21.6987 C   0  0  0  0  0  0  0  0  0  0  0  0
   13.0186   11.0102   18.0020 C   0  0  0  0  0  0  0  0  0  0  0  0
    8.6628    5.7088   21.8871 N   0  0  0  0  0  0  0  0  0  0  0  0
    5.6516    3.5258   21.9140 C   0  0  0  0  0  0  0  0  0  0  0  0
   11.5863    9.6815   19.4539 C   0  0  0  0  0  0  0  0  0  0  0  0
   12.9648    4.1543   20.9205 C   0  0  0  0  0  0  0  0  0  0  0  0
    8.2089    3.6265   20.8929 C   0  0  0  0  0  0  0  0  0  0  0  0
    7.3827    2.5724   20.5432 C   0  0  0  0  0  0  0  0  0  0  0  0
   11.1529    7.2750   20.8025 C   0  0  0  0  0  0  0  0  0  0  0  0
   10.2573    8.3215   20.9827 C   0  0  0  0  0  0  0  0  0  0  0  0
   11.1606    5.9378   21.2366 N   0  0  0  0  0  0  0  0  0  0  0  0
    9.8932   11.6736   19.0677 O   0  0  0  0  0  0  0  0  0  0  0  0
    6.4470    4.5850   22.2321 C   0  0  0  0  0  0  0  0  0  0  0  0
    8.4619    6.9895   22.2968 C   0  0  0  0  0  0  0  0  0  0  0  0
   12.2747    7.5102   20.0420 C   0  0  0  0  0  0  0  0  0  0  0  0
   14.2544    6.2142   19.4191 C   0  0  0  0  0  0  0  0  0  0  0  0
   13.0695    6.3705   20.0375 N   0  0  0  0  0  0  0  0  0  0  0  0
    9.1913    8.0876   21.8361 N   0  0  0  0  0  0  0  0  0  0  0  0
   10.4739    9.4813   20.2889 C   0  0  0  0  0  0  0  0  0  0  0  0
    7.5551    7.1270   23.1200 O   0  0  0  0  0  0  0  0  0  0  0  0
  1 11  4  0
  1 21  4  0
  2  4  1  0
  2  8  1  0
  2 11  1  0
  3 10  4  0
  3 14  4  0
  4  5  1  0
  4 18  2  0
  6 12  1  0
  6 17  4  0
  6 23  4  0
  7  9  1  0
  7 13  4  0
  7 19  4  0
  9 20  1  0
 10 19  4  0
 11 25  4  0
 13 14  4  0
 15 16  4  0
 15 17  4  0
 15 21  4  0
 16 24  1  0
 16 25  4  0
 20 24  1  0
 20 26  2  0
 21 23  4  0
 22 23  1  0
M  END
$$$$

 Created by Python create_sdf_string function

 26 28  0  0  0  0  0  0  0  0999 V2000
   12.4616    8.6700   19.4180 N   0  0  0  0  0  0  0  0  0  0  0  0
   11.8329   10.8148   18.6769 N   0  0  0  0  0  0  0  0  0  0  0  0
    6.1021    2.5564   21.0678 C   0  0  0  0  0  0  0  0  0  0  0  0
   10.9097   11.8051   18.4804 C   0  0  0  0  0  0  0  0  0  0  0  0
   11.2280   12.9135   17.5669 C   0  0  0  0  0  0  0  0  0  0  0  0
   12.3782    5.4231   20.7777 C   0  0  0  0  0  0  0  0  0  0  0  0
    7.7365    4.6508   21.6987 C   0  0  0  0  0  0  0  0  0  0  0  0
   13.0186   11.0102   18.0020 C   0  0  0  0  0  0  0  0  0  0  0  0
    8.6628    5.7088   21.8871 N   0  0  0  0  0  0  0  0  0  0  0  0
    5.6516    3.5258   21.9140 C   0  0  0  0  0  0  0  0  0  0  0  0
   11.5863    9.6815   19.4539 C   0  0  0  0  0  0  0  0  0  0  0  0
   12.9648    4.1543   20.9205 C   0  0  0  0  0  0  0  0  0  0  0  0
    8.2089    3.6265   20.8929 C   0  0  0  0  0  0  0  0  0  0  0  0
    7.3827    2.5724   20.5432 C   0  0  0  0  0  0  0  0  0  0  0  0
   11.1529    7.2750   20.8025 C   0  0  0  0  0  0  0  0  0  0  0  0
   10.2573    8.3215   20.9827 C   0  0  0  0  0  0  0  0  0  0  0  0
   11.1606    5.9378   21.2366 N   0  0  0  0  0  0  0  0  0  0  0  0
    9.8932   11.6736   19.0677 O   0  0  0  0  0  0  0  0  0  0  0  0
    6.4470    4.5850   22.2321 C   0  0  0  0  0  0  0  0  0  0  0  0
    8.4619    6.9895   22.2968 C   0  0  0  0  0  0  0  0  0  0  0  0
   12.2747    7.5102   20.0420 C   0  0  0  0  0  0  0  0  0  0  0  0
   14.2544    6.2142   19.4191 C   0  0  0  0  0  0  0  0  0  0  0  0
   13.0695    6.3705   20.0375 N   0  0  0  0  0  0  0  0  0  0  0  0
    9.1913    8.0876   21.8361 N   0  0  0  0  0  0  0  0  0  0  0  0
   10.4739    9.4813   20.2889 C   0  0  0  0  0  0  0  0  0  0  0  0
    7.5551    7.1270   23.1200 O   0  0  0  0  0  0  0  0  0  0  0  0
  1 11  4  0
  1 21  4  0
  2  4  1  0
  2  8  1  0
  2 11  1  0
  3 10  4  0
  3 14  4  0
  4  5  1  0
  4 18  2  0
  6 12  1  0
  6 17  4  0
  6 23  4  0
  7  9  1  0
  7 13  4  0
  7 19  4  0
  9 20  1  0
 10 19  4  0
 11 25  4  0
 13 14  4  0
 15 16  4  0
 15 17  4  0
 15 21  4  0
 16 24  1  0
 16 25  4  0
 20 24  1  0
 20 26  2  0
 21 23  4  0
 22 23  1  0
M  END
$$$$

 Created by Python create_sdf_string function

 26 28  0  0  0  0  0  0  0  0999 V2000
   12.4616    8.6700   19.4180 N   0  0  0  0  0  0  0  0  0  0  0  0
   11.8329   10.8148   18.6769 N   0  0  0  0  0  0  0  0  0  0  0  0
    6.1021    2.5564   21.0678 C   0  0  0  0  0  0  0  0  0  0  0  0
   10.9097   11.8051   18.4804 C   0  0  0  0  0  0  0  0  0  0  0  0
   11.2280   12.9135   17.5669 C   0  0  0  0  0  0  0  0  0  0  0  0
   12.3782    5.4231   20.7777 C   0  0  0  0  0  0  0  0  0  0  0  0
    7.7365    4.6508   21.6987 C   0  0  0  0  0  0  0  0  0  0  0  0
   13.0186   11.0102   18.0020 C   0  0  0  0  0  0  0  0  0  0  0  0
    8.6628    5.7088   21.8871 N   0  0  0  0  0  0  0  0  0  0  0  0
    5.6516    3.5258   21.9140 C   0  0  0  0  0  0  0  0  0  0  0  0
   11.5863    9.6815   19.4539 C   0  0  0  0  0  0  0  0  0  0  0  0
   12.9648    4.1543   20.9205 C   0  0  0  0  0  0  0  0  0  0  0  0
    8.2089    3.6265   20.8929 C   0  0  0  0  0  0  0  0  0  0  0  0
    7.3827    2.5724   20.5432 C   0  0  0  0  0  0  0  0  0  0  0  0
   11.1529    7.2750   20.8025 C   0  0  0  0  0  0  0  0  0  0  0  0
   10.2573    8.3215   20.9827 C   0  0  0  0  0  0  0  0  0  0  0  0
   11.1606    5.9378   21.2366 N   0  0  0  0  0  0  0  0  0  0  0  0
    9.8932   11.6736   19.0677 O   0  0  0  0  0  0  0  0  0  0  0  0
    6.4470    4.5850   22.2321 C   0  0  0  0  0  0  0  0  0  0  0  0
    8.4619    6.9895   22.2968 C   0  0  0  0  0  0  0  0  0  0  0  0
   12.2747    7.5102   20.0420 C   0  0  0  0  0  0  0  0  0  0  0  0
   14.2544    6.2142   19.4191 C   0  0  0  0  0  0  0  0  0  0  0  0
   13.0695    6.3705   20.0375 N   0  0  0  0  0  0  0  0  0  0  0  0
    9.1913    8.0876   21.8361 N   0  0  0  0  0  0  0  0  0  0  0  0
   10.4739    9.4813   20.2889 C   0  0  0  0  0  0  0  0  0  0  0  0
    7.5551    7.1270   23.1200 O   0  0  0  0  0  0  0  0  0  0  0  0
  1 11  4  0
  1 21  4  0
  2  4  1  0
  2  8  1  0
  2 11  1  0
  3 10  4  0
  3 14  4  0
  4  5  1  0
  4 18  2  0
  6 12  1  0
  6 17  4  0
  6 23  4  0
  7  9  1  0
  7 13  4  0
  7 19  4  0
  9 20  1  0
 10 19  4  0
 11 25  4  0
 13 14  4  0
 15 16  4  0
 15 17  4  0
 15 21  4  0
 16 24  1  0
 16 25  4  0
 20 24  1  0
 20 26  2  0
 21 23  4  0
 22 23  1  0
M  END
$$$$

 Created by Python create_sdf_string function

 26 28  0  0  0  0  0  0  0  0999 V2000
   12.4616    8.6700   19.4180 N   0  0  0  0  0  0  0  0  0  0  0  0
   11.8329   10.8148   18.6769 N   0  0  0  0  0  0  0  0  0  0  0  0
    6.1021    2.5564   21.0678 C   0  0  0  0  0  0  0  0  0  0  0  0
   10.9097   11.8051   18.4804 C   0  0  0  0  0  0  0  0  0  0  0  0
   11.2280   12.9135   17.5669 C   0  0  0  0  0  0  0  0  0  0  0  0
   12.3782    5.4231   20.7777 C   0  0  0  0  0  0  0  0  0  0  0  0
    7.7365    4.6508   21.6987 C   0  0  0  0  0  0  0  0  0  0  0  0
   13.0186   11.0102   18.0020 C   0  0  0  0  0  0  0  0  0  0  0  0
    8.6628    5.7088   21.8871 N   0  0  0  0  0  0  0  0  0  0  0  0
    5.6516    3.5258   21.9140 C   0  0  0  0  0  0  0  0  0  0  0  0
   11.5863    9.6815   19.4539 C   0  0  0  0  0  0  0  0  0  0  0  0
   12.9648    4.1543   20.9205 C   0  0  0  0  0  0  0  0  0  0  0  0
    8.2089    3.6265   20.8929 C   0  0  0  0  0  0  0  0  0  0  0  0
    7.3827    2.5724   20.5432 C   0  0  0  0  0  0  0  0  0  0  0  0
   11.1529    7.2750   20.8025 C   0  0  0  0  0  0  0  0  0  0  0  0
   10.2573    8.3215   20.9827 C   0  0  0  0  0  0  0  0  0  0  0  0
   11.1606    5.9378   21.2366 N   0  0  0  0  0  0  0  0  0  0  0  0
    9.8932   11.6736   19.0677 O   0  0  0  0  0  0  0  0  0  0  0  0
    6.4470    4.5850   22.2321 C   0  0  0  0  0  0  0  0  0  0  0  0
    8.4619    6.9895   22.2968 C   0  0  0  0  0  0  0  0  0  0  0  0
   12.2747    7.5102   20.0420 C   0  0  0  0  0  0  0  0  0  0  0  0
   14.2544    6.2142   19.4191 C   0  0  0  0  0  0  0  0  0  0  0  0
   13.0695    6.3705   20.0375 N   0  0  0  0  0  0  0  0  0  0  0  0
    9.1913    8.0876   21.8361 N   0  0  0  0  0  0  0  0  0  0  0  0
   10.4739    9.4813   20.2889 C   0  0  0  0  0  0  0  0  0  0  0  0
    7.5551    7.1270   23.1200 O   0  0  0  0  0  0  0  0  0  0  0  0
  1 11  4  0
  1 21  4  0
  2  4  1  0
  2  8  1  0
  2 11  1  0
  3 10  4  0
  3 14  4  0
  4  5  1  0
  4 18  2  0
  6 12  1  0
  6 17  4  0
  6 23  4  0
  7  9  1  0
  7 13  4  0
  7 19  4  0
  9 20  1  0
 10 19  4  0
 11 25  4  0
 13 14  4  0
 15 16  4  0
 15 17  4  0
 15 21  4  0
 16 24  1  0
 16 25  4  0
 20 24  1  0
 20 26  2  0
 21 23  4  0
 22 23  1  0
M  END
$$$$

 Created by Python create_sdf_string function

 26 28  0  0  0  0  0  0  0  0999 V2000
   12.4616    8.6700   19.4180 N   0  0  0  0  0  0  0  0  0  0  0  0
   11.8329   10.8148   18.6769 N   0  0  0  0  0  0  0  0  0  0  0  0
    6.1021    2.5564   21.0678 C   0  0  0  0  0  0  0  0  0  0  0  0
   10.9097   11.8051   18.4804 C   0  0  0  0  0  0  0  0  0  0  0  0
   11.2280   12.9135   17.5669 C   0  0  0  0  0  0  0  0  0  0  0  0
   12.3782    5.4231   20.7777 C   0  0  0  0  0  0  0  0  0  0  0  0
    7.7365    4.6508   21.6987 C   0  0  0  0  0  0  0  0  0  0  0  0
   13.0186   11.0102   18.0020 C   0  0  0  0  0  0  0  0  0  0  0  0
    8.6628    5.7088   21.8871 N   0  0  0  0  0  0  0  0  0  0  0  0
    5.6516    3.5258   21.9140 C   0  0  0  0  0  0  0  0  0  0  0  0
   11.5863    9.6815   19.4539 C   0  0  0  0  0  0  0  0  0  0  0  0
   12.9648    4.1543   20.9205 C   0  0  0  0  0  0  0  0  0  0  0  0
    8.2089    3.6265   20.8929 C   0  0  0  0  0  0  0  0  0  0  0  0
    7.3827    2.5724   20.5432 C   0  0  0  0  0  0  0  0  0  0  0  0
   11.1529    7.2750   20.8025 C   0  0  0  0  0  0  0  0  0  0  0  0
   10.2573    8.3215   20.9827 C   0  0  0  0  0  0  0  0  0  0  0  0
   11.1606    5.9378   21.2366 N   0  0  0  0  0  0  0  0  0  0  0  0
    9.8932   11.6736   19.0677 O   0  0  0  0  0  0  0  0  0  0  0  0
    6.4470    4.5850   22.2321 C   0  0  0  0  0  0  0  0  0  0  0  0
    8.4619    6.9895   22.2968 C   0  0  0  0  0  0  0  0  0  0  0  0
   12.2747    7.5102   20.0420 C   0  0  0  0  0  0  0  0  0  0  0  0
   14.2544    6.2142   19.4191 C   0  0  0  0  0  0  0  0  0  0  0  0
   13.0695    6.3705   20.0375 N   0  0  0  0  0  0  0  0  0  0  0  0
    9.1913    8.0876   21.8361 N   0  0  0  0  0  0  0  0  0  0  0  0
   10.4739    9.4813   20.2889 C   0  0  0  0  0  0  0  0  0  0  0  0
    7.5551    7.1270   23.1200 O   0  0  0  0  0  0  0  0  0  0  0  0
  1 11  4  0
  1 21  4  0
  2  4  1  0
  2  8  1  0
  2 11  1  0
  3 10  4  0
  3 14  4  0
  4  5  1  0
  4 18  2  0
  6 12  1  0
  6 17  4  0
  6 23  4  0
  7  9  1  0
  7 13  4  0
  7 19  4  0
  9 20  1  0
 10 19  4  0
 11 25  4  0
 13 14  4  0
 15 16  4  0
 15 17  4  0
 15 21  4  0
 16 24  1  0
 16 25  4  0
 20 24  1  0
 20 26  2  0
 21 23  4  0
 22 23  1  0
M  END
$$$$

 Created by Python create_sdf_string function

 26 28  0  0  0  0  0  0  0  0999 V2000
   12.4616    8.6700   19.4180 N   0  0  0  0  0  0  0  0  0  0  0  0
   11.8329   10.8148   18.6769 N   0  0  0  0  0  0  0  0  0  0  0  0
    6.1021    2.5564   21.0678 C   0  0  0  0  0  0  0  0  0  0  0  0
   10.9097   11.8051   18.4804 C   0  0  0  0  0  0  0  0  0  0  0  0
   11.2280   12.9135   17.5669 C   0  0  0  0  0  0  0  0  0  0  0  0
   12.3782    5.4231   20.7777 C   0  0  0  0  0  0  0  0  0  0  0  0
    7.7365    4.6508   21.6987 C   0  0  0  0  0  0  0  0  0  0  0  0
   13.0186   11.0102   18.0020 C   0  0  0  0  0  0  0  0  0  0  0  0
    8.6628    5.7088   21.8871 N   0  0  0  0  0  0  0  0  0  0  0  0
    5.6516    3.5258   21.9140 C   0  0  0  0  0  0  0  0  0  0  0  0
   11.5863    9.6815   19.4539 C   0  0  0  0  0  0  0  0  0  0  0  0
   12.9648    4.1543   20.9205 C   0  0  0  0  0  0  0  0  0  0  0  0
    8.2089    3.6265   20.8929 C   0  0  0  0  0  0  0  0  0  0  0  0
    7.3827    2.5724   20.5432 C   0  0  0  0  0  0  0  0  0  0  0  0
   11.1529    7.2750   20.8025 C   0  0  0  0  0  0  0  0  0  0  0  0
   10.2573    8.3215   20.9827 C   0  0  0  0  0  0  0  0  0  0  0  0
   11.1606    5.9378   21.2366 N   0  0  0  0  0  0  0  0  0  0  0  0
    9.8932   11.6736   19.0677 O   0  0  0  0  0  0  0  0  0  0  0  0
    6.4470    4.5850   22.2321 C   0  0  0  0  0  0  0  0  0  0  0  0
    8.4619    6.9895   22.2968 C   0  0  0  0  0  0  0  0  0  0  0  0
   12.2747    7.5102   20.0420 C   0  0  0  0  0  0  0  0  0  0  0  0
   14.2544    6.2142   19.4191 C   0  0  0  0  0  0  0  0  0  0  0  0
   13.0695    6.3705   20.0375 N   0  0  0  0  0  0  0  0  0  0  0  0
    9.1913    8.0876   21.8361 N   0  0  0  0  0  0  0  0  0  0  0  0
   10.4739    9.4813   20.2889 C   0  0  0  0  0  0  0  0  0  0  0  0
    7.5551    7.1270   23.1200 O   0  0  0  0  0  0  0  0  0  0  0  0
  1 11  4  0
  1 21  4  0
  2  4  1  0
  2  8  1  0
  2 11  1  0
  3 10  4  0
  3 14  4  0
  4  5  1  0
  4 18  2  0
  6 12  1  0
  6 17  4  0
  6 23  4  0
  7  9  1  0
  7 13  4  0
  7 19  4  0
  9 20  1  0
 10 19  4  0
 11 25  4  0
 13 14  4  0
 15 16  4  0
 15 17  4  0
 15 21  4  0
 16 24  1  0
 16 25  4  0
 20 24  1  0
 20 26  2  0
 21 23  4  0
 22 23  1  0
M  END
$$$$

 Created by Python create_sdf_string function

 26 28  0  0  0  0  0  0  0  0999 V2000
   12.4616    8.6700   19.4180 N   0  0  0  0  0  0  0  0  0  0  0  0
   11.8329   10.8148   18.6769 N   0  0  0  0  0  0  0  0  0  0  0  0
    6.1021    2.5564   21.0678 C   0  0  0  0  0  0  0  0  0  0  0  0
   10.9097   11.8051   18.4804 C   0  0  0  0  0  0  0  0  0  0  0  0
   11.2280   12.9135   17.5669 C   0  0  0  0  0  0  0  0  0  0  0  0
   12.3782    5.4231   20.7777 C   0  0  0  0  0  0  0  0  0  0  0  0
    7.7365    4.6508   21.6987 C   0  0  0  0  0  0  0  0  0  0  0  0
   13.0186   11.0102   18.0020 C   0  0  0  0  0  0  0  0  0  0  0  0
    8.6628    5.7088   21.8871 N   0  0  0  0  0  0  0  0  0  0  0  0
    5.6516    3.5258   21.9140 C   0  0  0  0  0  0  0  0  0  0  0  0
   11.5863    9.6815   19.4539 C   0  0  0  0  0  0  0  0  0  0  0  0
   12.9648    4.1543   20.9205 C   0  0  0  0  0  0  0  0  0  0  0  0
    8.2089    3.6265   20.8929 C   0  0  0  0  0  0  0  0  0  0  0  0
    7.3827    2.5724   20.5432 C   0  0  0  0  0  0  0  0  0  0  0  0
   11.1529    7.2750   20.8025 C   0  0  0  0  0  0  0  0  0  0  0  0
   10.2573    8.3215   20.9827 C   0  0  0  0  0  0  0  0  0  0  0  0
   11.1606    5.9378   21.2366 N   0  0  0  0  0  0  0  0  0  0  0  0
    9.8932   11.6736   19.0677 O   0  0  0  0  0  0  0  0  0  0  0  0
    6.4470    4.5850   22.2321 C   0  0  0  0  0  0  0  0  0  0  0  0
    8.4619    6.9895   22.2968 C   0  0  0  0  0  0  0  0  0  0  0  0
   12.2747    7.5102   20.0420 C   0  0  0  0  0  0  0  0  0  0  0  0
   14.2544    6.2142   19.4191 C   0  0  0  0  0  0  0  0  0  0  0  0
   13.0695    6.3705   20.0375 N   0  0  0  0  0  0  0  0  0  0  0  0
    9.1913    8.0876   21.8361 N   0  0  0  0  0  0  0  0  0  0  0  0
   10.4739    9.4813   20.2889 C   0  0  0  0  0  0  0  0  0  0  0  0
    7.5551    7.1270   23.1200 O   0  0  0  0  0  0  0  0  0  0  0  0
  1 11  4  0
  1 21  4  0
  2  4  1  0
  2  8  1  0
  2 11  1  0
  3 10  4  0
  3 14  4  0
  4  5  1  0
  4 18  2  0
  6 12  1  0
  6 17  4  0
  6 23  4  0
  7  9  1  0
  7 13  4  0
  7 19  4  0
  9 20  1  0
 10 19  4  0
 11 25  4  0
 13 14  4  0
 15 16  4  0
 15 17  4  0
 15 21  4  0
 16 24  1  0
 16 25  4  0
 20 24  1  0
 20 26  2  0
 21 23  4  0
 22 23  1  0
M  END
$$$$

 Created by Python create_sdf_string function

 26 28  0  0  0  0  0  0  0  0999 V2000
   12.4616    8.6700   19.4180 N   0  0  0  0  0  0  0  0  0  0  0  0
   11.8329   10.8148   18.6769 N   0  0  0  0  0  0  0  0  0  0  0  0
    6.1021    2.5564   21.0678 C   0  0  0  0  0  0  0  0  0  0  0  0
   10.9097   11.8051   18.4804 C   0  0  0  0  0  0  0  0  0  0  0  0
   11.2280   12.9135   17.5669 C   0  0  0  0  0  0  0  0  0  0  0  0
   12.3782    5.4231   20.7777 C   0  0  0  0  0  0  0  0  0  0  0  0
    7.7365    4.6508   21.6987 C   0  0  0  0  0  0  0  0  0  0  0  0
   13.0186   11.0102   18.0020 C   0  0  0  0  0  0  0  0  0  0  0  0
    8.6628    5.7088   21.8871 N   0  0  0  0  0  0  0  0  0  0  0  0
    5.6516    3.5258   21.9140 C   0  0  0  0  0  0  0  0  0  0  0  0
   11.5863    9.6815   19.4539 C   0  0  0  0  0  0  0  0  0  0  0  0
   12.9648    4.1543   20.9205 C   0  0  0  0  0  0  0  0  0  0  0  0
    8.2089    3.6265   20.8929 C   0  0  0  0  0  0  0  0  0  0  0  0
    7.3827    2.5724   20.5432 C   0  0  0  0  0  0  0  0  0  0  0  0
   11.1529    7.2750   20.8025 C   0  0  0  0  0  0  0  0  0  0  0  0
   10.2573    8.3215   20.9827 C   0  0  0  0  0  0  0  0  0  0  0  0
   11.1606    5.9378   21.2366 N   0  0  0  0  0  0  0  0  0  0  0  0
    9.8932   11.6736   19.0677 O   0  0  0  0  0  0  0  0  0  0  0  0
    6.4470    4.5850   22.2321 C   0  0  0  0  0  0  0  0  0  0  0  0
    8.4619    6.9895   22.2968 C   0  0  0  0  0  0  0  0  0  0  0  0
   12.2747    7.5102   20.0420 C   0  0  0  0  0  0  0  0  0  0  0  0
   14.2544    6.2142   19.4191 C   0  0  0  0  0  0  0  0  0  0  0  0
   13.0695    6.3705   20.0375 N   0  0  0  0  0  0  0  0  0  0  0  0
    9.1913    8.0876   21.8361 N   0  0  0  0  0  0  0  0  0  0  0  0
   10.4739    9.4813   20.2889 C   0  0  0  0  0  0  0  0  0  0  0  0
    7.5551    7.1270   23.1200 O   0  0  0  0  0  0  0  0  0  0  0  0
  1 11  4  0
  1 21  4  0
  2  4  1  0
  2  8  1  0
  2 11  1  0
  3 10  4  0
  3 14  4  0
  4  5  1  0
  4 18  2  0
  6 12  1  0
  6 17  4  0
  6 23  4  0
  7  9  1  0
  7 13  4  0
  7 19  4  0
  9 20  1  0
 10 19  4  0
 11 25  4  0
 13 14  4  0
 15 16  4  0
 15 17  4  0
 15 21  4  0
 16 24  1  0
 16 25  4  0
 20 24  1  0
 20 26  2  0
 21 23  4  0
 22 23  1  0
M  END
$$$$

 Created by Python create_sdf_string function

 26 28  0  0  0  0  0  0  0  0999 V2000
   12.4616    8.6700   19.4180 N   0  0  0  0  0  0  0  0  0  0  0  0
   11.8329   10.8148   18.6769 N   0  0  0  0  0  0  0  0  0  0  0  0
    6.1021    2.5564   21.0678 C   0  0  0  0  0  0  0  0  0  0  0  0
   10.9097   11.8051   18.4804 C   0  0  0  0  0  0  0  0  0  0  0  0
   11.2280   12.9135   17.5669 C   0  0  0  0  0  0  0  0  0  0  0  0
   12.3782    5.4231   20.7777 C   0  0  0  0  0  0  0  0  0  0  0  0
    7.7365    4.6508   21.6987 C   0  0  0  0  0  0  0  0  0  0  0  0
   13.0186   11.0102   18.0020 C   0  0  0  0  0  0  0  0  0  0  0  0
    8.6628    5.7088   21.8871 N   0  0  0  0  0  0  0  0  0  0  0  0
    5.6516    3.5258   21.9140 C   0  0  0  0  0  0  0  0  0  0  0  0
   11.5863    9.6815   19.4539 C   0  0  0  0  0  0  0  0  0  0  0  0
   12.9648    4.1543   20.9205 C   0  0  0  0  0  0  0  0  0  0  0  0
    8.2089    3.6265   20.8929 C   0  0  0  0  0  0  0  0  0  0  0  0
    7.3827    2.5724   20.5432 C   0  0  0  0  0  0  0  0  0  0  0  0
   11.1529    7.2750   20.8025 C   0  0  0  0  0  0  0  0  0  0  0  0
   10.2573    8.3215   20.9827 C   0  0  0  0  0  0  0  0  0  0  0  0
   11.1606    5.9378   21.2366 N   0  0  0  0  0  0  0  0  0  0  0  0
    9.8932   11.6736   19.0677 O   0  0  0  0  0  0  0  0  0  0  0  0
    6.4470    4.5850   22.2321 C   0  0  0  0  0  0  0  0  0  0  0  0
    8.4619    6.9895   22.2968 C   0  0  0  0  0  0  0  0  0  0  0  0
   12.2747    7.5102   20.0420 C   0  0  0  0  0  0  0  0  0  0  0  0
   14.2544    6.2142   19.4191 C   0  0  0  0  0  0  0  0  0  0  0  0
   13.0695    6.3705   20.0375 N   0  0  0  0  0  0  0  0  0  0  0  0
    9.1913    8.0876   21.8361 N   0  0  0  0  0  0  0  0  0  0  0  0
   10.4739    9.4813   20.2889 C   0  0  0  0  0  0  0  0  0  0  0  0
    7.5551    7.1270   23.1200 O   0  0  0  0  0  0  0  0  0  0  0  0
  1 11  4  0
  1 21  4  0
  2  4  1  0
  2  8  1  0
  2 11  1  0
  3 10  4  0
  3 14  4  0
  4  5  1  0
  4 18  2  0
  6 12  1  0
  6 17  4  0
  6 23  4  0
  7  9  1  0
  7 13  4  0
  7 19  4  0
  9 20  1  0
 10 19  4  0
 11 25  4  0
 13 14  4  0
 15 16  4  0
 15 17  4  0
 15 21  4  0
 16 24  1  0
 16 25  4  0
 20 24  1  0
 20 26  2  0
 21 23  4  0
 22 23  1  0
M  END
$$$$

 Created by Python create_sdf_string function

 26 28  0  0  0  0  0  0  0  0999 V2000
   12.4616    8.6700   19.4180 N   0  0  0  0  0  0  0  0  0  0  0  0
   11.8329   10.8148   18.6769 N   0  0  0  0  0  0  0  0  0  0  0  0
    6.1021    2.5564   21.0678 C   0  0  0  0  0  0  0  0  0  0  0  0
   10.9097   11.8051   18.4804 C   0  0  0  0  0  0  0  0  0  0  0  0
   11.2280   12.9135   17.5669 C   0  0  0  0  0  0  0  0  0  0  0  0
   12.3782    5.4231   20.7777 C   0  0  0  0  0  0  0  0  0  0  0  0
    7.7365    4.6508   21.6987 C   0  0  0  0  0  0  0  0  0  0  0  0
   13.0186   11.0102   18.0020 C   0  0  0  0  0  0  0  0  0  0  0  0
    8.6628    5.7088   21.8871 N   0  0  0  0  0  0  0  0  0  0  0  0
    5.6516    3.5258   21.9140 C   0  0  0  0  0  0  0  0  0  0  0  0
   11.5863    9.6815   19.4539 C   0  0  0  0  0  0  0  0  0  0  0  0
   12.9648    4.1543   20.9205 C   0  0  0  0  0  0  0  0  0  0  0  0
    8.2089    3.6265   20.8929 C   0  0  0  0  0  0  0  0  0  0  0  0
    7.3827    2.5724   20.5432 C   0  0  0  0  0  0  0  0  0  0  0  0
   11.1529    7.2750   20.8025 C   0  0  0  0  0  0  0  0  0  0  0  0
   10.2573    8.3215   20.9827 C   0  0  0  0  0  0  0  0  0  0  0  0
   11.1606    5.9378   21.2366 N   0  0  0  0  0  0  0  0  0  0  0  0
    9.8932   11.6736   19.0677 O   0  0  0  0  0  0  0  0  0  0  0  0
    6.4470    4.5850   22.2321 C   0  0  0  0  0  0  0  0  0  0  0  0
    8.4619    6.9895   22.2968 C   0  0  0  0  0  0  0  0  0  0  0  0
   12.2747    7.5102   20.0420 C   0  0  0  0  0  0  0  0  0  0  0  0
   14.2544    6.2142   19.4191 C   0  0  0  0  0  0  0  0  0  0  0  0
   13.0695    6.3705   20.0375 N   0  0  0  0  0  0  0  0  0  0  0  0
    9.1913    8.0876   21.8361 N   0  0  0  0  0  0  0  0  0  0  0  0
   10.4739    9.4813   20.2889 C   0  0  0  0  0  0  0  0  0  0  0  0
    7.5551    7.1270   23.1200 O   0  0  0  0  0  0  0  0  0  0  0  0
  1 11  4  0
  1 21  4  0
  2  4  1  0
  2  8  1  0
  2 11  1  0
  3 10  4  0
  3 14  4  0
  4  5  1  0
  4 18  2  0
  6 12  1  0
  6 17  4  0
  6 23  4  0
  7  9  1  0
  7 13  4  0
  7 19  4  0
  9 20  1  0
 10 19  4  0
 11 25  4  0
 13 14  4  0
 15 16  4  0
 15 17  4  0
 15 21  4  0
 16 24  1  0
 16 25  4  0
 20 24  1  0
 20 26  2  0
 21 23  4  0
 22 23  1  0
M  END
$$$$

 Created by Python create_sdf_string function

 26 28  0  0  0  0  0  0  0  0999 V2000
   12.4616    8.6700   19.4180 N   0  0  0  0  0  0  0  0  0  0  0  0
   11.8329   10.8148   18.6769 N   0  0  0  0  0  0  0  0  0  0  0  0
    6.1021    2.5564   21.0678 C   0  0  0  0  0  0  0  0  0  0  0  0
   10.9097   11.8051   18.4804 C   0  0  0  0  0  0  0  0  0  0  0  0
   11.2280   12.9135   17.5669 C   0  0  0  0  0  0  0  0  0  0  0  0
   12.3782    5.4231   20.7777 C   0  0  0  0  0  0  0  0  0  0  0  0
    7.7365    4.6508   21.6987 C   0  0  0  0  0  0  0  0  0  0  0  0
   13.0186   11.0102   18.0020 C   0  0  0  0  0  0  0  0  0  0  0  0
    8.6628    5.7088   21.8871 N   0  0  0  0  0  0  0  0  0  0  0  0
    5.6516    3.5258   21.9140 C   0  0  0  0  0  0  0  0  0  0  0  0
   11.5863    9.6815   19.4539 C   0  0  0  0  0  0  0  0  0  0  0  0
   12.9648    4.1543   20.9205 C   0  0  0  0  0  0  0  0  0  0  0  0
    8.2089    3.6265   20.8929 C   0  0  0  0  0  0  0  0  0  0  0  0
    7.3827    2.5724   20.5432 C   0  0  0  0  0  0  0  0  0  0  0  0
   11.1529    7.2750   20.8025 C   0  0  0  0  0  0  0  0  0  0  0  0
   10.2573    8.3215   20.9827 C   0  0  0  0  0  0  0  0  0  0  0  0
   11.1606    5.9378   21.2366 N   0  0  0  0  0  0  0  0  0  0  0  0
    9.8932   11.6736   19.0677 O   0  0  0  0  0  0  0  0  0  0  0  0
    6.4470    4.5850   22.2321 C   0  0  0  0  0  0  0  0  0  0  0  0
    8.4619    6.9895   22.2968 C   0  0  0  0  0  0  0  0  0  0  0  0
   12.2747    7.5102   20.0420 C   0  0  0  0  0  0  0  0  0  0  0  0
   14.2544    6.2142   19.4191 C   0  0  0  0  0  0  0  0  0  0  0  0
   13.0695    6.3705   20.0375 N   0  0  0  0  0  0  0  0  0  0  0  0
    9.1913    8.0876   21.8361 N   0  0  0  0  0  0  0  0  0  0  0  0
   10.4739    9.4813   20.2889 C   0  0  0  0  0  0  0  0  0  0  0  0
    7.5551    7.1270   23.1200 O   0  0  0  0  0  0  0  0  0  0  0  0
  1 11  4  0
  1 21  4  0
  2  4  1  0
  2  8  1  0
  2 11  1  0
  3 10  4  0
  3 14  4  0
  4  5  1  0
  4 18  2  0
  6 12  1  0
  6 17  4  0
  6 23  4  0
  7  9  1  0
  7 13  4  0
  7 19  4  0
  9 20  1  0
 10 19  4  0
 11 25  4  0
 13 14  4  0
 15 16  4  0
 15 17  4  0
 15 21  4  0
 16 24  1  0
 16 25  4  0
 20 24  1  0
 20 26  2  0
 21 23  4  0
 22 23  1  0
M  END
$$$$

 Created by Python create_sdf_string function

 26 28  0  0  0  0  0  0  0  0999 V2000
   12.4616    8.6700   19.4180 N   0  0  0  0  0  0  0  0  0  0  0  0
   11.8329   10.8148   18.6769 N   0  0  0  0  0  0  0  0  0  0  0  0
    6.1021    2.5564   21.0678 C   0  0  0  0  0  0  0  0  0  0  0  0
   10.9097   11.8051   18.4804 C   0  0  0  0  0  0  0  0  0  0  0  0
   11.2280   12.9135   17.5669 C   0  0  0  0  0  0  0  0  0  0  0  0
   12.3782    5.4231   20.7777 C   0  0  0  0  0  0  0  0  0  0  0  0
    7.7365    4.6508   21.6987 C   0  0  0  0  0  0  0  0  0  0  0  0
   13.0186   11.0102   18.0020 C   0  0  0  0  0  0  0  0  0  0  0  0
    8.6628    5.7088   21.8871 N   0  0  0  0  0  0  0  0  0  0  0  0
    5.6516    3.5258   21.9140 C   0  0  0  0  0  0  0  0  0  0  0  0
   11.5863    9.6815   19.4539 C   0  0  0  0  0  0  0  0  0  0  0  0
   12.9648    4.1543   20.9205 C   0  0  0  0  0  0  0  0  0  0  0  0
    8.2089    3.6265   20.8929 C   0  0  0  0  0  0  0  0  0  0  0  0
    7.3827    2.5724   20.5432 C   0  0  0  0  0  0  0  0  0  0  0  0
   11.1529    7.2750   20.8025 C   0  0  0  0  0  0  0  0  0  0  0  0
   10.2573    8.3215   20.9827 C   0  0  0  0  0  0  0  0  0  0  0  0
   11.1606    5.9378   21.2366 N   0  0  0  0  0  0  0  0  0  0  0  0
    9.8932   11.6736   19.0677 O   0  0  0  0  0  0  0  0  0  0  0  0
    6.4470    4.5850   22.2321 C   0  0  0  0  0  0  0  0  0  0  0  0
    8.4619    6.9895   22.2968 C   0  0  0  0  0  0  0  0  0  0  0  0
   12.2747    7.5102   20.0420 C   0  0  0  0  0  0  0  0  0  0  0  0
   14.2544    6.2142   19.4191 C   0  0  0  0  0  0  0  0  0  0  0  0
   13.0695    6.3705   20.0375 N   0  0  0  0  0  0  0  0  0  0  0  0
    9.1913    8.0876   21.8361 N   0  0  0  0  0  0  0  0  0  0  0  0
   10.4739    9.4813   20.2889 C   0  0  0  0  0  0  0  0  0  0  0  0
    7.5551    7.1270   23.1200 O   0  0  0  0  0  0  0  0  0  0  0  0
  1 11  4  0
  1 21  4  0
  2  4  1  0
  2  8  1  0
  2 11  1  0
  3 10  4  0
  3 14  4  0
  4  5  1  0
  4 18  2  0
  6 12  1  0
  6 17  4  0
  6 23  4  0
  7  9  1  0
  7 13  4  0
  7 19  4  0
  9 20  1  0
 10 19  4  0
 11 25  4  0
 13 14  4  0
 15 16  4  0
 15 17  4  0
 15 21  4  0
 16 24  1  0
 16 25  4  0
 20 24  1  0
 20 26  2  0
 21 23  4  0
 22 23  1  0
M  END
$$$$

 Created by Python create_sdf_string function

 26 28  0  0  0  0  0  0  0  0999 V2000
   12.4616    8.6700   19.4180 N   0  0  0  0  0  0  0  0  0  0  0  0
   11.8329   10.8148   18.6769 N   0  0  0  0  0  0  0  0  0  0  0  0
    6.1021    2.5564   21.0678 C   0  0  0  0  0  0  0  0  0  0  0  0
   10.9097   11.8051   18.4804 C   0  0  0  0  0  0  0  0  0  0  0  0
   11.2280   12.9135   17.5669 C   0  0  0  0  0  0  0  0  0  0  0  0
   12.3782    5.4231   20.7777 C   0  0  0  0  0  0  0  0  0  0  0  0
    7.7365    4.6508   21.6987 C   0  0  0  0  0  0  0  0  0  0  0  0
   13.0186   11.0102   18.0020 C   0  0  0  0  0  0  0  0  0  0  0  0
    8.6628    5.7088   21.8871 N   0  0  0  0  0  0  0  0  0  0  0  0
    5.6516    3.5258   21.9140 C   0  0  0  0  0  0  0  0  0  0  0  0
   11.5863    9.6815   19.4539 C   0  0  0  0  0  0  0  0  0  0  0  0
   12.9648    4.1543   20.9205 C   0  0  0  0  0  0  0  0  0  0  0  0
    8.2089    3.6265   20.8929 C   0  0  0  0  0  0  0  0  0  0  0  0
    7.3827    2.5724   20.5432 C   0  0  0  0  0  0  0  0  0  0  0  0
   11.1529    7.2750   20.8025 C   0  0  0  0  0  0  0  0  0  0  0  0
   10.2573    8.3215   20.9827 C   0  0  0  0  0  0  0  0  0  0  0  0
   11.1606    5.9378   21.2366 N   0  0  0  0  0  0  0  0  0  0  0  0
    9.8932   11.6736   19.0677 O   0  0  0  0  0  0  0  0  0  0  0  0
    6.4470    4.5850   22.2321 C   0  0  0  0  0  0  0  0  0  0  0  0
    8.4619    6.9895   22.2968 C   0  0  0  0  0  0  0  0  0  0  0  0
   12.2747    7.5102   20.0420 C   0  0  0  0  0  0  0  0  0  0  0  0
   14.2544    6.2142   19.4191 C   0  0  0  0  0  0  0  0  0  0  0  0
   13.0695    6.3705   20.0375 N   0  0  0  0  0  0  0  0  0  0  0  0
    9.1913    8.0876   21.8361 N   0  0  0  0  0  0  0  0  0  0  0  0
   10.4739    9.4813   20.2889 C   0  0  0  0  0  0  0  0  0  0  0  0
    7.5551    7.1270   23.1200 O   0  0  0  0  0  0  0  0  0  0  0  0
  1 11  4  0
  1 21  4  0
  2  4  1  0
  2  8  1  0
  2 11  1  0
  3 10  4  0
  3 14  4  0
  4  5  1  0
  4 18  2  0
  6 12  1  0
  6 17  4  0
  6 23  4  0
  7  9  1  0
  7 13  4  0
  7 19  4  0
  9 20  1  0
 10 19  4  0
 11 25  4  0
 13 14  4  0
 15 16  4  0
 15 17  4  0
 15 21  4  0
 16 24  1  0
 16 25  4  0
 20 24  1  0
 20 26  2  0
 21 23  4  0
 22 23  1  0
M  END
$$$$

 Created by Python create_sdf_string function

 26 28  0  0  0  0  0  0  0  0999 V2000
   12.4616    8.6700   19.4180 N   0  0  0  0  0  0  0  0  0  0  0  0
   11.8329   10.8148   18.6769 N   0  0  0  0  0  0  0  0  0  0  0  0
    6.1021    2.5564   21.0678 C   0  0  0  0  0  0  0  0  0  0  0  0
   10.9097   11.8051   18.4804 C   0  0  0  0  0  0  0  0  0  0  0  0
   11.2280   12.9135   17.5669 C   0  0  0  0  0  0  0  0  0  0  0  0
   12.3782    5.4231   20.7777 C   0  0  0  0  0  0  0  0  0  0  0  0
    7.7365    4.6508   21.6987 C   0  0  0  0  0  0  0  0  0  0  0  0
   13.0186   11.0102   18.0020 C   0  0  0  0  0  0  0  0  0  0  0  0
    8.6628    5.7088   21.8871 N   0  0  0  0  0  0  0  0  0  0  0  0
    5.6516    3.5258   21.9140 C   0  0  0  0  0  0  0  0  0  0  0  0
   11.5863    9.6815   19.4539 C   0  0  0  0  0  0  0  0  0  0  0  0
   12.9648    4.1543   20.9205 C   0  0  0  0  0  0  0  0  0  0  0  0
    8.2089    3.6265   20.8929 C   0  0  0  0  0  0  0  0  0  0  0  0
    7.3827    2.5724   20.5432 C   0  0  0  0  0  0  0  0  0  0  0  0
   11.1529    7.2750   20.8025 C   0  0  0  0  0  0  0  0  0  0  0  0
   10.2573    8.3215   20.9827 C   0  0  0  0  0  0  0  0  0  0  0  0
   11.1606    5.9378   21.2366 N   0  0  0  0  0  0  0  0  0  0  0  0
    9.8932   11.6736   19.0677 O   0  0  0  0  0  0  0  0  0  0  0  0
    6.4470    4.5850   22.2321 C   0  0  0  0  0  0  0  0  0  0  0  0
    8.4619    6.9895   22.2968 C   0  0  0  0  0  0  0  0  0  0  0  0
   12.2747    7.5102   20.0420 C   0  0  0  0  0  0  0  0  0  0  0  0
   14.2544    6.2142   19.4191 C   0  0  0  0  0  0  0  0  0  0  0  0
   13.0695    6.3705   20.0375 N   0  0  0  0  0  0  0  0  0  0  0  0
    9.1913    8.0876   21.8361 N   0  0  0  0  0  0  0  0  0  0  0  0
   10.4739    9.4813   20.2889 C   0  0  0  0  0  0  0  0  0  0  0  0
    7.5551    7.1270   23.1200 O   0  0  0  0  0  0  0  0  0  0  0  0
  1 11  4  0
  1 21  4  0
  2  4  1  0
  2  8  1  0
  2 11  1  0
  3 10  4  0
  3 14  4  0
  4  5  1  0
  4 18  2  0
  6 12  1  0
  6 17  4  0
  6 23  4  0
  7  9  1  0
  7 13  4  0
  7 19  4  0
  9 20  1  0
 10 19  4  0
 11 25  4  0
 13 14  4  0
 15 16  4  0
 15 17  4  0
 15 21  4  0
 16 24  1  0
 16 25  4  0
 20 24  1  0
 20 26  2  0
 21 23  4  0
 22 23  1  0
M  END
$$$$

 Created by Python create_sdf_string function

 26 28  0  0  0  0  0  0  0  0999 V2000
   12.4616    8.6700   19.4180 N   0  0  0  0  0  0  0  0  0  0  0  0
   11.8329   10.8148   18.6769 N   0  0  0  0  0  0  0  0  0  0  0  0
    6.1021    2.5564   21.0678 C   0  0  0  0  0  0  0  0  0  0  0  0
   10.9097   11.8051   18.4804 C   0  0  0  0  0  0  0  0  0  0  0  0
   11.2280   12.9135   17.5669 C   0  0  0  0  0  0  0  0  0  0  0  0
   12.3782    5.4231   20.7777 C   0  0  0  0  0  0  0  0  0  0  0  0
    7.7365    4.6508   21.6987 C   0  0  0  0  0  0  0  0  0  0  0  0
   13.0186   11.0102   18.0020 C   0  0  0  0  0  0  0  0  0  0  0  0
    8.6628    5.7088   21.8871 N   0  0  0  0  0  0  0  0  0  0  0  0
    5.6516    3.5258   21.9140 C   0  0  0  0  0  0  0  0  0  0  0  0
   11.5863    9.6815   19.4539 C   0  0  0  0  0  0  0  0  0  0  0  0
   12.9648    4.1543   20.9205 C   0  0  0  0  0  0  0  0  0  0  0  0
    8.2089    3.6265   20.8929 C   0  0  0  0  0  0  0  0  0  0  0  0
    7.3827    2.5724   20.5432 C   0  0  0  0  0  0  0  0  0  0  0  0
   11.1529    7.2750   20.8025 C   0  0  0  0  0  0  0  0  0  0  0  0
   10.2573    8.3215   20.9827 C   0  0  0  0  0  0  0  0  0  0  0  0
   11.1606    5.9378   21.2366 N   0  0  0  0  0  0  0  0  0  0  0  0
    9.8932   11.6736   19.0677 O   0  0  0  0  0  0  0  0  0  0  0  0
    6.4470    4.5850   22.2321 C   0  0  0  0  0  0  0  0  0  0  0  0
    8.4619    6.9895   22.2968 C   0  0  0  0  0  0  0  0  0  0  0  0
   12.2747    7.5102   20.0420 C   0  0  0  0  0  0  0  0  0  0  0  0
   14.2544    6.2142   19.4191 C   0  0  0  0  0  0  0  0  0  0  0  0
   13.0695    6.3705   20.0375 N   0  0  0  0  0  0  0  0  0  0  0  0
    9.1913    8.0876   21.8361 N   0  0  0  0  0  0  0  0  0  0  0  0
   10.4739    9.4813   20.2889 C   0  0  0  0  0  0  0  0  0  0  0  0
    7.5551    7.1270   23.1200 O   0  0  0  0  0  0  0  0  0  0  0  0
  1 11  4  0
  1 21  4  0
  2  4  1  0
  2  8  1  0
  2 11  1  0
  3 10  4  0
  3 14  4  0
  4  5  1  0
  4 18  2  0
  6 12  1  0
  6 17  4  0
  6 23  4  0
  7  9  1  0
  7 13  4  0
  7 19  4  0
  9 20  1  0
 10 19  4  0
 11 25  4  0
 13 14  4  0
 15 16  4  0
 15 17  4  0
 15 21  4  0
 16 24  1  0
 16 25  4  0
 20 24  1  0
 20 26  2  0
 21 23  4  0
 22 23  1  0
M  END
$$$$

 Created by Python create_sdf_string function

 26 28  0  0  0  0  0  0  0  0999 V2000
   12.4616    8.6700   19.4180 N   0  0  0  0  0  0  0  0  0  0  0  0
   11.8329   10.8148   18.6769 N   0  0  0  0  0  0  0  0  0  0  0  0
    6.1021    2.5564   21.0678 C   0  0  0  0  0  0  0  0  0  0  0  0
   10.9097   11.8051   18.4804 C   0  0  0  0  0  0  0  0  0  0  0  0
   11.2280   12.9135   17.5669 C   0  0  0  0  0  0  0  0  0  0  0  0
   12.3782    5.4231   20.7777 C   0  0  0  0  0  0  0  0  0  0  0  0
    7.7365    4.6508   21.6987 C   0  0  0  0  0  0  0  0  0  0  0  0
   13.0186   11.0102   18.0020 C   0  0  0  0  0  0  0  0  0  0  0  0
    8.6628    5.7088   21.8871 N   0  0  0  0  0  0  0  0  0  0  0  0
    5.6516    3.5258   21.9140 C   0  0  0  0  0  0  0  0  0  0  0  0
   11.5863    9.6815   19.4539 C   0  0  0  0  0  0  0  0  0  0  0  0
   12.9648    4.1543   20.9205 C   0  0  0  0  0  0  0  0  0  0  0  0
    8.2089    3.6265   20.8929 C   0  0  0  0  0  0  0  0  0  0  0  0
    7.3827    2.5724   20.5432 C   0  0  0  0  0  0  0  0  0  0  0  0
   11.1529    7.2750   20.8025 C   0  0  0  0  0  0  0  0  0  0  0  0
   10.2573    8.3215   20.9827 C   0  0  0  0  0  0  0  0  0  0  0  0
   11.1606    5.9378   21.2366 N   0  0  0  0  0  0  0  0  0  0  0  0
    9.8932   11.6736   19.0677 O   0  0  0  0  0  0  0  0  0  0  0  0
    6.4470    4.5850   22.2321 C   0  0  0  0  0  0  0  0  0  0  0  0
    8.4619    6.9895   22.2968 C   0  0  0  0  0  0  0  0  0  0  0  0
   12.2747    7.5102   20.0420 C   0  0  0  0  0  0  0  0  0  0  0  0
   14.2544    6.2142   19.4191 C   0  0  0  0  0  0  0  0  0  0  0  0
   13.0695    6.3705   20.0375 N   0  0  0  0  0  0  0  0  0  0  0  0
    9.1913    8.0876   21.8361 N   0  0  0  0  0  0  0  0  0  0  0  0
   10.4739    9.4813   20.2889 C   0  0  0  0  0  0  0  0  0  0  0  0
    7.5551    7.1270   23.1200 O   0  0  0  0  0  0  0  0  0  0  0  0
  1 11  4  0
  1 21  4  0
  2  4  1  0
  2  8  1  0
  2 11  1  0
  3 10  4  0
  3 14  4  0
  4  5  1  0
  4 18  2  0
  6 12  1  0
  6 17  4  0
  6 23  4  0
  7  9  1  0
  7 13  4  0
  7 19  4  0
  9 20  1  0
 10 19  4  0
 11 25  4  0
 13 14  4  0
 15 16  4  0
 15 17  4  0
 15 21  4  0
 16 24  1  0
 16 25  4  0
 20 24  1  0
 20 26  2  0
 21 23  4  0
 22 23  1  0
M  END
$$$$

 Created by Python create_sdf_string function

 26 28  0  0  0  0  0  0  0  0999 V2000
   12.4616    8.6700   19.4180 N   0  0  0  0  0  0  0  0  0  0  0  0
   11.8329   10.8148   18.6769 N   0  0  0  0  0  0  0  0  0  0  0  0
    6.1021    2.5564   21.0678 C   0  0  0  0  0  0  0  0  0  0  0  0
   10.9097   11.8051   18.4804 C   0  0  0  0  0  0  0  0  0  0  0  0
   11.2280   12.9135   17.5669 C   0  0  0  0  0  0  0  0  0  0  0  0
   12.3782    5.4231   20.7777 C   0  0  0  0  0  0  0  0  0  0  0  0
    7.7365    4.6508   21.6987 C   0  0  0  0  0  0  0  0  0  0  0  0
   13.0186   11.0102   18.0020 C   0  0  0  0  0  0  0  0  0  0  0  0
    8.6628    5.7088   21.8871 N   0  0  0  0  0  0  0  0  0  0  0  0
    5.6516    3.5258   21.9140 C   0  0  0  0  0  0  0  0  0  0  0  0
   11.5863    9.6815   19.4539 C   0  0  0  0  0  0  0  0  0  0  0  0
   12.9648    4.1543   20.9205 C   0  0  0  0  0  0  0  0  0  0  0  0
    8.2089    3.6265   20.8929 C   0  0  0  0  0  0  0  0  0  0  0  0
    7.3827    2.5724   20.5432 C   0  0  0  0  0  0  0  0  0  0  0  0
   11.1529    7.2750   20.8025 C   0  0  0  0  0  0  0  0  0  0  0  0
   10.2573    8.3215   20.9827 C   0  0  0  0  0  0  0  0  0  0  0  0
   11.1606    5.9378   21.2366 N   0  0  0  0  0  0  0  0  0  0  0  0
    9.8932   11.6736   19.0677 O   0  0  0  0  0  0  0  0  0  0  0  0
    6.4470    4.5850   22.2321 C   0  0  0  0  0  0  0  0  0  0  0  0
    8.4619    6.9895   22.2968 C   0  0  0  0  0  0  0  0  0  0  0  0
   12.2747    7.5102   20.0420 C   0  0  0  0  0  0  0  0  0  0  0  0
   14.2544    6.2142   19.4191 C   0  0  0  0  0  0  0  0  0  0  0  0
   13.0695    6.3705   20.0375 N   0  0  0  0  0  0  0  0  0  0  0  0
    9.1913    8.0876   21.8361 N   0  0  0  0  0  0  0  0  0  0  0  0
   10.4739    9.4813   20.2889 C   0  0  0  0  0  0  0  0  0  0  0  0
    7.5551    7.1270   23.1200 O   0  0  0  0  0  0  0  0  0  0  0  0
  1 11  4  0
  1 21  4  0
  2  4  1  0
  2  8  1  0
  2 11  1  0
  3 10  4  0
  3 14  4  0
  4  5  1  0
  4 18  2  0
  6 12  1  0
  6 17  4  0
  6 23  4  0
  7  9  1  0
  7 13  4  0
  7 19  4  0
  9 20  1  0
 10 19  4  0
 11 25  4  0
 13 14  4  0
 15 16  4  0
 15 17  4  0
 15 21  4  0
 16 24  1  0
 16 25  4  0
 20 24  1  0
 20 26  2  0
 21 23  4  0
 22 23  1  0
M  END
$$$$

 Created by Python create_sdf_string function

 26 28  0  0  0  0  0  0  0  0999 V2000
   12.4616    8.6700   19.4180 N   0  0  0  0  0  0  0  0  0  0  0  0
   11.8329   10.8148   18.6769 N   0  0  0  0  0  0  0  0  0  0  0  0
    6.1021    2.5564   21.0678 C   0  0  0  0  0  0  0  0  0  0  0  0
   10.9097   11.8051   18.4804 C   0  0  0  0  0  0  0  0  0  0  0  0
   11.2280   12.9135   17.5669 C   0  0  0  0  0  0  0  0  0  0  0  0
   12.3782    5.4231   20.7777 C   0  0  0  0  0  0  0  0  0  0  0  0
    7.7365    4.6508   21.6987 C   0  0  0  0  0  0  0  0  0  0  0  0
   13.0186   11.0102   18.0020 C   0  0  0  0  0  0  0  0  0  0  0  0
    8.6628    5.7088   21.8871 N   0  0  0  0  0  0  0  0  0  0  0  0
    5.6516    3.5258   21.9140 C   0  0  0  0  0  0  0  0  0  0  0  0
   11.5863    9.6815   19.4539 C   0  0  0  0  0  0  0  0  0  0  0  0
   12.9648    4.1543   20.9205 C   0  0  0  0  0  0  0  0  0  0  0  0
    8.2089    3.6265   20.8929 C   0  0  0  0  0  0  0  0  0  0  0  0
    7.3827    2.5724   20.5432 C   0  0  0  0  0  0  0  0  0  0  0  0
   11.1529    7.2750   20.8025 C   0  0  0  0  0  0  0  0  0  0  0  0
   10.2573    8.3215   20.9827 C   0  0  0  0  0  0  0  0  0  0  0  0
   11.1606    5.9378   21.2366 N   0  0  0  0  0  0  0  0  0  0  0  0
    9.8932   11.6736   19.0677 O   0  0  0  0  0  0  0  0  0  0  0  0
    6.4470    4.5850   22.2321 C   0  0  0  0  0  0  0  0  0  0  0  0
    8.4619    6.9895   22.2968 C   0  0  0  0  0  0  0  0  0  0  0  0
   12.2747    7.5102   20.0420 C   0  0  0  0  0  0  0  0  0  0  0  0
   14.2544    6.2142   19.4191 C   0  0  0  0  0  0  0  0  0  0  0  0
   13.0695    6.3705   20.0375 N   0  0  0  0  0  0  0  0  0  0  0  0
    9.1913    8.0876   21.8361 N   0  0  0  0  0  0  0  0  0  0  0  0
   10.4739    9.4813   20.2889 C   0  0  0  0  0  0  0  0  0  0  0  0
    7.5551    7.1270   23.1200 O   0  0  0  0  0  0  0  0  0  0  0  0
  1 11  4  0
  1 21  4  0
  2  4  1  0
  2  8  1  0
  2 11  1  0
  3 10  4  0
  3 14  4  0
  4  5  1  0
  4 18  2  0
  6 12  1  0
  6 17  4  0
  6 23  4  0
  7  9  1  0
  7 13  4  0
  7 19  4  0
  9 20  1  0
 10 19  4  0
 11 25  4  0
 13 14  4  0
 15 16  4  0
 15 17  4  0
 15 21  4  0
 16 24  1  0
 16 25  4  0
 20 24  1  0
 20 26  2  0
 21 23  4  0
 22 23  1  0
M  END
$$$$

 Created by Python create_sdf_string function

 26 28  0  0  0  0  0  0  0  0999 V2000
   12.4616    8.6700   19.4180 N   0  0  0  0  0  0  0  0  0  0  0  0
   11.8329   10.8148   18.6769 N   0  0  0  0  0  0  0  0  0  0  0  0
    6.1021    2.5564   21.0678 C   0  0  0  0  0  0  0  0  0  0  0  0
   10.9097   11.8051   18.4804 C   0  0  0  0  0  0  0  0  0  0  0  0
   11.2280   12.9135   17.5669 C   0  0  0  0  0  0  0  0  0  0  0  0
   12.3782    5.4231   20.7777 C   0  0  0  0  0  0  0  0  0  0  0  0
    7.7365    4.6508   21.6987 C   0  0  0  0  0  0  0  0  0  0  0  0
   13.0186   11.0102   18.0020 C   0  0  0  0  0  0  0  0  0  0  0  0
    8.6628    5.7088   21.8871 N   0  0  0  0  0  0  0  0  0  0  0  0
    5.6516    3.5258   21.9140 C   0  0  0  0  0  0  0  0  0  0  0  0
   11.5863    9.6815   19.4539 C   0  0  0  0  0  0  0  0  0  0  0  0
   12.9648    4.1543   20.9205 C   0  0  0  0  0  0  0  0  0  0  0  0
    8.2089    3.6265   20.8929 C   0  0  0  0  0  0  0  0  0  0  0  0
    7.3827    2.5724   20.5432 C   0  0  0  0  0  0  0  0  0  0  0  0
   11.1529    7.2750   20.8025 C   0  0  0  0  0  0  0  0  0  0  0  0
   10.2573    8.3215   20.9827 C   0  0  0  0  0  0  0  0  0  0  0  0
   11.1606    5.9378   21.2366 N   0  0  0  0  0  0  0  0  0  0  0  0
    9.8932   11.6736   19.0677 O   0  0  0  0  0  0  0  0  0  0  0  0
    6.4470    4.5850   22.2321 C   0  0  0  0  0  0  0  0  0  0  0  0
    8.4619    6.9895   22.2968 C   0  0  0  0  0  0  0  0  0  0  0  0
   12.2747    7.5102   20.0420 C   0  0  0  0  0  0  0  0  0  0  0  0
   14.2544    6.2142   19.4191 C   0  0  0  0  0  0  0  0  0  0  0  0
   13.0695    6.3705   20.0375 N   0  0  0  0  0  0  0  0  0  0  0  0
    9.1913    8.0876   21.8361 N   0  0  0  0  0  0  0  0  0  0  0  0
   10.4739    9.4813   20.2889 C   0  0  0  0  0  0  0  0  0  0  0  0
    7.5551    7.1270   23.1200 O   0  0  0  0  0  0  0  0  0  0  0  0
  1 11  4  0
  1 21  4  0
  2  4  1  0
  2  8  1  0
  2 11  1  0
  3 10  4  0
  3 14  4  0
  4  5  1  0
  4 18  2  0
  6 12  1  0
  6 17  4  0
  6 23  4  0
  7  9  1  0
  7 13  4  0
  7 19  4  0
  9 20  1  0
 10 19  4  0
 11 25  4  0
 13 14  4  0
 15 16  4  0
 15 17  4  0
 15 21  4  0
 16 24  1  0
 16 25  4  0
 20 24  1  0
 20 26  2  0
 21 23  4  0
 22 23  1  0
M  END
$$$$

 Created by Python create_sdf_string function

 26 28  0  0  0  0  0  0  0  0999 V2000
   12.4616    8.6700   19.4180 N   0  0  0  0  0  0  0  0  0  0  0  0
   11.8329   10.8148   18.6769 N   0  0  0  0  0  0  0  0  0  0  0  0
    6.1021    2.5564   21.0678 C   0  0  0  0  0  0  0  0  0  0  0  0
   10.9097   11.8051   18.4804 C   0  0  0  0  0  0  0  0  0  0  0  0
   11.2280   12.9135   17.5669 C   0  0  0  0  0  0  0  0  0  0  0  0
   12.3782    5.4231   20.7777 C   0  0  0  0  0  0  0  0  0  0  0  0
    7.7365    4.6508   21.6987 C   0  0  0  0  0  0  0  0  0  0  0  0
   13.0186   11.0102   18.0020 C   0  0  0  0  0  0  0  0  0  0  0  0
    8.6628    5.7088   21.8871 N   0  0  0  0  0  0  0  0  0  0  0  0
    5.6516    3.5258   21.9140 C   0  0  0  0  0  0  0  0  0  0  0  0
   11.5863    9.6815   19.4539 C   0  0  0  0  0  0  0  0  0  0  0  0
   12.9648    4.1543   20.9205 C   0  0  0  0  0  0  0  0  0  0  0  0
    8.2089    3.6265   20.8929 C   0  0  0  0  0  0  0  0  0  0  0  0
    7.3827    2.5724   20.5432 C   0  0  0  0  0  0  0  0  0  0  0  0
   11.1529    7.2750   20.8025 C   0  0  0  0  0  0  0  0  0  0  0  0
   10.2573    8.3215   20.9827 C   0  0  0  0  0  0  0  0  0  0  0  0
   11.1606    5.9378   21.2366 N   0  0  0  0  0  0  0  0  0  0  0  0
    9.8932   11.6736   19.0677 O   0  0  0  0  0  0  0  0  0  0  0  0
    6.4470    4.5850   22.2321 C   0  0  0  0  0  0  0  0  0  0  0  0
    8.4619    6.9895   22.2968 C   0  0  0  0  0  0  0  0  0  0  0  0
   12.2747    7.5102   20.0420 C   0  0  0  0  0  0  0  0  0  0  0  0
   14.2544    6.2142   19.4191 C   0  0  0  0  0  0  0  0  0  0  0  0
   13.0695    6.3705   20.0375 N   0  0  0  0  0  0  0  0  0  0  0  0
    9.1913    8.0876   21.8361 N   0  0  0  0  0  0  0  0  0  0  0  0
   10.4739    9.4813   20.2889 C   0  0  0  0  0  0  0  0  0  0  0  0
    7.5551    7.1270   23.1200 O   0  0  0  0  0  0  0  0  0  0  0  0
  1 11  4  0
  1 21  4  0
  2  4  1  0
  2  8  1  0
  2 11  1  0
  3 10  4  0
  3 14  4  0
  4  5  1  0
  4 18  2  0
  6 12  1  0
  6 17  4  0
  6 23  4  0
  7  9  1  0
  7 13  4  0
  7 19  4  0
  9 20  1  0
 10 19  4  0
 11 25  4  0
 13 14  4  0
 15 16  4  0
 15 17  4  0
 15 21  4  0
 16 24  1  0
 16 25  4  0
 20 24  1  0
 20 26  2  0
 21 23  4  0
 22 23  1  0
M  END
$$$$

 Created by Python create_sdf_string function

 26 28  0  0  0  0  0  0  0  0999 V2000
   12.4616    8.6700   19.4180 N   0  0  0  0  0  0  0  0  0  0  0  0
   11.8329   10.8148   18.6769 N   0  0  0  0  0  0  0  0  0  0  0  0
    6.1021    2.5564   21.0678 C   0  0  0  0  0  0  0  0  0  0  0  0
   10.9097   11.8051   18.4804 C   0  0  0  0  0  0  0  0  0  0  0  0
   11.2280   12.9135   17.5669 C   0  0  0  0  0  0  0  0  0  0  0  0
   12.3782    5.4231   20.7777 C   0  0  0  0  0  0  0  0  0  0  0  0
    7.7365    4.6508   21.6987 C   0  0  0  0  0  0  0  0  0  0  0  0
   13.0186   11.0102   18.0020 C   0  0  0  0  0  0  0  0  0  0  0  0
    8.6628    5.7088   21.8871 N   0  0  0  0  0  0  0  0  0  0  0  0
    5.6516    3.5258   21.9140 C   0  0  0  0  0  0  0  0  0  0  0  0
   11.5863    9.6815   19.4539 C   0  0  0  0  0  0  0  0  0  0  0  0
   12.9648    4.1543   20.9205 C   0  0  0  0  0  0  0  0  0  0  0  0
    8.2089    3.6265   20.8929 C   0  0  0  0  0  0  0  0  0  0  0  0
    7.3827    2.5724   20.5432 C   0  0  0  0  0  0  0  0  0  0  0  0
   11.1529    7.2750   20.8025 C   0  0  0  0  0  0  0  0  0  0  0  0
   10.2573    8.3215   20.9827 C   0  0  0  0  0  0  0  0  0  0  0  0
   11.1606    5.9378   21.2366 N   0  0  0  0  0  0  0  0  0  0  0  0
    9.8932   11.6736   19.0677 O   0  0  0  0  0  0  0  0  0  0  0  0
    6.4470    4.5850   22.2321 C   0  0  0  0  0  0  0  0  0  0  0  0
    8.4619    6.9895   22.2968 C   0  0  0  0  0  0  0  0  0  0  0  0
   12.2747    7.5102   20.0420 C   0  0  0  0  0  0  0  0  0  0  0  0
   14.2544    6.2142   19.4191 C   0  0  0  0  0  0  0  0  0  0  0  0
   13.0695    6.3705   20.0375 N   0  0  0  0  0  0  0  0  0  0  0  0
    9.1913    8.0876   21.8361 N   0  0  0  0  0  0  0  0  0  0  0  0
   10.4739    9.4813   20.2889 C   0  0  0  0  0  0  0  0  0  0  0  0
    7.5551    7.1270   23.1200 O   0  0  0  0  0  0  0  0  0  0  0  0
  1 11  4  0
  1 21  4  0
  2  4  1  0
  2  8  1  0
  2 11  1  0
  3 10  4  0
  3 14  4  0
  4  5  1  0
  4 18  2  0
  6 12  1  0
  6 17  4  0
  6 23  4  0
  7  9  1  0
  7 13  4  0
  7 19  4  0
  9 20  1  0
 10 19  4  0
 11 25  4  0
 13 14  4  0
 15 16  4  0
 15 17  4  0
 15 21  4  0
 16 24  1  0
 16 25  4  0
 20 24  1  0
 20 26  2  0
 21 23  4  0
 22 23  1  0
M  END
$$$$

 Created by Python create_sdf_string function

 26 28  0  0  0  0  0  0  0  0999 V2000
   12.4616    8.6700   19.4180 N   0  0  0  0  0  0  0  0  0  0  0  0
   11.8329   10.8148   18.6769 N   0  0  0  0  0  0  0  0  0  0  0  0
    6.1021    2.5564   21.0678 C   0  0  0  0  0  0  0  0  0  0  0  0
   10.9097   11.8051   18.4804 C   0  0  0  0  0  0  0  0  0  0  0  0
   11.2280   12.9135   17.5669 C   0  0  0  0  0  0  0  0  0  0  0  0
   12.3782    5.4231   20.7777 C   0  0  0  0  0  0  0  0  0  0  0  0
    7.7365    4.6508   21.6987 C   0  0  0  0  0  0  0  0  0  0  0  0
   13.0186   11.0102   18.0020 C   0  0  0  0  0  0  0  0  0  0  0  0
    8.6628    5.7088   21.8871 N   0  0  0  0  0  0  0  0  0  0  0  0
    5.6516    3.5258   21.9140 C   0  0  0  0  0  0  0  0  0  0  0  0
   11.5863    9.6815   19.4539 C   0  0  0  0  0  0  0  0  0  0  0  0
   12.9648    4.1543   20.9205 C   0  0  0  0  0  0  0  0  0  0  0  0
    8.2089    3.6265   20.8929 C   0  0  0  0  0  0  0  0  0  0  0  0
    7.3827    2.5724   20.5432 C   0  0  0  0  0  0  0  0  0  0  0  0
   11.1529    7.2750   20.8025 C   0  0  0  0  0  0  0  0  0  0  0  0
   10.2573    8.3215   20.9827 C   0  0  0  0  0  0  0  0  0  0  0  0
   11.1606    5.9378   21.2366 N   0  0  0  0  0  0  0  0  0  0  0  0
    9.8932   11.6736   19.0677 O   0  0  0  0  0  0  0  0  0  0  0  0
    6.4470    4.5850   22.2321 C   0  0  0  0  0  0  0  0  0  0  0  0
    8.4619    6.9895   22.2968 C   0  0  0  0  0  0  0  0  0  0  0  0
   12.2747    7.5102   20.0420 C   0  0  0  0  0  0  0  0  0  0  0  0
   14.2544    6.2142   19.4191 C   0  0  0  0  0  0  0  0  0  0  0  0
   13.0695    6.3705   20.0375 N   0  0  0  0  0  0  0  0  0  0  0  0
    9.1913    8.0876   21.8361 N   0  0  0  0  0  0  0  0  0  0  0  0
   10.4739    9.4813   20.2889 C   0  0  0  0  0  0  0  0  0  0  0  0
    7.5551    7.1270   23.1200 O   0  0  0  0  0  0  0  0  0  0  0  0
  1 11  4  0
  1 21  4  0
  2  4  1  0
  2  8  1  0
  2 11  1  0
  3 10  4  0
  3 14  4  0
  4  5  1  0
  4 18  2  0
  6 12  1  0
  6 17  4  0
  6 23  4  0
  7  9  1  0
  7 13  4  0
  7 19  4  0
  9 20  1  0
 10 19  4  0
 11 25  4  0
 13 14  4  0
 15 16  4  0
 15 17  4  0
 15 21  4  0
 16 24  1  0
 16 25  4  0
 20 24  1  0
 20 26  2  0
 21 23  4  0
 22 23  1  0
M  END
$$$$

 Created by Python create_sdf_string function

 26 28  0  0  0  0  0  0  0  0999 V2000
   12.4616    8.6700   19.4180 N   0  0  0  0  0  0  0  0  0  0  0  0
   11.8329   10.8148   18.6769 N   0  0  0  0  0  0  0  0  0  0  0  0
    6.1021    2.5564   21.0678 C   0  0  0  0  0  0  0  0  0  0  0  0
   10.9097   11.8051   18.4804 C   0  0  0  0  0  0  0  0  0  0  0  0
   11.2280   12.9135   17.5669 C   0  0  0  0  0  0  0  0  0  0  0  0
   12.3782    5.4231   20.7777 C   0  0  0  0  0  0  0  0  0  0  0  0
    7.7365    4.6508   21.6987 C   0  0  0  0  0  0  0  0  0  0  0  0
   13.0186   11.0102   18.0020 C   0  0  0  0  0  0  0  0  0  0  0  0
    8.6628    5.7088   21.8871 N   0  0  0  0  0  0  0  0  0  0  0  0
    5.6516    3.5258   21.9140 C   0  0  0  0  0  0  0  0  0  0  0  0
   11.5863    9.6815   19.4539 C   0  0  0  0  0  0  0  0  0  0  0  0
   12.9648    4.1543   20.9205 C   0  0  0  0  0  0  0  0  0  0  0  0
    8.2089    3.6265   20.8929 C   0  0  0  0  0  0  0  0  0  0  0  0
    7.3827    2.5724   20.5432 C   0  0  0  0  0  0  0  0  0  0  0  0
   11.1529    7.2750   20.8025 C   0  0  0  0  0  0  0  0  0  0  0  0
   10.2573    8.3215   20.9827 C   0  0  0  0  0  0  0  0  0  0  0  0
   11.1606    5.9378   21.2366 N   0  0  0  0  0  0  0  0  0  0  0  0
    9.8932   11.6736   19.0677 O   0  0  0  0  0  0  0  0  0  0  0  0
    6.4470    4.5850   22.2321 C   0  0  0  0  0  0  0  0  0  0  0  0
    8.4619    6.9895   22.2968 C   0  0  0  0  0  0  0  0  0  0  0  0
   12.2747    7.5102   20.0420 C   0  0  0  0  0  0  0  0  0  0  0  0
   14.2544    6.2142   19.4191 C   0  0  0  0  0  0  0  0  0  0  0  0
   13.0695    6.3705   20.0375 N   0  0  0  0  0  0  0  0  0  0  0  0
    9.1913    8.0876   21.8361 N   0  0  0  0  0  0  0  0  0  0  0  0
   10.4739    9.4813   20.2889 C   0  0  0  0  0  0  0  0  0  0  0  0
    7.5551    7.1270   23.1200 O   0  0  0  0  0  0  0  0  0  0  0  0
  1 11  4  0
  1 21  4  0
  2  4  1  0
  2  8  1  0
  2 11  1  0
  3 10  4  0
  3 14  4  0
  4  5  1  0
  4 18  2  0
  6 12  1  0
  6 17  4  0
  6 23  4  0
  7  9  1  0
  7 13  4  0
  7 19  4  0
  9 20  1  0
 10 19  4  0
 11 25  4  0
 13 14  4  0
 15 16  4  0
 15 17  4  0
 15 21  4  0
 16 24  1  0
 16 25  4  0
 20 24  1  0
 20 26  2  0
 21 23  4  0
 22 23  1  0
M  END
$$$$

 Created by Python create_sdf_string function

 26 28  0  0  0  0  0  0  0  0999 V2000
   12.4616    8.6700   19.4180 N   0  0  0  0  0  0  0  0  0  0  0  0
   11.8329   10.8148   18.6769 N   0  0  0  0  0  0  0  0  0  0  0  0
    6.1021    2.5564   21.0678 C   0  0  0  0  0  0  0  0  0  0  0  0
   10.9097   11.8051   18.4804 C   0  0  0  0  0  0  0  0  0  0  0  0
   11.2280   12.9135   17.5669 C   0  0  0  0  0  0  0  0  0  0  0  0
   12.3782    5.4231   20.7777 C   0  0  0  0  0  0  0  0  0  0  0  0
    7.7365    4.6508   21.6987 C   0  0  0  0  0  0  0  0  0  0  0  0
   13.0186   11.0102   18.0020 C   0  0  0  0  0  0  0  0  0  0  0  0
    8.6628    5.7088   21.8871 N   0  0  0  0  0  0  0  0  0  0  0  0
    5.6516    3.5258   21.9140 C   0  0  0  0  0  0  0  0  0  0  0  0
   11.5863    9.6815   19.4539 C   0  0  0  0  0  0  0  0  0  0  0  0
   12.9648    4.1543   20.9205 C   0  0  0  0  0  0  0  0  0  0  0  0
    8.2089    3.6265   20.8929 C   0  0  0  0  0  0  0  0  0  0  0  0
    7.3827    2.5724   20.5432 C   0  0  0  0  0  0  0  0  0  0  0  0
   11.1529    7.2750   20.8025 C   0  0  0  0  0  0  0  0  0  0  0  0
   10.2573    8.3215   20.9827 C   0  0  0  0  0  0  0  0  0  0  0  0
   11.1606    5.9378   21.2366 N   0  0  0  0  0  0  0  0  0  0  0  0
    9.8932   11.6736   19.0677 O   0  0  0  0  0  0  0  0  0  0  0  0
    6.4470    4.5850   22.2321 C   0  0  0  0  0  0  0  0  0  0  0  0
    8.4619    6.9895   22.2968 C   0  0  0  0  0  0  0  0  0  0  0  0
   12.2747    7.5102   20.0420 C   0  0  0  0  0  0  0  0  0  0  0  0
   14.2544    6.2142   19.4191 C   0  0  0  0  0  0  0  0  0  0  0  0
   13.0695    6.3705   20.0375 N   0  0  0  0  0  0  0  0  0  0  0  0
    9.1913    8.0876   21.8361 N   0  0  0  0  0  0  0  0  0  0  0  0
   10.4739    9.4813   20.2889 C   0  0  0  0  0  0  0  0  0  0  0  0
    7.5551    7.1270   23.1200 O   0  0  0  0  0  0  0  0  0  0  0  0
  1 11  4  0
  1 21  4  0
  2  4  1  0
  2  8  1  0
  2 11  1  0
  3 10  4  0
  3 14  4  0
  4  5  1  0
  4 18  2  0
  6 12  1  0
  6 17  4  0
  6 23  4  0
  7  9  1  0
  7 13  4  0
  7 19  4  0
  9 20  1  0
 10 19  4  0
 11 25  4  0
 13 14  4  0
 15 16  4  0
 15 17  4  0
 15 21  4  0
 16 24  1  0
 16 25  4  0
 20 24  1  0
 20 26  2  0
 21 23  4  0
 22 23  1  0
M  END
$$$$

 Created by Python create_sdf_string function

 26 28  0  0  0  0  0  0  0  0999 V2000
   12.4616    8.6700   19.4180 N   0  0  0  0  0  0  0  0  0  0  0  0
   11.8329   10.8148   18.6769 N   0  0  0  0  0  0  0  0  0  0  0  0
    6.1021    2.5564   21.0678 C   0  0  0  0  0  0  0  0  0  0  0  0
   10.9097   11.8051   18.4804 C   0  0  0  0  0  0  0  0  0  0  0  0
   11.2280   12.9135   17.5669 C   0  0  0  0  0  0  0  0  0  0  0  0
   12.3782    5.4231   20.7777 C   0  0  0  0  0  0  0  0  0  0  0  0
    7.7365    4.6508   21.6987 C   0  0  0  0  0  0  0  0  0  0  0  0
   13.0186   11.0102   18.0020 C   0  0  0  0  0  0  0  0  0  0  0  0
    8.6628    5.7088   21.8871 N   0  0  0  0  0  0  0  0  0  0  0  0
    5.6516    3.5258   21.9140 C   0  0  0  0  0  0  0  0  0  0  0  0
   11.5863    9.6815   19.4539 C   0  0  0  0  0  0  0  0  0  0  0  0
   12.9648    4.1543   20.9205 C   0  0  0  0  0  0  0  0  0  0  0  0
    8.2089    3.6265   20.8929 C   0  0  0  0  0  0  0  0  0  0  0  0
    7.3827    2.5724   20.5432 C   0  0  0  0  0  0  0  0  0  0  0  0
   11.1529    7.2750   20.8025 C   0  0  0  0  0  0  0  0  0  0  0  0
   10.2573    8.3215   20.9827 C   0  0  0  0  0  0  0  0  0  0  0  0
   11.1606    5.9378   21.2366 N   0  0  0  0  0  0  0  0  0  0  0  0
    9.8932   11.6736   19.0677 O   0  0  0  0  0  0  0  0  0  0  0  0
    6.4470    4.5850   22.2321 C   0  0  0  0  0  0  0  0  0  0  0  0
    8.4619    6.9895   22.2968 C   0  0  0  0  0  0  0  0  0  0  0  0
   12.2747    7.5102   20.0420 C   0  0  0  0  0  0  0  0  0  0  0  0
   14.2544    6.2142   19.4191 C   0  0  0  0  0  0  0  0  0  0  0  0
   13.0695    6.3705   20.0375 N   0  0  0  0  0  0  0  0  0  0  0  0
    9.1913    8.0876   21.8361 N   0  0  0  0  0  0  0  0  0  0  0  0
   10.4739    9.4813   20.2889 C   0  0  0  0  0  0  0  0  0  0  0  0
    7.5551    7.1270   23.1200 O   0  0  0  0  0  0  0  0  0  0  0  0
  1 11  4  0
  1 21  4  0
  2  4  1  0
  2  8  1  0
  2 11  1  0
  3 10  4  0
  3 14  4  0
  4  5  1  0
  4 18  2  0
  6 12  1  0
  6 17  4  0
  6 23  4  0
  7  9  1  0
  7 13  4  0
  7 19  4  0
  9 20  1  0
 10 19  4  0
 11 25  4  0
 13 14  4  0
 15 16  4  0
 15 17  4  0
 15 21  4  0
 16 24  1  0
 16 25  4  0
 20 24  1  0
 20 26  2  0
 21 23  4  0
 22 23  1  0
M  END
$$$$

 Created by Python create_sdf_string function

 26 28  0  0  0  0  0  0  0  0999 V2000
   12.4616    8.6700   19.4180 N   0  0  0  0  0  0  0  0  0  0  0  0
   11.8329   10.8148   18.6769 N   0  0  0  0  0  0  0  0  0  0  0  0
    6.1021    2.5564   21.0678 C   0  0  0  0  0  0  0  0  0  0  0  0
   10.9097   11.8051   18.4804 C   0  0  0  0  0  0  0  0  0  0  0  0
   11.2280   12.9135   17.5669 C   0  0  0  0  0  0  0  0  0  0  0  0
   12.3782    5.4231   20.7777 C   0  0  0  0  0  0  0  0  0  0  0  0
    7.7365    4.6508   21.6987 C   0  0  0  0  0  0  0  0  0  0  0  0
   13.0186   11.0102   18.0020 C   0  0  0  0  0  0  0  0  0  0  0  0
    8.6628    5.7088   21.8871 N   0  0  0  0  0  0  0  0  0  0  0  0
    5.6516    3.5258   21.9140 C   0  0  0  0  0  0  0  0  0  0  0  0
   11.5863    9.6815   19.4539 C   0  0  0  0  0  0  0  0  0  0  0  0
   12.9648    4.1543   20.9205 C   0  0  0  0  0  0  0  0  0  0  0  0
    8.2089    3.6265   20.8929 C   0  0  0  0  0  0  0  0  0  0  0  0
    7.3827    2.5724   20.5432 C   0  0  0  0  0  0  0  0  0  0  0  0
   11.1529    7.2750   20.8025 C   0  0  0  0  0  0  0  0  0  0  0  0
   10.2573    8.3215   20.9827 C   0  0  0  0  0  0  0  0  0  0  0  0
   11.1606    5.9378   21.2366 N   0  0  0  0  0  0  0  0  0  0  0  0
    9.8932   11.6736   19.0677 O   0  0  0  0  0  0  0  0  0  0  0  0
    6.4470    4.5850   22.2321 C   0  0  0  0  0  0  0  0  0  0  0  0
    8.4619    6.9895   22.2968 C   0  0  0  0  0  0  0  0  0  0  0  0
   12.2747    7.5102   20.0420 C   0  0  0  0  0  0  0  0  0  0  0  0
   14.2544    6.2142   19.4191 C   0  0  0  0  0  0  0  0  0  0  0  0
   13.0695    6.3705   20.0375 N   0  0  0  0  0  0  0  0  0  0  0  0
    9.1913    8.0876   21.8361 N   0  0  0  0  0  0  0  0  0  0  0  0
   10.4739    9.4813   20.2889 C   0  0  0  0  0  0  0  0  0  0  0  0
    7.5551    7.1270   23.1200 O   0  0  0  0  0  0  0  0  0  0  0  0
  1 11  4  0
  1 21  4  0
  2  4  1  0
  2  8  1  0
  2 11  1  0
  3 10  4  0
  3 14  4  0
  4  5  1  0
  4 18  2  0
  6 12  1  0
  6 17  4  0
  6 23  4  0
  7  9  1  0
  7 13  4  0
  7 19  4  0
  9 20  1  0
 10 19  4  0
 11 25  4  0
 13 14  4  0
 15 16  4  0
 15 17  4  0
 15 21  4  0
 16 24  1  0
 16 25  4  0
 20 24  1  0
 20 26  2  0
 21 23  4  0
 22 23  1  0
M  END
$$$$

 Created by Python create_sdf_string function

 26 28  0  0  0  0  0  0  0  0999 V2000
   12.4616    8.6700   19.4180 N   0  0  0  0  0  0  0  0  0  0  0  0
   11.8329   10.8148   18.6769 N   0  0  0  0  0  0  0  0  0  0  0  0
    6.1021    2.5564   21.0678 C   0  0  0  0  0  0  0  0  0  0  0  0
   10.9097   11.8051   18.4804 C   0  0  0  0  0  0  0  0  0  0  0  0
   11.2280   12.9135   17.5669 C   0  0  0  0  0  0  0  0  0  0  0  0
   12.3782    5.4231   20.7777 C   0  0  0  0  0  0  0  0  0  0  0  0
    7.7365    4.6508   21.6987 C   0  0  0  0  0  0  0  0  0  0  0  0
   13.0186   11.0102   18.0020 C   0  0  0  0  0  0  0  0  0  0  0  0
    8.6628    5.7088   21.8871 N   0  0  0  0  0  0  0  0  0  0  0  0
    5.6516    3.5258   21.9140 C   0  0  0  0  0  0  0  0  0  0  0  0
   11.5863    9.6815   19.4539 C   0  0  0  0  0  0  0  0  0  0  0  0
   12.9648    4.1543   20.9205 C   0  0  0  0  0  0  0  0  0  0  0  0
    8.2089    3.6265   20.8929 C   0  0  0  0  0  0  0  0  0  0  0  0
    7.3827    2.5724   20.5432 C   0  0  0  0  0  0  0  0  0  0  0  0
   11.1529    7.2750   20.8025 C   0  0  0  0  0  0  0  0  0  0  0  0
   10.2573    8.3215   20.9827 C   0  0  0  0  0  0  0  0  0  0  0  0
   11.1606    5.9378   21.2366 N   0  0  0  0  0  0  0  0  0  0  0  0
    9.8932   11.6736   19.0677 O   0  0  0  0  0  0  0  0  0  0  0  0
    6.4470    4.5850   22.2321 C   0  0  0  0  0  0  0  0  0  0  0  0
    8.4619    6.9895   22.2968 C   0  0  0  0  0  0  0  0  0  0  0  0
   12.2747    7.5102   20.0420 C   0  0  0  0  0  0  0  0  0  0  0  0
   14.2544    6.2142   19.4191 C   0  0  0  0  0  0  0  0  0  0  0  0
   13.0695    6.3705   20.0375 N   0  0  0  0  0  0  0  0  0  0  0  0
    9.1913    8.0876   21.8361 N   0  0  0  0  0  0  0  0  0  0  0  0
   10.4739    9.4813   20.2889 C   0  0  0  0  0  0  0  0  0  0  0  0
    7.5551    7.1270   23.1200 O   0  0  0  0  0  0  0  0  0  0  0  0
  1 11  4  0
  1 21  4  0
  2  4  1  0
  2  8  1  0
  2 11  1  0
  3 10  4  0
  3 14  4  0
  4  5  1  0
  4 18  2  0
  6 12  1  0
  6 17  4  0
  6 23  4  0
  7  9  1  0
  7 13  4  0
  7 19  4  0
  9 20  1  0
 10 19  4  0
 11 25  4  0
 13 14  4  0
 15 16  4  0
 15 17  4  0
 15 21  4  0
 16 24  1  0
 16 25  4  0
 20 24  1  0
 20 26  2  0
 21 23  4  0
 22 23  1  0
M  END
$$$$

 Created by Python create_sdf_string function

 26 28  0  0  0  0  0  0  0  0999 V2000
   12.4616    8.6700   19.4180 N   0  0  0  0  0  0  0  0  0  0  0  0
   11.8329   10.8148   18.6769 N   0  0  0  0  0  0  0  0  0  0  0  0
    6.1021    2.5564   21.0678 C   0  0  0  0  0  0  0  0  0  0  0  0
   10.9097   11.8051   18.4804 C   0  0  0  0  0  0  0  0  0  0  0  0
   11.2280   12.9135   17.5669 C   0  0  0  0  0  0  0  0  0  0  0  0
   12.3782    5.4231   20.7777 C   0  0  0  0  0  0  0  0  0  0  0  0
    7.7365    4.6508   21.6987 C   0  0  0  0  0  0  0  0  0  0  0  0
   13.0186   11.0102   18.0020 C   0  0  0  0  0  0  0  0  0  0  0  0
    8.6628    5.7088   21.8871 N   0  0  0  0  0  0  0  0  0  0  0  0
    5.6516    3.5258   21.9140 C   0  0  0  0  0  0  0  0  0  0  0  0
   11.5863    9.6815   19.4539 C   0  0  0  0  0  0  0  0  0  0  0  0
   12.9648    4.1543   20.9205 C   0  0  0  0  0  0  0  0  0  0  0  0
    8.2089    3.6265   20.8929 C   0  0  0  0  0  0  0  0  0  0  0  0
    7.3827    2.5724   20.5432 C   0  0  0  0  0  0  0  0  0  0  0  0
   11.1529    7.2750   20.8025 C   0  0  0  0  0  0  0  0  0  0  0  0
   10.2573    8.3215   20.9827 C   0  0  0  0  0  0  0  0  0  0  0  0
   11.1606    5.9378   21.2366 N   0  0  0  0  0  0  0  0  0  0  0  0
    9.8932   11.6736   19.0677 O   0  0  0  0  0  0  0  0  0  0  0  0
    6.4470    4.5850   22.2321 C   0  0  0  0  0  0  0  0  0  0  0  0
    8.4619    6.9895   22.2968 C   0  0  0  0  0  0  0  0  0  0  0  0
   12.2747    7.5102   20.0420 C   0  0  0  0  0  0  0  0  0  0  0  0
   14.2544    6.2142   19.4191 C   0  0  0  0  0  0  0  0  0  0  0  0
   13.0695    6.3705   20.0375 N   0  0  0  0  0  0  0  0  0  0  0  0
    9.1913    8.0876   21.8361 N   0  0  0  0  0  0  0  0  0  0  0  0
   10.4739    9.4813   20.2889 C   0  0  0  0  0  0  0  0  0  0  0  0
    7.5551    7.1270   23.1200 O   0  0  0  0  0  0  0  0  0  0  0  0
  1 11  4  0
  1 21  4  0
  2  4  1  0
  2  8  1  0
  2 11  1  0
  3 10  4  0
  3 14  4  0
  4  5  1  0
  4 18  2  0
  6 12  1  0
  6 17  4  0
  6 23  4  0
  7  9  1  0
  7 13  4  0
  7 19  4  0
  9 20  1  0
 10 19  4  0
 11 25  4  0
 13 14  4  0
 15 16  4  0
 15 17  4  0
 15 21  4  0
 16 24  1  0
 16 25  4  0
 20 24  1  0
 20 26  2  0
 21 23  4  0
 22 23  1  0
M  END
$$$$

 Created by Python create_sdf_string function

 26 28  0  0  0  0  0  0  0  0999 V2000
   12.4616    8.6700   19.4180 N   0  0  0  0  0  0  0  0  0  0  0  0
   11.8329   10.8148   18.6769 N   0  0  0  0  0  0  0  0  0  0  0  0
    6.1021    2.5564   21.0678 C   0  0  0  0  0  0  0  0  0  0  0  0
   10.9097   11.8051   18.4804 C   0  0  0  0  0  0  0  0  0  0  0  0
   11.2280   12.9135   17.5669 C   0  0  0  0  0  0  0  0  0  0  0  0
   12.3782    5.4231   20.7777 C   0  0  0  0  0  0  0  0  0  0  0  0
    7.7365    4.6508   21.6987 C   0  0  0  0  0  0  0  0  0  0  0  0
   13.0186   11.0102   18.0020 C   0  0  0  0  0  0  0  0  0  0  0  0
    8.6628    5.7088   21.8871 N   0  0  0  0  0  0  0  0  0  0  0  0
    5.6516    3.5258   21.9140 C   0  0  0  0  0  0  0  0  0  0  0  0
   11.5863    9.6815   19.4539 C   0  0  0  0  0  0  0  0  0  0  0  0
   12.9648    4.1543   20.9205 C   0  0  0  0  0  0  0  0  0  0  0  0
    8.2089    3.6265   20.8929 C   0  0  0  0  0  0  0  0  0  0  0  0
    7.3827    2.5724   20.5432 C   0  0  0  0  0  0  0  0  0  0  0  0
   11.1529    7.2750   20.8025 C   0  0  0  0  0  0  0  0  0  0  0  0
   10.2573    8.3215   20.9827 C   0  0  0  0  0  0  0  0  0  0  0  0
   11.1606    5.9378   21.2366 N   0  0  0  0  0  0  0  0  0  0  0  0
    9.8932   11.6736   19.0677 O   0  0  0  0  0  0  0  0  0  0  0  0
    6.4470    4.5850   22.2321 C   0  0  0  0  0  0  0  0  0  0  0  0
    8.4619    6.9895   22.2968 C   0  0  0  0  0  0  0  0  0  0  0  0
   12.2747    7.5102   20.0420 C   0  0  0  0  0  0  0  0  0  0  0  0
   14.2544    6.2142   19.4191 C   0  0  0  0  0  0  0  0  0  0  0  0
   13.0695    6.3705   20.0375 N   0  0  0  0  0  0  0  0  0  0  0  0
    9.1913    8.0876   21.8361 N   0  0  0  0  0  0  0  0  0  0  0  0
   10.4739    9.4813   20.2889 C   0  0  0  0  0  0  0  0  0  0  0  0
    7.5551    7.1270   23.1200 O   0  0  0  0  0  0  0  0  0  0  0  0
  1 11  4  0
  1 21  4  0
  2  4  1  0
  2  8  1  0
  2 11  1  0
  3 10  4  0
  3 14  4  0
  4  5  1  0
  4 18  2  0
  6 12  1  0
  6 17  4  0
  6 23  4  0
  7  9  1  0
  7 13  4  0
  7 19  4  0
  9 20  1  0
 10 19  4  0
 11 25  4  0
 13 14  4  0
 15 16  4  0
 15 17  4  0
 15 21  4  0
 16 24  1  0
 16 25  4  0
 20 24  1  0
 20 26  2  0
 21 23  4  0
 22 23  1  0
M  END
$$$$

 Created by Python create_sdf_string function

 26 28  0  0  0  0  0  0  0  0999 V2000
   12.4616    8.6700   19.4180 N   0  0  0  0  0  0  0  0  0  0  0  0
   11.8329   10.8148   18.6769 N   0  0  0  0  0  0  0  0  0  0  0  0
    6.1021    2.5564   21.0678 C   0  0  0  0  0  0  0  0  0  0  0  0
   10.9097   11.8051   18.4804 C   0  0  0  0  0  0  0  0  0  0  0  0
   11.2280   12.9135   17.5669 C   0  0  0  0  0  0  0  0  0  0  0  0
   12.3782    5.4231   20.7777 C   0  0  0  0  0  0  0  0  0  0  0  0
    7.7365    4.6508   21.6987 C   0  0  0  0  0  0  0  0  0  0  0  0
   13.0186   11.0102   18.0020 C   0  0  0  0  0  0  0  0  0  0  0  0
    8.6628    5.7088   21.8871 N   0  0  0  0  0  0  0  0  0  0  0  0
    5.6516    3.5258   21.9140 C   0  0  0  0  0  0  0  0  0  0  0  0
   11.5863    9.6815   19.4539 C   0  0  0  0  0  0  0  0  0  0  0  0
   12.9648    4.1543   20.9205 C   0  0  0  0  0  0  0  0  0  0  0  0
    8.2089    3.6265   20.8929 C   0  0  0  0  0  0  0  0  0  0  0  0
    7.3827    2.5724   20.5432 C   0  0  0  0  0  0  0  0  0  0  0  0
   11.1529    7.2750   20.8025 C   0  0  0  0  0  0  0  0  0  0  0  0
   10.2573    8.3215   20.9827 C   0  0  0  0  0  0  0  0  0  0  0  0
   11.1606    5.9378   21.2366 N   0  0  0  0  0  0  0  0  0  0  0  0
    9.8932   11.6736   19.0677 O   0  0  0  0  0  0  0  0  0  0  0  0
    6.4470    4.5850   22.2321 C   0  0  0  0  0  0  0  0  0  0  0  0
    8.4619    6.9895   22.2968 C   0  0  0  0  0  0  0  0  0  0  0  0
   12.2747    7.5102   20.0420 C   0  0  0  0  0  0  0  0  0  0  0  0
   14.2544    6.2142   19.4191 C   0  0  0  0  0  0  0  0  0  0  0  0
   13.0695    6.3705   20.0375 N   0  0  0  0  0  0  0  0  0  0  0  0
    9.1913    8.0876   21.8361 N   0  0  0  0  0  0  0  0  0  0  0  0
   10.4739    9.4813   20.2889 C   0  0  0  0  0  0  0  0  0  0  0  0
    7.5551    7.1270   23.1200 O   0  0  0  0  0  0  0  0  0  0  0  0
  1 11  4  0
  1 21  4  0
  2  4  1  0
  2  8  1  0
  2 11  1  0
  3 10  4  0
  3 14  4  0
  4  5  1  0
  4 18  2  0
  6 12  1  0
  6 17  4  0
  6 23  4  0
  7  9  1  0
  7 13  4  0
  7 19  4  0
  9 20  1  0
 10 19  4  0
 11 25  4  0
 13 14  4  0
 15 16  4  0
 15 17  4  0
 15 21  4  0
 16 24  1  0
 16 25  4  0
 20 24  1  0
 20 26  2  0
 21 23  4  0
 22 23  1  0
M  END
$$$$

 Created by Python create_sdf_string function

 26 28  0  0  0  0  0  0  0  0999 V2000
   12.4616    8.6700   19.4180 N   0  0  0  0  0  0  0  0  0  0  0  0
   11.8329   10.8148   18.6769 N   0  0  0  0  0  0  0  0  0  0  0  0
    6.1021    2.5564   21.0678 C   0  0  0  0  0  0  0  0  0  0  0  0
   10.9097   11.8051   18.4804 C   0  0  0  0  0  0  0  0  0  0  0  0
   11.2280   12.9135   17.5669 C   0  0  0  0  0  0  0  0  0  0  0  0
   12.3782    5.4231   20.7777 C   0  0  0  0  0  0  0  0  0  0  0  0
    7.7365    4.6508   21.6987 C   0  0  0  0  0  0  0  0  0  0  0  0
   13.0186   11.0102   18.0020 C   0  0  0  0  0  0  0  0  0  0  0  0
    8.6628    5.7088   21.8871 N   0  0  0  0  0  0  0  0  0  0  0  0
    5.6516    3.5258   21.9140 C   0  0  0  0  0  0  0  0  0  0  0  0
   11.5863    9.6815   19.4539 C   0  0  0  0  0  0  0  0  0  0  0  0
   12.9648    4.1543   20.9205 C   0  0  0  0  0  0  0  0  0  0  0  0
    8.2089    3.6265   20.8929 C   0  0  0  0  0  0  0  0  0  0  0  0
    7.3827    2.5724   20.5432 C   0  0  0  0  0  0  0  0  0  0  0  0
   11.1529    7.2750   20.8025 C   0  0  0  0  0  0  0  0  0  0  0  0
   10.2573    8.3215   20.9827 C   0  0  0  0  0  0  0  0  0  0  0  0
   11.1606    5.9378   21.2366 N   0  0  0  0  0  0  0  0  0  0  0  0
    9.8932   11.6736   19.0677 O   0  0  0  0  0  0  0  0  0  0  0  0
    6.4470    4.5850   22.2321 C   0  0  0  0  0  0  0  0  0  0  0  0
    8.4619    6.9895   22.2968 C   0  0  0  0  0  0  0  0  0  0  0  0
   12.2747    7.5102   20.0420 C   0  0  0  0  0  0  0  0  0  0  0  0
   14.2544    6.2142   19.4191 C   0  0  0  0  0  0  0  0  0  0  0  0
   13.0695    6.3705   20.0375 N   0  0  0  0  0  0  0  0  0  0  0  0
    9.1913    8.0876   21.8361 N   0  0  0  0  0  0  0  0  0  0  0  0
   10.4739    9.4813   20.2889 C   0  0  0  0  0  0  0  0  0  0  0  0
    7.5551    7.1270   23.1200 O   0  0  0  0  0  0  0  0  0  0  0  0
  1 11  4  0
  1 21  4  0
  2  4  1  0
  2  8  1  0
  2 11  1  0
  3 10  4  0
  3 14  4  0
  4  5  1  0
  4 18  2  0
  6 12  1  0
  6 17  4  0
  6 23  4  0
  7  9  1  0
  7 13  4  0
  7 19  4  0
  9 20  1  0
 10 19  4  0
 11 25  4  0
 13 14  4  0
 15 16  4  0
 15 17  4  0
 15 21  4  0
 16 24  1  0
 16 25  4  0
 20 24  1  0
 20 26  2  0
 21 23  4  0
 22 23  1  0
M  END
$$$$

 Created by Python create_sdf_string function

 26 28  0  0  0  0  0  0  0  0999 V2000
   12.4616    8.6700   19.4180 N   0  0  0  0  0  0  0  0  0  0  0  0
   11.8329   10.8148   18.6769 N   0  0  0  0  0  0  0  0  0  0  0  0
    6.1021    2.5564   21.0678 C   0  0  0  0  0  0  0  0  0  0  0  0
   10.9097   11.8051   18.4804 C   0  0  0  0  0  0  0  0  0  0  0  0
   11.2280   12.9135   17.5669 C   0  0  0  0  0  0  0  0  0  0  0  0
   12.3782    5.4231   20.7777 C   0  0  0  0  0  0  0  0  0  0  0  0
    7.7365    4.6508   21.6987 C   0  0  0  0  0  0  0  0  0  0  0  0
   13.0186   11.0102   18.0020 C   0  0  0  0  0  0  0  0  0  0  0  0
    8.6628    5.7088   21.8871 N   0  0  0  0  0  0  0  0  0  0  0  0
    5.6516    3.5258   21.9140 C   0  0  0  0  0  0  0  0  0  0  0  0
   11.5863    9.6815   19.4539 C   0  0  0  0  0  0  0  0  0  0  0  0
   12.9648    4.1543   20.9205 C   0  0  0  0  0  0  0  0  0  0  0  0
    8.2089    3.6265   20.8929 C   0  0  0  0  0  0  0  0  0  0  0  0
    7.3827    2.5724   20.5432 C   0  0  0  0  0  0  0  0  0  0  0  0
   11.1529    7.2750   20.8025 C   0  0  0  0  0  0  0  0  0  0  0  0
   10.2573    8.3215   20.9827 C   0  0  0  0  0  0  0  0  0  0  0  0
   11.1606    5.9378   21.2366 N   0  0  0  0  0  0  0  0  0  0  0  0
    9.8932   11.6736   19.0677 O   0  0  0  0  0  0  0  0  0  0  0  0
    6.4470    4.5850   22.2321 C   0  0  0  0  0  0  0  0  0  0  0  0
    8.4619    6.9895   22.2968 C   0  0  0  0  0  0  0  0  0  0  0  0
   12.2747    7.5102   20.0420 C   0  0  0  0  0  0  0  0  0  0  0  0
   14.2544    6.2142   19.4191 C   0  0  0  0  0  0  0  0  0  0  0  0
   13.0695    6.3705   20.0375 N   0  0  0  0  0  0  0  0  0  0  0  0
    9.1913    8.0876   21.8361 N   0  0  0  0  0  0  0  0  0  0  0  0
   10.4739    9.4813   20.2889 C   0  0  0  0  0  0  0  0  0  0  0  0
    7.5551    7.1270   23.1200 O   0  0  0  0  0  0  0  0  0  0  0  0
  1 11  4  0
  1 21  4  0
  2  4  1  0
  2  8  1  0
  2 11  1  0
  3 10  4  0
  3 14  4  0
  4  5  1  0
  4 18  2  0
  6 12  1  0
  6 17  4  0
  6 23  4  0
  7  9  1  0
  7 13  4  0
  7 19  4  0
  9 20  1  0
 10 19  4  0
 11 25  4  0
 13 14  4  0
 15 16  4  0
 15 17  4  0
 15 21  4  0
 16 24  1  0
 16 25  4  0
 20 24  1  0
 20 26  2  0
 21 23  4  0
 22 23  1  0
M  END
$$$$

 Created by Python create_sdf_string function

 26 28  0  0  0  0  0  0  0  0999 V2000
   12.4616    8.6700   19.4180 N   0  0  0  0  0  0  0  0  0  0  0  0
   11.8329   10.8148   18.6769 N   0  0  0  0  0  0  0  0  0  0  0  0
    6.1021    2.5564   21.0678 C   0  0  0  0  0  0  0  0  0  0  0  0
   10.9097   11.8051   18.4804 C   0  0  0  0  0  0  0  0  0  0  0  0
   11.2280   12.9135   17.5669 C   0  0  0  0  0  0  0  0  0  0  0  0
   12.3782    5.4231   20.7777 C   0  0  0  0  0  0  0  0  0  0  0  0
    7.7365    4.6508   21.6987 C   0  0  0  0  0  0  0  0  0  0  0  0
   13.0186   11.0102   18.0020 C   0  0  0  0  0  0  0  0  0  0  0  0
    8.6628    5.7088   21.8871 N   0  0  0  0  0  0  0  0  0  0  0  0
    5.6516    3.5258   21.9140 C   0  0  0  0  0  0  0  0  0  0  0  0
   11.5863    9.6815   19.4539 C   0  0  0  0  0  0  0  0  0  0  0  0
   12.9648    4.1543   20.9205 C   0  0  0  0  0  0  0  0  0  0  0  0
    8.2089    3.6265   20.8929 C   0  0  0  0  0  0  0  0  0  0  0  0
    7.3827    2.5724   20.5432 C   0  0  0  0  0  0  0  0  0  0  0  0
   11.1529    7.2750   20.8025 C   0  0  0  0  0  0  0  0  0  0  0  0
   10.2573    8.3215   20.9827 C   0  0  0  0  0  0  0  0  0  0  0  0
   11.1606    5.9378   21.2366 N   0  0  0  0  0  0  0  0  0  0  0  0
    9.8932   11.6736   19.0677 O   0  0  0  0  0  0  0  0  0  0  0  0
    6.4470    4.5850   22.2321 C   0  0  0  0  0  0  0  0  0  0  0  0
    8.4619    6.9895   22.2968 C   0  0  0  0  0  0  0  0  0  0  0  0
   12.2747    7.5102   20.0420 C   0  0  0  0  0  0  0  0  0  0  0  0
   14.2544    6.2142   19.4191 C   0  0  0  0  0  0  0  0  0  0  0  0
   13.0695    6.3705   20.0375 N   0  0  0  0  0  0  0  0  0  0  0  0
    9.1913    8.0876   21.8361 N   0  0  0  0  0  0  0  0  0  0  0  0
   10.4739    9.4813   20.2889 C   0  0  0  0  0  0  0  0  0  0  0  0
    7.5551    7.1270   23.1200 O   0  0  0  0  0  0  0  0  0  0  0  0
  1 11  4  0
  1 21  4  0
  2  4  1  0
  2  8  1  0
  2 11  1  0
  3 10  4  0
  3 14  4  0
  4  5  1  0
  4 18  2  0
  6 12  1  0
  6 17  4  0
  6 23  4  0
  7  9  1  0
  7 13  4  0
  7 19  4  0
  9 20  1  0
 10 19  4  0
 11 25  4  0
 13 14  4  0
 15 16  4  0
 15 17  4  0
 15 21  4  0
 16 24  1  0
 16 25  4  0
 20 24  1  0
 20 26  2  0
 21 23  4  0
 22 23  1  0
M  END
$$$$

 Created by Python create_sdf_string function

 26 28  0  0  0  0  0  0  0  0999 V2000
   12.4616    8.6700   19.4180 N   0  0  0  0  0  0  0  0  0  0  0  0
   11.8329   10.8148   18.6769 N   0  0  0  0  0  0  0  0  0  0  0  0
    6.1021    2.5564   21.0678 C   0  0  0  0  0  0  0  0  0  0  0  0
   10.9097   11.8051   18.4804 C   0  0  0  0  0  0  0  0  0  0  0  0
   11.2280   12.9135   17.5669 C   0  0  0  0  0  0  0  0  0  0  0  0
   12.3782    5.4231   20.7777 C   0  0  0  0  0  0  0  0  0  0  0  0
    7.7365    4.6508   21.6987 C   0  0  0  0  0  0  0  0  0  0  0  0
   13.0186   11.0102   18.0020 C   0  0  0  0  0  0  0  0  0  0  0  0
    8.6628    5.7088   21.8871 N   0  0  0  0  0  0  0  0  0  0  0  0
    5.6516    3.5258   21.9140 C   0  0  0  0  0  0  0  0  0  0  0  0
   11.5863    9.6815   19.4539 C   0  0  0  0  0  0  0  0  0  0  0  0
   12.9648    4.1543   20.9205 C   0  0  0  0  0  0  0  0  0  0  0  0
    8.2089    3.6265   20.8929 C   0  0  0  0  0  0  0  0  0  0  0  0
    7.3827    2.5724   20.5432 C   0  0  0  0  0  0  0  0  0  0  0  0
   11.1529    7.2750   20.8025 C   0  0  0  0  0  0  0  0  0  0  0  0
   10.2573    8.3215   20.9827 C   0  0  0  0  0  0  0  0  0  0  0  0
   11.1606    5.9378   21.2366 N   0  0  0  0  0  0  0  0  0  0  0  0
    9.8932   11.6736   19.0677 O   0  0  0  0  0  0  0  0  0  0  0  0
    6.4470    4.5850   22.2321 C   0  0  0  0  0  0  0  0  0  0  0  0
    8.4619    6.9895   22.2968 C   0  0  0  0  0  0  0  0  0  0  0  0
   12.2747    7.5102   20.0420 C   0  0  0  0  0  0  0  0  0  0  0  0
   14.2544    6.2142   19.4191 C   0  0  0  0  0  0  0  0  0  0  0  0
   13.0695    6.3705   20.0375 N   0  0  0  0  0  0  0  0  0  0  0  0
    9.1913    8.0876   21.8361 N   0  0  0  0  0  0  0  0  0  0  0  0
   10.4739    9.4813   20.2889 C   0  0  0  0  0  0  0  0  0  0  0  0
    7.5551    7.1270   23.1200 O   0  0  0  0  0  0  0  0  0  0  0  0
  1 11  4  0
  1 21  4  0
  2  4  1  0
  2  8  1  0
  2 11  1  0
  3 10  4  0
  3 14  4  0
  4  5  1  0
  4 18  2  0
  6 12  1  0
  6 17  4  0
  6 23  4  0
  7  9  1  0
  7 13  4  0
  7 19  4  0
  9 20  1  0
 10 19  4  0
 11 25  4  0
 13 14  4  0
 15 16  4  0
 15 17  4  0
 15 21  4  0
 16 24  1  0
 16 25  4  0
 20 24  1  0
 20 26  2  0
 21 23  4  0
 22 23  1  0
M  END
$$$$

 Created by Python create_sdf_string function

 26 28  0  0  0  0  0  0  0  0999 V2000
   12.4616    8.6700   19.4180 N   0  0  0  0  0  0  0  0  0  0  0  0
   11.8329   10.8148   18.6769 N   0  0  0  0  0  0  0  0  0  0  0  0
    6.1021    2.5564   21.0678 C   0  0  0  0  0  0  0  0  0  0  0  0
   10.9097   11.8051   18.4804 C   0  0  0  0  0  0  0  0  0  0  0  0
   11.2280   12.9135   17.5669 C   0  0  0  0  0  0  0  0  0  0  0  0
   12.3782    5.4231   20.7777 C   0  0  0  0  0  0  0  0  0  0  0  0
    7.7365    4.6508   21.6987 C   0  0  0  0  0  0  0  0  0  0  0  0
   13.0186   11.0102   18.0020 C   0  0  0  0  0  0  0  0  0  0  0  0
    8.6628    5.7088   21.8871 N   0  0  0  0  0  0  0  0  0  0  0  0
    5.6516    3.5258   21.9140 C   0  0  0  0  0  0  0  0  0  0  0  0
   11.5863    9.6815   19.4539 C   0  0  0  0  0  0  0  0  0  0  0  0
   12.9648    4.1543   20.9205 C   0  0  0  0  0  0  0  0  0  0  0  0
    8.2089    3.6265   20.8929 C   0  0  0  0  0  0  0  0  0  0  0  0
    7.3827    2.5724   20.5432 C   0  0  0  0  0  0  0  0  0  0  0  0
   11.1529    7.2750   20.8025 C   0  0  0  0  0  0  0  0  0  0  0  0
   10.2573    8.3215   20.9827 C   0  0  0  0  0  0  0  0  0  0  0  0
   11.1606    5.9378   21.2366 N   0  0  0  0  0  0  0  0  0  0  0  0
    9.8932   11.6736   19.0677 O   0  0  0  0  0  0  0  0  0  0  0  0
    6.4470    4.5850   22.2321 C   0  0  0  0  0  0  0  0  0  0  0  0
    8.4619    6.9895   22.2968 C   0  0  0  0  0  0  0  0  0  0  0  0
   12.2747    7.5102   20.0420 C   0  0  0  0  0  0  0  0  0  0  0  0
   14.2544    6.2142   19.4191 C   0  0  0  0  0  0  0  0  0  0  0  0
   13.0695    6.3705   20.0375 N   0  0  0  0  0  0  0  0  0  0  0  0
    9.1913    8.0876   21.8361 N   0  0  0  0  0  0  0  0  0  0  0  0
   10.4739    9.4813   20.2889 C   0  0  0  0  0  0  0  0  0  0  0  0
    7.5551    7.1270   23.1200 O   0  0  0  0  0  0  0  0  0  0  0  0
  1 11  4  0
  1 21  4  0
  2  4  1  0
  2  8  1  0
  2 11  1  0
  3 10  4  0
  3 14  4  0
  4  5  1  0
  4 18  2  0
  6 12  1  0
  6 17  4  0
  6 23  4  0
  7  9  1  0
  7 13  4  0
  7 19  4  0
  9 20  1  0
 10 19  4  0
 11 25  4  0
 13 14  4  0
 15 16  4  0
 15 17  4  0
 15 21  4  0
 16 24  1  0
 16 25  4  0
 20 24  1  0
 20 26  2  0
 21 23  4  0
 22 23  1  0
M  END
$$$$

 Created by Python create_sdf_string function

 26 28  0  0  0  0  0  0  0  0999 V2000
   12.4616    8.6700   19.4180 N   0  0  0  0  0  0  0  0  0  0  0  0
   11.8329   10.8148   18.6769 N   0  0  0  0  0  0  0  0  0  0  0  0
    6.1021    2.5564   21.0678 C   0  0  0  0  0  0  0  0  0  0  0  0
   10.9097   11.8051   18.4804 C   0  0  0  0  0  0  0  0  0  0  0  0
   11.2280   12.9135   17.5669 C   0  0  0  0  0  0  0  0  0  0  0  0
   12.3782    5.4231   20.7777 C   0  0  0  0  0  0  0  0  0  0  0  0
    7.7365    4.6508   21.6987 C   0  0  0  0  0  0  0  0  0  0  0  0
   13.0186   11.0102   18.0020 C   0  0  0  0  0  0  0  0  0  0  0  0
    8.6628    5.7088   21.8871 N   0  0  0  0  0  0  0  0  0  0  0  0
    5.6516    3.5258   21.9140 C   0  0  0  0  0  0  0  0  0  0  0  0
   11.5863    9.6815   19.4539 C   0  0  0  0  0  0  0  0  0  0  0  0
   12.9648    4.1543   20.9205 C   0  0  0  0  0  0  0  0  0  0  0  0
    8.2089    3.6265   20.8929 C   0  0  0  0  0  0  0  0  0  0  0  0
    7.3827    2.5724   20.5432 C   0  0  0  0  0  0  0  0  0  0  0  0
   11.1529    7.2750   20.8025 C   0  0  0  0  0  0  0  0  0  0  0  0
   10.2573    8.3215   20.9827 C   0  0  0  0  0  0  0  0  0  0  0  0
   11.1606    5.9378   21.2366 N   0  0  0  0  0  0  0  0  0  0  0  0
    9.8932   11.6736   19.0677 O   0  0  0  0  0  0  0  0  0  0  0  0
    6.4470    4.5850   22.2321 C   0  0  0  0  0  0  0  0  0  0  0  0
    8.4619    6.9895   22.2968 C   0  0  0  0  0  0  0  0  0  0  0  0
   12.2747    7.5102   20.0420 C   0  0  0  0  0  0  0  0  0  0  0  0
   14.2544    6.2142   19.4191 C   0  0  0  0  0  0  0  0  0  0  0  0
   13.0695    6.3705   20.0375 N   0  0  0  0  0  0  0  0  0  0  0  0
    9.1913    8.0876   21.8361 N   0  0  0  0  0  0  0  0  0  0  0  0
   10.4739    9.4813   20.2889 C   0  0  0  0  0  0  0  0  0  0  0  0
    7.5551    7.1270   23.1200 O   0  0  0  0  0  0  0  0  0  0  0  0
  1 11  4  0
  1 21  4  0
  2  4  1  0
  2  8  1  0
  2 11  1  0
  3 10  4  0
  3 14  4  0
  4  5  1  0
  4 18  2  0
  6 12  1  0
  6 17  4  0
  6 23  4  0
  7  9  1  0
  7 13  4  0
  7 19  4  0
  9 20  1  0
 10 19  4  0
 11 25  4  0
 13 14  4  0
 15 16  4  0
 15 17  4  0
 15 21  4  0
 16 24  1  0
 16 25  4  0
 20 24  1  0
 20 26  2  0
 21 23  4  0
 22 23  1  0
M  END
$$$$

 Created by Python create_sdf_string function

 26 28  0  0  0  0  0  0  0  0999 V2000
   12.4616    8.6700   19.4180 N   0  0  0  0  0  0  0  0  0  0  0  0
   11.8329   10.8148   18.6769 N   0  0  0  0  0  0  0  0  0  0  0  0
    6.1021    2.5564   21.0678 C   0  0  0  0  0  0  0  0  0  0  0  0
   10.9097   11.8051   18.4804 C   0  0  0  0  0  0  0  0  0  0  0  0
   11.2280   12.9135   17.5669 C   0  0  0  0  0  0  0  0  0  0  0  0
   12.3782    5.4231   20.7777 C   0  0  0  0  0  0  0  0  0  0  0  0
    7.7365    4.6508   21.6987 C   0  0  0  0  0  0  0  0  0  0  0  0
   13.0186   11.0102   18.0020 C   0  0  0  0  0  0  0  0  0  0  0  0
    8.6628    5.7088   21.8871 N   0  0  0  0  0  0  0  0  0  0  0  0
    5.6516    3.5258   21.9140 C   0  0  0  0  0  0  0  0  0  0  0  0
   11.5863    9.6815   19.4539 C   0  0  0  0  0  0  0  0  0  0  0  0
   12.9648    4.1543   20.9205 C   0  0  0  0  0  0  0  0  0  0  0  0
    8.2089    3.6265   20.8929 C   0  0  0  0  0  0  0  0  0  0  0  0
    7.3827    2.5724   20.5432 C   0  0  0  0  0  0  0  0  0  0  0  0
   11.1529    7.2750   20.8025 C   0  0  0  0  0  0  0  0  0  0  0  0
   10.2573    8.3215   20.9827 C   0  0  0  0  0  0  0  0  0  0  0  0
   11.1606    5.9378   21.2366 N   0  0  0  0  0  0  0  0  0  0  0  0
    9.8932   11.6736   19.0677 O   0  0  0  0  0  0  0  0  0  0  0  0
    6.4470    4.5850   22.2321 C   0  0  0  0  0  0  0  0  0  0  0  0
    8.4619    6.9895   22.2968 C   0  0  0  0  0  0  0  0  0  0  0  0
   12.2747    7.5102   20.0420 C   0  0  0  0  0  0  0  0  0  0  0  0
   14.2544    6.2142   19.4191 C   0  0  0  0  0  0  0  0  0  0  0  0
   13.0695    6.3705   20.0375 N   0  0  0  0  0  0  0  0  0  0  0  0
    9.1913    8.0876   21.8361 N   0  0  0  0  0  0  0  0  0  0  0  0
   10.4739    9.4813   20.2889 C   0  0  0  0  0  0  0  0  0  0  0  0
    7.5551    7.1270   23.1200 O   0  0  0  0  0  0  0  0  0  0  0  0
  1 11  4  0
  1 21  4  0
  2  4  1  0
  2  8  1  0
  2 11  1  0
  3 10  4  0
  3 14  4  0
  4  5  1  0
  4 18  2  0
  6 12  1  0
  6 17  4  0
  6 23  4  0
  7  9  1  0
  7 13  4  0
  7 19  4  0
  9 20  1  0
 10 19  4  0
 11 25  4  0
 13 14  4  0
 15 16  4  0
 15 17  4  0
 15 21  4  0
 16 24  1  0
 16 25  4  0
 20 24  1  0
 20 26  2  0
 21 23  4  0
 22 23  1  0
M  END
$$$$

 Created by Python create_sdf_string function

 26 28  0  0  0  0  0  0  0  0999 V2000
   12.4616    8.6700   19.4180 N   0  0  0  0  0  0  0  0  0  0  0  0
   11.8329   10.8148   18.6769 N   0  0  0  0  0  0  0  0  0  0  0  0
    6.1021    2.5564   21.0678 C   0  0  0  0  0  0  0  0  0  0  0  0
   10.9097   11.8051   18.4804 C   0  0  0  0  0  0  0  0  0  0  0  0
   11.2280   12.9135   17.5669 C   0  0  0  0  0  0  0  0  0  0  0  0
   12.3782    5.4231   20.7777 C   0  0  0  0  0  0  0  0  0  0  0  0
    7.7365    4.6508   21.6987 C   0  0  0  0  0  0  0  0  0  0  0  0
   13.0186   11.0102   18.0020 C   0  0  0  0  0  0  0  0  0  0  0  0
    8.6628    5.7088   21.8871 N   0  0  0  0  0  0  0  0  0  0  0  0
    5.6516    3.5258   21.9140 C   0  0  0  0  0  0  0  0  0  0  0  0
   11.5863    9.6815   19.4539 C   0  0  0  0  0  0  0  0  0  0  0  0
   12.9648    4.1543   20.9205 C   0  0  0  0  0  0  0  0  0  0  0  0
    8.2089    3.6265   20.8929 C   0  0  0  0  0  0  0  0  0  0  0  0
    7.3827    2.5724   20.5432 C   0  0  0  0  0  0  0  0  0  0  0  0
   11.1529    7.2750   20.8025 C   0  0  0  0  0  0  0  0  0  0  0  0
   10.2573    8.3215   20.9827 C   0  0  0  0  0  0  0  0  0  0  0  0
   11.1606    5.9378   21.2366 N   0  0  0  0  0  0  0  0  0  0  0  0
    9.8932   11.6736   19.0677 O   0  0  0  0  0  0  0  0  0  0  0  0
    6.4470    4.5850   22.2321 C   0  0  0  0  0  0  0  0  0  0  0  0
    8.4619    6.9895   22.2968 C   0  0  0  0  0  0  0  0  0  0  0  0
   12.2747    7.5102   20.0420 C   0  0  0  0  0  0  0  0  0  0  0  0
   14.2544    6.2142   19.4191 C   0  0  0  0  0  0  0  0  0  0  0  0
   13.0695    6.3705   20.0375 N   0  0  0  0  0  0  0  0  0  0  0  0
    9.1913    8.0876   21.8361 N   0  0  0  0  0  0  0  0  0  0  0  0
   10.4739    9.4813   20.2889 C   0  0  0  0  0  0  0  0  0  0  0  0
    7.5551    7.1270   23.1200 O   0  0  0  0  0  0  0  0  0  0  0  0
  1 11  4  0
  1 21  4  0
  2  4  1  0
  2  8  1  0
  2 11  1  0
  3 10  4  0
  3 14  4  0
  4  5  1  0
  4 18  2  0
  6 12  1  0
  6 17  4  0
  6 23  4  0
  7  9  1  0
  7 13  4  0
  7 19  4  0
  9 20  1  0
 10 19  4  0
 11 25  4  0
 13 14  4  0
 15 16  4  0
 15 17  4  0
 15 21  4  0
 16 24  1  0
 16 25  4  0
 20 24  1  0
 20 26  2  0
 21 23  4  0
 22 23  1  0
M  END
$$$$

 Created by Python create_sdf_string function

 26 28  0  0  0  0  0  0  0  0999 V2000
   12.4616    8.6700   19.4180 N   0  0  0  0  0  0  0  0  0  0  0  0
   11.8329   10.8148   18.6769 N   0  0  0  0  0  0  0  0  0  0  0  0
    6.1021    2.5564   21.0678 C   0  0  0  0  0  0  0  0  0  0  0  0
   10.9097   11.8051   18.4804 C   0  0  0  0  0  0  0  0  0  0  0  0
   11.2280   12.9135   17.5669 C   0  0  0  0  0  0  0  0  0  0  0  0
   12.3782    5.4231   20.7777 C   0  0  0  0  0  0  0  0  0  0  0  0
    7.7365    4.6508   21.6987 C   0  0  0  0  0  0  0  0  0  0  0  0
   13.0186   11.0102   18.0020 C   0  0  0  0  0  0  0  0  0  0  0  0
    8.6628    5.7088   21.8871 N   0  0  0  0  0  0  0  0  0  0  0  0
    5.6516    3.5258   21.9140 C   0  0  0  0  0  0  0  0  0  0  0  0
   11.5863    9.6815   19.4539 C   0  0  0  0  0  0  0  0  0  0  0  0
   12.9648    4.1543   20.9205 C   0  0  0  0  0  0  0  0  0  0  0  0
    8.2089    3.6265   20.8929 C   0  0  0  0  0  0  0  0  0  0  0  0
    7.3827    2.5724   20.5432 C   0  0  0  0  0  0  0  0  0  0  0  0
   11.1529    7.2750   20.8025 C   0  0  0  0  0  0  0  0  0  0  0  0
   10.2573    8.3215   20.9827 C   0  0  0  0  0  0  0  0  0  0  0  0
   11.1606    5.9378   21.2366 N   0  0  0  0  0  0  0  0  0  0  0  0
    9.8932   11.6736   19.0677 O   0  0  0  0  0  0  0  0  0  0  0  0
    6.4470    4.5850   22.2321 C   0  0  0  0  0  0  0  0  0  0  0  0
    8.4619    6.9895   22.2968 C   0  0  0  0  0  0  0  0  0  0  0  0
   12.2747    7.5102   20.0420 C   0  0  0  0  0  0  0  0  0  0  0  0
   14.2544    6.2142   19.4191 C   0  0  0  0  0  0  0  0  0  0  0  0
   13.0695    6.3705   20.0375 N   0  0  0  0  0  0  0  0  0  0  0  0
    9.1913    8.0876   21.8361 N   0  0  0  0  0  0  0  0  0  0  0  0
   10.4739    9.4813   20.2889 C   0  0  0  0  0  0  0  0  0  0  0  0
    7.5551    7.1270   23.1200 O   0  0  0  0  0  0  0  0  0  0  0  0
  1 11  4  0
  1 21  4  0
  2  4  1  0
  2  8  1  0
  2 11  1  0
  3 10  4  0
  3 14  4  0
  4  5  1  0
  4 18  2  0
  6 12  1  0
  6 17  4  0
  6 23  4  0
  7  9  1  0
  7 13  4  0
  7 19  4  0
  9 20  1  0
 10 19  4  0
 11 25  4  0
 13 14  4  0
 15 16  4  0
 15 17  4  0
 15 21  4  0
 16 24  1  0
 16 25  4  0
 20 24  1  0
 20 26  2  0
 21 23  4  0
 22 23  1  0
M  END
$$$$

 Created by Python create_sdf_string function

 26 28  0  0  0  0  0  0  0  0999 V2000
   12.4616    8.6700   19.4180 N   0  0  0  0  0  0  0  0  0  0  0  0
   11.8329   10.8148   18.6769 N   0  0  0  0  0  0  0  0  0  0  0  0
    6.1021    2.5564   21.0678 C   0  0  0  0  0  0  0  0  0  0  0  0
   10.9097   11.8051   18.4804 C   0  0  0  0  0  0  0  0  0  0  0  0
   11.2280   12.9135   17.5669 C   0  0  0  0  0  0  0  0  0  0  0  0
   12.3782    5.4231   20.7777 C   0  0  0  0  0  0  0  0  0  0  0  0
    7.7365    4.6508   21.6987 C   0  0  0  0  0  0  0  0  0  0  0  0
   13.0186   11.0102   18.0020 C   0  0  0  0  0  0  0  0  0  0  0  0
    8.6628    5.7088   21.8871 N   0  0  0  0  0  0  0  0  0  0  0  0
    5.6516    3.5258   21.9140 C   0  0  0  0  0  0  0  0  0  0  0  0
   11.5863    9.6815   19.4539 C   0  0  0  0  0  0  0  0  0  0  0  0
   12.9648    4.1543   20.9205 C   0  0  0  0  0  0  0  0  0  0  0  0
    8.2089    3.6265   20.8929 C   0  0  0  0  0  0  0  0  0  0  0  0
    7.3827    2.5724   20.5432 C   0  0  0  0  0  0  0  0  0  0  0  0
   11.1529    7.2750   20.8025 C   0  0  0  0  0  0  0  0  0  0  0  0
   10.2573    8.3215   20.9827 C   0  0  0  0  0  0  0  0  0  0  0  0
   11.1606    5.9378   21.2366 N   0  0  0  0  0  0  0  0  0  0  0  0
    9.8932   11.6736   19.0677 O   0  0  0  0  0  0  0  0  0  0  0  0
    6.4470    4.5850   22.2321 C   0  0  0  0  0  0  0  0  0  0  0  0
    8.4619    6.9895   22.2968 C   0  0  0  0  0  0  0  0  0  0  0  0
   12.2747    7.5102   20.0420 C   0  0  0  0  0  0  0  0  0  0  0  0
   14.2544    6.2142   19.4191 C   0  0  0  0  0  0  0  0  0  0  0  0
   13.0695    6.3705   20.0375 N   0  0  0  0  0  0  0  0  0  0  0  0
    9.1913    8.0876   21.8361 N   0  0  0  0  0  0  0  0  0  0  0  0
   10.4739    9.4813   20.2889 C   0  0  0  0  0  0  0  0  0  0  0  0
    7.5551    7.1270   23.1200 O   0  0  0  0  0  0  0  0  0  0  0  0
  1 11  4  0
  1 21  4  0
  2  4  1  0
  2  8  1  0
  2 11  1  0
  3 10  4  0
  3 14  4  0
  4  5  1  0
  4 18  2  0
  6 12  1  0
  6 17  4  0
  6 23  4  0
  7  9  1  0
  7 13  4  0
  7 19  4  0
  9 20  1  0
 10 19  4  0
 11 25  4  0
 13 14  4  0
 15 16  4  0
 15 17  4  0
 15 21  4  0
 16 24  1  0
 16 25  4  0
 20 24  1  0
 20 26  2  0
 21 23  4  0
 22 23  1  0
M  END
$$$$

 Created by Python create_sdf_string function

 26 28  0  0  0  0  0  0  0  0999 V2000
   12.4616    8.6700   19.4180 N   0  0  0  0  0  0  0  0  0  0  0  0
   11.8329   10.8148   18.6769 N   0  0  0  0  0  0  0  0  0  0  0  0
    6.1021    2.5564   21.0678 C   0  0  0  0  0  0  0  0  0  0  0  0
   10.9097   11.8051   18.4804 C   0  0  0  0  0  0  0  0  0  0  0  0
   11.2280   12.9135   17.5669 C   0  0  0  0  0  0  0  0  0  0  0  0
   12.3782    5.4231   20.7777 C   0  0  0  0  0  0  0  0  0  0  0  0
    7.7365    4.6508   21.6987 C   0  0  0  0  0  0  0  0  0  0  0  0
   13.0186   11.0102   18.0020 C   0  0  0  0  0  0  0  0  0  0  0  0
    8.6628    5.7088   21.8871 N   0  0  0  0  0  0  0  0  0  0  0  0
    5.6516    3.5258   21.9140 C   0  0  0  0  0  0  0  0  0  0  0  0
   11.5863    9.6815   19.4539 C   0  0  0  0  0  0  0  0  0  0  0  0
   12.9648    4.1543   20.9205 C   0  0  0  0  0  0  0  0  0  0  0  0
    8.2089    3.6265   20.8929 C   0  0  0  0  0  0  0  0  0  0  0  0
    7.3827    2.5724   20.5432 C   0  0  0  0  0  0  0  0  0  0  0  0
   11.1529    7.2750   20.8025 C   0  0  0  0  0  0  0  0  0  0  0  0
   10.2573    8.3215   20.9827 C   0  0  0  0  0  0  0  0  0  0  0  0
   11.1606    5.9378   21.2366 N   0  0  0  0  0  0  0  0  0  0  0  0
    9.8932   11.6736   19.0677 O   0  0  0  0  0  0  0  0  0  0  0  0
    6.4470    4.5850   22.2321 C   0  0  0  0  0  0  0  0  0  0  0  0
    8.4619    6.9895   22.2968 C   0  0  0  0  0  0  0  0  0  0  0  0
   12.2747    7.5102   20.0420 C   0  0  0  0  0  0  0  0  0  0  0  0
   14.2544    6.2142   19.4191 C   0  0  0  0  0  0  0  0  0  0  0  0
   13.0695    6.3705   20.0375 N   0  0  0  0  0  0  0  0  0  0  0  0
    9.1913    8.0876   21.8361 N   0  0  0  0  0  0  0  0  0  0  0  0
   10.4739    9.4813   20.2889 C   0  0  0  0  0  0  0  0  0  0  0  0
    7.5551    7.1270   23.1200 O   0  0  0  0  0  0  0  0  0  0  0  0
  1 11  4  0
  1 21  4  0
  2  4  1  0
  2  8  1  0
  2 11  1  0
  3 10  4  0
  3 14  4  0
  4  5  1  0
  4 18  2  0
  6 12  1  0
  6 17  4  0
  6 23  4  0
  7  9  1  0
  7 13  4  0
  7 19  4  0
  9 20  1  0
 10 19  4  0
 11 25  4  0
 13 14  4  0
 15 16  4  0
 15 17  4  0
 15 21  4  0
 16 24  1  0
 16 25  4  0
 20 24  1  0
 20 26  2  0
 21 23  4  0
 22 23  1  0
M  END
$$$$

 Created by Python create_sdf_string function

 26 28  0  0  0  0  0  0  0  0999 V2000
   12.4616    8.6700   19.4180 N   0  0  0  0  0  0  0  0  0  0  0  0
   11.8329   10.8148   18.6769 N   0  0  0  0  0  0  0  0  0  0  0  0
    6.1021    2.5564   21.0678 C   0  0  0  0  0  0  0  0  0  0  0  0
   10.9097   11.8051   18.4804 C   0  0  0  0  0  0  0  0  0  0  0  0
   11.2280   12.9135   17.5669 C   0  0  0  0  0  0  0  0  0  0  0  0
   12.3782    5.4231   20.7777 C   0  0  0  0  0  0  0  0  0  0  0  0
    7.7365    4.6508   21.6987 C   0  0  0  0  0  0  0  0  0  0  0  0
   13.0186   11.0102   18.0020 C   0  0  0  0  0  0  0  0  0  0  0  0
    8.6628    5.7088   21.8871 N   0  0  0  0  0  0  0  0  0  0  0  0
    5.6516    3.5258   21.9140 C   0  0  0  0  0  0  0  0  0  0  0  0
   11.5863    9.6815   19.4539 C   0  0  0  0  0  0  0  0  0  0  0  0
   12.9648    4.1543   20.9205 C   0  0  0  0  0  0  0  0  0  0  0  0
    8.2089    3.6265   20.8929 C   0  0  0  0  0  0  0  0  0  0  0  0
    7.3827    2.5724   20.5432 C   0  0  0  0  0  0  0  0  0  0  0  0
   11.1529    7.2750   20.8025 C   0  0  0  0  0  0  0  0  0  0  0  0
   10.2573    8.3215   20.9827 C   0  0  0  0  0  0  0  0  0  0  0  0
   11.1606    5.9378   21.2366 N   0  0  0  0  0  0  0  0  0  0  0  0
    9.8932   11.6736   19.0677 O   0  0  0  0  0  0  0  0  0  0  0  0
    6.4470    4.5850   22.2321 C   0  0  0  0  0  0  0  0  0  0  0  0
    8.4619    6.9895   22.2968 C   0  0  0  0  0  0  0  0  0  0  0  0
   12.2747    7.5102   20.0420 C   0  0  0  0  0  0  0  0  0  0  0  0
   14.2544    6.2142   19.4191 C   0  0  0  0  0  0  0  0  0  0  0  0
   13.0695    6.3705   20.0375 N   0  0  0  0  0  0  0  0  0  0  0  0
    9.1913    8.0876   21.8361 N   0  0  0  0  0  0  0  0  0  0  0  0
   10.4739    9.4813   20.2889 C   0  0  0  0  0  0  0  0  0  0  0  0
    7.5551    7.1270   23.1200 O   0  0  0  0  0  0  0  0  0  0  0  0
  1 11  4  0
  1 21  4  0
  2  4  1  0
  2  8  1  0
  2 11  1  0
  3 10  4  0
  3 14  4  0
  4  5  1  0
  4 18  2  0
  6 12  1  0
  6 17  4  0
  6 23  4  0
  7  9  1  0
  7 13  4  0
  7 19  4  0
  9 20  1  0
 10 19  4  0
 11 25  4  0
 13 14  4  0
 15 16  4  0
 15 17  4  0
 15 21  4  0
 16 24  1  0
 16 25  4  0
 20 24  1  0
 20 26  2  0
 21 23  4  0
 22 23  1  0
M  END
$$$$

 Created by Python create_sdf_string function

 26 28  0  0  0  0  0  0  0  0999 V2000
   12.4616    8.6700   19.4180 N   0  0  0  0  0  0  0  0  0  0  0  0
   11.8329   10.8148   18.6769 N   0  0  0  0  0  0  0  0  0  0  0  0
    6.1021    2.5564   21.0678 C   0  0  0  0  0  0  0  0  0  0  0  0
   10.9097   11.8051   18.4804 C   0  0  0  0  0  0  0  0  0  0  0  0
   11.2280   12.9135   17.5669 C   0  0  0  0  0  0  0  0  0  0  0  0
   12.3782    5.4231   20.7777 C   0  0  0  0  0  0  0  0  0  0  0  0
    7.7365    4.6508   21.6987 C   0  0  0  0  0  0  0  0  0  0  0  0
   13.0186   11.0102   18.0020 C   0  0  0  0  0  0  0  0  0  0  0  0
    8.6628    5.7088   21.8871 N   0  0  0  0  0  0  0  0  0  0  0  0
    5.6516    3.5258   21.9140 C   0  0  0  0  0  0  0  0  0  0  0  0
   11.5863    9.6815   19.4539 C   0  0  0  0  0  0  0  0  0  0  0  0
   12.9648    4.1543   20.9205 C   0  0  0  0  0  0  0  0  0  0  0  0
    8.2089    3.6265   20.8929 C   0  0  0  0  0  0  0  0  0  0  0  0
    7.3827    2.5724   20.5432 C   0  0  0  0  0  0  0  0  0  0  0  0
   11.1529    7.2750   20.8025 C   0  0  0  0  0  0  0  0  0  0  0  0
   10.2573    8.3215   20.9827 C   0  0  0  0  0  0  0  0  0  0  0  0
   11.1606    5.9378   21.2366 N   0  0  0  0  0  0  0  0  0  0  0  0
    9.8932   11.6736   19.0677 O   0  0  0  0  0  0  0  0  0  0  0  0
    6.4470    4.5850   22.2321 C   0  0  0  0  0  0  0  0  0  0  0  0
    8.4619    6.9895   22.2968 C   0  0  0  0  0  0  0  0  0  0  0  0
   12.2747    7.5102   20.0420 C   0  0  0  0  0  0  0  0  0  0  0  0
   14.2544    6.2142   19.4191 C   0  0  0  0  0  0  0  0  0  0  0  0
   13.0695    6.3705   20.0375 N   0  0  0  0  0  0  0  0  0  0  0  0
    9.1913    8.0876   21.8361 N   0  0  0  0  0  0  0  0  0  0  0  0
   10.4739    9.4813   20.2889 C   0  0  0  0  0  0  0  0  0  0  0  0
    7.5551    7.1270   23.1200 O   0  0  0  0  0  0  0  0  0  0  0  0
  1 11  4  0
  1 21  4  0
  2  4  1  0
  2  8  1  0
  2 11  1  0
  3 10  4  0
  3 14  4  0
  4  5  1  0
  4 18  2  0
  6 12  1  0
  6 17  4  0
  6 23  4  0
  7  9  1  0
  7 13  4  0
  7 19  4  0
  9 20  1  0
 10 19  4  0
 11 25  4  0
 13 14  4  0
 15 16  4  0
 15 17  4  0
 15 21  4  0
 16 24  1  0
 16 25  4  0
 20 24  1  0
 20 26  2  0
 21 23  4  0
 22 23  1  0
M  END
$$$$

 Created by Python create_sdf_string function

 26 28  0  0  0  0  0  0  0  0999 V2000
   12.4616    8.6700   19.4180 N   0  0  0  0  0  0  0  0  0  0  0  0
   11.8329   10.8148   18.6769 N   0  0  0  0  0  0  0  0  0  0  0  0
    6.1021    2.5564   21.0678 C   0  0  0  0  0  0  0  0  0  0  0  0
   10.9097   11.8051   18.4804 C   0  0  0  0  0  0  0  0  0  0  0  0
   11.2280   12.9135   17.5669 C   0  0  0  0  0  0  0  0  0  0  0  0
   12.3782    5.4231   20.7777 C   0  0  0  0  0  0  0  0  0  0  0  0
    7.7365    4.6508   21.6987 C   0  0  0  0  0  0  0  0  0  0  0  0
   13.0186   11.0102   18.0020 C   0  0  0  0  0  0  0  0  0  0  0  0
    8.6628    5.7088   21.8871 N   0  0  0  0  0  0  0  0  0  0  0  0
    5.6516    3.5258   21.9140 C   0  0  0  0  0  0  0  0  0  0  0  0
   11.5863    9.6815   19.4539 C   0  0  0  0  0  0  0  0  0  0  0  0
   12.9648    4.1543   20.9205 C   0  0  0  0  0  0  0  0  0  0  0  0
    8.2089    3.6265   20.8929 C   0  0  0  0  0  0  0  0  0  0  0  0
    7.3827    2.5724   20.5432 C   0  0  0  0  0  0  0  0  0  0  0  0
   11.1529    7.2750   20.8025 C   0  0  0  0  0  0  0  0  0  0  0  0
   10.2573    8.3215   20.9827 C   0  0  0  0  0  0  0  0  0  0  0  0
   11.1606    5.9378   21.2366 N   0  0  0  0  0  0  0  0  0  0  0  0
    9.8932   11.6736   19.0677 O   0  0  0  0  0  0  0  0  0  0  0  0
    6.4470    4.5850   22.2321 C   0  0  0  0  0  0  0  0  0  0  0  0
    8.4619    6.9895   22.2968 C   0  0  0  0  0  0  0  0  0  0  0  0
   12.2747    7.5102   20.0420 C   0  0  0  0  0  0  0  0  0  0  0  0
   14.2544    6.2142   19.4191 C   0  0  0  0  0  0  0  0  0  0  0  0
   13.0695    6.3705   20.0375 N   0  0  0  0  0  0  0  0  0  0  0  0
    9.1913    8.0876   21.8361 N   0  0  0  0  0  0  0  0  0  0  0  0
   10.4739    9.4813   20.2889 C   0  0  0  0  0  0  0  0  0  0  0  0
    7.5551    7.1270   23.1200 O   0  0  0  0  0  0  0  0  0  0  0  0
  1 11  4  0
  1 21  4  0
  2  4  1  0
  2  8  1  0
  2 11  1  0
  3 10  4  0
  3 14  4  0
  4  5  1  0
  4 18  2  0
  6 12  1  0
  6 17  4  0
  6 23  4  0
  7  9  1  0
  7 13  4  0
  7 19  4  0
  9 20  1  0
 10 19  4  0
 11 25  4  0
 13 14  4  0
 15 16  4  0
 15 17  4  0
 15 21  4  0
 16 24  1  0
 16 25  4  0
 20 24  1  0
 20 26  2  0
 21 23  4  0
 22 23  1  0
M  END
$$$$

 Created by Python create_sdf_string function

 26 28  0  0  0  0  0  0  0  0999 V2000
   12.4616    8.6700   19.4180 N   0  0  0  0  0  0  0  0  0  0  0  0
   11.8329   10.8148   18.6769 N   0  0  0  0  0  0  0  0  0  0  0  0
    6.1021    2.5564   21.0678 C   0  0  0  0  0  0  0  0  0  0  0  0
   10.9097   11.8051   18.4804 C   0  0  0  0  0  0  0  0  0  0  0  0
   11.2280   12.9135   17.5669 C   0  0  0  0  0  0  0  0  0  0  0  0
   12.3782    5.4231   20.7777 C   0  0  0  0  0  0  0  0  0  0  0  0
    7.7365    4.6508   21.6987 C   0  0  0  0  0  0  0  0  0  0  0  0
   13.0186   11.0102   18.0020 C   0  0  0  0  0  0  0  0  0  0  0  0
    8.6628    5.7088   21.8871 N   0  0  0  0  0  0  0  0  0  0  0  0
    5.6516    3.5258   21.9140 C   0  0  0  0  0  0  0  0  0  0  0  0
   11.5863    9.6815   19.4539 C   0  0  0  0  0  0  0  0  0  0  0  0
   12.9648    4.1543   20.9205 C   0  0  0  0  0  0  0  0  0  0  0  0
    8.2089    3.6265   20.8929 C   0  0  0  0  0  0  0  0  0  0  0  0
    7.3827    2.5724   20.5432 C   0  0  0  0  0  0  0  0  0  0  0  0
   11.1529    7.2750   20.8025 C   0  0  0  0  0  0  0  0  0  0  0  0
   10.2573    8.3215   20.9827 C   0  0  0  0  0  0  0  0  0  0  0  0
   11.1606    5.9378   21.2366 N   0  0  0  0  0  0  0  0  0  0  0  0
    9.8932   11.6736   19.0677 O   0  0  0  0  0  0  0  0  0  0  0  0
    6.4470    4.5850   22.2321 C   0  0  0  0  0  0  0  0  0  0  0  0
    8.4619    6.9895   22.2968 C   0  0  0  0  0  0  0  0  0  0  0  0
   12.2747    7.5102   20.0420 C   0  0  0  0  0  0  0  0  0  0  0  0
   14.2544    6.2142   19.4191 C   0  0  0  0  0  0  0  0  0  0  0  0
   13.0695    6.3705   20.0375 N   0  0  0  0  0  0  0  0  0  0  0  0
    9.1913    8.0876   21.8361 N   0  0  0  0  0  0  0  0  0  0  0  0
   10.4739    9.4813   20.2889 C   0  0  0  0  0  0  0  0  0  0  0  0
    7.5551    7.1270   23.1200 O   0  0  0  0  0  0  0  0  0  0  0  0
  1 11  4  0
  1 21  4  0
  2  4  1  0
  2  8  1  0
  2 11  1  0
  3 10  4  0
  3 14  4  0
  4  5  1  0
  4 18  2  0
  6 12  1  0
  6 17  4  0
  6 23  4  0
  7  9  1  0
  7 13  4  0
  7 19  4  0
  9 20  1  0
 10 19  4  0
 11 25  4  0
 13 14  4  0
 15 16  4  0
 15 17  4  0
 15 21  4  0
 16 24  1  0
 16 25  4  0
 20 24  1  0
 20 26  2  0
 21 23  4  0
 22 23  1  0
M  END
$$$$

 Created by Python create_sdf_string function

 26 28  0  0  0  0  0  0  0  0999 V2000
   12.4616    8.6700   19.4180 N   0  0  0  0  0  0  0  0  0  0  0  0
   11.8329   10.8148   18.6769 N   0  0  0  0  0  0  0  0  0  0  0  0
    6.1021    2.5564   21.0678 C   0  0  0  0  0  0  0  0  0  0  0  0
   10.9097   11.8051   18.4804 C   0  0  0  0  0  0  0  0  0  0  0  0
   11.2280   12.9135   17.5669 C   0  0  0  0  0  0  0  0  0  0  0  0
   12.3782    5.4231   20.7777 C   0  0  0  0  0  0  0  0  0  0  0  0
    7.7365    4.6508   21.6987 C   0  0  0  0  0  0  0  0  0  0  0  0
   13.0186   11.0102   18.0020 C   0  0  0  0  0  0  0  0  0  0  0  0
    8.6628    5.7088   21.8871 N   0  0  0  0  0  0  0  0  0  0  0  0
    5.6516    3.5258   21.9140 C   0  0  0  0  0  0  0  0  0  0  0  0
   11.5863    9.6815   19.4539 C   0  0  0  0  0  0  0  0  0  0  0  0
   12.9648    4.1543   20.9205 C   0  0  0  0  0  0  0  0  0  0  0  0
    8.2089    3.6265   20.8929 C   0  0  0  0  0  0  0  0  0  0  0  0
    7.3827    2.5724   20.5432 C   0  0  0  0  0  0  0  0  0  0  0  0
   11.1529    7.2750   20.8025 C   0  0  0  0  0  0  0  0  0  0  0  0
   10.2573    8.3215   20.9827 C   0  0  0  0  0  0  0  0  0  0  0  0
   11.1606    5.9378   21.2366 N   0  0  0  0  0  0  0  0  0  0  0  0
    9.8932   11.6736   19.0677 O   0  0  0  0  0  0  0  0  0  0  0  0
    6.4470    4.5850   22.2321 C   0  0  0  0  0  0  0  0  0  0  0  0
    8.4619    6.9895   22.2968 C   0  0  0  0  0  0  0  0  0  0  0  0
   12.2747    7.5102   20.0420 C   0  0  0  0  0  0  0  0  0  0  0  0
   14.2544    6.2142   19.4191 C   0  0  0  0  0  0  0  0  0  0  0  0
   13.0695    6.3705   20.0375 N   0  0  0  0  0  0  0  0  0  0  0  0
    9.1913    8.0876   21.8361 N   0  0  0  0  0  0  0  0  0  0  0  0
   10.4739    9.4813   20.2889 C   0  0  0  0  0  0  0  0  0  0  0  0
    7.5551    7.1270   23.1200 O   0  0  0  0  0  0  0  0  0  0  0  0
  1 11  4  0
  1 21  4  0
  2  4  1  0
  2  8  1  0
  2 11  1  0
  3 10  4  0
  3 14  4  0
  4  5  1  0
  4 18  2  0
  6 12  1  0
  6 17  4  0
  6 23  4  0
  7  9  1  0
  7 13  4  0
  7 19  4  0
  9 20  1  0
 10 19  4  0
 11 25  4  0
 13 14  4  0
 15 16  4  0
 15 17  4  0
 15 21  4  0
 16 24  1  0
 16 25  4  0
 20 24  1  0
 20 26  2  0
 21 23  4  0
 22 23  1  0
M  END
$$$$

 Created by Python create_sdf_string function

 26 28  0  0  0  0  0  0  0  0999 V2000
   12.4616    8.6700   19.4180 N   0  0  0  0  0  0  0  0  0  0  0  0
   11.8329   10.8148   18.6769 N   0  0  0  0  0  0  0  0  0  0  0  0
    6.1021    2.5564   21.0678 C   0  0  0  0  0  0  0  0  0  0  0  0
   10.9097   11.8051   18.4804 C   0  0  0  0  0  0  0  0  0  0  0  0
   11.2280   12.9135   17.5669 C   0  0  0  0  0  0  0  0  0  0  0  0
   12.3782    5.4231   20.7777 C   0  0  0  0  0  0  0  0  0  0  0  0
    7.7365    4.6508   21.6987 C   0  0  0  0  0  0  0  0  0  0  0  0
   13.0186   11.0102   18.0020 C   0  0  0  0  0  0  0  0  0  0  0  0
    8.6628    5.7088   21.8871 N   0  0  0  0  0  0  0  0  0  0  0  0
    5.6516    3.5258   21.9140 C   0  0  0  0  0  0  0  0  0  0  0  0
   11.5863    9.6815   19.4539 C   0  0  0  0  0  0  0  0  0  0  0  0
   12.9648    4.1543   20.9205 C   0  0  0  0  0  0  0  0  0  0  0  0
    8.2089    3.6265   20.8929 C   0  0  0  0  0  0  0  0  0  0  0  0
    7.3827    2.5724   20.5432 C   0  0  0  0  0  0  0  0  0  0  0  0
   11.1529    7.2750   20.8025 C   0  0  0  0  0  0  0  0  0  0  0  0
   10.2573    8.3215   20.9827 C   0  0  0  0  0  0  0  0  0  0  0  0
   11.1606    5.9378   21.2366 N   0  0  0  0  0  0  0  0  0  0  0  0
    9.8932   11.6736   19.0677 O   0  0  0  0  0  0  0  0  0  0  0  0
    6.4470    4.5850   22.2321 C   0  0  0  0  0  0  0  0  0  0  0  0
    8.4619    6.9895   22.2968 C   0  0  0  0  0  0  0  0  0  0  0  0
   12.2747    7.5102   20.0420 C   0  0  0  0  0  0  0  0  0  0  0  0
   14.2544    6.2142   19.4191 C   0  0  0  0  0  0  0  0  0  0  0  0
   13.0695    6.3705   20.0375 N   0  0  0  0  0  0  0  0  0  0  0  0
    9.1913    8.0876   21.8361 N   0  0  0  0  0  0  0  0  0  0  0  0
   10.4739    9.4813   20.2889 C   0  0  0  0  0  0  0  0  0  0  0  0
    7.5551    7.1270   23.1200 O   0  0  0  0  0  0  0  0  0  0  0  0
  1 11  4  0
  1 21  4  0
  2  4  1  0
  2  8  1  0
  2 11  1  0
  3 10  4  0
  3 14  4  0
  4  5  1  0
  4 18  2  0
  6 12  1  0
  6 17  4  0
  6 23  4  0
  7  9  1  0
  7 13  4  0
  7 19  4  0
  9 20  1  0
 10 19  4  0
 11 25  4  0
 13 14  4  0
 15 16  4  0
 15 17  4  0
 15 21  4  0
 16 24  1  0
 16 25  4  0
 20 24  1  0
 20 26  2  0
 21 23  4  0
 22 23  1  0
M  END
$$$$

 Created by Python create_sdf_string function

 26 28  0  0  0  0  0  0  0  0999 V2000
   12.4616    8.6700   19.4180 N   0  0  0  0  0  0  0  0  0  0  0  0
   11.8329   10.8148   18.6769 N   0  0  0  0  0  0  0  0  0  0  0  0
    6.1021    2.5564   21.0678 C   0  0  0  0  0  0  0  0  0  0  0  0
   10.9097   11.8051   18.4804 C   0  0  0  0  0  0  0  0  0  0  0  0
   11.2280   12.9135   17.5669 C   0  0  0  0  0  0  0  0  0  0  0  0
   12.3782    5.4231   20.7777 C   0  0  0  0  0  0  0  0  0  0  0  0
    7.7365    4.6508   21.6987 C   0  0  0  0  0  0  0  0  0  0  0  0
   13.0186   11.0102   18.0020 C   0  0  0  0  0  0  0  0  0  0  0  0
    8.6628    5.7088   21.8871 N   0  0  0  0  0  0  0  0  0  0  0  0
    5.6516    3.5258   21.9140 C   0  0  0  0  0  0  0  0  0  0  0  0
   11.5863    9.6815   19.4539 C   0  0  0  0  0  0  0  0  0  0  0  0
   12.9648    4.1543   20.9205 C   0  0  0  0  0  0  0  0  0  0  0  0
    8.2089    3.6265   20.8929 C   0  0  0  0  0  0  0  0  0  0  0  0
    7.3827    2.5724   20.5432 C   0  0  0  0  0  0  0  0  0  0  0  0
   11.1529    7.2750   20.8025 C   0  0  0  0  0  0  0  0  0  0  0  0
   10.2573    8.3215   20.9827 C   0  0  0  0  0  0  0  0  0  0  0  0
   11.1606    5.9378   21.2366 N   0  0  0  0  0  0  0  0  0  0  0  0
    9.8932   11.6736   19.0677 O   0  0  0  0  0  0  0  0  0  0  0  0
    6.4470    4.5850   22.2321 C   0  0  0  0  0  0  0  0  0  0  0  0
    8.4619    6.9895   22.2968 C   0  0  0  0  0  0  0  0  0  0  0  0
   12.2747    7.5102   20.0420 C   0  0  0  0  0  0  0  0  0  0  0  0
   14.2544    6.2142   19.4191 C   0  0  0  0  0  0  0  0  0  0  0  0
   13.0695    6.3705   20.0375 N   0  0  0  0  0  0  0  0  0  0  0  0
    9.1913    8.0876   21.8361 N   0  0  0  0  0  0  0  0  0  0  0  0
   10.4739    9.4813   20.2889 C   0  0  0  0  0  0  0  0  0  0  0  0
    7.5551    7.1270   23.1200 O   0  0  0  0  0  0  0  0  0  0  0  0
  1 11  4  0
  1 21  4  0
  2  4  1  0
  2  8  1  0
  2 11  1  0
  3 10  4  0
  3 14  4  0
  4  5  1  0
  4 18  2  0
  6 12  1  0
  6 17  4  0
  6 23  4  0
  7  9  1  0
  7 13  4  0
  7 19  4  0
  9 20  1  0
 10 19  4  0
 11 25  4  0
 13 14  4  0
 15 16  4  0
 15 17  4  0
 15 21  4  0
 16 24  1  0
 16 25  4  0
 20 24  1  0
 20 26  2  0
 21 23  4  0
 22 23  1  0
M  END
$$$$

 Created by Python create_sdf_string function

 26 28  0  0  0  0  0  0  0  0999 V2000
   12.4616    8.6700   19.4180 N   0  0  0  0  0  0  0  0  0  0  0  0
   11.8329   10.8148   18.6769 N   0  0  0  0  0  0  0  0  0  0  0  0
    6.1021    2.5564   21.0678 C   0  0  0  0  0  0  0  0  0  0  0  0
   10.9097   11.8051   18.4804 C   0  0  0  0  0  0  0  0  0  0  0  0
   11.2280   12.9135   17.5669 C   0  0  0  0  0  0  0  0  0  0  0  0
   12.3782    5.4231   20.7777 C   0  0  0  0  0  0  0  0  0  0  0  0
    7.7365    4.6508   21.6987 C   0  0  0  0  0  0  0  0  0  0  0  0
   13.0186   11.0102   18.0020 C   0  0  0  0  0  0  0  0  0  0  0  0
    8.6628    5.7088   21.8871 N   0  0  0  0  0  0  0  0  0  0  0  0
    5.6516    3.5258   21.9140 C   0  0  0  0  0  0  0  0  0  0  0  0
   11.5863    9.6815   19.4539 C   0  0  0  0  0  0  0  0  0  0  0  0
   12.9648    4.1543   20.9205 C   0  0  0  0  0  0  0  0  0  0  0  0
    8.2089    3.6265   20.8929 C   0  0  0  0  0  0  0  0  0  0  0  0
    7.3827    2.5724   20.5432 C   0  0  0  0  0  0  0  0  0  0  0  0
   11.1529    7.2750   20.8025 C   0  0  0  0  0  0  0  0  0  0  0  0
   10.2573    8.3215   20.9827 C   0  0  0  0  0  0  0  0  0  0  0  0
   11.1606    5.9378   21.2366 N   0  0  0  0  0  0  0  0  0  0  0  0
    9.8932   11.6736   19.0677 O   0  0  0  0  0  0  0  0  0  0  0  0
    6.4470    4.5850   22.2321 C   0  0  0  0  0  0  0  0  0  0  0  0
    8.4619    6.9895   22.2968 C   0  0  0  0  0  0  0  0  0  0  0  0
   12.2747    7.5102   20.0420 C   0  0  0  0  0  0  0  0  0  0  0  0
   14.2544    6.2142   19.4191 C   0  0  0  0  0  0  0  0  0  0  0  0
   13.0695    6.3705   20.0375 N   0  0  0  0  0  0  0  0  0  0  0  0
    9.1913    8.0876   21.8361 N   0  0  0  0  0  0  0  0  0  0  0  0
   10.4739    9.4813   20.2889 C   0  0  0  0  0  0  0  0  0  0  0  0
    7.5551    7.1270   23.1200 O   0  0  0  0  0  0  0  0  0  0  0  0
  1 11  4  0
  1 21  4  0
  2  4  1  0
  2  8  1  0
  2 11  1  0
  3 10  4  0
  3 14  4  0
  4  5  1  0
  4 18  2  0
  6 12  1  0
  6 17  4  0
  6 23  4  0
  7  9  1  0
  7 13  4  0
  7 19  4  0
  9 20  1  0
 10 19  4  0
 11 25  4  0
 13 14  4  0
 15 16  4  0
 15 17  4  0
 15 21  4  0
 16 24  1  0
 16 25  4  0
 20 24  1  0
 20 26  2  0
 21 23  4  0
 22 23  1  0
M  END
$$$$

 Created by Python create_sdf_string function

 26 28  0  0  0  0  0  0  0  0999 V2000
   12.4616    8.6700   19.4180 N   0  0  0  0  0  0  0  0  0  0  0  0
   11.8329   10.8148   18.6769 N   0  0  0  0  0  0  0  0  0  0  0  0
    6.1021    2.5564   21.0678 C   0  0  0  0  0  0  0  0  0  0  0  0
   10.9097   11.8051   18.4804 C   0  0  0  0  0  0  0  0  0  0  0  0
   11.2280   12.9135   17.5669 C   0  0  0  0  0  0  0  0  0  0  0  0
   12.3782    5.4231   20.7777 C   0  0  0  0  0  0  0  0  0  0  0  0
    7.7365    4.6508   21.6987 C   0  0  0  0  0  0  0  0  0  0  0  0
   13.0186   11.0102   18.0020 C   0  0  0  0  0  0  0  0  0  0  0  0
    8.6628    5.7088   21.8871 N   0  0  0  0  0  0  0  0  0  0  0  0
    5.6516    3.5258   21.9140 C   0  0  0  0  0  0  0  0  0  0  0  0
   11.5863    9.6815   19.4539 C   0  0  0  0  0  0  0  0  0  0  0  0
   12.9648    4.1543   20.9205 C   0  0  0  0  0  0  0  0  0  0  0  0
    8.2089    3.6265   20.8929 C   0  0  0  0  0  0  0  0  0  0  0  0
    7.3827    2.5724   20.5432 C   0  0  0  0  0  0  0  0  0  0  0  0
   11.1529    7.2750   20.8025 C   0  0  0  0  0  0  0  0  0  0  0  0
   10.2573    8.3215   20.9827 C   0  0  0  0  0  0  0  0  0  0  0  0
   11.1606    5.9378   21.2366 N   0  0  0  0  0  0  0  0  0  0  0  0
    9.8932   11.6736   19.0677 O   0  0  0  0  0  0  0  0  0  0  0  0
    6.4470    4.5850   22.2321 C   0  0  0  0  0  0  0  0  0  0  0  0
    8.4619    6.9895   22.2968 C   0  0  0  0  0  0  0  0  0  0  0  0
   12.2747    7.5102   20.0420 C   0  0  0  0  0  0  0  0  0  0  0  0
   14.2544    6.2142   19.4191 C   0  0  0  0  0  0  0  0  0  0  0  0
   13.0695    6.3705   20.0375 N   0  0  0  0  0  0  0  0  0  0  0  0
    9.1913    8.0876   21.8361 N   0  0  0  0  0  0  0  0  0  0  0  0
   10.4739    9.4813   20.2889 C   0  0  0  0  0  0  0  0  0  0  0  0
    7.5551    7.1270   23.1200 O   0  0  0  0  0  0  0  0  0  0  0  0
  1 11  4  0
  1 21  4  0
  2  4  1  0
  2  8  1  0
  2 11  1  0
  3 10  4  0
  3 14  4  0
  4  5  1  0
  4 18  2  0
  6 12  1  0
  6 17  4  0
  6 23  4  0
  7  9  1  0
  7 13  4  0
  7 19  4  0
  9 20  1  0
 10 19  4  0
 11 25  4  0
 13 14  4  0
 15 16  4  0
 15 17  4  0
 15 21  4  0
 16 24  1  0
 16 25  4  0
 20 24  1  0
 20 26  2  0
 21 23  4  0
 22 23  1  0
M  END
$$$$

 Created by Python create_sdf_string function

 26 28  0  0  0  0  0  0  0  0999 V2000
   12.4616    8.6700   19.4180 N   0  0  0  0  0  0  0  0  0  0  0  0
   11.8329   10.8148   18.6769 N   0  0  0  0  0  0  0  0  0  0  0  0
    6.1021    2.5564   21.0678 C   0  0  0  0  0  0  0  0  0  0  0  0
   10.9097   11.8051   18.4804 C   0  0  0  0  0  0  0  0  0  0  0  0
   11.2280   12.9135   17.5669 C   0  0  0  0  0  0  0  0  0  0  0  0
   12.3782    5.4231   20.7777 C   0  0  0  0  0  0  0  0  0  0  0  0
    7.7365    4.6508   21.6987 C   0  0  0  0  0  0  0  0  0  0  0  0
   13.0186   11.0102   18.0020 C   0  0  0  0  0  0  0  0  0  0  0  0
    8.6628    5.7088   21.8871 N   0  0  0  0  0  0  0  0  0  0  0  0
    5.6516    3.5258   21.9140 C   0  0  0  0  0  0  0  0  0  0  0  0
   11.5863    9.6815   19.4539 C   0  0  0  0  0  0  0  0  0  0  0  0
   12.9648    4.1543   20.9205 C   0  0  0  0  0  0  0  0  0  0  0  0
    8.2089    3.6265   20.8929 C   0  0  0  0  0  0  0  0  0  0  0  0
    7.3827    2.5724   20.5432 C   0  0  0  0  0  0  0  0  0  0  0  0
   11.1529    7.2750   20.8025 C   0  0  0  0  0  0  0  0  0  0  0  0
   10.2573    8.3215   20.9827 C   0  0  0  0  0  0  0  0  0  0  0  0
   11.1606    5.9378   21.2366 N   0  0  0  0  0  0  0  0  0  0  0  0
    9.8932   11.6736   19.0677 O   0  0  0  0  0  0  0  0  0  0  0  0
    6.4470    4.5850   22.2321 C   0  0  0  0  0  0  0  0  0  0  0  0
    8.4619    6.9895   22.2968 C   0  0  0  0  0  0  0  0  0  0  0  0
   12.2747    7.5102   20.0420 C   0  0  0  0  0  0  0  0  0  0  0  0
   14.2544    6.2142   19.4191 C   0  0  0  0  0  0  0  0  0  0  0  0
   13.0695    6.3705   20.0375 N   0  0  0  0  0  0  0  0  0  0  0  0
    9.1913    8.0876   21.8361 N   0  0  0  0  0  0  0  0  0  0  0  0
   10.4739    9.4813   20.2889 C   0  0  0  0  0  0  0  0  0  0  0  0
    7.5551    7.1270   23.1200 O   0  0  0  0  0  0  0  0  0  0  0  0
  1 11  4  0
  1 21  4  0
  2  4  1  0
  2  8  1  0
  2 11  1  0
  3 10  4  0
  3 14  4  0
  4  5  1  0
  4 18  2  0
  6 12  1  0
  6 17  4  0
  6 23  4  0
  7  9  1  0
  7 13  4  0
  7 19  4  0
  9 20  1  0
 10 19  4  0
 11 25  4  0
 13 14  4  0
 15 16  4  0
 15 17  4  0
 15 21  4  0
 16 24  1  0
 16 25  4  0
 20 24  1  0
 20 26  2  0
 21 23  4  0
 22 23  1  0
M  END
$$$$

 Created by Python create_sdf_string function

 26 28  0  0  0  0  0  0  0  0999 V2000
   12.4616    8.6700   19.4180 N   0  0  0  0  0  0  0  0  0  0  0  0
   11.8329   10.8148   18.6769 N   0  0  0  0  0  0  0  0  0  0  0  0
    6.1021    2.5564   21.0678 C   0  0  0  0  0  0  0  0  0  0  0  0
   10.9097   11.8051   18.4804 C   0  0  0  0  0  0  0  0  0  0  0  0
   11.2280   12.9135   17.5669 C   0  0  0  0  0  0  0  0  0  0  0  0
   12.3782    5.4231   20.7777 C   0  0  0  0  0  0  0  0  0  0  0  0
    7.7365    4.6508   21.6987 C   0  0  0  0  0  0  0  0  0  0  0  0
   13.0186   11.0102   18.0020 C   0  0  0  0  0  0  0  0  0  0  0  0
    8.6628    5.7088   21.8871 N   0  0  0  0  0  0  0  0  0  0  0  0
    5.6516    3.5258   21.9140 C   0  0  0  0  0  0  0  0  0  0  0  0
   11.5863    9.6815   19.4539 C   0  0  0  0  0  0  0  0  0  0  0  0
   12.9648    4.1543   20.9205 C   0  0  0  0  0  0  0  0  0  0  0  0
    8.2089    3.6265   20.8929 C   0  0  0  0  0  0  0  0  0  0  0  0
    7.3827    2.5724   20.5432 C   0  0  0  0  0  0  0  0  0  0  0  0
   11.1529    7.2750   20.8025 C   0  0  0  0  0  0  0  0  0  0  0  0
   10.2573    8.3215   20.9827 C   0  0  0  0  0  0  0  0  0  0  0  0
   11.1606    5.9378   21.2366 N   0  0  0  0  0  0  0  0  0  0  0  0
    9.8932   11.6736   19.0677 O   0  0  0  0  0  0  0  0  0  0  0  0
    6.4470    4.5850   22.2321 C   0  0  0  0  0  0  0  0  0  0  0  0
    8.4619    6.9895   22.2968 C   0  0  0  0  0  0  0  0  0  0  0  0
   12.2747    7.5102   20.0420 C   0  0  0  0  0  0  0  0  0  0  0  0
   14.2544    6.2142   19.4191 C   0  0  0  0  0  0  0  0  0  0  0  0
   13.0695    6.3705   20.0375 N   0  0  0  0  0  0  0  0  0  0  0  0
    9.1913    8.0876   21.8361 N   0  0  0  0  0  0  0  0  0  0  0  0
   10.4739    9.4813   20.2889 C   0  0  0  0  0  0  0  0  0  0  0  0
    7.5551    7.1270   23.1200 O   0  0  0  0  0  0  0  0  0  0  0  0
  1 11  4  0
  1 21  4  0
  2  4  1  0
  2  8  1  0
  2 11  1  0
  3 10  4  0
  3 14  4  0
  4  5  1  0
  4 18  2  0
  6 12  1  0
  6 17  4  0
  6 23  4  0
  7  9  1  0
  7 13  4  0
  7 19  4  0
  9 20  1  0
 10 19  4  0
 11 25  4  0
 13 14  4  0
 15 16  4  0
 15 17  4  0
 15 21  4  0
 16 24  1  0
 16 25  4  0
 20 24  1  0
 20 26  2  0
 21 23  4  0
 22 23  1  0
M  END
$$$$

 Created by Python create_sdf_string function

 26 28  0  0  0  0  0  0  0  0999 V2000
   12.4616    8.6700   19.4180 N   0  0  0  0  0  0  0  0  0  0  0  0
   11.8329   10.8148   18.6769 N   0  0  0  0  0  0  0  0  0  0  0  0
    6.1021    2.5564   21.0678 C   0  0  0  0  0  0  0  0  0  0  0  0
   10.9097   11.8051   18.4804 C   0  0  0  0  0  0  0  0  0  0  0  0
   11.2280   12.9135   17.5669 C   0  0  0  0  0  0  0  0  0  0  0  0
   12.3782    5.4231   20.7777 C   0  0  0  0  0  0  0  0  0  0  0  0
    7.7365    4.6508   21.6987 C   0  0  0  0  0  0  0  0  0  0  0  0
   13.0186   11.0102   18.0020 C   0  0  0  0  0  0  0  0  0  0  0  0
    8.6628    5.7088   21.8871 N   0  0  0  0  0  0  0  0  0  0  0  0
    5.6516    3.5258   21.9140 C   0  0  0  0  0  0  0  0  0  0  0  0
   11.5863    9.6815   19.4539 C   0  0  0  0  0  0  0  0  0  0  0  0
   12.9648    4.1543   20.9205 C   0  0  0  0  0  0  0  0  0  0  0  0
    8.2089    3.6265   20.8929 C   0  0  0  0  0  0  0  0  0  0  0  0
    7.3827    2.5724   20.5432 C   0  0  0  0  0  0  0  0  0  0  0  0
   11.1529    7.2750   20.8025 C   0  0  0  0  0  0  0  0  0  0  0  0
   10.2573    8.3215   20.9827 C   0  0  0  0  0  0  0  0  0  0  0  0
   11.1606    5.9378   21.2366 N   0  0  0  0  0  0  0  0  0  0  0  0
    9.8932   11.6736   19.0677 O   0  0  0  0  0  0  0  0  0  0  0  0
    6.4470    4.5850   22.2321 C   0  0  0  0  0  0  0  0  0  0  0  0
    8.4619    6.9895   22.2968 C   0  0  0  0  0  0  0  0  0  0  0  0
   12.2747    7.5102   20.0420 C   0  0  0  0  0  0  0  0  0  0  0  0
   14.2544    6.2142   19.4191 C   0  0  0  0  0  0  0  0  0  0  0  0
   13.0695    6.3705   20.0375 N   0  0  0  0  0  0  0  0  0  0  0  0
    9.1913    8.0876   21.8361 N   0  0  0  0  0  0  0  0  0  0  0  0
   10.4739    9.4813   20.2889 C   0  0  0  0  0  0  0  0  0  0  0  0
    7.5551    7.1270   23.1200 O   0  0  0  0  0  0  0  0  0  0  0  0
  1 11  4  0
  1 21  4  0
  2  4  1  0
  2  8  1  0
  2 11  1  0
  3 10  4  0
  3 14  4  0
  4  5  1  0
  4 18  2  0
  6 12  1  0
  6 17  4  0
  6 23  4  0
  7  9  1  0
  7 13  4  0
  7 19  4  0
  9 20  1  0
 10 19  4  0
 11 25  4  0
 13 14  4  0
 15 16  4  0
 15 17  4  0
 15 21  4  0
 16 24  1  0
 16 25  4  0
 20 24  1  0
 20 26  2  0
 21 23  4  0
 22 23  1  0
M  END
$$$$

 Created by Python create_sdf_string function

 26 28  0  0  0  0  0  0  0  0999 V2000
   12.4616    8.6700   19.4180 N   0  0  0  0  0  0  0  0  0  0  0  0
   11.8329   10.8148   18.6769 N   0  0  0  0  0  0  0  0  0  0  0  0
    6.1021    2.5564   21.0678 C   0  0  0  0  0  0  0  0  0  0  0  0
   10.9097   11.8051   18.4804 C   0  0  0  0  0  0  0  0  0  0  0  0
   11.2280   12.9135   17.5669 C   0  0  0  0  0  0  0  0  0  0  0  0
   12.3782    5.4231   20.7777 C   0  0  0  0  0  0  0  0  0  0  0  0
    7.7365    4.6508   21.6987 C   0  0  0  0  0  0  0  0  0  0  0  0
   13.0186   11.0102   18.0020 C   0  0  0  0  0  0  0  0  0  0  0  0
    8.6628    5.7088   21.8871 N   0  0  0  0  0  0  0  0  0  0  0  0
    5.6516    3.5258   21.9140 C   0  0  0  0  0  0  0  0  0  0  0  0
   11.5863    9.6815   19.4539 C   0  0  0  0  0  0  0  0  0  0  0  0
   12.9648    4.1543   20.9205 C   0  0  0  0  0  0  0  0  0  0  0  0
    8.2089    3.6265   20.8929 C   0  0  0  0  0  0  0  0  0  0  0  0
    7.3827    2.5724   20.5432 C   0  0  0  0  0  0  0  0  0  0  0  0
   11.1529    7.2750   20.8025 C   0  0  0  0  0  0  0  0  0  0  0  0
   10.2573    8.3215   20.9827 C   0  0  0  0  0  0  0  0  0  0  0  0
   11.1606    5.9378   21.2366 N   0  0  0  0  0  0  0  0  0  0  0  0
    9.8932   11.6736   19.0677 O   0  0  0  0  0  0  0  0  0  0  0  0
    6.4470    4.5850   22.2321 C   0  0  0  0  0  0  0  0  0  0  0  0
    8.4619    6.9895   22.2968 C   0  0  0  0  0  0  0  0  0  0  0  0
   12.2747    7.5102   20.0420 C   0  0  0  0  0  0  0  0  0  0  0  0
   14.2544    6.2142   19.4191 C   0  0  0  0  0  0  0  0  0  0  0  0
   13.0695    6.3705   20.0375 N   0  0  0  0  0  0  0  0  0  0  0  0
    9.1913    8.0876   21.8361 N   0  0  0  0  0  0  0  0  0  0  0  0
   10.4739    9.4813   20.2889 C   0  0  0  0  0  0  0  0  0  0  0  0
    7.5551    7.1270   23.1200 O   0  0  0  0  0  0  0  0  0  0  0  0
  1 11  4  0
  1 21  4  0
  2  4  1  0
  2  8  1  0
  2 11  1  0
  3 10  4  0
  3 14  4  0
  4  5  1  0
  4 18  2  0
  6 12  1  0
  6 17  4  0
  6 23  4  0
  7  9  1  0
  7 13  4  0
  7 19  4  0
  9 20  1  0
 10 19  4  0
 11 25  4  0
 13 14  4  0
 15 16  4  0
 15 17  4  0
 15 21  4  0
 16 24  1  0
 16 25  4  0
 20 24  1  0
 20 26  2  0
 21 23  4  0
 22 23  1  0
M  END
$$$$

 Created by Python create_sdf_string function

 26 28  0  0  0  0  0  0  0  0999 V2000
   12.4616    8.6700   19.4180 N   0  0  0  0  0  0  0  0  0  0  0  0
   11.8329   10.8148   18.6769 N   0  0  0  0  0  0  0  0  0  0  0  0
    6.1021    2.5564   21.0678 C   0  0  0  0  0  0  0  0  0  0  0  0
   10.9097   11.8051   18.4804 C   0  0  0  0  0  0  0  0  0  0  0  0
   11.2280   12.9135   17.5669 C   0  0  0  0  0  0  0  0  0  0  0  0
   12.3782    5.4231   20.7777 C   0  0  0  0  0  0  0  0  0  0  0  0
    7.7365    4.6508   21.6987 C   0  0  0  0  0  0  0  0  0  0  0  0
   13.0186   11.0102   18.0020 C   0  0  0  0  0  0  0  0  0  0  0  0
    8.6628    5.7088   21.8871 N   0  0  0  0  0  0  0  0  0  0  0  0
    5.6516    3.5258   21.9140 C   0  0  0  0  0  0  0  0  0  0  0  0
   11.5863    9.6815   19.4539 C   0  0  0  0  0  0  0  0  0  0  0  0
   12.9648    4.1543   20.9205 C   0  0  0  0  0  0  0  0  0  0  0  0
    8.2089    3.6265   20.8929 C   0  0  0  0  0  0  0  0  0  0  0  0
    7.3827    2.5724   20.5432 C   0  0  0  0  0  0  0  0  0  0  0  0
   11.1529    7.2750   20.8025 C   0  0  0  0  0  0  0  0  0  0  0  0
   10.2573    8.3215   20.9827 C   0  0  0  0  0  0  0  0  0  0  0  0
   11.1606    5.9378   21.2366 N   0  0  0  0  0  0  0  0  0  0  0  0
    9.8932   11.6736   19.0677 O   0  0  0  0  0  0  0  0  0  0  0  0
    6.4470    4.5850   22.2321 C   0  0  0  0  0  0  0  0  0  0  0  0
    8.4619    6.9895   22.2968 C   0  0  0  0  0  0  0  0  0  0  0  0
   12.2747    7.5102   20.0420 C   0  0  0  0  0  0  0  0  0  0  0  0
   14.2544    6.2142   19.4191 C   0  0  0  0  0  0  0  0  0  0  0  0
   13.0695    6.3705   20.0375 N   0  0  0  0  0  0  0  0  0  0  0  0
    9.1913    8.0876   21.8361 N   0  0  0  0  0  0  0  0  0  0  0  0
   10.4739    9.4813   20.2889 C   0  0  0  0  0  0  0  0  0  0  0  0
    7.5551    7.1270   23.1200 O   0  0  0  0  0  0  0  0  0  0  0  0
  1 11  4  0
  1 21  4  0
  2  4  1  0
  2  8  1  0
  2 11  1  0
  3 10  4  0
  3 14  4  0
  4  5  1  0
  4 18  2  0
  6 12  1  0
  6 17  4  0
  6 23  4  0
  7  9  1  0
  7 13  4  0
  7 19  4  0
  9 20  1  0
 10 19  4  0
 11 25  4  0
 13 14  4  0
 15 16  4  0
 15 17  4  0
 15 21  4  0
 16 24  1  0
 16 25  4  0
 20 24  1  0
 20 26  2  0
 21 23  4  0
 22 23  1  0
M  END
$$$$

 Created by Python create_sdf_string function

 26 28  0  0  0  0  0  0  0  0999 V2000
   12.4616    8.6700   19.4180 N   0  0  0  0  0  0  0  0  0  0  0  0
   11.8329   10.8148   18.6769 N   0  0  0  0  0  0  0  0  0  0  0  0
    6.1021    2.5564   21.0678 C   0  0  0  0  0  0  0  0  0  0  0  0
   10.9097   11.8051   18.4804 C   0  0  0  0  0  0  0  0  0  0  0  0
   11.2280   12.9135   17.5669 C   0  0  0  0  0  0  0  0  0  0  0  0
   12.3782    5.4231   20.7777 C   0  0  0  0  0  0  0  0  0  0  0  0
    7.7365    4.6508   21.6987 C   0  0  0  0  0  0  0  0  0  0  0  0
   13.0186   11.0102   18.0020 C   0  0  0  0  0  0  0  0  0  0  0  0
    8.6628    5.7088   21.8871 N   0  0  0  0  0  0  0  0  0  0  0  0
    5.6516    3.5258   21.9140 C   0  0  0  0  0  0  0  0  0  0  0  0
   11.5863    9.6815   19.4539 C   0  0  0  0  0  0  0  0  0  0  0  0
   12.9648    4.1543   20.9205 C   0  0  0  0  0  0  0  0  0  0  0  0
    8.2089    3.6265   20.8929 C   0  0  0  0  0  0  0  0  0  0  0  0
    7.3827    2.5724   20.5432 C   0  0  0  0  0  0  0  0  0  0  0  0
   11.1529    7.2750   20.8025 C   0  0  0  0  0  0  0  0  0  0  0  0
   10.2573    8.3215   20.9827 C   0  0  0  0  0  0  0  0  0  0  0  0
   11.1606    5.9378   21.2366 N   0  0  0  0  0  0  0  0  0  0  0  0
    9.8932   11.6736   19.0677 O   0  0  0  0  0  0  0  0  0  0  0  0
    6.4470    4.5850   22.2321 C   0  0  0  0  0  0  0  0  0  0  0  0
    8.4619    6.9895   22.2968 C   0  0  0  0  0  0  0  0  0  0  0  0
   12.2747    7.5102   20.0420 C   0  0  0  0  0  0  0  0  0  0  0  0
   14.2544    6.2142   19.4191 C   0  0  0  0  0  0  0  0  0  0  0  0
   13.0695    6.3705   20.0375 N   0  0  0  0  0  0  0  0  0  0  0  0
    9.1913    8.0876   21.8361 N   0  0  0  0  0  0  0  0  0  0  0  0
   10.4739    9.4813   20.2889 C   0  0  0  0  0  0  0  0  0  0  0  0
    7.5551    7.1270   23.1200 O   0  0  0  0  0  0  0  0  0  0  0  0
  1 11  4  0
  1 21  4  0
  2  4  1  0
  2  8  1  0
  2 11  1  0
  3 10  4  0
  3 14  4  0
  4  5  1  0
  4 18  2  0
  6 12  1  0
  6 17  4  0
  6 23  4  0
  7  9  1  0
  7 13  4  0
  7 19  4  0
  9 20  1  0
 10 19  4  0
 11 25  4  0
 13 14  4  0
 15 16  4  0
 15 17  4  0
 15 21  4  0
 16 24  1  0
 16 25  4  0
 20 24  1  0
 20 26  2  0
 21 23  4  0
 22 23  1  0
M  END
$$$$

 Created by Python create_sdf_string function

 26 28  0  0  0  0  0  0  0  0999 V2000
   12.4616    8.6700   19.4180 N   0  0  0  0  0  0  0  0  0  0  0  0
   11.8329   10.8148   18.6769 N   0  0  0  0  0  0  0  0  0  0  0  0
    6.1021    2.5564   21.0678 C   0  0  0  0  0  0  0  0  0  0  0  0
   10.9097   11.8051   18.4804 C   0  0  0  0  0  0  0  0  0  0  0  0
   11.2280   12.9135   17.5669 C   0  0  0  0  0  0  0  0  0  0  0  0
   12.3782    5.4231   20.7777 C   0  0  0  0  0  0  0  0  0  0  0  0
    7.7365    4.6508   21.6987 C   0  0  0  0  0  0  0  0  0  0  0  0
   13.0186   11.0102   18.0020 C   0  0  0  0  0  0  0  0  0  0  0  0
    8.6628    5.7088   21.8871 N   0  0  0  0  0  0  0  0  0  0  0  0
    5.6516    3.5258   21.9140 C   0  0  0  0  0  0  0  0  0  0  0  0
   11.5863    9.6815   19.4539 C   0  0  0  0  0  0  0  0  0  0  0  0
   12.9648    4.1543   20.9205 C   0  0  0  0  0  0  0  0  0  0  0  0
    8.2089    3.6265   20.8929 C   0  0  0  0  0  0  0  0  0  0  0  0
    7.3827    2.5724   20.5432 C   0  0  0  0  0  0  0  0  0  0  0  0
   11.1529    7.2750   20.8025 C   0  0  0  0  0  0  0  0  0  0  0  0
   10.2573    8.3215   20.9827 C   0  0  0  0  0  0  0  0  0  0  0  0
   11.1606    5.9378   21.2366 N   0  0  0  0  0  0  0  0  0  0  0  0
    9.8932   11.6736   19.0677 O   0  0  0  0  0  0  0  0  0  0  0  0
    6.4470    4.5850   22.2321 C   0  0  0  0  0  0  0  0  0  0  0  0
    8.4619    6.9895   22.2968 C   0  0  0  0  0  0  0  0  0  0  0  0
   12.2747    7.5102   20.0420 C   0  0  0  0  0  0  0  0  0  0  0  0
   14.2544    6.2142   19.4191 C   0  0  0  0  0  0  0  0  0  0  0  0
   13.0695    6.3705   20.0375 N   0  0  0  0  0  0  0  0  0  0  0  0
    9.1913    8.0876   21.8361 N   0  0  0  0  0  0  0  0  0  0  0  0
   10.4739    9.4813   20.2889 C   0  0  0  0  0  0  0  0  0  0  0  0
    7.5551    7.1270   23.1200 O   0  0  0  0  0  0  0  0  0  0  0  0
  1 11  4  0
  1 21  4  0
  2  4  1  0
  2  8  1  0
  2 11  1  0
  3 10  4  0
  3 14  4  0
  4  5  1  0
  4 18  2  0
  6 12  1  0
  6 17  4  0
  6 23  4  0
  7  9  1  0
  7 13  4  0
  7 19  4  0
  9 20  1  0
 10 19  4  0
 11 25  4  0
 13 14  4  0
 15 16  4  0
 15 17  4  0
 15 21  4  0
 16 24  1  0
 16 25  4  0
 20 24  1  0
 20 26  2  0
 21 23  4  0
 22 23  1  0
M  END
$$$$

 Created by Python create_sdf_string function

 26 28  0  0  0  0  0  0  0  0999 V2000
   12.4616    8.6700   19.4180 N   0  0  0  0  0  0  0  0  0  0  0  0
   11.8329   10.8148   18.6769 N   0  0  0  0  0  0  0  0  0  0  0  0
    6.1021    2.5564   21.0678 C   0  0  0  0  0  0  0  0  0  0  0  0
   10.9097   11.8051   18.4804 C   0  0  0  0  0  0  0  0  0  0  0  0
   11.2280   12.9135   17.5669 C   0  0  0  0  0  0  0  0  0  0  0  0
   12.3782    5.4231   20.7777 C   0  0  0  0  0  0  0  0  0  0  0  0
    7.7365    4.6508   21.6987 C   0  0  0  0  0  0  0  0  0  0  0  0
   13.0186   11.0102   18.0020 C   0  0  0  0  0  0  0  0  0  0  0  0
    8.6628    5.7088   21.8871 N   0  0  0  0  0  0  0  0  0  0  0  0
    5.6516    3.5258   21.9140 C   0  0  0  0  0  0  0  0  0  0  0  0
   11.5863    9.6815   19.4539 C   0  0  0  0  0  0  0  0  0  0  0  0
   12.9648    4.1543   20.9205 C   0  0  0  0  0  0  0  0  0  0  0  0
    8.2089    3.6265   20.8929 C   0  0  0  0  0  0  0  0  0  0  0  0
    7.3827    2.5724   20.5432 C   0  0  0  0  0  0  0  0  0  0  0  0
   11.1529    7.2750   20.8025 C   0  0  0  0  0  0  0  0  0  0  0  0
   10.2573    8.3215   20.9827 C   0  0  0  0  0  0  0  0  0  0  0  0
   11.1606    5.9378   21.2366 N   0  0  0  0  0  0  0  0  0  0  0  0
    9.8932   11.6736   19.0677 O   0  0  0  0  0  0  0  0  0  0  0  0
    6.4470    4.5850   22.2321 C   0  0  0  0  0  0  0  0  0  0  0  0
    8.4619    6.9895   22.2968 C   0  0  0  0  0  0  0  0  0  0  0  0
   12.2747    7.5102   20.0420 C   0  0  0  0  0  0  0  0  0  0  0  0
   14.2544    6.2142   19.4191 C   0  0  0  0  0  0  0  0  0  0  0  0
   13.0695    6.3705   20.0375 N   0  0  0  0  0  0  0  0  0  0  0  0
    9.1913    8.0876   21.8361 N   0  0  0  0  0  0  0  0  0  0  0  0
   10.4739    9.4813   20.2889 C   0  0  0  0  0  0  0  0  0  0  0  0
    7.5551    7.1270   23.1200 O   0  0  0  0  0  0  0  0  0  0  0  0
  1 11  4  0
  1 21  4  0
  2  4  1  0
  2  8  1  0
  2 11  1  0
  3 10  4  0
  3 14  4  0
  4  5  1  0
  4 18  2  0
  6 12  1  0
  6 17  4  0
  6 23  4  0
  7  9  1  0
  7 13  4  0
  7 19  4  0
  9 20  1  0
 10 19  4  0
 11 25  4  0
 13 14  4  0
 15 16  4  0
 15 17  4  0
 15 21  4  0
 16 24  1  0
 16 25  4  0
 20 24  1  0
 20 26  2  0
 21 23  4  0
 22 23  1  0
M  END
$$$$

 Created by Python create_sdf_string function

 26 28  0  0  0  0  0  0  0  0999 V2000
   12.4616    8.6700   19.4180 N   0  0  0  0  0  0  0  0  0  0  0  0
   11.8329   10.8148   18.6769 N   0  0  0  0  0  0  0  0  0  0  0  0
    6.1021    2.5564   21.0678 C   0  0  0  0  0  0  0  0  0  0  0  0
   10.9097   11.8051   18.4804 C   0  0  0  0  0  0  0  0  0  0  0  0
   11.2280   12.9135   17.5669 C   0  0  0  0  0  0  0  0  0  0  0  0
   12.3782    5.4231   20.7777 C   0  0  0  0  0  0  0  0  0  0  0  0
    7.7365    4.6508   21.6987 C   0  0  0  0  0  0  0  0  0  0  0  0
   13.0186   11.0102   18.0020 C   0  0  0  0  0  0  0  0  0  0  0  0
    8.6628    5.7088   21.8871 N   0  0  0  0  0  0  0  0  0  0  0  0
    5.6516    3.5258   21.9140 C   0  0  0  0  0  0  0  0  0  0  0  0
   11.5863    9.6815   19.4539 C   0  0  0  0  0  0  0  0  0  0  0  0
   12.9648    4.1543   20.9205 C   0  0  0  0  0  0  0  0  0  0  0  0
    8.2089    3.6265   20.8929 C   0  0  0  0  0  0  0  0  0  0  0  0
    7.3827    2.5724   20.5432 C   0  0  0  0  0  0  0  0  0  0  0  0
   11.1529    7.2750   20.8025 C   0  0  0  0  0  0  0  0  0  0  0  0
   10.2573    8.3215   20.9827 C   0  0  0  0  0  0  0  0  0  0  0  0
   11.1606    5.9378   21.2366 N   0  0  0  0  0  0  0  0  0  0  0  0
    9.8932   11.6736   19.0677 O   0  0  0  0  0  0  0  0  0  0  0  0
    6.4470    4.5850   22.2321 C   0  0  0  0  0  0  0  0  0  0  0  0
    8.4619    6.9895   22.2968 C   0  0  0  0  0  0  0  0  0  0  0  0
   12.2747    7.5102   20.0420 C   0  0  0  0  0  0  0  0  0  0  0  0
   14.2544    6.2142   19.4191 C   0  0  0  0  0  0  0  0  0  0  0  0
   13.0695    6.3705   20.0375 N   0  0  0  0  0  0  0  0  0  0  0  0
    9.1913    8.0876   21.8361 N   0  0  0  0  0  0  0  0  0  0  0  0
   10.4739    9.4813   20.2889 C   0  0  0  0  0  0  0  0  0  0  0  0
    7.5551    7.1270   23.1200 O   0  0  0  0  0  0  0  0  0  0  0  0
  1 11  4  0
  1 21  4  0
  2  4  1  0
  2  8  1  0
  2 11  1  0
  3 10  4  0
  3 14  4  0
  4  5  1  0
  4 18  2  0
  6 12  1  0
  6 17  4  0
  6 23  4  0
  7  9  1  0
  7 13  4  0
  7 19  4  0
  9 20  1  0
 10 19  4  0
 11 25  4  0
 13 14  4  0
 15 16  4  0
 15 17  4  0
 15 21  4  0
 16 24  1  0
 16 25  4  0
 20 24  1  0
 20 26  2  0
 21 23  4  0
 22 23  1  0
M  END
$$$$

 Created by Python create_sdf_string function

 26 28  0  0  0  0  0  0  0  0999 V2000
   12.4616    8.6700   19.4180 N   0  0  0  0  0  0  0  0  0  0  0  0
   11.8329   10.8148   18.6769 N   0  0  0  0  0  0  0  0  0  0  0  0
    6.1021    2.5564   21.0678 C   0  0  0  0  0  0  0  0  0  0  0  0
   10.9097   11.8051   18.4804 C   0  0  0  0  0  0  0  0  0  0  0  0
   11.2280   12.9135   17.5669 C   0  0  0  0  0  0  0  0  0  0  0  0
   12.3782    5.4231   20.7777 C   0  0  0  0  0  0  0  0  0  0  0  0
    7.7365    4.6508   21.6987 C   0  0  0  0  0  0  0  0  0  0  0  0
   13.0186   11.0102   18.0020 C   0  0  0  0  0  0  0  0  0  0  0  0
    8.6628    5.7088   21.8871 N   0  0  0  0  0  0  0  0  0  0  0  0
    5.6516    3.5258   21.9140 C   0  0  0  0  0  0  0  0  0  0  0  0
   11.5863    9.6815   19.4539 C   0  0  0  0  0  0  0  0  0  0  0  0
   12.9648    4.1543   20.9205 C   0  0  0  0  0  0  0  0  0  0  0  0
    8.2089    3.6265   20.8929 C   0  0  0  0  0  0  0  0  0  0  0  0
    7.3827    2.5724   20.5432 C   0  0  0  0  0  0  0  0  0  0  0  0
   11.1529    7.2750   20.8025 C   0  0  0  0  0  0  0  0  0  0  0  0
   10.2573    8.3215   20.9827 C   0  0  0  0  0  0  0  0  0  0  0  0
   11.1606    5.9378   21.2366 N   0  0  0  0  0  0  0  0  0  0  0  0
    9.8932   11.6736   19.0677 O   0  0  0  0  0  0  0  0  0  0  0  0
    6.4470    4.5850   22.2321 C   0  0  0  0  0  0  0  0  0  0  0  0
    8.4619    6.9895   22.2968 C   0  0  0  0  0  0  0  0  0  0  0  0
   12.2747    7.5102   20.0420 C   0  0  0  0  0  0  0  0  0  0  0  0
   14.2544    6.2142   19.4191 C   0  0  0  0  0  0  0  0  0  0  0  0
   13.0695    6.3705   20.0375 N   0  0  0  0  0  0  0  0  0  0  0  0
    9.1913    8.0876   21.8361 N   0  0  0  0  0  0  0  0  0  0  0  0
   10.4739    9.4813   20.2889 C   0  0  0  0  0  0  0  0  0  0  0  0
    7.5551    7.1270   23.1200 O   0  0  0  0  0  0  0  0  0  0  0  0
  1 11  4  0
  1 21  4  0
  2  4  1  0
  2  8  1  0
  2 11  1  0
  3 10  4  0
  3 14  4  0
  4  5  1  0
  4 18  2  0
  6 12  1  0
  6 17  4  0
  6 23  4  0
  7  9  1  0
  7 13  4  0
  7 19  4  0
  9 20  1  0
 10 19  4  0
 11 25  4  0
 13 14  4  0
 15 16  4  0
 15 17  4  0
 15 21  4  0
 16 24  1  0
 16 25  4  0
 20 24  1  0
 20 26  2  0
 21 23  4  0
 22 23  1  0
M  END
$$$$

 Created by Python create_sdf_string function

 26 28  0  0  0  0  0  0  0  0999 V2000
   12.4616    8.6700   19.4180 N   0  0  0  0  0  0  0  0  0  0  0  0
   11.8329   10.8148   18.6769 N   0  0  0  0  0  0  0  0  0  0  0  0
    6.1021    2.5564   21.0678 C   0  0  0  0  0  0  0  0  0  0  0  0
   10.9097   11.8051   18.4804 C   0  0  0  0  0  0  0  0  0  0  0  0
   11.2280   12.9135   17.5669 C   0  0  0  0  0  0  0  0  0  0  0  0
   12.3782    5.4231   20.7777 C   0  0  0  0  0  0  0  0  0  0  0  0
    7.7365    4.6508   21.6987 C   0  0  0  0  0  0  0  0  0  0  0  0
   13.0186   11.0102   18.0020 C   0  0  0  0  0  0  0  0  0  0  0  0
    8.6628    5.7088   21.8871 N   0  0  0  0  0  0  0  0  0  0  0  0
    5.6516    3.5258   21.9140 C   0  0  0  0  0  0  0  0  0  0  0  0
   11.5863    9.6815   19.4539 C   0  0  0  0  0  0  0  0  0  0  0  0
   12.9648    4.1543   20.9205 C   0  0  0  0  0  0  0  0  0  0  0  0
    8.2089    3.6265   20.8929 C   0  0  0  0  0  0  0  0  0  0  0  0
    7.3827    2.5724   20.5432 C   0  0  0  0  0  0  0  0  0  0  0  0
   11.1529    7.2750   20.8025 C   0  0  0  0  0  0  0  0  0  0  0  0
   10.2573    8.3215   20.9827 C   0  0  0  0  0  0  0  0  0  0  0  0
   11.1606    5.9378   21.2366 N   0  0  0  0  0  0  0  0  0  0  0  0
    9.8932   11.6736   19.0677 O   0  0  0  0  0  0  0  0  0  0  0  0
    6.4470    4.5850   22.2321 C   0  0  0  0  0  0  0  0  0  0  0  0
    8.4619    6.9895   22.2968 C   0  0  0  0  0  0  0  0  0  0  0  0
   12.2747    7.5102   20.0420 C   0  0  0  0  0  0  0  0  0  0  0  0
   14.2544    6.2142   19.4191 C   0  0  0  0  0  0  0  0  0  0  0  0
   13.0695    6.3705   20.0375 N   0  0  0  0  0  0  0  0  0  0  0  0
    9.1913    8.0876   21.8361 N   0  0  0  0  0  0  0  0  0  0  0  0
   10.4739    9.4813   20.2889 C   0  0  0  0  0  0  0  0  0  0  0  0
    7.5551    7.1270   23.1200 O   0  0  0  0  0  0  0  0  0  0  0  0
  1 11  4  0
  1 21  4  0
  2  4  1  0
  2  8  1  0
  2 11  1  0
  3 10  4  0
  3 14  4  0
  4  5  1  0
  4 18  2  0
  6 12  1  0
  6 17  4  0
  6 23  4  0
  7  9  1  0
  7 13  4  0
  7 19  4  0
  9 20  1  0
 10 19  4  0
 11 25  4  0
 13 14  4  0
 15 16  4  0
 15 17  4  0
 15 21  4  0
 16 24  1  0
 16 25  4  0
 20 24  1  0
 20 26  2  0
 21 23  4  0
 22 23  1  0
M  END
$$$$

 Created by Python create_sdf_string function

 26 28  0  0  0  0  0  0  0  0999 V2000
   12.4616    8.6700   19.4180 N   0  0  0  0  0  0  0  0  0  0  0  0
   11.8329   10.8148   18.6769 N   0  0  0  0  0  0  0  0  0  0  0  0
    6.1021    2.5564   21.0678 C   0  0  0  0  0  0  0  0  0  0  0  0
   10.9097   11.8051   18.4804 C   0  0  0  0  0  0  0  0  0  0  0  0
   11.2280   12.9135   17.5669 C   0  0  0  0  0  0  0  0  0  0  0  0
   12.3782    5.4231   20.7777 C   0  0  0  0  0  0  0  0  0  0  0  0
    7.7365    4.6508   21.6987 C   0  0  0  0  0  0  0  0  0  0  0  0
   13.0186   11.0102   18.0020 C   0  0  0  0  0  0  0  0  0  0  0  0
    8.6628    5.7088   21.8871 N   0  0  0  0  0  0  0  0  0  0  0  0
    5.6516    3.5258   21.9140 C   0  0  0  0  0  0  0  0  0  0  0  0
   11.5863    9.6815   19.4539 C   0  0  0  0  0  0  0  0  0  0  0  0
   12.9648    4.1543   20.9205 C   0  0  0  0  0  0  0  0  0  0  0  0
    8.2089    3.6265   20.8929 C   0  0  0  0  0  0  0  0  0  0  0  0
    7.3827    2.5724   20.5432 C   0  0  0  0  0  0  0  0  0  0  0  0
   11.1529    7.2750   20.8025 C   0  0  0  0  0  0  0  0  0  0  0  0
   10.2573    8.3215   20.9827 C   0  0  0  0  0  0  0  0  0  0  0  0
   11.1606    5.9378   21.2366 N   0  0  0  0  0  0  0  0  0  0  0  0
    9.8932   11.6736   19.0677 O   0  0  0  0  0  0  0  0  0  0  0  0
    6.4470    4.5850   22.2321 C   0  0  0  0  0  0  0  0  0  0  0  0
    8.4619    6.9895   22.2968 C   0  0  0  0  0  0  0  0  0  0  0  0
   12.2747    7.5102   20.0420 C   0  0  0  0  0  0  0  0  0  0  0  0
   14.2544    6.2142   19.4191 C   0  0  0  0  0  0  0  0  0  0  0  0
   13.0695    6.3705   20.0375 N   0  0  0  0  0  0  0  0  0  0  0  0
    9.1913    8.0876   21.8361 N   0  0  0  0  0  0  0  0  0  0  0  0
   10.4739    9.4813   20.2889 C   0  0  0  0  0  0  0  0  0  0  0  0
    7.5551    7.1270   23.1200 O   0  0  0  0  0  0  0  0  0  0  0  0
  1 11  4  0
  1 21  4  0
  2  4  1  0
  2  8  1  0
  2 11  1  0
  3 10  4  0
  3 14  4  0
  4  5  1  0
  4 18  2  0
  6 12  1  0
  6 17  4  0
  6 23  4  0
  7  9  1  0
  7 13  4  0
  7 19  4  0
  9 20  1  0
 10 19  4  0
 11 25  4  0
 13 14  4  0
 15 16  4  0
 15 17  4  0
 15 21  4  0
 16 24  1  0
 16 25  4  0
 20 24  1  0
 20 26  2  0
 21 23  4  0
 22 23  1  0
M  END
$$$$

 Created by Python create_sdf_string function

 26 28  0  0  0  0  0  0  0  0999 V2000
   12.4616    8.6700   19.4180 N   0  0  0  0  0  0  0  0  0  0  0  0
   11.8329   10.8148   18.6769 N   0  0  0  0  0  0  0  0  0  0  0  0
    6.1021    2.5564   21.0678 C   0  0  0  0  0  0  0  0  0  0  0  0
   10.9097   11.8051   18.4804 C   0  0  0  0  0  0  0  0  0  0  0  0
   11.2280   12.9135   17.5669 C   0  0  0  0  0  0  0  0  0  0  0  0
   12.3782    5.4231   20.7777 C   0  0  0  0  0  0  0  0  0  0  0  0
    7.7365    4.6508   21.6987 C   0  0  0  0  0  0  0  0  0  0  0  0
   13.0186   11.0102   18.0020 C   0  0  0  0  0  0  0  0  0  0  0  0
    8.6628    5.7088   21.8871 N   0  0  0  0  0  0  0  0  0  0  0  0
    5.6516    3.5258   21.9140 C   0  0  0  0  0  0  0  0  0  0  0  0
   11.5863    9.6815   19.4539 C   0  0  0  0  0  0  0  0  0  0  0  0
   12.9648    4.1543   20.9205 C   0  0  0  0  0  0  0  0  0  0  0  0
    8.2089    3.6265   20.8929 C   0  0  0  0  0  0  0  0  0  0  0  0
    7.3827    2.5724   20.5432 C   0  0  0  0  0  0  0  0  0  0  0  0
   11.1529    7.2750   20.8025 C   0  0  0  0  0  0  0  0  0  0  0  0
   10.2573    8.3215   20.9827 C   0  0  0  0  0  0  0  0  0  0  0  0
   11.1606    5.9378   21.2366 N   0  0  0  0  0  0  0  0  0  0  0  0
    9.8932   11.6736   19.0677 O   0  0  0  0  0  0  0  0  0  0  0  0
    6.4470    4.5850   22.2321 C   0  0  0  0  0  0  0  0  0  0  0  0
    8.4619    6.9895   22.2968 C   0  0  0  0  0  0  0  0  0  0  0  0
   12.2747    7.5102   20.0420 C   0  0  0  0  0  0  0  0  0  0  0  0
   14.2544    6.2142   19.4191 C   0  0  0  0  0  0  0  0  0  0  0  0
   13.0695    6.3705   20.0375 N   0  0  0  0  0  0  0  0  0  0  0  0
    9.1913    8.0876   21.8361 N   0  0  0  0  0  0  0  0  0  0  0  0
   10.4739    9.4813   20.2889 C   0  0  0  0  0  0  0  0  0  0  0  0
    7.5551    7.1270   23.1200 O   0  0  0  0  0  0  0  0  0  0  0  0
  1 11  4  0
  1 21  4  0
  2  4  1  0
  2  8  1  0
  2 11  1  0
  3 10  4  0
  3 14  4  0
  4  5  1  0
  4 18  2  0
  6 12  1  0
  6 17  4  0
  6 23  4  0
  7  9  1  0
  7 13  4  0
  7 19  4  0
  9 20  1  0
 10 19  4  0
 11 25  4  0
 13 14  4  0
 15 16  4  0
 15 17  4  0
 15 21  4  0
 16 24  1  0
 16 25  4  0
 20 24  1  0
 20 26  2  0
 21 23  4  0
 22 23  1  0
M  END
$$$$

 Created by Python create_sdf_string function

 26 28  0  0  0  0  0  0  0  0999 V2000
   12.4616    8.6700   19.4180 N   0  0  0  0  0  0  0  0  0  0  0  0
   11.8329   10.8148   18.6769 N   0  0  0  0  0  0  0  0  0  0  0  0
    6.1021    2.5564   21.0678 C   0  0  0  0  0  0  0  0  0  0  0  0
   10.9097   11.8051   18.4804 C   0  0  0  0  0  0  0  0  0  0  0  0
   11.2280   12.9135   17.5669 C   0  0  0  0  0  0  0  0  0  0  0  0
   12.3782    5.4231   20.7777 C   0  0  0  0  0  0  0  0  0  0  0  0
    7.7365    4.6508   21.6987 C   0  0  0  0  0  0  0  0  0  0  0  0
   13.0186   11.0102   18.0020 C   0  0  0  0  0  0  0  0  0  0  0  0
    8.6628    5.7088   21.8871 N   0  0  0  0  0  0  0  0  0  0  0  0
    5.6516    3.5258   21.9140 C   0  0  0  0  0  0  0  0  0  0  0  0
   11.5863    9.6815   19.4539 C   0  0  0  0  0  0  0  0  0  0  0  0
   12.9648    4.1543   20.9205 C   0  0  0  0  0  0  0  0  0  0  0  0
    8.2089    3.6265   20.8929 C   0  0  0  0  0  0  0  0  0  0  0  0
    7.3827    2.5724   20.5432 C   0  0  0  0  0  0  0  0  0  0  0  0
   11.1529    7.2750   20.8025 C   0  0  0  0  0  0  0  0  0  0  0  0
   10.2573    8.3215   20.9827 C   0  0  0  0  0  0  0  0  0  0  0  0
   11.1606    5.9378   21.2366 N   0  0  0  0  0  0  0  0  0  0  0  0
    9.8932   11.6736   19.0677 O   0  0  0  0  0  0  0  0  0  0  0  0
    6.4470    4.5850   22.2321 C   0  0  0  0  0  0  0  0  0  0  0  0
    8.4619    6.9895   22.2968 C   0  0  0  0  0  0  0  0  0  0  0  0
   12.2747    7.5102   20.0420 C   0  0  0  0  0  0  0  0  0  0  0  0
   14.2544    6.2142   19.4191 C   0  0  0  0  0  0  0  0  0  0  0  0
   13.0695    6.3705   20.0375 N   0  0  0  0  0  0  0  0  0  0  0  0
    9.1913    8.0876   21.8361 N   0  0  0  0  0  0  0  0  0  0  0  0
   10.4739    9.4813   20.2889 C   0  0  0  0  0  0  0  0  0  0  0  0
    7.5551    7.1270   23.1200 O   0  0  0  0  0  0  0  0  0  0  0  0
  1 11  4  0
  1 21  4  0
  2  4  1  0
  2  8  1  0
  2 11  1  0
  3 10  4  0
  3 14  4  0
  4  5  1  0
  4 18  2  0
  6 12  1  0
  6 17  4  0
  6 23  4  0
  7  9  1  0
  7 13  4  0
  7 19  4  0
  9 20  1  0
 10 19  4  0
 11 25  4  0
 13 14  4  0
 15 16  4  0
 15 17  4  0
 15 21  4  0
 16 24  1  0
 16 25  4  0
 20 24  1  0
 20 26  2  0
 21 23  4  0
 22 23  1  0
M  END
$$$$

 Created by Python create_sdf_string function

 26 28  0  0  0  0  0  0  0  0999 V2000
   12.4616    8.6700   19.4180 N   0  0  0  0  0  0  0  0  0  0  0  0
   11.8329   10.8148   18.6769 N   0  0  0  0  0  0  0  0  0  0  0  0
    6.1021    2.5564   21.0678 C   0  0  0  0  0  0  0  0  0  0  0  0
   10.9097   11.8051   18.4804 C   0  0  0  0  0  0  0  0  0  0  0  0
   11.2280   12.9135   17.5669 C   0  0  0  0  0  0  0  0  0  0  0  0
   12.3782    5.4231   20.7777 C   0  0  0  0  0  0  0  0  0  0  0  0
    7.7365    4.6508   21.6987 C   0  0  0  0  0  0  0  0  0  0  0  0
   13.0186   11.0102   18.0020 C   0  0  0  0  0  0  0  0  0  0  0  0
    8.6628    5.7088   21.8871 N   0  0  0  0  0  0  0  0  0  0  0  0
    5.6516    3.5258   21.9140 C   0  0  0  0  0  0  0  0  0  0  0  0
   11.5863    9.6815   19.4539 C   0  0  0  0  0  0  0  0  0  0  0  0
   12.9648    4.1543   20.9205 C   0  0  0  0  0  0  0  0  0  0  0  0
    8.2089    3.6265   20.8929 C   0  0  0  0  0  0  0  0  0  0  0  0
    7.3827    2.5724   20.5432 C   0  0  0  0  0  0  0  0  0  0  0  0
   11.1529    7.2750   20.8025 C   0  0  0  0  0  0  0  0  0  0  0  0
   10.2573    8.3215   20.9827 C   0  0  0  0  0  0  0  0  0  0  0  0
   11.1606    5.9378   21.2366 N   0  0  0  0  0  0  0  0  0  0  0  0
    9.8932   11.6736   19.0677 O   0  0  0  0  0  0  0  0  0  0  0  0
    6.4470    4.5850   22.2321 C   0  0  0  0  0  0  0  0  0  0  0  0
    8.4619    6.9895   22.2968 C   0  0  0  0  0  0  0  0  0  0  0  0
   12.2747    7.5102   20.0420 C   0  0  0  0  0  0  0  0  0  0  0  0
   14.2544    6.2142   19.4191 C   0  0  0  0  0  0  0  0  0  0  0  0
   13.0695    6.3705   20.0375 N   0  0  0  0  0  0  0  0  0  0  0  0
    9.1913    8.0876   21.8361 N   0  0  0  0  0  0  0  0  0  0  0  0
   10.4739    9.4813   20.2889 C   0  0  0  0  0  0  0  0  0  0  0  0
    7.5551    7.1270   23.1200 O   0  0  0  0  0  0  0  0  0  0  0  0
  1 11  4  0
  1 21  4  0
  2  4  1  0
  2  8  1  0
  2 11  1  0
  3 10  4  0
  3 14  4  0
  4  5  1  0
  4 18  2  0
  6 12  1  0
  6 17  4  0
  6 23  4  0
  7  9  1  0
  7 13  4  0
  7 19  4  0
  9 20  1  0
 10 19  4  0
 11 25  4  0
 13 14  4  0
 15 16  4  0
 15 17  4  0
 15 21  4  0
 16 24  1  0
 16 25  4  0
 20 24  1  0
 20 26  2  0
 21 23  4  0
 22 23  1  0
M  END
$$$$

 Created by Python create_sdf_string function

 26 28  0  0  0  0  0  0  0  0999 V2000
   12.4616    8.6700   19.4180 N   0  0  0  0  0  0  0  0  0  0  0  0
   11.8329   10.8148   18.6769 N   0  0  0  0  0  0  0  0  0  0  0  0
    6.1021    2.5564   21.0678 C   0  0  0  0  0  0  0  0  0  0  0  0
   10.9097   11.8051   18.4804 C   0  0  0  0  0  0  0  0  0  0  0  0
   11.2280   12.9135   17.5669 C   0  0  0  0  0  0  0  0  0  0  0  0
   12.3782    5.4231   20.7777 C   0  0  0  0  0  0  0  0  0  0  0  0
    7.7365    4.6508   21.6987 C   0  0  0  0  0  0  0  0  0  0  0  0
   13.0186   11.0102   18.0020 C   0  0  0  0  0  0  0  0  0  0  0  0
    8.6628    5.7088   21.8871 N   0  0  0  0  0  0  0  0  0  0  0  0
    5.6516    3.5258   21.9140 C   0  0  0  0  0  0  0  0  0  0  0  0
   11.5863    9.6815   19.4539 C   0  0  0  0  0  0  0  0  0  0  0  0
   12.9648    4.1543   20.9205 C   0  0  0  0  0  0  0  0  0  0  0  0
    8.2089    3.6265   20.8929 C   0  0  0  0  0  0  0  0  0  0  0  0
    7.3827    2.5724   20.5432 C   0  0  0  0  0  0  0  0  0  0  0  0
   11.1529    7.2750   20.8025 C   0  0  0  0  0  0  0  0  0  0  0  0
   10.2573    8.3215   20.9827 C   0  0  0  0  0  0  0  0  0  0  0  0
   11.1606    5.9378   21.2366 N   0  0  0  0  0  0  0  0  0  0  0  0
    9.8932   11.6736   19.0677 O   0  0  0  0  0  0  0  0  0  0  0  0
    6.4470    4.5850   22.2321 C   0  0  0  0  0  0  0  0  0  0  0  0
    8.4619    6.9895   22.2968 C   0  0  0  0  0  0  0  0  0  0  0  0
   12.2747    7.5102   20.0420 C   0  0  0  0  0  0  0  0  0  0  0  0
   14.2544    6.2142   19.4191 C   0  0  0  0  0  0  0  0  0  0  0  0
   13.0695    6.3705   20.0375 N   0  0  0  0  0  0  0  0  0  0  0  0
    9.1913    8.0876   21.8361 N   0  0  0  0  0  0  0  0  0  0  0  0
   10.4739    9.4813   20.2889 C   0  0  0  0  0  0  0  0  0  0  0  0
    7.5551    7.1270   23.1200 O   0  0  0  0  0  0  0  0  0  0  0  0
  1 11  4  0
  1 21  4  0
  2  4  1  0
  2  8  1  0
  2 11  1  0
  3 10  4  0
  3 14  4  0
  4  5  1  0
  4 18  2  0
  6 12  1  0
  6 17  4  0
  6 23  4  0
  7  9  1  0
  7 13  4  0
  7 19  4  0
  9 20  1  0
 10 19  4  0
 11 25  4  0
 13 14  4  0
 15 16  4  0
 15 17  4  0
 15 21  4  0
 16 24  1  0
 16 25  4  0
 20 24  1  0
 20 26  2  0
 21 23  4  0
 22 23  1  0
M  END
$$$$

 Created by Python create_sdf_string function

 26 28  0  0  0  0  0  0  0  0999 V2000
   12.4616    8.6700   19.4180 N   0  0  0  0  0  0  0  0  0  0  0  0
   11.8329   10.8148   18.6769 N   0  0  0  0  0  0  0  0  0  0  0  0
    6.1021    2.5564   21.0678 C   0  0  0  0  0  0  0  0  0  0  0  0
   10.9097   11.8051   18.4804 C   0  0  0  0  0  0  0  0  0  0  0  0
   11.2280   12.9135   17.5669 C   0  0  0  0  0  0  0  0  0  0  0  0
   12.3782    5.4231   20.7777 C   0  0  0  0  0  0  0  0  0  0  0  0
    7.7365    4.6508   21.6987 C   0  0  0  0  0  0  0  0  0  0  0  0
   13.0186   11.0102   18.0020 C   0  0  0  0  0  0  0  0  0  0  0  0
    8.6628    5.7088   21.8871 N   0  0  0  0  0  0  0  0  0  0  0  0
    5.6516    3.5258   21.9140 C   0  0  0  0  0  0  0  0  0  0  0  0
   11.5863    9.6815   19.4539 C   0  0  0  0  0  0  0  0  0  0  0  0
   12.9648    4.1543   20.9205 C   0  0  0  0  0  0  0  0  0  0  0  0
    8.2089    3.6265   20.8929 C   0  0  0  0  0  0  0  0  0  0  0  0
    7.3827    2.5724   20.5432 C   0  0  0  0  0  0  0  0  0  0  0  0
   11.1529    7.2750   20.8025 C   0  0  0  0  0  0  0  0  0  0  0  0
   10.2573    8.3215   20.9827 C   0  0  0  0  0  0  0  0  0  0  0  0
   11.1606    5.9378   21.2366 N   0  0  0  0  0  0  0  0  0  0  0  0
    9.8932   11.6736   19.0677 O   0  0  0  0  0  0  0  0  0  0  0  0
    6.4470    4.5850   22.2321 C   0  0  0  0  0  0  0  0  0  0  0  0
    8.4619    6.9895   22.2968 C   0  0  0  0  0  0  0  0  0  0  0  0
   12.2747    7.5102   20.0420 C   0  0  0  0  0  0  0  0  0  0  0  0
   14.2544    6.2142   19.4191 C   0  0  0  0  0  0  0  0  0  0  0  0
   13.0695    6.3705   20.0375 N   0  0  0  0  0  0  0  0  0  0  0  0
    9.1913    8.0876   21.8361 N   0  0  0  0  0  0  0  0  0  0  0  0
   10.4739    9.4813   20.2889 C   0  0  0  0  0  0  0  0  0  0  0  0
    7.5551    7.1270   23.1200 O   0  0  0  0  0  0  0  0  0  0  0  0
  1 11  4  0
  1 21  4  0
  2  4  1  0
  2  8  1  0
  2 11  1  0
  3 10  4  0
  3 14  4  0
  4  5  1  0
  4 18  2  0
  6 12  1  0
  6 17  4  0
  6 23  4  0
  7  9  1  0
  7 13  4  0
  7 19  4  0
  9 20  1  0
 10 19  4  0
 11 25  4  0
 13 14  4  0
 15 16  4  0
 15 17  4  0
 15 21  4  0
 16 24  1  0
 16 25  4  0
 20 24  1  0
 20 26  2  0
 21 23  4  0
 22 23  1  0
M  END
$$$$

 Created by Python create_sdf_string function

 26 28  0  0  0  0  0  0  0  0999 V2000
   12.4616    8.6700   19.4180 N   0  0  0  0  0  0  0  0  0  0  0  0
   11.8329   10.8148   18.6769 N   0  0  0  0  0  0  0  0  0  0  0  0
    6.1021    2.5564   21.0678 C   0  0  0  0  0  0  0  0  0  0  0  0
   10.9097   11.8051   18.4804 C   0  0  0  0  0  0  0  0  0  0  0  0
   11.2280   12.9135   17.5669 C   0  0  0  0  0  0  0  0  0  0  0  0
   12.3782    5.4231   20.7777 C   0  0  0  0  0  0  0  0  0  0  0  0
    7.7365    4.6508   21.6987 C   0  0  0  0  0  0  0  0  0  0  0  0
   13.0186   11.0102   18.0020 C   0  0  0  0  0  0  0  0  0  0  0  0
    8.6628    5.7088   21.8871 N   0  0  0  0  0  0  0  0  0  0  0  0
    5.6516    3.5258   21.9140 C   0  0  0  0  0  0  0  0  0  0  0  0
   11.5863    9.6815   19.4539 C   0  0  0  0  0  0  0  0  0  0  0  0
   12.9648    4.1543   20.9205 C   0  0  0  0  0  0  0  0  0  0  0  0
    8.2089    3.6265   20.8929 C   0  0  0  0  0  0  0  0  0  0  0  0
    7.3827    2.5724   20.5432 C   0  0  0  0  0  0  0  0  0  0  0  0
   11.1529    7.2750   20.8025 C   0  0  0  0  0  0  0  0  0  0  0  0
   10.2573    8.3215   20.9827 C   0  0  0  0  0  0  0  0  0  0  0  0
   11.1606    5.9378   21.2366 N   0  0  0  0  0  0  0  0  0  0  0  0
    9.8932   11.6736   19.0677 O   0  0  0  0  0  0  0  0  0  0  0  0
    6.4470    4.5850   22.2321 C   0  0  0  0  0  0  0  0  0  0  0  0
    8.4619    6.9895   22.2968 C   0  0  0  0  0  0  0  0  0  0  0  0
   12.2747    7.5102   20.0420 C   0  0  0  0  0  0  0  0  0  0  0  0
   14.2544    6.2142   19.4191 C   0  0  0  0  0  0  0  0  0  0  0  0
   13.0695    6.3705   20.0375 N   0  0  0  0  0  0  0  0  0  0  0  0
    9.1913    8.0876   21.8361 N   0  0  0  0  0  0  0  0  0  0  0  0
   10.4739    9.4813   20.2889 C   0  0  0  0  0  0  0  0  0  0  0  0
    7.5551    7.1270   23.1200 O   0  0  0  0  0  0  0  0  0  0  0  0
  1 11  4  0
  1 21  4  0
  2  4  1  0
  2  8  1  0
  2 11  1  0
  3 10  4  0
  3 14  4  0
  4  5  1  0
  4 18  2  0
  6 12  1  0
  6 17  4  0
  6 23  4  0
  7  9  1  0
  7 13  4  0
  7 19  4  0
  9 20  1  0
 10 19  4  0
 11 25  4  0
 13 14  4  0
 15 16  4  0
 15 17  4  0
 15 21  4  0
 16 24  1  0
 16 25  4  0
 20 24  1  0
 20 26  2  0
 21 23  4  0
 22 23  1  0
M  END
$$$$

 Created by Python create_sdf_string function

 26 28  0  0  0  0  0  0  0  0999 V2000
   12.4616    8.6700   19.4180 N   0  0  0  0  0  0  0  0  0  0  0  0
   11.8329   10.8148   18.6769 N   0  0  0  0  0  0  0  0  0  0  0  0
    6.1021    2.5564   21.0678 C   0  0  0  0  0  0  0  0  0  0  0  0
   10.9097   11.8051   18.4804 C   0  0  0  0  0  0  0  0  0  0  0  0
   11.2280   12.9135   17.5669 C   0  0  0  0  0  0  0  0  0  0  0  0
   12.3782    5.4231   20.7777 C   0  0  0  0  0  0  0  0  0  0  0  0
    7.7365    4.6508   21.6987 C   0  0  0  0  0  0  0  0  0  0  0  0
   13.0186   11.0102   18.0020 C   0  0  0  0  0  0  0  0  0  0  0  0
    8.6628    5.7088   21.8871 N   0  0  0  0  0  0  0  0  0  0  0  0
    5.6516    3.5258   21.9140 C   0  0  0  0  0  0  0  0  0  0  0  0
   11.5863    9.6815   19.4539 C   0  0  0  0  0  0  0  0  0  0  0  0
   12.9648    4.1543   20.9205 C   0  0  0  0  0  0  0  0  0  0  0  0
    8.2089    3.6265   20.8929 C   0  0  0  0  0  0  0  0  0  0  0  0
    7.3827    2.5724   20.5432 C   0  0  0  0  0  0  0  0  0  0  0  0
   11.1529    7.2750   20.8025 C   0  0  0  0  0  0  0  0  0  0  0  0
   10.2573    8.3215   20.9827 C   0  0  0  0  0  0  0  0  0  0  0  0
   11.1606    5.9378   21.2366 N   0  0  0  0  0  0  0  0  0  0  0  0
    9.8932   11.6736   19.0677 O   0  0  0  0  0  0  0  0  0  0  0  0
    6.4470    4.5850   22.2321 C   0  0  0  0  0  0  0  0  0  0  0  0
    8.4619    6.9895   22.2968 C   0  0  0  0  0  0  0  0  0  0  0  0
   12.2747    7.5102   20.0420 C   0  0  0  0  0  0  0  0  0  0  0  0
   14.2544    6.2142   19.4191 C   0  0  0  0  0  0  0  0  0  0  0  0
   13.0695    6.3705   20.0375 N   0  0  0  0  0  0  0  0  0  0  0  0
    9.1913    8.0876   21.8361 N   0  0  0  0  0  0  0  0  0  0  0  0
   10.4739    9.4813   20.2889 C   0  0  0  0  0  0  0  0  0  0  0  0
    7.5551    7.1270   23.1200 O   0  0  0  0  0  0  0  0  0  0  0  0
  1 11  4  0
  1 21  4  0
  2  4  1  0
  2  8  1  0
  2 11  1  0
  3 10  4  0
  3 14  4  0
  4  5  1  0
  4 18  2  0
  6 12  1  0
  6 17  4  0
  6 23  4  0
  7  9  1  0
  7 13  4  0
  7 19  4  0
  9 20  1  0
 10 19  4  0
 11 25  4  0
 13 14  4  0
 15 16  4  0
 15 17  4  0
 15 21  4  0
 16 24  1  0
 16 25  4  0
 20 24  1  0
 20 26  2  0
 21 23  4  0
 22 23  1  0
M  END
$$$$

 Created by Python create_sdf_string function

 26 28  0  0  0  0  0  0  0  0999 V2000
   12.4616    8.6700   19.4180 N   0  0  0  0  0  0  0  0  0  0  0  0
   11.8329   10.8148   18.6769 N   0  0  0  0  0  0  0  0  0  0  0  0
    6.1021    2.5564   21.0678 C   0  0  0  0  0  0  0  0  0  0  0  0
   10.9097   11.8051   18.4804 C   0  0  0  0  0  0  0  0  0  0  0  0
   11.2280   12.9135   17.5669 C   0  0  0  0  0  0  0  0  0  0  0  0
   12.3782    5.4231   20.7777 C   0  0  0  0  0  0  0  0  0  0  0  0
    7.7365    4.6508   21.6987 C   0  0  0  0  0  0  0  0  0  0  0  0
   13.0186   11.0102   18.0020 C   0  0  0  0  0  0  0  0  0  0  0  0
    8.6628    5.7088   21.8871 N   0  0  0  0  0  0  0  0  0  0  0  0
    5.6516    3.5258   21.9140 C   0  0  0  0  0  0  0  0  0  0  0  0
   11.5863    9.6815   19.4539 C   0  0  0  0  0  0  0  0  0  0  0  0
   12.9648    4.1543   20.9205 C   0  0  0  0  0  0  0  0  0  0  0  0
    8.2089    3.6265   20.8929 C   0  0  0  0  0  0  0  0  0  0  0  0
    7.3827    2.5724   20.5432 C   0  0  0  0  0  0  0  0  0  0  0  0
   11.1529    7.2750   20.8025 C   0  0  0  0  0  0  0  0  0  0  0  0
   10.2573    8.3215   20.9827 C   0  0  0  0  0  0  0  0  0  0  0  0
   11.1606    5.9378   21.2366 N   0  0  0  0  0  0  0  0  0  0  0  0
    9.8932   11.6736   19.0677 O   0  0  0  0  0  0  0  0  0  0  0  0
    6.4470    4.5850   22.2321 C   0  0  0  0  0  0  0  0  0  0  0  0
    8.4619    6.9895   22.2968 C   0  0  0  0  0  0  0  0  0  0  0  0
   12.2747    7.5102   20.0420 C   0  0  0  0  0  0  0  0  0  0  0  0
   14.2544    6.2142   19.4191 C   0  0  0  0  0  0  0  0  0  0  0  0
   13.0695    6.3705   20.0375 N   0  0  0  0  0  0  0  0  0  0  0  0
    9.1913    8.0876   21.8361 N   0  0  0  0  0  0  0  0  0  0  0  0
   10.4739    9.4813   20.2889 C   0  0  0  0  0  0  0  0  0  0  0  0
    7.5551    7.1270   23.1200 O   0  0  0  0  0  0  0  0  0  0  0  0
  1 11  4  0
  1 21  4  0
  2  4  1  0
  2  8  1  0
  2 11  1  0
  3 10  4  0
  3 14  4  0
  4  5  1  0
  4 18  2  0
  6 12  1  0
  6 17  4  0
  6 23  4  0
  7  9  1  0
  7 13  4  0
  7 19  4  0
  9 20  1  0
 10 19  4  0
 11 25  4  0
 13 14  4  0
 15 16  4  0
 15 17  4  0
 15 21  4  0
 16 24  1  0
 16 25  4  0
 20 24  1  0
 20 26  2  0
 21 23  4  0
 22 23  1  0
M  END
$$$$

 Created by Python create_sdf_string function

 26 28  0  0  0  0  0  0  0  0999 V2000
   12.4616    8.6700   19.4180 N   0  0  0  0  0  0  0  0  0  0  0  0
   11.8329   10.8148   18.6769 N   0  0  0  0  0  0  0  0  0  0  0  0
    6.1021    2.5564   21.0678 C   0  0  0  0  0  0  0  0  0  0  0  0
   10.9097   11.8051   18.4804 C   0  0  0  0  0  0  0  0  0  0  0  0
   11.2280   12.9135   17.5669 C   0  0  0  0  0  0  0  0  0  0  0  0
   12.3782    5.4231   20.7777 C   0  0  0  0  0  0  0  0  0  0  0  0
    7.7365    4.6508   21.6987 C   0  0  0  0  0  0  0  0  0  0  0  0
   13.0186   11.0102   18.0020 C   0  0  0  0  0  0  0  0  0  0  0  0
    8.6628    5.7088   21.8871 N   0  0  0  0  0  0  0  0  0  0  0  0
    5.6516    3.5258   21.9140 C   0  0  0  0  0  0  0  0  0  0  0  0
   11.5863    9.6815   19.4539 C   0  0  0  0  0  0  0  0  0  0  0  0
   12.9648    4.1543   20.9205 C   0  0  0  0  0  0  0  0  0  0  0  0
    8.2089    3.6265   20.8929 C   0  0  0  0  0  0  0  0  0  0  0  0
    7.3827    2.5724   20.5432 C   0  0  0  0  0  0  0  0  0  0  0  0
   11.1529    7.2750   20.8025 C   0  0  0  0  0  0  0  0  0  0  0  0
   10.2573    8.3215   20.9827 C   0  0  0  0  0  0  0  0  0  0  0  0
   11.1606    5.9378   21.2366 N   0  0  0  0  0  0  0  0  0  0  0  0
    9.8932   11.6736   19.0677 O   0  0  0  0  0  0  0  0  0  0  0  0
    6.4470    4.5850   22.2321 C   0  0  0  0  0  0  0  0  0  0  0  0
    8.4619    6.9895   22.2968 C   0  0  0  0  0  0  0  0  0  0  0  0
   12.2747    7.5102   20.0420 C   0  0  0  0  0  0  0  0  0  0  0  0
   14.2544    6.2142   19.4191 C   0  0  0  0  0  0  0  0  0  0  0  0
   13.0695    6.3705   20.0375 N   0  0  0  0  0  0  0  0  0  0  0  0
    9.1913    8.0876   21.8361 N   0  0  0  0  0  0  0  0  0  0  0  0
   10.4739    9.4813   20.2889 C   0  0  0  0  0  0  0  0  0  0  0  0
    7.5551    7.1270   23.1200 O   0  0  0  0  0  0  0  0  0  0  0  0
  1 11  4  0
  1 21  4  0
  2  4  1  0
  2  8  1  0
  2 11  1  0
  3 10  4  0
  3 14  4  0
  4  5  1  0
  4 18  2  0
  6 12  1  0
  6 17  4  0
  6 23  4  0
  7  9  1  0
  7 13  4  0
  7 19  4  0
  9 20  1  0
 10 19  4  0
 11 25  4  0
 13 14  4  0
 15 16  4  0
 15 17  4  0
 15 21  4  0
 16 24  1  0
 16 25  4  0
 20 24  1  0
 20 26  2  0
 21 23  4  0
 22 23  1  0
M  END
$$$$

 Created by Python create_sdf_string function

 26 28  0  0  0  0  0  0  0  0999 V2000
   12.4616    8.6700   19.4180 N   0  0  0  0  0  0  0  0  0  0  0  0
   11.8329   10.8148   18.6769 N   0  0  0  0  0  0  0  0  0  0  0  0
    6.1021    2.5564   21.0678 C   0  0  0  0  0  0  0  0  0  0  0  0
   10.9097   11.8051   18.4804 C   0  0  0  0  0  0  0  0  0  0  0  0
   11.2280   12.9135   17.5669 C   0  0  0  0  0  0  0  0  0  0  0  0
   12.3782    5.4231   20.7777 C   0  0  0  0  0  0  0  0  0  0  0  0
    7.7365    4.6508   21.6987 C   0  0  0  0  0  0  0  0  0  0  0  0
   13.0186   11.0102   18.0020 C   0  0  0  0  0  0  0  0  0  0  0  0
    8.6628    5.7088   21.8871 N   0  0  0  0  0  0  0  0  0  0  0  0
    5.6516    3.5258   21.9140 C   0  0  0  0  0  0  0  0  0  0  0  0
   11.5863    9.6815   19.4539 C   0  0  0  0  0  0  0  0  0  0  0  0
   12.9648    4.1543   20.9205 C   0  0  0  0  0  0  0  0  0  0  0  0
    8.2089    3.6265   20.8929 C   0  0  0  0  0  0  0  0  0  0  0  0
    7.3827    2.5724   20.5432 C   0  0  0  0  0  0  0  0  0  0  0  0
   11.1529    7.2750   20.8025 C   0  0  0  0  0  0  0  0  0  0  0  0
   10.2573    8.3215   20.9827 C   0  0  0  0  0  0  0  0  0  0  0  0
   11.1606    5.9378   21.2366 N   0  0  0  0  0  0  0  0  0  0  0  0
    9.8932   11.6736   19.0677 O   0  0  0  0  0  0  0  0  0  0  0  0
    6.4470    4.5850   22.2321 C   0  0  0  0  0  0  0  0  0  0  0  0
    8.4619    6.9895   22.2968 C   0  0  0  0  0  0  0  0  0  0  0  0
   12.2747    7.5102   20.0420 C   0  0  0  0  0  0  0  0  0  0  0  0
   14.2544    6.2142   19.4191 C   0  0  0  0  0  0  0  0  0  0  0  0
   13.0695    6.3705   20.0375 N   0  0  0  0  0  0  0  0  0  0  0  0
    9.1913    8.0876   21.8361 N   0  0  0  0  0  0  0  0  0  0  0  0
   10.4739    9.4813   20.2889 C   0  0  0  0  0  0  0  0  0  0  0  0
    7.5551    7.1270   23.1200 O   0  0  0  0  0  0  0  0  0  0  0  0
  1 11  4  0
  1 21  4  0
  2  4  1  0
  2  8  1  0
  2 11  1  0
  3 10  4  0
  3 14  4  0
  4  5  1  0
  4 18  2  0
  6 12  1  0
  6 17  4  0
  6 23  4  0
  7  9  1  0
  7 13  4  0
  7 19  4  0
  9 20  1  0
 10 19  4  0
 11 25  4  0
 13 14  4  0
 15 16  4  0
 15 17  4  0
 15 21  4  0
 16 24  1  0
 16 25  4  0
 20 24  1  0
 20 26  2  0
 21 23  4  0
 22 23  1  0
M  END
$$$$

 Created by Python create_sdf_string function

 26 28  0  0  0  0  0  0  0  0999 V2000
   12.4616    8.6700   19.4180 N   0  0  0  0  0  0  0  0  0  0  0  0
   11.8329   10.8148   18.6769 N   0  0  0  0  0  0  0  0  0  0  0  0
    6.1021    2.5564   21.0678 C   0  0  0  0  0  0  0  0  0  0  0  0
   10.9097   11.8051   18.4804 C   0  0  0  0  0  0  0  0  0  0  0  0
   11.2280   12.9135   17.5669 C   0  0  0  0  0  0  0  0  0  0  0  0
   12.3782    5.4231   20.7777 C   0  0  0  0  0  0  0  0  0  0  0  0
    7.7365    4.6508   21.6987 C   0  0  0  0  0  0  0  0  0  0  0  0
   13.0186   11.0102   18.0020 C   0  0  0  0  0  0  0  0  0  0  0  0
    8.6628    5.7088   21.8871 N   0  0  0  0  0  0  0  0  0  0  0  0
    5.6516    3.5258   21.9140 C   0  0  0  0  0  0  0  0  0  0  0  0
   11.5863    9.6815   19.4539 C   0  0  0  0  0  0  0  0  0  0  0  0
   12.9648    4.1543   20.9205 C   0  0  0  0  0  0  0  0  0  0  0  0
    8.2089    3.6265   20.8929 C   0  0  0  0  0  0  0  0  0  0  0  0
    7.3827    2.5724   20.5432 C   0  0  0  0  0  0  0  0  0  0  0  0
   11.1529    7.2750   20.8025 C   0  0  0  0  0  0  0  0  0  0  0  0
   10.2573    8.3215   20.9827 C   0  0  0  0  0  0  0  0  0  0  0  0
   11.1606    5.9378   21.2366 N   0  0  0  0  0  0  0  0  0  0  0  0
    9.8932   11.6736   19.0677 O   0  0  0  0  0  0  0  0  0  0  0  0
    6.4470    4.5850   22.2321 C   0  0  0  0  0  0  0  0  0  0  0  0
    8.4619    6.9895   22.2968 C   0  0  0  0  0  0  0  0  0  0  0  0
   12.2747    7.5102   20.0420 C   0  0  0  0  0  0  0  0  0  0  0  0
   14.2544    6.2142   19.4191 C   0  0  0  0  0  0  0  0  0  0  0  0
   13.0695    6.3705   20.0375 N   0  0  0  0  0  0  0  0  0  0  0  0
    9.1913    8.0876   21.8361 N   0  0  0  0  0  0  0  0  0  0  0  0
   10.4739    9.4813   20.2889 C   0  0  0  0  0  0  0  0  0  0  0  0
    7.5551    7.1270   23.1200 O   0  0  0  0  0  0  0  0  0  0  0  0
  1 11  4  0
  1 21  4  0
  2  4  1  0
  2  8  1  0
  2 11  1  0
  3 10  4  0
  3 14  4  0
  4  5  1  0
  4 18  2  0
  6 12  1  0
  6 17  4  0
  6 23  4  0
  7  9  1  0
  7 13  4  0
  7 19  4  0
  9 20  1  0
 10 19  4  0
 11 25  4  0
 13 14  4  0
 15 16  4  0
 15 17  4  0
 15 21  4  0
 16 24  1  0
 16 25  4  0
 20 24  1  0
 20 26  2  0
 21 23  4  0
 22 23  1  0
M  END
$$$$

 Created by Python create_sdf_string function

 26 28  0  0  0  0  0  0  0  0999 V2000
   12.4616    8.6700   19.4180 N   0  0  0  0  0  0  0  0  0  0  0  0
   11.8329   10.8148   18.6769 N   0  0  0  0  0  0  0  0  0  0  0  0
    6.1021    2.5564   21.0678 C   0  0  0  0  0  0  0  0  0  0  0  0
   10.9097   11.8051   18.4804 C   0  0  0  0  0  0  0  0  0  0  0  0
   11.2280   12.9135   17.5669 C   0  0  0  0  0  0  0  0  0  0  0  0
   12.3782    5.4231   20.7777 C   0  0  0  0  0  0  0  0  0  0  0  0
    7.7365    4.6508   21.6987 C   0  0  0  0  0  0  0  0  0  0  0  0
   13.0186   11.0102   18.0020 C   0  0  0  0  0  0  0  0  0  0  0  0
    8.6628    5.7088   21.8871 N   0  0  0  0  0  0  0  0  0  0  0  0
    5.6516    3.5258   21.9140 C   0  0  0  0  0  0  0  0  0  0  0  0
   11.5863    9.6815   19.4539 C   0  0  0  0  0  0  0  0  0  0  0  0
   12.9648    4.1543   20.9205 C   0  0  0  0  0  0  0  0  0  0  0  0
    8.2089    3.6265   20.8929 C   0  0  0  0  0  0  0  0  0  0  0  0
    7.3827    2.5724   20.5432 C   0  0  0  0  0  0  0  0  0  0  0  0
   11.1529    7.2750   20.8025 C   0  0  0  0  0  0  0  0  0  0  0  0
   10.2573    8.3215   20.9827 C   0  0  0  0  0  0  0  0  0  0  0  0
   11.1606    5.9378   21.2366 N   0  0  0  0  0  0  0  0  0  0  0  0
    9.8932   11.6736   19.0677 O   0  0  0  0  0  0  0  0  0  0  0  0
    6.4470    4.5850   22.2321 C   0  0  0  0  0  0  0  0  0  0  0  0
    8.4619    6.9895   22.2968 C   0  0  0  0  0  0  0  0  0  0  0  0
   12.2747    7.5102   20.0420 C   0  0  0  0  0  0  0  0  0  0  0  0
   14.2544    6.2142   19.4191 C   0  0  0  0  0  0  0  0  0  0  0  0
   13.0695    6.3705   20.0375 N   0  0  0  0  0  0  0  0  0  0  0  0
    9.1913    8.0876   21.8361 N   0  0  0  0  0  0  0  0  0  0  0  0
   10.4739    9.4813   20.2889 C   0  0  0  0  0  0  0  0  0  0  0  0
    7.5551    7.1270   23.1200 O   0  0  0  0  0  0  0  0  0  0  0  0
  1 11  4  0
  1 21  4  0
  2  4  1  0
  2  8  1  0
  2 11  1  0
  3 10  4  0
  3 14  4  0
  4  5  1  0
  4 18  2  0
  6 12  1  0
  6 17  4  0
  6 23  4  0
  7  9  1  0
  7 13  4  0
  7 19  4  0
  9 20  1  0
 10 19  4  0
 11 25  4  0
 13 14  4  0
 15 16  4  0
 15 17  4  0
 15 21  4  0
 16 24  1  0
 16 25  4  0
 20 24  1  0
 20 26  2  0
 21 23  4  0
 22 23  1  0
M  END
$$$$

 Created by Python create_sdf_string function

 26 28  0  0  0  0  0  0  0  0999 V2000
   12.4616    8.6700   19.4180 N   0  0  0  0  0  0  0  0  0  0  0  0
   11.8329   10.8148   18.6769 N   0  0  0  0  0  0  0  0  0  0  0  0
    6.1021    2.5564   21.0678 C   0  0  0  0  0  0  0  0  0  0  0  0
   10.9097   11.8051   18.4804 C   0  0  0  0  0  0  0  0  0  0  0  0
   11.2280   12.9135   17.5669 C   0  0  0  0  0  0  0  0  0  0  0  0
   12.3782    5.4231   20.7777 C   0  0  0  0  0  0  0  0  0  0  0  0
    7.7365    4.6508   21.6987 C   0  0  0  0  0  0  0  0  0  0  0  0
   13.0186   11.0102   18.0020 C   0  0  0  0  0  0  0  0  0  0  0  0
    8.6628    5.7088   21.8871 N   0  0  0  0  0  0  0  0  0  0  0  0
    5.6516    3.5258   21.9140 C   0  0  0  0  0  0  0  0  0  0  0  0
   11.5863    9.6815   19.4539 C   0  0  0  0  0  0  0  0  0  0  0  0
   12.9648    4.1543   20.9205 C   0  0  0  0  0  0  0  0  0  0  0  0
    8.2089    3.6265   20.8929 C   0  0  0  0  0  0  0  0  0  0  0  0
    7.3827    2.5724   20.5432 C   0  0  0  0  0  0  0  0  0  0  0  0
   11.1529    7.2750   20.8025 C   0  0  0  0  0  0  0  0  0  0  0  0
   10.2573    8.3215   20.9827 C   0  0  0  0  0  0  0  0  0  0  0  0
   11.1606    5.9378   21.2366 N   0  0  0  0  0  0  0  0  0  0  0  0
    9.8932   11.6736   19.0677 O   0  0  0  0  0  0  0  0  0  0  0  0
    6.4470    4.5850   22.2321 C   0  0  0  0  0  0  0  0  0  0  0  0
    8.4619    6.9895   22.2968 C   0  0  0  0  0  0  0  0  0  0  0  0
   12.2747    7.5102   20.0420 C   0  0  0  0  0  0  0  0  0  0  0  0
   14.2544    6.2142   19.4191 C   0  0  0  0  0  0  0  0  0  0  0  0
   13.0695    6.3705   20.0375 N   0  0  0  0  0  0  0  0  0  0  0  0
    9.1913    8.0876   21.8361 N   0  0  0  0  0  0  0  0  0  0  0  0
   10.4739    9.4813   20.2889 C   0  0  0  0  0  0  0  0  0  0  0  0
    7.5551    7.1270   23.1200 O   0  0  0  0  0  0  0  0  0  0  0  0
  1 11  4  0
  1 21  4  0
  2  4  1  0
  2  8  1  0
  2 11  1  0
  3 10  4  0
  3 14  4  0
  4  5  1  0
  4 18  2  0
  6 12  1  0
  6 17  4  0
  6 23  4  0
  7  9  1  0
  7 13  4  0
  7 19  4  0
  9 20  1  0
 10 19  4  0
 11 25  4  0
 13 14  4  0
 15 16  4  0
 15 17  4  0
 15 21  4  0
 16 24  1  0
 16 25  4  0
 20 24  1  0
 20 26  2  0
 21 23  4  0
 22 23  1  0
M  END
$$$$

 Created by Python create_sdf_string function

 26 28  0  0  0  0  0  0  0  0999 V2000
   12.4616    8.6700   19.4180 N   0  0  0  0  0  0  0  0  0  0  0  0
   11.8329   10.8148   18.6769 N   0  0  0  0  0  0  0  0  0  0  0  0
    6.1021    2.5564   21.0678 C   0  0  0  0  0  0  0  0  0  0  0  0
   10.9097   11.8051   18.4804 C   0  0  0  0  0  0  0  0  0  0  0  0
   11.2280   12.9135   17.5669 C   0  0  0  0  0  0  0  0  0  0  0  0
   12.3782    5.4231   20.7777 C   0  0  0  0  0  0  0  0  0  0  0  0
    7.7365    4.6508   21.6987 C   0  0  0  0  0  0  0  0  0  0  0  0
   13.0186   11.0102   18.0020 C   0  0  0  0  0  0  0  0  0  0  0  0
    8.6628    5.7088   21.8871 N   0  0  0  0  0  0  0  0  0  0  0  0
    5.6516    3.5258   21.9140 C   0  0  0  0  0  0  0  0  0  0  0  0
   11.5863    9.6815   19.4539 C   0  0  0  0  0  0  0  0  0  0  0  0
   12.9648    4.1543   20.9205 C   0  0  0  0  0  0  0  0  0  0  0  0
    8.2089    3.6265   20.8929 C   0  0  0  0  0  0  0  0  0  0  0  0
    7.3827    2.5724   20.5432 C   0  0  0  0  0  0  0  0  0  0  0  0
   11.1529    7.2750   20.8025 C   0  0  0  0  0  0  0  0  0  0  0  0
   10.2573    8.3215   20.9827 C   0  0  0  0  0  0  0  0  0  0  0  0
   11.1606    5.9378   21.2366 N   0  0  0  0  0  0  0  0  0  0  0  0
    9.8932   11.6736   19.0677 O   0  0  0  0  0  0  0  0  0  0  0  0
    6.4470    4.5850   22.2321 C   0  0  0  0  0  0  0  0  0  0  0  0
    8.4619    6.9895   22.2968 C   0  0  0  0  0  0  0  0  0  0  0  0
   12.2747    7.5102   20.0420 C   0  0  0  0  0  0  0  0  0  0  0  0
   14.2544    6.2142   19.4191 C   0  0  0  0  0  0  0  0  0  0  0  0
   13.0695    6.3705   20.0375 N   0  0  0  0  0  0  0  0  0  0  0  0
    9.1913    8.0876   21.8361 N   0  0  0  0  0  0  0  0  0  0  0  0
   10.4739    9.4813   20.2889 C   0  0  0  0  0  0  0  0  0  0  0  0
    7.5551    7.1270   23.1200 O   0  0  0  0  0  0  0  0  0  0  0  0
  1 11  4  0
  1 21  4  0
  2  4  1  0
  2  8  1  0
  2 11  1  0
  3 10  4  0
  3 14  4  0
  4  5  1  0
  4 18  2  0
  6 12  1  0
  6 17  4  0
  6 23  4  0
  7  9  1  0
  7 13  4  0
  7 19  4  0
  9 20  1  0
 10 19  4  0
 11 25  4  0
 13 14  4  0
 15 16  4  0
 15 17  4  0
 15 21  4  0
 16 24  1  0
 16 25  4  0
 20 24  1  0
 20 26  2  0
 21 23  4  0
 22 23  1  0
M  END
$$$$

 Created by Python create_sdf_string function

 26 28  0  0  0  0  0  0  0  0999 V2000
   12.4616    8.6700   19.4180 N   0  0  0  0  0  0  0  0  0  0  0  0
   11.8329   10.8148   18.6769 N   0  0  0  0  0  0  0  0  0  0  0  0
    6.1021    2.5564   21.0678 C   0  0  0  0  0  0  0  0  0  0  0  0
   10.9097   11.8051   18.4804 C   0  0  0  0  0  0  0  0  0  0  0  0
   11.2280   12.9135   17.5669 C   0  0  0  0  0  0  0  0  0  0  0  0
   12.3782    5.4231   20.7777 C   0  0  0  0  0  0  0  0  0  0  0  0
    7.7365    4.6508   21.6987 C   0  0  0  0  0  0  0  0  0  0  0  0
   13.0186   11.0102   18.0020 C   0  0  0  0  0  0  0  0  0  0  0  0
    8.6628    5.7088   21.8871 N   0  0  0  0  0  0  0  0  0  0  0  0
    5.6516    3.5258   21.9140 C   0  0  0  0  0  0  0  0  0  0  0  0
   11.5863    9.6815   19.4539 C   0  0  0  0  0  0  0  0  0  0  0  0
   12.9648    4.1543   20.9205 C   0  0  0  0  0  0  0  0  0  0  0  0
    8.2089    3.6265   20.8929 C   0  0  0  0  0  0  0  0  0  0  0  0
    7.3827    2.5724   20.5432 C   0  0  0  0  0  0  0  0  0  0  0  0
   11.1529    7.2750   20.8025 C   0  0  0  0  0  0  0  0  0  0  0  0
   10.2573    8.3215   20.9827 C   0  0  0  0  0  0  0  0  0  0  0  0
   11.1606    5.9378   21.2366 N   0  0  0  0  0  0  0  0  0  0  0  0
    9.8932   11.6736   19.0677 O   0  0  0  0  0  0  0  0  0  0  0  0
    6.4470    4.5850   22.2321 C   0  0  0  0  0  0  0  0  0  0  0  0
    8.4619    6.9895   22.2968 C   0  0  0  0  0  0  0  0  0  0  0  0
   12.2747    7.5102   20.0420 C   0  0  0  0  0  0  0  0  0  0  0  0
   14.2544    6.2142   19.4191 C   0  0  0  0  0  0  0  0  0  0  0  0
   13.0695    6.3705   20.0375 N   0  0  0  0  0  0  0  0  0  0  0  0
    9.1913    8.0876   21.8361 N   0  0  0  0  0  0  0  0  0  0  0  0
   10.4739    9.4813   20.2889 C   0  0  0  0  0  0  0  0  0  0  0  0
    7.5551    7.1270   23.1200 O   0  0  0  0  0  0  0  0  0  0  0  0
  1 11  4  0
  1 21  4  0
  2  4  1  0
  2  8  1  0
  2 11  1  0
  3 10  4  0
  3 14  4  0
  4  5  1  0
  4 18  2  0
  6 12  1  0
  6 17  4  0
  6 23  4  0
  7  9  1  0
  7 13  4  0
  7 19  4  0
  9 20  1  0
 10 19  4  0
 11 25  4  0
 13 14  4  0
 15 16  4  0
 15 17  4  0
 15 21  4  0
 16 24  1  0
 16 25  4  0
 20 24  1  0
 20 26  2  0
 21 23  4  0
 22 23  1  0
M  END
$$$$

 Created by Python create_sdf_string function

 26 28  0  0  0  0  0  0  0  0999 V2000
   12.4616    8.6700   19.4180 N   0  0  0  0  0  0  0  0  0  0  0  0
   11.8329   10.8148   18.6769 N   0  0  0  0  0  0  0  0  0  0  0  0
    6.1021    2.5564   21.0678 C   0  0  0  0  0  0  0  0  0  0  0  0
   10.9097   11.8051   18.4804 C   0  0  0  0  0  0  0  0  0  0  0  0
   11.2280   12.9135   17.5669 C   0  0  0  0  0  0  0  0  0  0  0  0
   12.3782    5.4231   20.7777 C   0  0  0  0  0  0  0  0  0  0  0  0
    7.7365    4.6508   21.6987 C   0  0  0  0  0  0  0  0  0  0  0  0
   13.0186   11.0102   18.0020 C   0  0  0  0  0  0  0  0  0  0  0  0
    8.6628    5.7088   21.8871 N   0  0  0  0  0  0  0  0  0  0  0  0
    5.6516    3.5258   21.9140 C   0  0  0  0  0  0  0  0  0  0  0  0
   11.5863    9.6815   19.4539 C   0  0  0  0  0  0  0  0  0  0  0  0
   12.9648    4.1543   20.9205 C   0  0  0  0  0  0  0  0  0  0  0  0
    8.2089    3.6265   20.8929 C   0  0  0  0  0  0  0  0  0  0  0  0
    7.3827    2.5724   20.5432 C   0  0  0  0  0  0  0  0  0  0  0  0
   11.1529    7.2750   20.8025 C   0  0  0  0  0  0  0  0  0  0  0  0
   10.2573    8.3215   20.9827 C   0  0  0  0  0  0  0  0  0  0  0  0
   11.1606    5.9378   21.2366 N   0  0  0  0  0  0  0  0  0  0  0  0
    9.8932   11.6736   19.0677 O   0  0  0  0  0  0  0  0  0  0  0  0
    6.4470    4.5850   22.2321 C   0  0  0  0  0  0  0  0  0  0  0  0
    8.4619    6.9895   22.2968 C   0  0  0  0  0  0  0  0  0  0  0  0
   12.2747    7.5102   20.0420 C   0  0  0  0  0  0  0  0  0  0  0  0
   14.2544    6.2142   19.4191 C   0  0  0  0  0  0  0  0  0  0  0  0
   13.0695    6.3705   20.0375 N   0  0  0  0  0  0  0  0  0  0  0  0
    9.1913    8.0876   21.8361 N   0  0  0  0  0  0  0  0  0  0  0  0
   10.4739    9.4813   20.2889 C   0  0  0  0  0  0  0  0  0  0  0  0
    7.5551    7.1270   23.1200 O   0  0  0  0  0  0  0  0  0  0  0  0
  1 11  4  0
  1 21  4  0
  2  4  1  0
  2  8  1  0
  2 11  1  0
  3 10  4  0
  3 14  4  0
  4  5  1  0
  4 18  2  0
  6 12  1  0
  6 17  4  0
  6 23  4  0
  7  9  1  0
  7 13  4  0
  7 19  4  0
  9 20  1  0
 10 19  4  0
 11 25  4  0
 13 14  4  0
 15 16  4  0
 15 17  4  0
 15 21  4  0
 16 24  1  0
 16 25  4  0
 20 24  1  0
 20 26  2  0
 21 23  4  0
 22 23  1  0
M  END
$$$$

 Created by Python create_sdf_string function

 26 28  0  0  0  0  0  0  0  0999 V2000
   12.4616    8.6700   19.4180 N   0  0  0  0  0  0  0  0  0  0  0  0
   11.8329   10.8148   18.6769 N   0  0  0  0  0  0  0  0  0  0  0  0
    6.1021    2.5564   21.0678 C   0  0  0  0  0  0  0  0  0  0  0  0
   10.9097   11.8051   18.4804 C   0  0  0  0  0  0  0  0  0  0  0  0
   11.2280   12.9135   17.5669 C   0  0  0  0  0  0  0  0  0  0  0  0
   12.3782    5.4231   20.7777 C   0  0  0  0  0  0  0  0  0  0  0  0
    7.7365    4.6508   21.6987 C   0  0  0  0  0  0  0  0  0  0  0  0
   13.0186   11.0102   18.0020 C   0  0  0  0  0  0  0  0  0  0  0  0
    8.6628    5.7088   21.8871 N   0  0  0  0  0  0  0  0  0  0  0  0
    5.6516    3.5258   21.9140 C   0  0  0  0  0  0  0  0  0  0  0  0
   11.5863    9.6815   19.4539 C   0  0  0  0  0  0  0  0  0  0  0  0
   12.9648    4.1543   20.9205 C   0  0  0  0  0  0  0  0  0  0  0  0
    8.2089    3.6265   20.8929 C   0  0  0  0  0  0  0  0  0  0  0  0
    7.3827    2.5724   20.5432 C   0  0  0  0  0  0  0  0  0  0  0  0
   11.1529    7.2750   20.8025 C   0  0  0  0  0  0  0  0  0  0  0  0
   10.2573    8.3215   20.9827 C   0  0  0  0  0  0  0  0  0  0  0  0
   11.1606    5.9378   21.2366 N   0  0  0  0  0  0  0  0  0  0  0  0
    9.8932   11.6736   19.0677 O   0  0  0  0  0  0  0  0  0  0  0  0
    6.4470    4.5850   22.2321 C   0  0  0  0  0  0  0  0  0  0  0  0
    8.4619    6.9895   22.2968 C   0  0  0  0  0  0  0  0  0  0  0  0
   12.2747    7.5102   20.0420 C   0  0  0  0  0  0  0  0  0  0  0  0
   14.2544    6.2142   19.4191 C   0  0  0  0  0  0  0  0  0  0  0  0
   13.0695    6.3705   20.0375 N   0  0  0  0  0  0  0  0  0  0  0  0
    9.1913    8.0876   21.8361 N   0  0  0  0  0  0  0  0  0  0  0  0
   10.4739    9.4813   20.2889 C   0  0  0  0  0  0  0  0  0  0  0  0
    7.5551    7.1270   23.1200 O   0  0  0  0  0  0  0  0  0  0  0  0
  1 11  4  0
  1 21  4  0
  2  4  1  0
  2  8  1  0
  2 11  1  0
  3 10  4  0
  3 14  4  0
  4  5  1  0
  4 18  2  0
  6 12  1  0
  6 17  4  0
  6 23  4  0
  7  9  1  0
  7 13  4  0
  7 19  4  0
  9 20  1  0
 10 19  4  0
 11 25  4  0
 13 14  4  0
 15 16  4  0
 15 17  4  0
 15 21  4  0
 16 24  1  0
 16 25  4  0
 20 24  1  0
 20 26  2  0
 21 23  4  0
 22 23  1  0
M  END
$$$$

 Created by Python create_sdf_string function

 26 28  0  0  0  0  0  0  0  0999 V2000
   12.4616    8.6700   19.4180 N   0  0  0  0  0  0  0  0  0  0  0  0
   11.8329   10.8148   18.6769 N   0  0  0  0  0  0  0  0  0  0  0  0
    6.1021    2.5564   21.0678 C   0  0  0  0  0  0  0  0  0  0  0  0
   10.9097   11.8051   18.4804 C   0  0  0  0  0  0  0  0  0  0  0  0
   11.2280   12.9135   17.5669 C   0  0  0  0  0  0  0  0  0  0  0  0
   12.3782    5.4231   20.7777 C   0  0  0  0  0  0  0  0  0  0  0  0
    7.7365    4.6508   21.6987 C   0  0  0  0  0  0  0  0  0  0  0  0
   13.0186   11.0102   18.0020 C   0  0  0  0  0  0  0  0  0  0  0  0
    8.6628    5.7088   21.8871 N   0  0  0  0  0  0  0  0  0  0  0  0
    5.6516    3.5258   21.9140 C   0  0  0  0  0  0  0  0  0  0  0  0
   11.5863    9.6815   19.4539 C   0  0  0  0  0  0  0  0  0  0  0  0
   12.9648    4.1543   20.9205 C   0  0  0  0  0  0  0  0  0  0  0  0
    8.2089    3.6265   20.8929 C   0  0  0  0  0  0  0  0  0  0  0  0
    7.3827    2.5724   20.5432 C   0  0  0  0  0  0  0  0  0  0  0  0
   11.1529    7.2750   20.8025 C   0  0  0  0  0  0  0  0  0  0  0  0
   10.2573    8.3215   20.9827 C   0  0  0  0  0  0  0  0  0  0  0  0
   11.1606    5.9378   21.2366 N   0  0  0  0  0  0  0  0  0  0  0  0
    9.8932   11.6736   19.0677 O   0  0  0  0  0  0  0  0  0  0  0  0
    6.4470    4.5850   22.2321 C   0  0  0  0  0  0  0  0  0  0  0  0
    8.4619    6.9895   22.2968 C   0  0  0  0  0  0  0  0  0  0  0  0
   12.2747    7.5102   20.0420 C   0  0  0  0  0  0  0  0  0  0  0  0
   14.2544    6.2142   19.4191 C   0  0  0  0  0  0  0  0  0  0  0  0
   13.0695    6.3705   20.0375 N   0  0  0  0  0  0  0  0  0  0  0  0
    9.1913    8.0876   21.8361 N   0  0  0  0  0  0  0  0  0  0  0  0
   10.4739    9.4813   20.2889 C   0  0  0  0  0  0  0  0  0  0  0  0
    7.5551    7.1270   23.1200 O   0  0  0  0  0  0  0  0  0  0  0  0
  1 11  4  0
  1 21  4  0
  2  4  1  0
  2  8  1  0
  2 11  1  0
  3 10  4  0
  3 14  4  0
  4  5  1  0
  4 18  2  0
  6 12  1  0
  6 17  4  0
  6 23  4  0
  7  9  1  0
  7 13  4  0
  7 19  4  0
  9 20  1  0
 10 19  4  0
 11 25  4  0
 13 14  4  0
 15 16  4  0
 15 17  4  0
 15 21  4  0
 16 24  1  0
 16 25  4  0
 20 24  1  0
 20 26  2  0
 21 23  4  0
 22 23  1  0
M  END
$$$$

 Created by Python create_sdf_string function

 26 28  0  0  0  0  0  0  0  0999 V2000
   12.4616    8.6700   19.4180 N   0  0  0  0  0  0  0  0  0  0  0  0
   11.8329   10.8148   18.6769 N   0  0  0  0  0  0  0  0  0  0  0  0
    6.1021    2.5564   21.0678 C   0  0  0  0  0  0  0  0  0  0  0  0
   10.9097   11.8051   18.4804 C   0  0  0  0  0  0  0  0  0  0  0  0
   11.2280   12.9135   17.5669 C   0  0  0  0  0  0  0  0  0  0  0  0
   12.3782    5.4231   20.7777 C   0  0  0  0  0  0  0  0  0  0  0  0
    7.7365    4.6508   21.6987 C   0  0  0  0  0  0  0  0  0  0  0  0
   13.0186   11.0102   18.0020 C   0  0  0  0  0  0  0  0  0  0  0  0
    8.6628    5.7088   21.8871 N   0  0  0  0  0  0  0  0  0  0  0  0
    5.6516    3.5258   21.9140 C   0  0  0  0  0  0  0  0  0  0  0  0
   11.5863    9.6815   19.4539 C   0  0  0  0  0  0  0  0  0  0  0  0
   12.9648    4.1543   20.9205 C   0  0  0  0  0  0  0  0  0  0  0  0
    8.2089    3.6265   20.8929 C   0  0  0  0  0  0  0  0  0  0  0  0
    7.3827    2.5724   20.5432 C   0  0  0  0  0  0  0  0  0  0  0  0
   11.1529    7.2750   20.8025 C   0  0  0  0  0  0  0  0  0  0  0  0
   10.2573    8.3215   20.9827 C   0  0  0  0  0  0  0  0  0  0  0  0
   11.1606    5.9378   21.2366 N   0  0  0  0  0  0  0  0  0  0  0  0
    9.8932   11.6736   19.0677 O   0  0  0  0  0  0  0  0  0  0  0  0
    6.4470    4.5850   22.2321 C   0  0  0  0  0  0  0  0  0  0  0  0
    8.4619    6.9895   22.2968 C   0  0  0  0  0  0  0  0  0  0  0  0
   12.2747    7.5102   20.0420 C   0  0  0  0  0  0  0  0  0  0  0  0
   14.2544    6.2142   19.4191 C   0  0  0  0  0  0  0  0  0  0  0  0
   13.0695    6.3705   20.0375 N   0  0  0  0  0  0  0  0  0  0  0  0
    9.1913    8.0876   21.8361 N   0  0  0  0  0  0  0  0  0  0  0  0
   10.4739    9.4813   20.2889 C   0  0  0  0  0  0  0  0  0  0  0  0
    7.5551    7.1270   23.1200 O   0  0  0  0  0  0  0  0  0  0  0  0
  1 11  4  0
  1 21  4  0
  2  4  1  0
  2  8  1  0
  2 11  1  0
  3 10  4  0
  3 14  4  0
  4  5  1  0
  4 18  2  0
  6 12  1  0
  6 17  4  0
  6 23  4  0
  7  9  1  0
  7 13  4  0
  7 19  4  0
  9 20  1  0
 10 19  4  0
 11 25  4  0
 13 14  4  0
 15 16  4  0
 15 17  4  0
 15 21  4  0
 16 24  1  0
 16 25  4  0
 20 24  1  0
 20 26  2  0
 21 23  4  0
 22 23  1  0
M  END
$$$$

 Created by Python create_sdf_string function

 26 28  0  0  0  0  0  0  0  0999 V2000
   12.4616    8.6700   19.4180 N   0  0  0  0  0  0  0  0  0  0  0  0
   11.8329   10.8148   18.6769 N   0  0  0  0  0  0  0  0  0  0  0  0
    6.1021    2.5564   21.0678 C   0  0  0  0  0  0  0  0  0  0  0  0
   10.9097   11.8051   18.4804 C   0  0  0  0  0  0  0  0  0  0  0  0
   11.2280   12.9135   17.5669 C   0  0  0  0  0  0  0  0  0  0  0  0
   12.3782    5.4231   20.7777 C   0  0  0  0  0  0  0  0  0  0  0  0
    7.7365    4.6508   21.6987 C   0  0  0  0  0  0  0  0  0  0  0  0
   13.0186   11.0102   18.0020 C   0  0  0  0  0  0  0  0  0  0  0  0
    8.6628    5.7088   21.8871 N   0  0  0  0  0  0  0  0  0  0  0  0
    5.6516    3.5258   21.9140 C   0  0  0  0  0  0  0  0  0  0  0  0
   11.5863    9.6815   19.4539 C   0  0  0  0  0  0  0  0  0  0  0  0
   12.9648    4.1543   20.9205 C   0  0  0  0  0  0  0  0  0  0  0  0
    8.2089    3.6265   20.8929 C   0  0  0  0  0  0  0  0  0  0  0  0
    7.3827    2.5724   20.5432 C   0  0  0  0  0  0  0  0  0  0  0  0
   11.1529    7.2750   20.8025 C   0  0  0  0  0  0  0  0  0  0  0  0
   10.2573    8.3215   20.9827 C   0  0  0  0  0  0  0  0  0  0  0  0
   11.1606    5.9378   21.2366 N   0  0  0  0  0  0  0  0  0  0  0  0
    9.8932   11.6736   19.0677 O   0  0  0  0  0  0  0  0  0  0  0  0
    6.4470    4.5850   22.2321 C   0  0  0  0  0  0  0  0  0  0  0  0
    8.4619    6.9895   22.2968 C   0  0  0  0  0  0  0  0  0  0  0  0
   12.2747    7.5102   20.0420 C   0  0  0  0  0  0  0  0  0  0  0  0
   14.2544    6.2142   19.4191 C   0  0  0  0  0  0  0  0  0  0  0  0
   13.0695    6.3705   20.0375 N   0  0  0  0  0  0  0  0  0  0  0  0
    9.1913    8.0876   21.8361 N   0  0  0  0  0  0  0  0  0  0  0  0
   10.4739    9.4813   20.2889 C   0  0  0  0  0  0  0  0  0  0  0  0
    7.5551    7.1270   23.1200 O   0  0  0  0  0  0  0  0  0  0  0  0
  1 11  4  0
  1 21  4  0
  2  4  1  0
  2  8  1  0
  2 11  1  0
  3 10  4  0
  3 14  4  0
  4  5  1  0
  4 18  2  0
  6 12  1  0
  6 17  4  0
  6 23  4  0
  7  9  1  0
  7 13  4  0
  7 19  4  0
  9 20  1  0
 10 19  4  0
 11 25  4  0
 13 14  4  0
 15 16  4  0
 15 17  4  0
 15 21  4  0
 16 24  1  0
 16 25  4  0
 20 24  1  0
 20 26  2  0
 21 23  4  0
 22 23  1  0
M  END
$$$$

 Created by Python create_sdf_string function

 26 28  0  0  0  0  0  0  0  0999 V2000
   12.4616    8.6700   19.4180 N   0  0  0  0  0  0  0  0  0  0  0  0
   11.8329   10.8148   18.6769 N   0  0  0  0  0  0  0  0  0  0  0  0
    6.1021    2.5564   21.0678 C   0  0  0  0  0  0  0  0  0  0  0  0
   10.9097   11.8051   18.4804 C   0  0  0  0  0  0  0  0  0  0  0  0
   11.2280   12.9135   17.5669 C   0  0  0  0  0  0  0  0  0  0  0  0
   12.3782    5.4231   20.7777 C   0  0  0  0  0  0  0  0  0  0  0  0
    7.7365    4.6508   21.6987 C   0  0  0  0  0  0  0  0  0  0  0  0
   13.0186   11.0102   18.0020 C   0  0  0  0  0  0  0  0  0  0  0  0
    8.6628    5.7088   21.8871 N   0  0  0  0  0  0  0  0  0  0  0  0
    5.6516    3.5258   21.9140 C   0  0  0  0  0  0  0  0  0  0  0  0
   11.5863    9.6815   19.4539 C   0  0  0  0  0  0  0  0  0  0  0  0
   12.9648    4.1543   20.9205 C   0  0  0  0  0  0  0  0  0  0  0  0
    8.2089    3.6265   20.8929 C   0  0  0  0  0  0  0  0  0  0  0  0
    7.3827    2.5724   20.5432 C   0  0  0  0  0  0  0  0  0  0  0  0
   11.1529    7.2750   20.8025 C   0  0  0  0  0  0  0  0  0  0  0  0
   10.2573    8.3215   20.9827 C   0  0  0  0  0  0  0  0  0  0  0  0
   11.1606    5.9378   21.2366 N   0  0  0  0  0  0  0  0  0  0  0  0
    9.8932   11.6736   19.0677 O   0  0  0  0  0  0  0  0  0  0  0  0
    6.4470    4.5850   22.2321 C   0  0  0  0  0  0  0  0  0  0  0  0
    8.4619    6.9895   22.2968 C   0  0  0  0  0  0  0  0  0  0  0  0
   12.2747    7.5102   20.0420 C   0  0  0  0  0  0  0  0  0  0  0  0
   14.2544    6.2142   19.4191 C   0  0  0  0  0  0  0  0  0  0  0  0
   13.0695    6.3705   20.0375 N   0  0  0  0  0  0  0  0  0  0  0  0
    9.1913    8.0876   21.8361 N   0  0  0  0  0  0  0  0  0  0  0  0
   10.4739    9.4813   20.2889 C   0  0  0  0  0  0  0  0  0  0  0  0
    7.5551    7.1270   23.1200 O   0  0  0  0  0  0  0  0  0  0  0  0
  1 11  4  0
  1 21  4  0
  2  4  1  0
  2  8  1  0
  2 11  1  0
  3 10  4  0
  3 14  4  0
  4  5  1  0
  4 18  2  0
  6 12  1  0
  6 17  4  0
  6 23  4  0
  7  9  1  0
  7 13  4  0
  7 19  4  0
  9 20  1  0
 10 19  4  0
 11 25  4  0
 13 14  4  0
 15 16  4  0
 15 17  4  0
 15 21  4  0
 16 24  1  0
 16 25  4  0
 20 24  1  0
 20 26  2  0
 21 23  4  0
 22 23  1  0
M  END
$$$$

 Created by Python create_sdf_string function

 26 28  0  0  0  0  0  0  0  0999 V2000
   12.4616    8.6700   19.4180 N   0  0  0  0  0  0  0  0  0  0  0  0
   11.8329   10.8148   18.6769 N   0  0  0  0  0  0  0  0  0  0  0  0
    6.1021    2.5564   21.0678 C   0  0  0  0  0  0  0  0  0  0  0  0
   10.9097   11.8051   18.4804 C   0  0  0  0  0  0  0  0  0  0  0  0
   11.2280   12.9135   17.5669 C   0  0  0  0  0  0  0  0  0  0  0  0
   12.3782    5.4231   20.7777 C   0  0  0  0  0  0  0  0  0  0  0  0
    7.7365    4.6508   21.6987 C   0  0  0  0  0  0  0  0  0  0  0  0
   13.0186   11.0102   18.0020 C   0  0  0  0  0  0  0  0  0  0  0  0
    8.6628    5.7088   21.8871 N   0  0  0  0  0  0  0  0  0  0  0  0
    5.6516    3.5258   21.9140 C   0  0  0  0  0  0  0  0  0  0  0  0
   11.5863    9.6815   19.4539 C   0  0  0  0  0  0  0  0  0  0  0  0
   12.9648    4.1543   20.9205 C   0  0  0  0  0  0  0  0  0  0  0  0
    8.2089    3.6265   20.8929 C   0  0  0  0  0  0  0  0  0  0  0  0
    7.3827    2.5724   20.5432 C   0  0  0  0  0  0  0  0  0  0  0  0
   11.1529    7.2750   20.8025 C   0  0  0  0  0  0  0  0  0  0  0  0
   10.2573    8.3215   20.9827 C   0  0  0  0  0  0  0  0  0  0  0  0
   11.1606    5.9378   21.2366 N   0  0  0  0  0  0  0  0  0  0  0  0
    9.8932   11.6736   19.0677 O   0  0  0  0  0  0  0  0  0  0  0  0
    6.4470    4.5850   22.2321 C   0  0  0  0  0  0  0  0  0  0  0  0
    8.4619    6.9895   22.2968 C   0  0  0  0  0  0  0  0  0  0  0  0
   12.2747    7.5102   20.0420 C   0  0  0  0  0  0  0  0  0  0  0  0
   14.2544    6.2142   19.4191 C   0  0  0  0  0  0  0  0  0  0  0  0
   13.0695    6.3705   20.0375 N   0  0  0  0  0  0  0  0  0  0  0  0
    9.1913    8.0876   21.8361 N   0  0  0  0  0  0  0  0  0  0  0  0
   10.4739    9.4813   20.2889 C   0  0  0  0  0  0  0  0  0  0  0  0
    7.5551    7.1270   23.1200 O   0  0  0  0  0  0  0  0  0  0  0  0
  1 11  4  0
  1 21  4  0
  2  4  1  0
  2  8  1  0
  2 11  1  0
  3 10  4  0
  3 14  4  0
  4  5  1  0
  4 18  2  0
  6 12  1  0
  6 17  4  0
  6 23  4  0
  7  9  1  0
  7 13  4  0
  7 19  4  0
  9 20  1  0
 10 19  4  0
 11 25  4  0
 13 14  4  0
 15 16  4  0
 15 17  4  0
 15 21  4  0
 16 24  1  0
 16 25  4  0
 20 24  1  0
 20 26  2  0
 21 23  4  0
 22 23  1  0
M  END
$$$$

 Created by Python create_sdf_string function

 26 28  0  0  0  0  0  0  0  0999 V2000
   12.4616    8.6700   19.4180 N   0  0  0  0  0  0  0  0  0  0  0  0
   11.8329   10.8148   18.6769 N   0  0  0  0  0  0  0  0  0  0  0  0
    6.1021    2.5564   21.0678 C   0  0  0  0  0  0  0  0  0  0  0  0
   10.9097   11.8051   18.4804 C   0  0  0  0  0  0  0  0  0  0  0  0
   11.2280   12.9135   17.5669 C   0  0  0  0  0  0  0  0  0  0  0  0
   12.3782    5.4231   20.7777 C   0  0  0  0  0  0  0  0  0  0  0  0
    7.7365    4.6508   21.6987 C   0  0  0  0  0  0  0  0  0  0  0  0
   13.0186   11.0102   18.0020 C   0  0  0  0  0  0  0  0  0  0  0  0
    8.6628    5.7088   21.8871 N   0  0  0  0  0  0  0  0  0  0  0  0
    5.6516    3.5258   21.9140 C   0  0  0  0  0  0  0  0  0  0  0  0
   11.5863    9.6815   19.4539 C   0  0  0  0  0  0  0  0  0  0  0  0
   12.9648    4.1543   20.9205 C   0  0  0  0  0  0  0  0  0  0  0  0
    8.2089    3.6265   20.8929 C   0  0  0  0  0  0  0  0  0  0  0  0
    7.3827    2.5724   20.5432 C   0  0  0  0  0  0  0  0  0  0  0  0
   11.1529    7.2750   20.8025 C   0  0  0  0  0  0  0  0  0  0  0  0
   10.2573    8.3215   20.9827 C   0  0  0  0  0  0  0  0  0  0  0  0
   11.1606    5.9378   21.2366 N   0  0  0  0  0  0  0  0  0  0  0  0
    9.8932   11.6736   19.0677 O   0  0  0  0  0  0  0  0  0  0  0  0
    6.4470    4.5850   22.2321 C   0  0  0  0  0  0  0  0  0  0  0  0
    8.4619    6.9895   22.2968 C   0  0  0  0  0  0  0  0  0  0  0  0
   12.2747    7.5102   20.0420 C   0  0  0  0  0  0  0  0  0  0  0  0
   14.2544    6.2142   19.4191 C   0  0  0  0  0  0  0  0  0  0  0  0
   13.0695    6.3705   20.0375 N   0  0  0  0  0  0  0  0  0  0  0  0
    9.1913    8.0876   21.8361 N   0  0  0  0  0  0  0  0  0  0  0  0
   10.4739    9.4813   20.2889 C   0  0  0  0  0  0  0  0  0  0  0  0
    7.5551    7.1270   23.1200 O   0  0  0  0  0  0  0  0  0  0  0  0
  1 11  4  0
  1 21  4  0
  2  4  1  0
  2  8  1  0
  2 11  1  0
  3 10  4  0
  3 14  4  0
  4  5  1  0
  4 18  2  0
  6 12  1  0
  6 17  4  0
  6 23  4  0
  7  9  1  0
  7 13  4  0
  7 19  4  0
  9 20  1  0
 10 19  4  0
 11 25  4  0
 13 14  4  0
 15 16  4  0
 15 17  4  0
 15 21  4  0
 16 24  1  0
 16 25  4  0
 20 24  1  0
 20 26  2  0
 21 23  4  0
 22 23  1  0
M  END
$$$$

 Created by Python create_sdf_string function

 26 28  0  0  0  0  0  0  0  0999 V2000
   12.4616    8.6700   19.4180 N   0  0  0  0  0  0  0  0  0  0  0  0
   11.8329   10.8148   18.6769 N   0  0  0  0  0  0  0  0  0  0  0  0
    6.1021    2.5564   21.0678 C   0  0  0  0  0  0  0  0  0  0  0  0
   10.9097   11.8051   18.4804 C   0  0  0  0  0  0  0  0  0  0  0  0
   11.2280   12.9135   17.5669 C   0  0  0  0  0  0  0  0  0  0  0  0
   12.3782    5.4231   20.7777 C   0  0  0  0  0  0  0  0  0  0  0  0
    7.7365    4.6508   21.6987 C   0  0  0  0  0  0  0  0  0  0  0  0
   13.0186   11.0102   18.0020 C   0  0  0  0  0  0  0  0  0  0  0  0
    8.6628    5.7088   21.8871 N   0  0  0  0  0  0  0  0  0  0  0  0
    5.6516    3.5258   21.9140 C   0  0  0  0  0  0  0  0  0  0  0  0
   11.5863    9.6815   19.4539 C   0  0  0  0  0  0  0  0  0  0  0  0
   12.9648    4.1543   20.9205 C   0  0  0  0  0  0  0  0  0  0  0  0
    8.2089    3.6265   20.8929 C   0  0  0  0  0  0  0  0  0  0  0  0
    7.3827    2.5724   20.5432 C   0  0  0  0  0  0  0  0  0  0  0  0
   11.1529    7.2750   20.8025 C   0  0  0  0  0  0  0  0  0  0  0  0
   10.2573    8.3215   20.9827 C   0  0  0  0  0  0  0  0  0  0  0  0
   11.1606    5.9378   21.2366 N   0  0  0  0  0  0  0  0  0  0  0  0
    9.8932   11.6736   19.0677 O   0  0  0  0  0  0  0  0  0  0  0  0
    6.4470    4.5850   22.2321 C   0  0  0  0  0  0  0  0  0  0  0  0
    8.4619    6.9895   22.2968 C   0  0  0  0  0  0  0  0  0  0  0  0
   12.2747    7.5102   20.0420 C   0  0  0  0  0  0  0  0  0  0  0  0
   14.2544    6.2142   19.4191 C   0  0  0  0  0  0  0  0  0  0  0  0
   13.0695    6.3705   20.0375 N   0  0  0  0  0  0  0  0  0  0  0  0
    9.1913    8.0876   21.8361 N   0  0  0  0  0  0  0  0  0  0  0  0
   10.4739    9.4813   20.2889 C   0  0  0  0  0  0  0  0  0  0  0  0
    7.5551    7.1270   23.1200 O   0  0  0  0  0  0  0  0  0  0  0  0
  1 11  4  0
  1 21  4  0
  2  4  1  0
  2  8  1  0
  2 11  1  0
  3 10  4  0
  3 14  4  0
  4  5  1  0
  4 18  2  0
  6 12  1  0
  6 17  4  0
  6 23  4  0
  7  9  1  0
  7 13  4  0
  7 19  4  0
  9 20  1  0
 10 19  4  0
 11 25  4  0
 13 14  4  0
 15 16  4  0
 15 17  4  0
 15 21  4  0
 16 24  1  0
 16 25  4  0
 20 24  1  0
 20 26  2  0
 21 23  4  0
 22 23  1  0
M  END
$$$$

 Created by Python create_sdf_string function

 26 28  0  0  0  0  0  0  0  0999 V2000
   12.4616    8.6700   19.4180 N   0  0  0  0  0  0  0  0  0  0  0  0
   11.8329   10.8148   18.6769 N   0  0  0  0  0  0  0  0  0  0  0  0
    6.1021    2.5564   21.0678 C   0  0  0  0  0  0  0  0  0  0  0  0
   10.9097   11.8051   18.4804 C   0  0  0  0  0  0  0  0  0  0  0  0
   11.2280   12.9135   17.5669 C   0  0  0  0  0  0  0  0  0  0  0  0
   12.3782    5.4231   20.7777 C   0  0  0  0  0  0  0  0  0  0  0  0
    7.7365    4.6508   21.6987 C   0  0  0  0  0  0  0  0  0  0  0  0
   13.0186   11.0102   18.0020 C   0  0  0  0  0  0  0  0  0  0  0  0
    8.6628    5.7088   21.8871 N   0  0  0  0  0  0  0  0  0  0  0  0
    5.6516    3.5258   21.9140 C   0  0  0  0  0  0  0  0  0  0  0  0
   11.5863    9.6815   19.4539 C   0  0  0  0  0  0  0  0  0  0  0  0
   12.9648    4.1543   20.9205 C   0  0  0  0  0  0  0  0  0  0  0  0
    8.2089    3.6265   20.8929 C   0  0  0  0  0  0  0  0  0  0  0  0
    7.3827    2.5724   20.5432 C   0  0  0  0  0  0  0  0  0  0  0  0
   11.1529    7.2750   20.8025 C   0  0  0  0  0  0  0  0  0  0  0  0
   10.2573    8.3215   20.9827 C   0  0  0  0  0  0  0  0  0  0  0  0
   11.1606    5.9378   21.2366 N   0  0  0  0  0  0  0  0  0  0  0  0
    9.8932   11.6736   19.0677 O   0  0  0  0  0  0  0  0  0  0  0  0
    6.4470    4.5850   22.2321 C   0  0  0  0  0  0  0  0  0  0  0  0
    8.4619    6.9895   22.2968 C   0  0  0  0  0  0  0  0  0  0  0  0
   12.2747    7.5102   20.0420 C   0  0  0  0  0  0  0  0  0  0  0  0
   14.2544    6.2142   19.4191 C   0  0  0  0  0  0  0  0  0  0  0  0
   13.0695    6.3705   20.0375 N   0  0  0  0  0  0  0  0  0  0  0  0
    9.1913    8.0876   21.8361 N   0  0  0  0  0  0  0  0  0  0  0  0
   10.4739    9.4813   20.2889 C   0  0  0  0  0  0  0  0  0  0  0  0
    7.5551    7.1270   23.1200 O   0  0  0  0  0  0  0  0  0  0  0  0
  1 11  4  0
  1 21  4  0
  2  4  1  0
  2  8  1  0
  2 11  1  0
  3 10  4  0
  3 14  4  0
  4  5  1  0
  4 18  2  0
  6 12  1  0
  6 17  4  0
  6 23  4  0
  7  9  1  0
  7 13  4  0
  7 19  4  0
  9 20  1  0
 10 19  4  0
 11 25  4  0
 13 14  4  0
 15 16  4  0
 15 17  4  0
 15 21  4  0
 16 24  1  0
 16 25  4  0
 20 24  1  0
 20 26  2  0
 21 23  4  0
 22 23  1  0
M  END
$$$$

 Created by Python create_sdf_string function

 26 28  0  0  0  0  0  0  0  0999 V2000
   12.4616    8.6700   19.4180 N   0  0  0  0  0  0  0  0  0  0  0  0
   11.8329   10.8148   18.6769 N   0  0  0  0  0  0  0  0  0  0  0  0
    6.1021    2.5564   21.0678 C   0  0  0  0  0  0  0  0  0  0  0  0
   10.9097   11.8051   18.4804 C   0  0  0  0  0  0  0  0  0  0  0  0
   11.2280   12.9135   17.5669 C   0  0  0  0  0  0  0  0  0  0  0  0
   12.3782    5.4231   20.7777 C   0  0  0  0  0  0  0  0  0  0  0  0
    7.7365    4.6508   21.6987 C   0  0  0  0  0  0  0  0  0  0  0  0
   13.0186   11.0102   18.0020 C   0  0  0  0  0  0  0  0  0  0  0  0
    8.6628    5.7088   21.8871 N   0  0  0  0  0  0  0  0  0  0  0  0
    5.6516    3.5258   21.9140 C   0  0  0  0  0  0  0  0  0  0  0  0
   11.5863    9.6815   19.4539 C   0  0  0  0  0  0  0  0  0  0  0  0
   12.9648    4.1543   20.9205 C   0  0  0  0  0  0  0  0  0  0  0  0
    8.2089    3.6265   20.8929 C   0  0  0  0  0  0  0  0  0  0  0  0
    7.3827    2.5724   20.5432 C   0  0  0  0  0  0  0  0  0  0  0  0
   11.1529    7.2750   20.8025 C   0  0  0  0  0  0  0  0  0  0  0  0
   10.2573    8.3215   20.9827 C   0  0  0  0  0  0  0  0  0  0  0  0
   11.1606    5.9378   21.2366 N   0  0  0  0  0  0  0  0  0  0  0  0
    9.8932   11.6736   19.0677 O   0  0  0  0  0  0  0  0  0  0  0  0
    6.4470    4.5850   22.2321 C   0  0  0  0  0  0  0  0  0  0  0  0
    8.4619    6.9895   22.2968 C   0  0  0  0  0  0  0  0  0  0  0  0
   12.2747    7.5102   20.0420 C   0  0  0  0  0  0  0  0  0  0  0  0
   14.2544    6.2142   19.4191 C   0  0  0  0  0  0  0  0  0  0  0  0
   13.0695    6.3705   20.0375 N   0  0  0  0  0  0  0  0  0  0  0  0
    9.1913    8.0876   21.8361 N   0  0  0  0  0  0  0  0  0  0  0  0
   10.4739    9.4813   20.2889 C   0  0  0  0  0  0  0  0  0  0  0  0
    7.5551    7.1270   23.1200 O   0  0  0  0  0  0  0  0  0  0  0  0
  1 11  4  0
  1 21  4  0
  2  4  1  0
  2  8  1  0
  2 11  1  0
  3 10  4  0
  3 14  4  0
  4  5  1  0
  4 18  2  0
  6 12  1  0
  6 17  4  0
  6 23  4  0
  7  9  1  0
  7 13  4  0
  7 19  4  0
  9 20  1  0
 10 19  4  0
 11 25  4  0
 13 14  4  0
 15 16  4  0
 15 17  4  0
 15 21  4  0
 16 24  1  0
 16 25  4  0
 20 24  1  0
 20 26  2  0
 21 23  4  0
 22 23  1  0
M  END
$$$$

 Created by Python create_sdf_string function

 26 28  0  0  0  0  0  0  0  0999 V2000
   12.4616    8.6700   19.4180 N   0  0  0  0  0  0  0  0  0  0  0  0
   11.8329   10.8148   18.6769 N   0  0  0  0  0  0  0  0  0  0  0  0
    6.1021    2.5564   21.0678 C   0  0  0  0  0  0  0  0  0  0  0  0
   10.9097   11.8051   18.4804 C   0  0  0  0  0  0  0  0  0  0  0  0
   11.2280   12.9135   17.5669 C   0  0  0  0  0  0  0  0  0  0  0  0
   12.3782    5.4231   20.7777 C   0  0  0  0  0  0  0  0  0  0  0  0
    7.7365    4.6508   21.6987 C   0  0  0  0  0  0  0  0  0  0  0  0
   13.0186   11.0102   18.0020 C   0  0  0  0  0  0  0  0  0  0  0  0
    8.6628    5.7088   21.8871 N   0  0  0  0  0  0  0  0  0  0  0  0
    5.6516    3.5258   21.9140 C   0  0  0  0  0  0  0  0  0  0  0  0
   11.5863    9.6815   19.4539 C   0  0  0  0  0  0  0  0  0  0  0  0
   12.9648    4.1543   20.9205 C   0  0  0  0  0  0  0  0  0  0  0  0
    8.2089    3.6265   20.8929 C   0  0  0  0  0  0  0  0  0  0  0  0
    7.3827    2.5724   20.5432 C   0  0  0  0  0  0  0  0  0  0  0  0
   11.1529    7.2750   20.8025 C   0  0  0  0  0  0  0  0  0  0  0  0
   10.2573    8.3215   20.9827 C   0  0  0  0  0  0  0  0  0  0  0  0
   11.1606    5.9378   21.2366 N   0  0  0  0  0  0  0  0  0  0  0  0
    9.8932   11.6736   19.0677 O   0  0  0  0  0  0  0  0  0  0  0  0
    6.4470    4.5850   22.2321 C   0  0  0  0  0  0  0  0  0  0  0  0
    8.4619    6.9895   22.2968 C   0  0  0  0  0  0  0  0  0  0  0  0
   12.2747    7.5102   20.0420 C   0  0  0  0  0  0  0  0  0  0  0  0
   14.2544    6.2142   19.4191 C   0  0  0  0  0  0  0  0  0  0  0  0
   13.0695    6.3705   20.0375 N   0  0  0  0  0  0  0  0  0  0  0  0
    9.1913    8.0876   21.8361 N   0  0  0  0  0  0  0  0  0  0  0  0
   10.4739    9.4813   20.2889 C   0  0  0  0  0  0  0  0  0  0  0  0
    7.5551    7.1270   23.1200 O   0  0  0  0  0  0  0  0  0  0  0  0
  1 11  4  0
  1 21  4  0
  2  4  1  0
  2  8  1  0
  2 11  1  0
  3 10  4  0
  3 14  4  0
  4  5  1  0
  4 18  2  0
  6 12  1  0
  6 17  4  0
  6 23  4  0
  7  9  1  0
  7 13  4  0
  7 19  4  0
  9 20  1  0
 10 19  4  0
 11 25  4  0
 13 14  4  0
 15 16  4  0
 15 17  4  0
 15 21  4  0
 16 24  1  0
 16 25  4  0
 20 24  1  0
 20 26  2  0
 21 23  4  0
 22 23  1  0
M  END
$$$$

 Created by Python create_sdf_string function

 26 28  0  0  0  0  0  0  0  0999 V2000
   12.4616    8.6700   19.4180 N   0  0  0  0  0  0  0  0  0  0  0  0
   11.8329   10.8148   18.6769 N   0  0  0  0  0  0  0  0  0  0  0  0
    6.1021    2.5564   21.0678 C   0  0  0  0  0  0  0  0  0  0  0  0
   10.9097   11.8051   18.4804 C   0  0  0  0  0  0  0  0  0  0  0  0
   11.2280   12.9135   17.5669 C   0  0  0  0  0  0  0  0  0  0  0  0
   12.3782    5.4231   20.7777 C   0  0  0  0  0  0  0  0  0  0  0  0
    7.7365    4.6508   21.6987 C   0  0  0  0  0  0  0  0  0  0  0  0
   13.0186   11.0102   18.0020 C   0  0  0  0  0  0  0  0  0  0  0  0
    8.6628    5.7088   21.8871 N   0  0  0  0  0  0  0  0  0  0  0  0
    5.6516    3.5258   21.9140 C   0  0  0  0  0  0  0  0  0  0  0  0
   11.5863    9.6815   19.4539 C   0  0  0  0  0  0  0  0  0  0  0  0
   12.9648    4.1543   20.9205 C   0  0  0  0  0  0  0  0  0  0  0  0
    8.2089    3.6265   20.8929 C   0  0  0  0  0  0  0  0  0  0  0  0
    7.3827    2.5724   20.5432 C   0  0  0  0  0  0  0  0  0  0  0  0
   11.1529    7.2750   20.8025 C   0  0  0  0  0  0  0  0  0  0  0  0
   10.2573    8.3215   20.9827 C   0  0  0  0  0  0  0  0  0  0  0  0
   11.1606    5.9378   21.2366 N   0  0  0  0  0  0  0  0  0  0  0  0
    9.8932   11.6736   19.0677 O   0  0  0  0  0  0  0  0  0  0  0  0
    6.4470    4.5850   22.2321 C   0  0  0  0  0  0  0  0  0  0  0  0
    8.4619    6.9895   22.2968 C   0  0  0  0  0  0  0  0  0  0  0  0
   12.2747    7.5102   20.0420 C   0  0  0  0  0  0  0  0  0  0  0  0
   14.2544    6.2142   19.4191 C   0  0  0  0  0  0  0  0  0  0  0  0
   13.0695    6.3705   20.0375 N   0  0  0  0  0  0  0  0  0  0  0  0
    9.1913    8.0876   21.8361 N   0  0  0  0  0  0  0  0  0  0  0  0
   10.4739    9.4813   20.2889 C   0  0  0  0  0  0  0  0  0  0  0  0
    7.5551    7.1270   23.1200 O   0  0  0  0  0  0  0  0  0  0  0  0
  1 11  4  0
  1 21  4  0
  2  4  1  0
  2  8  1  0
  2 11  1  0
  3 10  4  0
  3 14  4  0
  4  5  1  0
  4 18  2  0
  6 12  1  0
  6 17  4  0
  6 23  4  0
  7  9  1  0
  7 13  4  0
  7 19  4  0
  9 20  1  0
 10 19  4  0
 11 25  4  0
 13 14  4  0
 15 16  4  0
 15 17  4  0
 15 21  4  0
 16 24  1  0
 16 25  4  0
 20 24  1  0
 20 26  2  0
 21 23  4  0
 22 23  1  0
M  END
$$$$

 Created by Python create_sdf_string function

 26 28  0  0  0  0  0  0  0  0999 V2000
   12.4616    8.6700   19.4180 N   0  0  0  0  0  0  0  0  0  0  0  0
   11.8329   10.8148   18.6769 N   0  0  0  0  0  0  0  0  0  0  0  0
    6.1021    2.5564   21.0678 C   0  0  0  0  0  0  0  0  0  0  0  0
   10.9097   11.8051   18.4804 C   0  0  0  0  0  0  0  0  0  0  0  0
   11.2280   12.9135   17.5669 C   0  0  0  0  0  0  0  0  0  0  0  0
   12.3782    5.4231   20.7777 C   0  0  0  0  0  0  0  0  0  0  0  0
    7.7365    4.6508   21.6987 C   0  0  0  0  0  0  0  0  0  0  0  0
   13.0186   11.0102   18.0020 C   0  0  0  0  0  0  0  0  0  0  0  0
    8.6628    5.7088   21.8871 N   0  0  0  0  0  0  0  0  0  0  0  0
    5.6516    3.5258   21.9140 C   0  0  0  0  0  0  0  0  0  0  0  0
   11.5863    9.6815   19.4539 C   0  0  0  0  0  0  0  0  0  0  0  0
   12.9648    4.1543   20.9205 C   0  0  0  0  0  0  0  0  0  0  0  0
    8.2089    3.6265   20.8929 C   0  0  0  0  0  0  0  0  0  0  0  0
    7.3827    2.5724   20.5432 C   0  0  0  0  0  0  0  0  0  0  0  0
   11.1529    7.2750   20.8025 C   0  0  0  0  0  0  0  0  0  0  0  0
   10.2573    8.3215   20.9827 C   0  0  0  0  0  0  0  0  0  0  0  0
   11.1606    5.9378   21.2366 N   0  0  0  0  0  0  0  0  0  0  0  0
    9.8932   11.6736   19.0677 O   0  0  0  0  0  0  0  0  0  0  0  0
    6.4470    4.5850   22.2321 C   0  0  0  0  0  0  0  0  0  0  0  0
    8.4619    6.9895   22.2968 C   0  0  0  0  0  0  0  0  0  0  0  0
   12.2747    7.5102   20.0420 C   0  0  0  0  0  0  0  0  0  0  0  0
   14.2544    6.2142   19.4191 C   0  0  0  0  0  0  0  0  0  0  0  0
   13.0695    6.3705   20.0375 N   0  0  0  0  0  0  0  0  0  0  0  0
    9.1913    8.0876   21.8361 N   0  0  0  0  0  0  0  0  0  0  0  0
   10.4739    9.4813   20.2889 C   0  0  0  0  0  0  0  0  0  0  0  0
    7.5551    7.1270   23.1200 O   0  0  0  0  0  0  0  0  0  0  0  0
  1 11  4  0
  1 21  4  0
  2  4  1  0
  2  8  1  0
  2 11  1  0
  3 10  4  0
  3 14  4  0
  4  5  1  0
  4 18  2  0
  6 12  1  0
  6 17  4  0
  6 23  4  0
  7  9  1  0
  7 13  4  0
  7 19  4  0
  9 20  1  0
 10 19  4  0
 11 25  4  0
 13 14  4  0
 15 16  4  0
 15 17  4  0
 15 21  4  0
 16 24  1  0
 16 25  4  0
 20 24  1  0
 20 26  2  0
 21 23  4  0
 22 23  1  0
M  END
$$$$

 Created by Python create_sdf_string function

 26 28  0  0  0  0  0  0  0  0999 V2000
   12.4616    8.6700   19.4180 N   0  0  0  0  0  0  0  0  0  0  0  0
   11.8329   10.8148   18.6769 N   0  0  0  0  0  0  0  0  0  0  0  0
    6.1021    2.5564   21.0678 C   0  0  0  0  0  0  0  0  0  0  0  0
   10.9097   11.8051   18.4804 C   0  0  0  0  0  0  0  0  0  0  0  0
   11.2280   12.9135   17.5669 C   0  0  0  0  0  0  0  0  0  0  0  0
   12.3782    5.4231   20.7777 C   0  0  0  0  0  0  0  0  0  0  0  0
    7.7365    4.6508   21.6987 C   0  0  0  0  0  0  0  0  0  0  0  0
   13.0186   11.0102   18.0020 C   0  0  0  0  0  0  0  0  0  0  0  0
    8.6628    5.7088   21.8871 N   0  0  0  0  0  0  0  0  0  0  0  0
    5.6516    3.5258   21.9140 C   0  0  0  0  0  0  0  0  0  0  0  0
   11.5863    9.6815   19.4539 C   0  0  0  0  0  0  0  0  0  0  0  0
   12.9648    4.1543   20.9205 C   0  0  0  0  0  0  0  0  0  0  0  0
    8.2089    3.6265   20.8929 C   0  0  0  0  0  0  0  0  0  0  0  0
    7.3827    2.5724   20.5432 C   0  0  0  0  0  0  0  0  0  0  0  0
   11.1529    7.2750   20.8025 C   0  0  0  0  0  0  0  0  0  0  0  0
   10.2573    8.3215   20.9827 C   0  0  0  0  0  0  0  0  0  0  0  0
   11.1606    5.9378   21.2366 N   0  0  0  0  0  0  0  0  0  0  0  0
    9.8932   11.6736   19.0677 O   0  0  0  0  0  0  0  0  0  0  0  0
    6.4470    4.5850   22.2321 C   0  0  0  0  0  0  0  0  0  0  0  0
    8.4619    6.9895   22.2968 C   0  0  0  0  0  0  0  0  0  0  0  0
   12.2747    7.5102   20.0420 C   0  0  0  0  0  0  0  0  0  0  0  0
   14.2544    6.2142   19.4191 C   0  0  0  0  0  0  0  0  0  0  0  0
   13.0695    6.3705   20.0375 N   0  0  0  0  0  0  0  0  0  0  0  0
    9.1913    8.0876   21.8361 N   0  0  0  0  0  0  0  0  0  0  0  0
   10.4739    9.4813   20.2889 C   0  0  0  0  0  0  0  0  0  0  0  0
    7.5551    7.1270   23.1200 O   0  0  0  0  0  0  0  0  0  0  0  0
  1 11  4  0
  1 21  4  0
  2  4  1  0
  2  8  1  0
  2 11  1  0
  3 10  4  0
  3 14  4  0
  4  5  1  0
  4 18  2  0
  6 12  1  0
  6 17  4  0
  6 23  4  0
  7  9  1  0
  7 13  4  0
  7 19  4  0
  9 20  1  0
 10 19  4  0
 11 25  4  0
 13 14  4  0
 15 16  4  0
 15 17  4  0
 15 21  4  0
 16 24  1  0
 16 25  4  0
 20 24  1  0
 20 26  2  0
 21 23  4  0
 22 23  1  0
M  END
$$$$

 Created by Python create_sdf_string function

 26 28  0  0  0  0  0  0  0  0999 V2000
   12.4616    8.6700   19.4180 N   0  0  0  0  0  0  0  0  0  0  0  0
   11.8329   10.8148   18.6769 N   0  0  0  0  0  0  0  0  0  0  0  0
    6.1021    2.5564   21.0678 C   0  0  0  0  0  0  0  0  0  0  0  0
   10.9097   11.8051   18.4804 C   0  0  0  0  0  0  0  0  0  0  0  0
   11.2280   12.9135   17.5669 C   0  0  0  0  0  0  0  0  0  0  0  0
   12.3782    5.4231   20.7777 C   0  0  0  0  0  0  0  0  0  0  0  0
    7.7365    4.6508   21.6987 C   0  0  0  0  0  0  0  0  0  0  0  0
   13.0186   11.0102   18.0020 C   0  0  0  0  0  0  0  0  0  0  0  0
    8.6628    5.7088   21.8871 N   0  0  0  0  0  0  0  0  0  0  0  0
    5.6516    3.5258   21.9140 C   0  0  0  0  0  0  0  0  0  0  0  0
   11.5863    9.6815   19.4539 C   0  0  0  0  0  0  0  0  0  0  0  0
   12.9648    4.1543   20.9205 C   0  0  0  0  0  0  0  0  0  0  0  0
    8.2089    3.6265   20.8929 C   0  0  0  0  0  0  0  0  0  0  0  0
    7.3827    2.5724   20.5432 C   0  0  0  0  0  0  0  0  0  0  0  0
   11.1529    7.2750   20.8025 C   0  0  0  0  0  0  0  0  0  0  0  0
   10.2573    8.3215   20.9827 C   0  0  0  0  0  0  0  0  0  0  0  0
   11.1606    5.9378   21.2366 N   0  0  0  0  0  0  0  0  0  0  0  0
    9.8932   11.6736   19.0677 O   0  0  0  0  0  0  0  0  0  0  0  0
    6.4470    4.5850   22.2321 C   0  0  0  0  0  0  0  0  0  0  0  0
    8.4619    6.9895   22.2968 C   0  0  0  0  0  0  0  0  0  0  0  0
   12.2747    7.5102   20.0420 C   0  0  0  0  0  0  0  0  0  0  0  0
   14.2544    6.2142   19.4191 C   0  0  0  0  0  0  0  0  0  0  0  0
   13.0695    6.3705   20.0375 N   0  0  0  0  0  0  0  0  0  0  0  0
    9.1913    8.0876   21.8361 N   0  0  0  0  0  0  0  0  0  0  0  0
   10.4739    9.4813   20.2889 C   0  0  0  0  0  0  0  0  0  0  0  0
    7.5551    7.1270   23.1200 O   0  0  0  0  0  0  0  0  0  0  0  0
  1 11  4  0
  1 21  4  0
  2  4  1  0
  2  8  1  0
  2 11  1  0
  3 10  4  0
  3 14  4  0
  4  5  1  0
  4 18  2  0
  6 12  1  0
  6 17  4  0
  6 23  4  0
  7  9  1  0
  7 13  4  0
  7 19  4  0
  9 20  1  0
 10 19  4  0
 11 25  4  0
 13 14  4  0
 15 16  4  0
 15 17  4  0
 15 21  4  0
 16 24  1  0
 16 25  4  0
 20 24  1  0
 20 26  2  0
 21 23  4  0
 22 23  1  0
M  END
$$$$

 Created by Python create_sdf_string function

 26 28  0  0  0  0  0  0  0  0999 V2000
   12.4616    8.6700   19.4180 N   0  0  0  0  0  0  0  0  0  0  0  0
   11.8329   10.8148   18.6769 N   0  0  0  0  0  0  0  0  0  0  0  0
    6.1021    2.5564   21.0678 C   0  0  0  0  0  0  0  0  0  0  0  0
   10.9097   11.8051   18.4804 C   0  0  0  0  0  0  0  0  0  0  0  0
   11.2280   12.9135   17.5669 C   0  0  0  0  0  0  0  0  0  0  0  0
   12.3782    5.4231   20.7777 C   0  0  0  0  0  0  0  0  0  0  0  0
    7.7365    4.6508   21.6987 C   0  0  0  0  0  0  0  0  0  0  0  0
   13.0186   11.0102   18.0020 C   0  0  0  0  0  0  0  0  0  0  0  0
    8.6628    5.7088   21.8871 N   0  0  0  0  0  0  0  0  0  0  0  0
    5.6516    3.5258   21.9140 C   0  0  0  0  0  0  0  0  0  0  0  0
   11.5863    9.6815   19.4539 C   0  0  0  0  0  0  0  0  0  0  0  0
   12.9648    4.1543   20.9205 C   0  0  0  0  0  0  0  0  0  0  0  0
    8.2089    3.6265   20.8929 C   0  0  0  0  0  0  0  0  0  0  0  0
    7.3827    2.5724   20.5432 C   0  0  0  0  0  0  0  0  0  0  0  0
   11.1529    7.2750   20.8025 C   0  0  0  0  0  0  0  0  0  0  0  0
   10.2573    8.3215   20.9827 C   0  0  0  0  0  0  0  0  0  0  0  0
   11.1606    5.9378   21.2366 N   0  0  0  0  0  0  0  0  0  0  0  0
    9.8932   11.6736   19.0677 O   0  0  0  0  0  0  0  0  0  0  0  0
    6.4470    4.5850   22.2321 C   0  0  0  0  0  0  0  0  0  0  0  0
    8.4619    6.9895   22.2968 C   0  0  0  0  0  0  0  0  0  0  0  0
   12.2747    7.5102   20.0420 C   0  0  0  0  0  0  0  0  0  0  0  0
   14.2544    6.2142   19.4191 C   0  0  0  0  0  0  0  0  0  0  0  0
   13.0695    6.3705   20.0375 N   0  0  0  0  0  0  0  0  0  0  0  0
    9.1913    8.0876   21.8361 N   0  0  0  0  0  0  0  0  0  0  0  0
   10.4739    9.4813   20.2889 C   0  0  0  0  0  0  0  0  0  0  0  0
    7.5551    7.1270   23.1200 O   0  0  0  0  0  0  0  0  0  0  0  0
  1 11  4  0
  1 21  4  0
  2  4  1  0
  2  8  1  0
  2 11  1  0
  3 10  4  0
  3 14  4  0
  4  5  1  0
  4 18  2  0
  6 12  1  0
  6 17  4  0
  6 23  4  0
  7  9  1  0
  7 13  4  0
  7 19  4  0
  9 20  1  0
 10 19  4  0
 11 25  4  0
 13 14  4  0
 15 16  4  0
 15 17  4  0
 15 21  4  0
 16 24  1  0
 16 25  4  0
 20 24  1  0
 20 26  2  0
 21 23  4  0
 22 23  1  0
M  END
$$$$

 Created by Python create_sdf_string function

 26 28  0  0  0  0  0  0  0  0999 V2000
   12.4616    8.6700   19.4180 N   0  0  0  0  0  0  0  0  0  0  0  0
   11.8329   10.8148   18.6769 N   0  0  0  0  0  0  0  0  0  0  0  0
    6.1021    2.5564   21.0678 C   0  0  0  0  0  0  0  0  0  0  0  0
   10.9097   11.8051   18.4804 C   0  0  0  0  0  0  0  0  0  0  0  0
   11.2280   12.9135   17.5669 C   0  0  0  0  0  0  0  0  0  0  0  0
   12.3782    5.4231   20.7777 C   0  0  0  0  0  0  0  0  0  0  0  0
    7.7365    4.6508   21.6987 C   0  0  0  0  0  0  0  0  0  0  0  0
   13.0186   11.0102   18.0020 C   0  0  0  0  0  0  0  0  0  0  0  0
    8.6628    5.7088   21.8871 N   0  0  0  0  0  0  0  0  0  0  0  0
    5.6516    3.5258   21.9140 C   0  0  0  0  0  0  0  0  0  0  0  0
   11.5863    9.6815   19.4539 C   0  0  0  0  0  0  0  0  0  0  0  0
   12.9648    4.1543   20.9205 C   0  0  0  0  0  0  0  0  0  0  0  0
    8.2089    3.6265   20.8929 C   0  0  0  0  0  0  0  0  0  0  0  0
    7.3827    2.5724   20.5432 C   0  0  0  0  0  0  0  0  0  0  0  0
   11.1529    7.2750   20.8025 C   0  0  0  0  0  0  0  0  0  0  0  0
   10.2573    8.3215   20.9827 C   0  0  0  0  0  0  0  0  0  0  0  0
   11.1606    5.9378   21.2366 N   0  0  0  0  0  0  0  0  0  0  0  0
    9.8932   11.6736   19.0677 O   0  0  0  0  0  0  0  0  0  0  0  0
    6.4470    4.5850   22.2321 C   0  0  0  0  0  0  0  0  0  0  0  0
    8.4619    6.9895   22.2968 C   0  0  0  0  0  0  0  0  0  0  0  0
   12.2747    7.5102   20.0420 C   0  0  0  0  0  0  0  0  0  0  0  0
   14.2544    6.2142   19.4191 C   0  0  0  0  0  0  0  0  0  0  0  0
   13.0695    6.3705   20.0375 N   0  0  0  0  0  0  0  0  0  0  0  0
    9.1913    8.0876   21.8361 N   0  0  0  0  0  0  0  0  0  0  0  0
   10.4739    9.4813   20.2889 C   0  0  0  0  0  0  0  0  0  0  0  0
    7.5551    7.1270   23.1200 O   0  0  0  0  0  0  0  0  0  0  0  0
  1 11  4  0
  1 21  4  0
  2  4  1  0
  2  8  1  0
  2 11  1  0
  3 10  4  0
  3 14  4  0
  4  5  1  0
  4 18  2  0
  6 12  1  0
  6 17  4  0
  6 23  4  0
  7  9  1  0
  7 13  4  0
  7 19  4  0
  9 20  1  0
 10 19  4  0
 11 25  4  0
 13 14  4  0
 15 16  4  0
 15 17  4  0
 15 21  4  0
 16 24  1  0
 16 25  4  0
 20 24  1  0
 20 26  2  0
 21 23  4  0
 22 23  1  0
M  END
$$$$

 Created by Python create_sdf_string function

 26 28  0  0  0  0  0  0  0  0999 V2000
   12.4616    8.6700   19.4180 N   0  0  0  0  0  0  0  0  0  0  0  0
   11.8329   10.8148   18.6769 N   0  0  0  0  0  0  0  0  0  0  0  0
    6.1021    2.5564   21.0678 C   0  0  0  0  0  0  0  0  0  0  0  0
   10.9097   11.8051   18.4804 C   0  0  0  0  0  0  0  0  0  0  0  0
   11.2280   12.9135   17.5669 C   0  0  0  0  0  0  0  0  0  0  0  0
   12.3782    5.4231   20.7777 C   0  0  0  0  0  0  0  0  0  0  0  0
    7.7365    4.6508   21.6987 C   0  0  0  0  0  0  0  0  0  0  0  0
   13.0186   11.0102   18.0020 C   0  0  0  0  0  0  0  0  0  0  0  0
    8.6628    5.7088   21.8871 N   0  0  0  0  0  0  0  0  0  0  0  0
    5.6516    3.5258   21.9140 C   0  0  0  0  0  0  0  0  0  0  0  0
   11.5863    9.6815   19.4539 C   0  0  0  0  0  0  0  0  0  0  0  0
   12.9648    4.1543   20.9205 C   0  0  0  0  0  0  0  0  0  0  0  0
    8.2089    3.6265   20.8929 C   0  0  0  0  0  0  0  0  0  0  0  0
    7.3827    2.5724   20.5432 C   0  0  0  0  0  0  0  0  0  0  0  0
   11.1529    7.2750   20.8025 C   0  0  0  0  0  0  0  0  0  0  0  0
   10.2573    8.3215   20.9827 C   0  0  0  0  0  0  0  0  0  0  0  0
   11.1606    5.9378   21.2366 N   0  0  0  0  0  0  0  0  0  0  0  0
    9.8932   11.6736   19.0677 O   0  0  0  0  0  0  0  0  0  0  0  0
    6.4470    4.5850   22.2321 C   0  0  0  0  0  0  0  0  0  0  0  0
    8.4619    6.9895   22.2968 C   0  0  0  0  0  0  0  0  0  0  0  0
   12.2747    7.5102   20.0420 C   0  0  0  0  0  0  0  0  0  0  0  0
   14.2544    6.2142   19.4191 C   0  0  0  0  0  0  0  0  0  0  0  0
   13.0695    6.3705   20.0375 N   0  0  0  0  0  0  0  0  0  0  0  0
    9.1913    8.0876   21.8361 N   0  0  0  0  0  0  0  0  0  0  0  0
   10.4739    9.4813   20.2889 C   0  0  0  0  0  0  0  0  0  0  0  0
    7.5551    7.1270   23.1200 O   0  0  0  0  0  0  0  0  0  0  0  0
  1 11  4  0
  1 21  4  0
  2  4  1  0
  2  8  1  0
  2 11  1  0
  3 10  4  0
  3 14  4  0
  4  5  1  0
  4 18  2  0
  6 12  1  0
  6 17  4  0
  6 23  4  0
  7  9  1  0
  7 13  4  0
  7 19  4  0
  9 20  1  0
 10 19  4  0
 11 25  4  0
 13 14  4  0
 15 16  4  0
 15 17  4  0
 15 21  4  0
 16 24  1  0
 16 25  4  0
 20 24  1  0
 20 26  2  0
 21 23  4  0
 22 23  1  0
M  END
$$$$

 Created by Python create_sdf_string function

 26 28  0  0  0  0  0  0  0  0999 V2000
   12.4616    8.6700   19.4180 N   0  0  0  0  0  0  0  0  0  0  0  0
   11.8329   10.8148   18.6769 N   0  0  0  0  0  0  0  0  0  0  0  0
    6.1021    2.5564   21.0678 C   0  0  0  0  0  0  0  0  0  0  0  0
   10.9097   11.8051   18.4804 C   0  0  0  0  0  0  0  0  0  0  0  0
   11.2280   12.9135   17.5669 C   0  0  0  0  0  0  0  0  0  0  0  0
   12.3782    5.4231   20.7777 C   0  0  0  0  0  0  0  0  0  0  0  0
    7.7365    4.6508   21.6987 C   0  0  0  0  0  0  0  0  0  0  0  0
   13.0186   11.0102   18.0020 C   0  0  0  0  0  0  0  0  0  0  0  0
    8.6628    5.7088   21.8871 N   0  0  0  0  0  0  0  0  0  0  0  0
    5.6516    3.5258   21.9140 C   0  0  0  0  0  0  0  0  0  0  0  0
   11.5863    9.6815   19.4539 C   0  0  0  0  0  0  0  0  0  0  0  0
   12.9648    4.1543   20.9205 C   0  0  0  0  0  0  0  0  0  0  0  0
    8.2089    3.6265   20.8929 C   0  0  0  0  0  0  0  0  0  0  0  0
    7.3827    2.5724   20.5432 C   0  0  0  0  0  0  0  0  0  0  0  0
   11.1529    7.2750   20.8025 C   0  0  0  0  0  0  0  0  0  0  0  0
   10.2573    8.3215   20.9827 C   0  0  0  0  0  0  0  0  0  0  0  0
   11.1606    5.9378   21.2366 N   0  0  0  0  0  0  0  0  0  0  0  0
    9.8932   11.6736   19.0677 O   0  0  0  0  0  0  0  0  0  0  0  0
    6.4470    4.5850   22.2321 C   0  0  0  0  0  0  0  0  0  0  0  0
    8.4619    6.9895   22.2968 C   0  0  0  0  0  0  0  0  0  0  0  0
   12.2747    7.5102   20.0420 C   0  0  0  0  0  0  0  0  0  0  0  0
   14.2544    6.2142   19.4191 C   0  0  0  0  0  0  0  0  0  0  0  0
   13.0695    6.3705   20.0375 N   0  0  0  0  0  0  0  0  0  0  0  0
    9.1913    8.0876   21.8361 N   0  0  0  0  0  0  0  0  0  0  0  0
   10.4739    9.4813   20.2889 C   0  0  0  0  0  0  0  0  0  0  0  0
    7.5551    7.1270   23.1200 O   0  0  0  0  0  0  0  0  0  0  0  0
  1 11  4  0
  1 21  4  0
  2  4  1  0
  2  8  1  0
  2 11  1  0
  3 10  4  0
  3 14  4  0
  4  5  1  0
  4 18  2  0
  6 12  1  0
  6 17  4  0
  6 23  4  0
  7  9  1  0
  7 13  4  0
  7 19  4  0
  9 20  1  0
 10 19  4  0
 11 25  4  0
 13 14  4  0
 15 16  4  0
 15 17  4  0
 15 21  4  0
 16 24  1  0
 16 25  4  0
 20 24  1  0
 20 26  2  0
 21 23  4  0
 22 23  1  0
M  END
$$$$

 Created by Python create_sdf_string function

 26 28  0  0  0  0  0  0  0  0999 V2000
   12.4616    8.6700   19.4180 N   0  0  0  0  0  0  0  0  0  0  0  0
   11.8329   10.8148   18.6769 N   0  0  0  0  0  0  0  0  0  0  0  0
    6.1021    2.5564   21.0678 C   0  0  0  0  0  0  0  0  0  0  0  0
   10.9097   11.8051   18.4804 C   0  0  0  0  0  0  0  0  0  0  0  0
   11.2280   12.9135   17.5669 C   0  0  0  0  0  0  0  0  0  0  0  0
   12.3782    5.4231   20.7777 C   0  0  0  0  0  0  0  0  0  0  0  0
    7.7365    4.6508   21.6987 C   0  0  0  0  0  0  0  0  0  0  0  0
   13.0186   11.0102   18.0020 C   0  0  0  0  0  0  0  0  0  0  0  0
    8.6628    5.7088   21.8871 N   0  0  0  0  0  0  0  0  0  0  0  0
    5.6516    3.5258   21.9140 C   0  0  0  0  0  0  0  0  0  0  0  0
   11.5863    9.6815   19.4539 C   0  0  0  0  0  0  0  0  0  0  0  0
   12.9648    4.1543   20.9205 C   0  0  0  0  0  0  0  0  0  0  0  0
    8.2089    3.6265   20.8929 C   0  0  0  0  0  0  0  0  0  0  0  0
    7.3827    2.5724   20.5432 C   0  0  0  0  0  0  0  0  0  0  0  0
   11.1529    7.2750   20.8025 C   0  0  0  0  0  0  0  0  0  0  0  0
   10.2573    8.3215   20.9827 C   0  0  0  0  0  0  0  0  0  0  0  0
   11.1606    5.9378   21.2366 N   0  0  0  0  0  0  0  0  0  0  0  0
    9.8932   11.6736   19.0677 O   0  0  0  0  0  0  0  0  0  0  0  0
    6.4470    4.5850   22.2321 C   0  0  0  0  0  0  0  0  0  0  0  0
    8.4619    6.9895   22.2968 C   0  0  0  0  0  0  0  0  0  0  0  0
   12.2747    7.5102   20.0420 C   0  0  0  0  0  0  0  0  0  0  0  0
   14.2544    6.2142   19.4191 C   0  0  0  0  0  0  0  0  0  0  0  0
   13.0695    6.3705   20.0375 N   0  0  0  0  0  0  0  0  0  0  0  0
    9.1913    8.0876   21.8361 N   0  0  0  0  0  0  0  0  0  0  0  0
   10.4739    9.4813   20.2889 C   0  0  0  0  0  0  0  0  0  0  0  0
    7.5551    7.1270   23.1200 O   0  0  0  0  0  0  0  0  0  0  0  0
  1 11  4  0
  1 21  4  0
  2  4  1  0
  2  8  1  0
  2 11  1  0
  3 10  4  0
  3 14  4  0
  4  5  1  0
  4 18  2  0
  6 12  1  0
  6 17  4  0
  6 23  4  0
  7  9  1  0
  7 13  4  0
  7 19  4  0
  9 20  1  0
 10 19  4  0
 11 25  4  0
 13 14  4  0
 15 16  4  0
 15 17  4  0
 15 21  4  0
 16 24  1  0
 16 25  4  0
 20 24  1  0
 20 26  2  0
 21 23  4  0
 22 23  1  0
M  END
$$$$

 Created by Python create_sdf_string function

 26 28  0  0  0  0  0  0  0  0999 V2000
   12.4616    8.6700   19.4180 N   0  0  0  0  0  0  0  0  0  0  0  0
   11.8329   10.8148   18.6769 N   0  0  0  0  0  0  0  0  0  0  0  0
    6.1021    2.5564   21.0678 C   0  0  0  0  0  0  0  0  0  0  0  0
   10.9097   11.8051   18.4804 C   0  0  0  0  0  0  0  0  0  0  0  0
   11.2280   12.9135   17.5669 C   0  0  0  0  0  0  0  0  0  0  0  0
   12.3782    5.4231   20.7777 C   0  0  0  0  0  0  0  0  0  0  0  0
    7.7365    4.6508   21.6987 C   0  0  0  0  0  0  0  0  0  0  0  0
   13.0186   11.0102   18.0020 C   0  0  0  0  0  0  0  0  0  0  0  0
    8.6628    5.7088   21.8871 N   0  0  0  0  0  0  0  0  0  0  0  0
    5.6516    3.5258   21.9140 C   0  0  0  0  0  0  0  0  0  0  0  0
   11.5863    9.6815   19.4539 C   0  0  0  0  0  0  0  0  0  0  0  0
   12.9648    4.1543   20.9205 C   0  0  0  0  0  0  0  0  0  0  0  0
    8.2089    3.6265   20.8929 C   0  0  0  0  0  0  0  0  0  0  0  0
    7.3827    2.5724   20.5432 C   0  0  0  0  0  0  0  0  0  0  0  0
   11.1529    7.2750   20.8025 C   0  0  0  0  0  0  0  0  0  0  0  0
   10.2573    8.3215   20.9827 C   0  0  0  0  0  0  0  0  0  0  0  0
   11.1606    5.9378   21.2366 N   0  0  0  0  0  0  0  0  0  0  0  0
    9.8932   11.6736   19.0677 O   0  0  0  0  0  0  0  0  0  0  0  0
    6.4470    4.5850   22.2321 C   0  0  0  0  0  0  0  0  0  0  0  0
    8.4619    6.9895   22.2968 C   0  0  0  0  0  0  0  0  0  0  0  0
   12.2747    7.5102   20.0420 C   0  0  0  0  0  0  0  0  0  0  0  0
   14.2544    6.2142   19.4191 C   0  0  0  0  0  0  0  0  0  0  0  0
   13.0695    6.3705   20.0375 N   0  0  0  0  0  0  0  0  0  0  0  0
    9.1913    8.0876   21.8361 N   0  0  0  0  0  0  0  0  0  0  0  0
   10.4739    9.4813   20.2889 C   0  0  0  0  0  0  0  0  0  0  0  0
    7.5551    7.1270   23.1200 O   0  0  0  0  0  0  0  0  0  0  0  0
  1 11  4  0
  1 21  4  0
  2  4  1  0
  2  8  1  0
  2 11  1  0
  3 10  4  0
  3 14  4  0
  4  5  1  0
  4 18  2  0
  6 12  1  0
  6 17  4  0
  6 23  4  0
  7  9  1  0
  7 13  4  0
  7 19  4  0
  9 20  1  0
 10 19  4  0
 11 25  4  0
 13 14  4  0
 15 16  4  0
 15 17  4  0
 15 21  4  0
 16 24  1  0
 16 25  4  0
 20 24  1  0
 20 26  2  0
 21 23  4  0
 22 23  1  0
M  END
$$$$

 Created by Python create_sdf_string function

 26 28  0  0  0  0  0  0  0  0999 V2000
   12.4616    8.6700   19.4180 N   0  0  0  0  0  0  0  0  0  0  0  0
   11.8329   10.8148   18.6769 N   0  0  0  0  0  0  0  0  0  0  0  0
    6.1021    2.5564   21.0678 C   0  0  0  0  0  0  0  0  0  0  0  0
   10.9097   11.8051   18.4804 C   0  0  0  0  0  0  0  0  0  0  0  0
   11.2280   12.9135   17.5669 C   0  0  0  0  0  0  0  0  0  0  0  0
   12.3782    5.4231   20.7777 C   0  0  0  0  0  0  0  0  0  0  0  0
    7.7365    4.6508   21.6987 C   0  0  0  0  0  0  0  0  0  0  0  0
   13.0186   11.0102   18.0020 C   0  0  0  0  0  0  0  0  0  0  0  0
    8.6628    5.7088   21.8871 N   0  0  0  0  0  0  0  0  0  0  0  0
    5.6516    3.5258   21.9140 C   0  0  0  0  0  0  0  0  0  0  0  0
   11.5863    9.6815   19.4539 C   0  0  0  0  0  0  0  0  0  0  0  0
   12.9648    4.1543   20.9205 C   0  0  0  0  0  0  0  0  0  0  0  0
    8.2089    3.6265   20.8929 C   0  0  0  0  0  0  0  0  0  0  0  0
    7.3827    2.5724   20.5432 C   0  0  0  0  0  0  0  0  0  0  0  0
   11.1529    7.2750   20.8025 C   0  0  0  0  0  0  0  0  0  0  0  0
   10.2573    8.3215   20.9827 C   0  0  0  0  0  0  0  0  0  0  0  0
   11.1606    5.9378   21.2366 N   0  0  0  0  0  0  0  0  0  0  0  0
    9.8932   11.6736   19.0677 O   0  0  0  0  0  0  0  0  0  0  0  0
    6.4470    4.5850   22.2321 C   0  0  0  0  0  0  0  0  0  0  0  0
    8.4619    6.9895   22.2968 C   0  0  0  0  0  0  0  0  0  0  0  0
   12.2747    7.5102   20.0420 C   0  0  0  0  0  0  0  0  0  0  0  0
   14.2544    6.2142   19.4191 C   0  0  0  0  0  0  0  0  0  0  0  0
   13.0695    6.3705   20.0375 N   0  0  0  0  0  0  0  0  0  0  0  0
    9.1913    8.0876   21.8361 N   0  0  0  0  0  0  0  0  0  0  0  0
   10.4739    9.4813   20.2889 C   0  0  0  0  0  0  0  0  0  0  0  0
    7.5551    7.1270   23.1200 O   0  0  0  0  0  0  0  0  0  0  0  0
  1 11  4  0
  1 21  4  0
  2  4  1  0
  2  8  1  0
  2 11  1  0
  3 10  4  0
  3 14  4  0
  4  5  1  0
  4 18  2  0
  6 12  1  0
  6 17  4  0
  6 23  4  0
  7  9  1  0
  7 13  4  0
  7 19  4  0
  9 20  1  0
 10 19  4  0
 11 25  4  0
 13 14  4  0
 15 16  4  0
 15 17  4  0
 15 21  4  0
 16 24  1  0
 16 25  4  0
 20 24  1  0
 20 26  2  0
 21 23  4  0
 22 23  1  0
M  END
$$$$

 Created by Python create_sdf_string function

 26 28  0  0  0  0  0  0  0  0999 V2000
   12.4616    8.6700   19.4180 N   0  0  0  0  0  0  0  0  0  0  0  0
   11.8329   10.8148   18.6769 N   0  0  0  0  0  0  0  0  0  0  0  0
    6.1021    2.5564   21.0678 C   0  0  0  0  0  0  0  0  0  0  0  0
   10.9097   11.8051   18.4804 C   0  0  0  0  0  0  0  0  0  0  0  0
   11.2280   12.9135   17.5669 C   0  0  0  0  0  0  0  0  0  0  0  0
   12.3782    5.4231   20.7777 C   0  0  0  0  0  0  0  0  0  0  0  0
    7.7365    4.6508   21.6987 C   0  0  0  0  0  0  0  0  0  0  0  0
   13.0186   11.0102   18.0020 C   0  0  0  0  0  0  0  0  0  0  0  0
    8.6628    5.7088   21.8871 N   0  0  0  0  0  0  0  0  0  0  0  0
    5.6516    3.5258   21.9140 C   0  0  0  0  0  0  0  0  0  0  0  0
   11.5863    9.6815   19.4539 C   0  0  0  0  0  0  0  0  0  0  0  0
   12.9648    4.1543   20.9205 C   0  0  0  0  0  0  0  0  0  0  0  0
    8.2089    3.6265   20.8929 C   0  0  0  0  0  0  0  0  0  0  0  0
    7.3827    2.5724   20.5432 C   0  0  0  0  0  0  0  0  0  0  0  0
   11.1529    7.2750   20.8025 C   0  0  0  0  0  0  0  0  0  0  0  0
   10.2573    8.3215   20.9827 C   0  0  0  0  0  0  0  0  0  0  0  0
   11.1606    5.9378   21.2366 N   0  0  0  0  0  0  0  0  0  0  0  0
    9.8932   11.6736   19.0677 O   0  0  0  0  0  0  0  0  0  0  0  0
    6.4470    4.5850   22.2321 C   0  0  0  0  0  0  0  0  0  0  0  0
    8.4619    6.9895   22.2968 C   0  0  0  0  0  0  0  0  0  0  0  0
   12.2747    7.5102   20.0420 C   0  0  0  0  0  0  0  0  0  0  0  0
   14.2544    6.2142   19.4191 C   0  0  0  0  0  0  0  0  0  0  0  0
   13.0695    6.3705   20.0375 N   0  0  0  0  0  0  0  0  0  0  0  0
    9.1913    8.0876   21.8361 N   0  0  0  0  0  0  0  0  0  0  0  0
   10.4739    9.4813   20.2889 C   0  0  0  0  0  0  0  0  0  0  0  0
    7.5551    7.1270   23.1200 O   0  0  0  0  0  0  0  0  0  0  0  0
  1 11  4  0
  1 21  4  0
  2  4  1  0
  2  8  1  0
  2 11  1  0
  3 10  4  0
  3 14  4  0
  4  5  1  0
  4 18  2  0
  6 12  1  0
  6 17  4  0
  6 23  4  0
  7  9  1  0
  7 13  4  0
  7 19  4  0
  9 20  1  0
 10 19  4  0
 11 25  4  0
 13 14  4  0
 15 16  4  0
 15 17  4  0
 15 21  4  0
 16 24  1  0
 16 25  4  0
 20 24  1  0
 20 26  2  0
 21 23  4  0
 22 23  1  0
M  END
$$$$

 Created by Python create_sdf_string function

 26 28  0  0  0  0  0  0  0  0999 V2000
   12.4616    8.6700   19.4180 N   0  0  0  0  0  0  0  0  0  0  0  0
   11.8329   10.8148   18.6769 N   0  0  0  0  0  0  0  0  0  0  0  0
    6.1021    2.5564   21.0678 C   0  0  0  0  0  0  0  0  0  0  0  0
   10.9097   11.8051   18.4804 C   0  0  0  0  0  0  0  0  0  0  0  0
   11.2280   12.9135   17.5669 C   0  0  0  0  0  0  0  0  0  0  0  0
   12.3782    5.4231   20.7777 C   0  0  0  0  0  0  0  0  0  0  0  0
    7.7365    4.6508   21.6987 C   0  0  0  0  0  0  0  0  0  0  0  0
   13.0186   11.0102   18.0020 C   0  0  0  0  0  0  0  0  0  0  0  0
    8.6628    5.7088   21.8871 N   0  0  0  0  0  0  0  0  0  0  0  0
    5.6516    3.5258   21.9140 C   0  0  0  0  0  0  0  0  0  0  0  0
   11.5863    9.6815   19.4539 C   0  0  0  0  0  0  0  0  0  0  0  0
   12.9648    4.1543   20.9205 C   0  0  0  0  0  0  0  0  0  0  0  0
    8.2089    3.6265   20.8929 C   0  0  0  0  0  0  0  0  0  0  0  0
    7.3827    2.5724   20.5432 C   0  0  0  0  0  0  0  0  0  0  0  0
   11.1529    7.2750   20.8025 C   0  0  0  0  0  0  0  0  0  0  0  0
   10.2573    8.3215   20.9827 C   0  0  0  0  0  0  0  0  0  0  0  0
   11.1606    5.9378   21.2366 N   0  0  0  0  0  0  0  0  0  0  0  0
    9.8932   11.6736   19.0677 O   0  0  0  0  0  0  0  0  0  0  0  0
    6.4470    4.5850   22.2321 C   0  0  0  0  0  0  0  0  0  0  0  0
    8.4619    6.9895   22.2968 C   0  0  0  0  0  0  0  0  0  0  0  0
   12.2747    7.5102   20.0420 C   0  0  0  0  0  0  0  0  0  0  0  0
   14.2544    6.2142   19.4191 C   0  0  0  0  0  0  0  0  0  0  0  0
   13.0695    6.3705   20.0375 N   0  0  0  0  0  0  0  0  0  0  0  0
    9.1913    8.0876   21.8361 N   0  0  0  0  0  0  0  0  0  0  0  0
   10.4739    9.4813   20.2889 C   0  0  0  0  0  0  0  0  0  0  0  0
    7.5551    7.1270   23.1200 O   0  0  0  0  0  0  0  0  0  0  0  0
  1 11  4  0
  1 21  4  0
  2  4  1  0
  2  8  1  0
  2 11  1  0
  3 10  4  0
  3 14  4  0
  4  5  1  0
  4 18  2  0
  6 12  1  0
  6 17  4  0
  6 23  4  0
  7  9  1  0
  7 13  4  0
  7 19  4  0
  9 20  1  0
 10 19  4  0
 11 25  4  0
 13 14  4  0
 15 16  4  0
 15 17  4  0
 15 21  4  0
 16 24  1  0
 16 25  4  0
 20 24  1  0
 20 26  2  0
 21 23  4  0
 22 23  1  0
M  END
$$$$

 Created by Python create_sdf_string function

 26 28  0  0  0  0  0  0  0  0999 V2000
   12.4616    8.6700   19.4180 N   0  0  0  0  0  0  0  0  0  0  0  0
   11.8329   10.8148   18.6769 N   0  0  0  0  0  0  0  0  0  0  0  0
    6.1021    2.5564   21.0678 C   0  0  0  0  0  0  0  0  0  0  0  0
   10.9097   11.8051   18.4804 C   0  0  0  0  0  0  0  0  0  0  0  0
   11.2280   12.9135   17.5669 C   0  0  0  0  0  0  0  0  0  0  0  0
   12.3782    5.4231   20.7777 C   0  0  0  0  0  0  0  0  0  0  0  0
    7.7365    4.6508   21.6987 C   0  0  0  0  0  0  0  0  0  0  0  0
   13.0186   11.0102   18.0020 C   0  0  0  0  0  0  0  0  0  0  0  0
    8.6628    5.7088   21.8871 N   0  0  0  0  0  0  0  0  0  0  0  0
    5.6516    3.5258   21.9140 C   0  0  0  0  0  0  0  0  0  0  0  0
   11.5863    9.6815   19.4539 C   0  0  0  0  0  0  0  0  0  0  0  0
   12.9648    4.1543   20.9205 C   0  0  0  0  0  0  0  0  0  0  0  0
    8.2089    3.6265   20.8929 C   0  0  0  0  0  0  0  0  0  0  0  0
    7.3827    2.5724   20.5432 C   0  0  0  0  0  0  0  0  0  0  0  0
   11.1529    7.2750   20.8025 C   0  0  0  0  0  0  0  0  0  0  0  0
   10.2573    8.3215   20.9827 C   0  0  0  0  0  0  0  0  0  0  0  0
   11.1606    5.9378   21.2366 N   0  0  0  0  0  0  0  0  0  0  0  0
    9.8932   11.6736   19.0677 O   0  0  0  0  0  0  0  0  0  0  0  0
    6.4470    4.5850   22.2321 C   0  0  0  0  0  0  0  0  0  0  0  0
    8.4619    6.9895   22.2968 C   0  0  0  0  0  0  0  0  0  0  0  0
   12.2747    7.5102   20.0420 C   0  0  0  0  0  0  0  0  0  0  0  0
   14.2544    6.2142   19.4191 C   0  0  0  0  0  0  0  0  0  0  0  0
   13.0695    6.3705   20.0375 N   0  0  0  0  0  0  0  0  0  0  0  0
    9.1913    8.0876   21.8361 N   0  0  0  0  0  0  0  0  0  0  0  0
   10.4739    9.4813   20.2889 C   0  0  0  0  0  0  0  0  0  0  0  0
    7.5551    7.1270   23.1200 O   0  0  0  0  0  0  0  0  0  0  0  0
  1 11  4  0
  1 21  4  0
  2  4  1  0
  2  8  1  0
  2 11  1  0
  3 10  4  0
  3 14  4  0
  4  5  1  0
  4 18  2  0
  6 12  1  0
  6 17  4  0
  6 23  4  0
  7  9  1  0
  7 13  4  0
  7 19  4  0
  9 20  1  0
 10 19  4  0
 11 25  4  0
 13 14  4  0
 15 16  4  0
 15 17  4  0
 15 21  4  0
 16 24  1  0
 16 25  4  0
 20 24  1  0
 20 26  2  0
 21 23  4  0
 22 23  1  0
M  END
$$$$

 Created by Python create_sdf_string function

 26 28  0  0  0  0  0  0  0  0999 V2000
   12.4616    8.6700   19.4180 N   0  0  0  0  0  0  0  0  0  0  0  0
   11.8329   10.8148   18.6769 N   0  0  0  0  0  0  0  0  0  0  0  0
    6.1021    2.5564   21.0678 C   0  0  0  0  0  0  0  0  0  0  0  0
   10.9097   11.8051   18.4804 C   0  0  0  0  0  0  0  0  0  0  0  0
   11.2280   12.9135   17.5669 C   0  0  0  0  0  0  0  0  0  0  0  0
   12.3782    5.4231   20.7777 C   0  0  0  0  0  0  0  0  0  0  0  0
    7.7365    4.6508   21.6987 C   0  0  0  0  0  0  0  0  0  0  0  0
   13.0186   11.0102   18.0020 C   0  0  0  0  0  0  0  0  0  0  0  0
    8.6628    5.7088   21.8871 N   0  0  0  0  0  0  0  0  0  0  0  0
    5.6516    3.5258   21.9140 C   0  0  0  0  0  0  0  0  0  0  0  0
   11.5863    9.6815   19.4539 C   0  0  0  0  0  0  0  0  0  0  0  0
   12.9648    4.1543   20.9205 C   0  0  0  0  0  0  0  0  0  0  0  0
    8.2089    3.6265   20.8929 C   0  0  0  0  0  0  0  0  0  0  0  0
    7.3827    2.5724   20.5432 C   0  0  0  0  0  0  0  0  0  0  0  0
   11.1529    7.2750   20.8025 C   0  0  0  0  0  0  0  0  0  0  0  0
   10.2573    8.3215   20.9827 C   0  0  0  0  0  0  0  0  0  0  0  0
   11.1606    5.9378   21.2366 N   0  0  0  0  0  0  0  0  0  0  0  0
    9.8932   11.6736   19.0677 O   0  0  0  0  0  0  0  0  0  0  0  0
    6.4470    4.5850   22.2321 C   0  0  0  0  0  0  0  0  0  0  0  0
    8.4619    6.9895   22.2968 C   0  0  0  0  0  0  0  0  0  0  0  0
   12.2747    7.5102   20.0420 C   0  0  0  0  0  0  0  0  0  0  0  0
   14.2544    6.2142   19.4191 C   0  0  0  0  0  0  0  0  0  0  0  0
   13.0695    6.3705   20.0375 N   0  0  0  0  0  0  0  0  0  0  0  0
    9.1913    8.0876   21.8361 N   0  0  0  0  0  0  0  0  0  0  0  0
   10.4739    9.4813   20.2889 C   0  0  0  0  0  0  0  0  0  0  0  0
    7.5551    7.1270   23.1200 O   0  0  0  0  0  0  0  0  0  0  0  0
  1 11  4  0
  1 21  4  0
  2  4  1  0
  2  8  1  0
  2 11  1  0
  3 10  4  0
  3 14  4  0
  4  5  1  0
  4 18  2  0
  6 12  1  0
  6 17  4  0
  6 23  4  0
  7  9  1  0
  7 13  4  0
  7 19  4  0
  9 20  1  0
 10 19  4  0
 11 25  4  0
 13 14  4  0
 15 16  4  0
 15 17  4  0
 15 21  4  0
 16 24  1  0
 16 25  4  0
 20 24  1  0
 20 26  2  0
 21 23  4  0
 22 23  1  0
M  END
$$$$

 Created by Python create_sdf_string function

 26 28  0  0  0  0  0  0  0  0999 V2000
   12.4616    8.6700   19.4180 N   0  0  0  0  0  0  0  0  0  0  0  0
   11.8329   10.8148   18.6769 N   0  0  0  0  0  0  0  0  0  0  0  0
    6.1021    2.5564   21.0678 C   0  0  0  0  0  0  0  0  0  0  0  0
   10.9097   11.8051   18.4804 C   0  0  0  0  0  0  0  0  0  0  0  0
   11.2280   12.9135   17.5669 C   0  0  0  0  0  0  0  0  0  0  0  0
   12.3782    5.4231   20.7777 C   0  0  0  0  0  0  0  0  0  0  0  0
    7.7365    4.6508   21.6987 C   0  0  0  0  0  0  0  0  0  0  0  0
   13.0186   11.0102   18.0020 C   0  0  0  0  0  0  0  0  0  0  0  0
    8.6628    5.7088   21.8871 N   0  0  0  0  0  0  0  0  0  0  0  0
    5.6516    3.5258   21.9140 C   0  0  0  0  0  0  0  0  0  0  0  0
   11.5863    9.6815   19.4539 C   0  0  0  0  0  0  0  0  0  0  0  0
   12.9648    4.1543   20.9205 C   0  0  0  0  0  0  0  0  0  0  0  0
    8.2089    3.6265   20.8929 C   0  0  0  0  0  0  0  0  0  0  0  0
    7.3827    2.5724   20.5432 C   0  0  0  0  0  0  0  0  0  0  0  0
   11.1529    7.2750   20.8025 C   0  0  0  0  0  0  0  0  0  0  0  0
   10.2573    8.3215   20.9827 C   0  0  0  0  0  0  0  0  0  0  0  0
   11.1606    5.9378   21.2366 N   0  0  0  0  0  0  0  0  0  0  0  0
    9.8932   11.6736   19.0677 O   0  0  0  0  0  0  0  0  0  0  0  0
    6.4470    4.5850   22.2321 C   0  0  0  0  0  0  0  0  0  0  0  0
    8.4619    6.9895   22.2968 C   0  0  0  0  0  0  0  0  0  0  0  0
   12.2747    7.5102   20.0420 C   0  0  0  0  0  0  0  0  0  0  0  0
   14.2544    6.2142   19.4191 C   0  0  0  0  0  0  0  0  0  0  0  0
   13.0695    6.3705   20.0375 N   0  0  0  0  0  0  0  0  0  0  0  0
    9.1913    8.0876   21.8361 N   0  0  0  0  0  0  0  0  0  0  0  0
   10.4739    9.4813   20.2889 C   0  0  0  0  0  0  0  0  0  0  0  0
    7.5551    7.1270   23.1200 O   0  0  0  0  0  0  0  0  0  0  0  0
  1 11  4  0
  1 21  4  0
  2  4  1  0
  2  8  1  0
  2 11  1  0
  3 10  4  0
  3 14  4  0
  4  5  1  0
  4 18  2  0
  6 12  1  0
  6 17  4  0
  6 23  4  0
  7  9  1  0
  7 13  4  0
  7 19  4  0
  9 20  1  0
 10 19  4  0
 11 25  4  0
 13 14  4  0
 15 16  4  0
 15 17  4  0
 15 21  4  0
 16 24  1  0
 16 25  4  0
 20 24  1  0
 20 26  2  0
 21 23  4  0
 22 23  1  0
M  END
$$$$

 Created by Python create_sdf_string function

 26 28  0  0  0  0  0  0  0  0999 V2000
   12.4616    8.6700   19.4180 N   0  0  0  0  0  0  0  0  0  0  0  0
   11.8329   10.8148   18.6769 N   0  0  0  0  0  0  0  0  0  0  0  0
    6.1021    2.5564   21.0678 C   0  0  0  0  0  0  0  0  0  0  0  0
   10.9097   11.8051   18.4804 C   0  0  0  0  0  0  0  0  0  0  0  0
   11.2280   12.9135   17.5669 C   0  0  0  0  0  0  0  0  0  0  0  0
   12.3782    5.4231   20.7777 C   0  0  0  0  0  0  0  0  0  0  0  0
    7.7365    4.6508   21.6987 C   0  0  0  0  0  0  0  0  0  0  0  0
   13.0186   11.0102   18.0020 C   0  0  0  0  0  0  0  0  0  0  0  0
    8.6628    5.7088   21.8871 N   0  0  0  0  0  0  0  0  0  0  0  0
    5.6516    3.5258   21.9140 C   0  0  0  0  0  0  0  0  0  0  0  0
   11.5863    9.6815   19.4539 C   0  0  0  0  0  0  0  0  0  0  0  0
   12.9648    4.1543   20.9205 C   0  0  0  0  0  0  0  0  0  0  0  0
    8.2089    3.6265   20.8929 C   0  0  0  0  0  0  0  0  0  0  0  0
    7.3827    2.5724   20.5432 C   0  0  0  0  0  0  0  0  0  0  0  0
   11.1529    7.2750   20.8025 C   0  0  0  0  0  0  0  0  0  0  0  0
   10.2573    8.3215   20.9827 C   0  0  0  0  0  0  0  0  0  0  0  0
   11.1606    5.9378   21.2366 N   0  0  0  0  0  0  0  0  0  0  0  0
    9.8932   11.6736   19.0677 O   0  0  0  0  0  0  0  0  0  0  0  0
    6.4470    4.5850   22.2321 C   0  0  0  0  0  0  0  0  0  0  0  0
    8.4619    6.9895   22.2968 C   0  0  0  0  0  0  0  0  0  0  0  0
   12.2747    7.5102   20.0420 C   0  0  0  0  0  0  0  0  0  0  0  0
   14.2544    6.2142   19.4191 C   0  0  0  0  0  0  0  0  0  0  0  0
   13.0695    6.3705   20.0375 N   0  0  0  0  0  0  0  0  0  0  0  0
    9.1913    8.0876   21.8361 N   0  0  0  0  0  0  0  0  0  0  0  0
   10.4739    9.4813   20.2889 C   0  0  0  0  0  0  0  0  0  0  0  0
    7.5551    7.1270   23.1200 O   0  0  0  0  0  0  0  0  0  0  0  0
  1 11  4  0
  1 21  4  0
  2  4  1  0
  2  8  1  0
  2 11  1  0
  3 10  4  0
  3 14  4  0
  4  5  1  0
  4 18  2  0
  6 12  1  0
  6 17  4  0
  6 23  4  0
  7  9  1  0
  7 13  4  0
  7 19  4  0
  9 20  1  0
 10 19  4  0
 11 25  4  0
 13 14  4  0
 15 16  4  0
 15 17  4  0
 15 21  4  0
 16 24  1  0
 16 25  4  0
 20 24  1  0
 20 26  2  0
 21 23  4  0
 22 23  1  0
M  END
$$$$

 Created by Python create_sdf_string function

 26 28  0  0  0  0  0  0  0  0999 V2000
   12.4616    8.6700   19.4180 N   0  0  0  0  0  0  0  0  0  0  0  0
   11.8329   10.8148   18.6769 N   0  0  0  0  0  0  0  0  0  0  0  0
    6.1021    2.5564   21.0678 C   0  0  0  0  0  0  0  0  0  0  0  0
   10.9097   11.8051   18.4804 C   0  0  0  0  0  0  0  0  0  0  0  0
   11.2280   12.9135   17.5669 C   0  0  0  0  0  0  0  0  0  0  0  0
   12.3782    5.4231   20.7777 C   0  0  0  0  0  0  0  0  0  0  0  0
    7.7365    4.6508   21.6987 C   0  0  0  0  0  0  0  0  0  0  0  0
   13.0186   11.0102   18.0020 C   0  0  0  0  0  0  0  0  0  0  0  0
    8.6628    5.7088   21.8871 N   0  0  0  0  0  0  0  0  0  0  0  0
    5.6516    3.5258   21.9140 C   0  0  0  0  0  0  0  0  0  0  0  0
   11.5863    9.6815   19.4539 C   0  0  0  0  0  0  0  0  0  0  0  0
   12.9648    4.1543   20.9205 C   0  0  0  0  0  0  0  0  0  0  0  0
    8.2089    3.6265   20.8929 C   0  0  0  0  0  0  0  0  0  0  0  0
    7.3827    2.5724   20.5432 C   0  0  0  0  0  0  0  0  0  0  0  0
   11.1529    7.2750   20.8025 C   0  0  0  0  0  0  0  0  0  0  0  0
   10.2573    8.3215   20.9827 C   0  0  0  0  0  0  0  0  0  0  0  0
   11.1606    5.9378   21.2366 N   0  0  0  0  0  0  0  0  0  0  0  0
    9.8932   11.6736   19.0677 O   0  0  0  0  0  0  0  0  0  0  0  0
    6.4470    4.5850   22.2321 C   0  0  0  0  0  0  0  0  0  0  0  0
    8.4619    6.9895   22.2968 C   0  0  0  0  0  0  0  0  0  0  0  0
   12.2747    7.5102   20.0420 C   0  0  0  0  0  0  0  0  0  0  0  0
   14.2544    6.2142   19.4191 C   0  0  0  0  0  0  0  0  0  0  0  0
   13.0695    6.3705   20.0375 N   0  0  0  0  0  0  0  0  0  0  0  0
    9.1913    8.0876   21.8361 N   0  0  0  0  0  0  0  0  0  0  0  0
   10.4739    9.4813   20.2889 C   0  0  0  0  0  0  0  0  0  0  0  0
    7.5551    7.1270   23.1200 O   0  0  0  0  0  0  0  0  0  0  0  0
  1 11  4  0
  1 21  4  0
  2  4  1  0
  2  8  1  0
  2 11  1  0
  3 10  4  0
  3 14  4  0
  4  5  1  0
  4 18  2  0
  6 12  1  0
  6 17  4  0
  6 23  4  0
  7  9  1  0
  7 13  4  0
  7 19  4  0
  9 20  1  0
 10 19  4  0
 11 25  4  0
 13 14  4  0
 15 16  4  0
 15 17  4  0
 15 21  4  0
 16 24  1  0
 16 25  4  0
 20 24  1  0
 20 26  2  0
 21 23  4  0
 22 23  1  0
M  END
$$$$

 Created by Python create_sdf_string function

 26 28  0  0  0  0  0  0  0  0999 V2000
   12.4616    8.6700   19.4180 N   0  0  0  0  0  0  0  0  0  0  0  0
   11.8329   10.8148   18.6769 N   0  0  0  0  0  0  0  0  0  0  0  0
    6.1021    2.5564   21.0678 C   0  0  0  0  0  0  0  0  0  0  0  0
   10.9097   11.8051   18.4804 C   0  0  0  0  0  0  0  0  0  0  0  0
   11.2280   12.9135   17.5669 C   0  0  0  0  0  0  0  0  0  0  0  0
   12.3782    5.4231   20.7777 C   0  0  0  0  0  0  0  0  0  0  0  0
    7.7365    4.6508   21.6987 C   0  0  0  0  0  0  0  0  0  0  0  0
   13.0186   11.0102   18.0020 C   0  0  0  0  0  0  0  0  0  0  0  0
    8.6628    5.7088   21.8871 N   0  0  0  0  0  0  0  0  0  0  0  0
    5.6516    3.5258   21.9140 C   0  0  0  0  0  0  0  0  0  0  0  0
   11.5863    9.6815   19.4539 C   0  0  0  0  0  0  0  0  0  0  0  0
   12.9648    4.1543   20.9205 C   0  0  0  0  0  0  0  0  0  0  0  0
    8.2089    3.6265   20.8929 C   0  0  0  0  0  0  0  0  0  0  0  0
    7.3827    2.5724   20.5432 C   0  0  0  0  0  0  0  0  0  0  0  0
   11.1529    7.2750   20.8025 C   0  0  0  0  0  0  0  0  0  0  0  0
   10.2573    8.3215   20.9827 C   0  0  0  0  0  0  0  0  0  0  0  0
   11.1606    5.9378   21.2366 N   0  0  0  0  0  0  0  0  0  0  0  0
    9.8932   11.6736   19.0677 O   0  0  0  0  0  0  0  0  0  0  0  0
    6.4470    4.5850   22.2321 C   0  0  0  0  0  0  0  0  0  0  0  0
    8.4619    6.9895   22.2968 C   0  0  0  0  0  0  0  0  0  0  0  0
   12.2747    7.5102   20.0420 C   0  0  0  0  0  0  0  0  0  0  0  0
   14.2544    6.2142   19.4191 C   0  0  0  0  0  0  0  0  0  0  0  0
   13.0695    6.3705   20.0375 N   0  0  0  0  0  0  0  0  0  0  0  0
    9.1913    8.0876   21.8361 N   0  0  0  0  0  0  0  0  0  0  0  0
   10.4739    9.4813   20.2889 C   0  0  0  0  0  0  0  0  0  0  0  0
    7.5551    7.1270   23.1200 O   0  0  0  0  0  0  0  0  0  0  0  0
  1 11  4  0
  1 21  4  0
  2  4  1  0
  2  8  1  0
  2 11  1  0
  3 10  4  0
  3 14  4  0
  4  5  1  0
  4 18  2  0
  6 12  1  0
  6 17  4  0
  6 23  4  0
  7  9  1  0
  7 13  4  0
  7 19  4  0
  9 20  1  0
 10 19  4  0
 11 25  4  0
 13 14  4  0
 15 16  4  0
 15 17  4  0
 15 21  4  0
 16 24  1  0
 16 25  4  0
 20 24  1  0
 20 26  2  0
 21 23  4  0
 22 23  1  0
M  END
$$$$

 Created by Python create_sdf_string function

 26 28  0  0  0  0  0  0  0  0999 V2000
   12.4616    8.6700   19.4180 N   0  0  0  0  0  0  0  0  0  0  0  0
   11.8329   10.8148   18.6769 N   0  0  0  0  0  0  0  0  0  0  0  0
    6.1021    2.5564   21.0678 C   0  0  0  0  0  0  0  0  0  0  0  0
   10.9097   11.8051   18.4804 C   0  0  0  0  0  0  0  0  0  0  0  0
   11.2280   12.9135   17.5669 C   0  0  0  0  0  0  0  0  0  0  0  0
   12.3782    5.4231   20.7777 C   0  0  0  0  0  0  0  0  0  0  0  0
    7.7365    4.6508   21.6987 C   0  0  0  0  0  0  0  0  0  0  0  0
   13.0186   11.0102   18.0020 C   0  0  0  0  0  0  0  0  0  0  0  0
    8.6628    5.7088   21.8871 N   0  0  0  0  0  0  0  0  0  0  0  0
    5.6516    3.5258   21.9140 C   0  0  0  0  0  0  0  0  0  0  0  0
   11.5863    9.6815   19.4539 C   0  0  0  0  0  0  0  0  0  0  0  0
   12.9648    4.1543   20.9205 C   0  0  0  0  0  0  0  0  0  0  0  0
    8.2089    3.6265   20.8929 C   0  0  0  0  0  0  0  0  0  0  0  0
    7.3827    2.5724   20.5432 C   0  0  0  0  0  0  0  0  0  0  0  0
   11.1529    7.2750   20.8025 C   0  0  0  0  0  0  0  0  0  0  0  0
   10.2573    8.3215   20.9827 C   0  0  0  0  0  0  0  0  0  0  0  0
   11.1606    5.9378   21.2366 N   0  0  0  0  0  0  0  0  0  0  0  0
    9.8932   11.6736   19.0677 O   0  0  0  0  0  0  0  0  0  0  0  0
    6.4470    4.5850   22.2321 C   0  0  0  0  0  0  0  0  0  0  0  0
    8.4619    6.9895   22.2968 C   0  0  0  0  0  0  0  0  0  0  0  0
   12.2747    7.5102   20.0420 C   0  0  0  0  0  0  0  0  0  0  0  0
   14.2544    6.2142   19.4191 C   0  0  0  0  0  0  0  0  0  0  0  0
   13.0695    6.3705   20.0375 N   0  0  0  0  0  0  0  0  0  0  0  0
    9.1913    8.0876   21.8361 N   0  0  0  0  0  0  0  0  0  0  0  0
   10.4739    9.4813   20.2889 C   0  0  0  0  0  0  0  0  0  0  0  0
    7.5551    7.1270   23.1200 O   0  0  0  0  0  0  0  0  0  0  0  0
  1 11  4  0
  1 21  4  0
  2  4  1  0
  2  8  1  0
  2 11  1  0
  3 10  4  0
  3 14  4  0
  4  5  1  0
  4 18  2  0
  6 12  1  0
  6 17  4  0
  6 23  4  0
  7  9  1  0
  7 13  4  0
  7 19  4  0
  9 20  1  0
 10 19  4  0
 11 25  4  0
 13 14  4  0
 15 16  4  0
 15 17  4  0
 15 21  4  0
 16 24  1  0
 16 25  4  0
 20 24  1  0
 20 26  2  0
 21 23  4  0
 22 23  1  0
M  END
$$$$

 Created by Python create_sdf_string function

 26 28  0  0  0  0  0  0  0  0999 V2000
   12.4616    8.6700   19.4180 N   0  0  0  0  0  0  0  0  0  0  0  0
   11.8329   10.8148   18.6769 N   0  0  0  0  0  0  0  0  0  0  0  0
    6.1021    2.5564   21.0678 C   0  0  0  0  0  0  0  0  0  0  0  0
   10.9097   11.8051   18.4804 C   0  0  0  0  0  0  0  0  0  0  0  0
   11.2280   12.9135   17.5669 C   0  0  0  0  0  0  0  0  0  0  0  0
   12.3782    5.4231   20.7777 C   0  0  0  0  0  0  0  0  0  0  0  0
    7.7365    4.6508   21.6987 C   0  0  0  0  0  0  0  0  0  0  0  0
   13.0186   11.0102   18.0020 C   0  0  0  0  0  0  0  0  0  0  0  0
    8.6628    5.7088   21.8871 N   0  0  0  0  0  0  0  0  0  0  0  0
    5.6516    3.5258   21.9140 C   0  0  0  0  0  0  0  0  0  0  0  0
   11.5863    9.6815   19.4539 C   0  0  0  0  0  0  0  0  0  0  0  0
   12.9648    4.1543   20.9205 C   0  0  0  0  0  0  0  0  0  0  0  0
    8.2089    3.6265   20.8929 C   0  0  0  0  0  0  0  0  0  0  0  0
    7.3827    2.5724   20.5432 C   0  0  0  0  0  0  0  0  0  0  0  0
   11.1529    7.2750   20.8025 C   0  0  0  0  0  0  0  0  0  0  0  0
   10.2573    8.3215   20.9827 C   0  0  0  0  0  0  0  0  0  0  0  0
   11.1606    5.9378   21.2366 N   0  0  0  0  0  0  0  0  0  0  0  0
    9.8932   11.6736   19.0677 O   0  0  0  0  0  0  0  0  0  0  0  0
    6.4470    4.5850   22.2321 C   0  0  0  0  0  0  0  0  0  0  0  0
    8.4619    6.9895   22.2968 C   0  0  0  0  0  0  0  0  0  0  0  0
   12.2747    7.5102   20.0420 C   0  0  0  0  0  0  0  0  0  0  0  0
   14.2544    6.2142   19.4191 C   0  0  0  0  0  0  0  0  0  0  0  0
   13.0695    6.3705   20.0375 N   0  0  0  0  0  0  0  0  0  0  0  0
    9.1913    8.0876   21.8361 N   0  0  0  0  0  0  0  0  0  0  0  0
   10.4739    9.4813   20.2889 C   0  0  0  0  0  0  0  0  0  0  0  0
    7.5551    7.1270   23.1200 O   0  0  0  0  0  0  0  0  0  0  0  0
  1 11  4  0
  1 21  4  0
  2  4  1  0
  2  8  1  0
  2 11  1  0
  3 10  4  0
  3 14  4  0
  4  5  1  0
  4 18  2  0
  6 12  1  0
  6 17  4  0
  6 23  4  0
  7  9  1  0
  7 13  4  0
  7 19  4  0
  9 20  1  0
 10 19  4  0
 11 25  4  0
 13 14  4  0
 15 16  4  0
 15 17  4  0
 15 21  4  0
 16 24  1  0
 16 25  4  0
 20 24  1  0
 20 26  2  0
 21 23  4  0
 22 23  1  0
M  END
$$$$

 Created by Python create_sdf_string function

 26 28  0  0  0  0  0  0  0  0999 V2000
   12.4616    8.6700   19.4180 N   0  0  0  0  0  0  0  0  0  0  0  0
   11.8329   10.8148   18.6769 N   0  0  0  0  0  0  0  0  0  0  0  0
    6.1021    2.5564   21.0678 C   0  0  0  0  0  0  0  0  0  0  0  0
   10.9097   11.8051   18.4804 C   0  0  0  0  0  0  0  0  0  0  0  0
   11.2280   12.9135   17.5669 C   0  0  0  0  0  0  0  0  0  0  0  0
   12.3782    5.4231   20.7777 C   0  0  0  0  0  0  0  0  0  0  0  0
    7.7365    4.6508   21.6987 C   0  0  0  0  0  0  0  0  0  0  0  0
   13.0186   11.0102   18.0020 C   0  0  0  0  0  0  0  0  0  0  0  0
    8.6628    5.7088   21.8871 N   0  0  0  0  0  0  0  0  0  0  0  0
    5.6516    3.5258   21.9140 C   0  0  0  0  0  0  0  0  0  0  0  0
   11.5863    9.6815   19.4539 C   0  0  0  0  0  0  0  0  0  0  0  0
   12.9648    4.1543   20.9205 C   0  0  0  0  0  0  0  0  0  0  0  0
    8.2089    3.6265   20.8929 C   0  0  0  0  0  0  0  0  0  0  0  0
    7.3827    2.5724   20.5432 C   0  0  0  0  0  0  0  0  0  0  0  0
   11.1529    7.2750   20.8025 C   0  0  0  0  0  0  0  0  0  0  0  0
   10.2573    8.3215   20.9827 C   0  0  0  0  0  0  0  0  0  0  0  0
   11.1606    5.9378   21.2366 N   0  0  0  0  0  0  0  0  0  0  0  0
    9.8932   11.6736   19.0677 O   0  0  0  0  0  0  0  0  0  0  0  0
    6.4470    4.5850   22.2321 C   0  0  0  0  0  0  0  0  0  0  0  0
    8.4619    6.9895   22.2968 C   0  0  0  0  0  0  0  0  0  0  0  0
   12.2747    7.5102   20.0420 C   0  0  0  0  0  0  0  0  0  0  0  0
   14.2544    6.2142   19.4191 C   0  0  0  0  0  0  0  0  0  0  0  0
   13.0695    6.3705   20.0375 N   0  0  0  0  0  0  0  0  0  0  0  0
    9.1913    8.0876   21.8361 N   0  0  0  0  0  0  0  0  0  0  0  0
   10.4739    9.4813   20.2889 C   0  0  0  0  0  0  0  0  0  0  0  0
    7.5551    7.1270   23.1200 O   0  0  0  0  0  0  0  0  0  0  0  0
  1 11  4  0
  1 21  4  0
  2  4  1  0
  2  8  1  0
  2 11  1  0
  3 10  4  0
  3 14  4  0
  4  5  1  0
  4 18  2  0
  6 12  1  0
  6 17  4  0
  6 23  4  0
  7  9  1  0
  7 13  4  0
  7 19  4  0
  9 20  1  0
 10 19  4  0
 11 25  4  0
 13 14  4  0
 15 16  4  0
 15 17  4  0
 15 21  4  0
 16 24  1  0
 16 25  4  0
 20 24  1  0
 20 26  2  0
 21 23  4  0
 22 23  1  0
M  END
$$$$

 Created by Python create_sdf_string function

 26 28  0  0  0  0  0  0  0  0999 V2000
   12.4616    8.6700   19.4180 N   0  0  0  0  0  0  0  0  0  0  0  0
   11.8329   10.8148   18.6769 N   0  0  0  0  0  0  0  0  0  0  0  0
    6.1021    2.5564   21.0678 C   0  0  0  0  0  0  0  0  0  0  0  0
   10.9097   11.8051   18.4804 C   0  0  0  0  0  0  0  0  0  0  0  0
   11.2280   12.9135   17.5669 C   0  0  0  0  0  0  0  0  0  0  0  0
   12.3782    5.4231   20.7777 C   0  0  0  0  0  0  0  0  0  0  0  0
    7.7365    4.6508   21.6987 C   0  0  0  0  0  0  0  0  0  0  0  0
   13.0186   11.0102   18.0020 C   0  0  0  0  0  0  0  0  0  0  0  0
    8.6628    5.7088   21.8871 N   0  0  0  0  0  0  0  0  0  0  0  0
    5.6516    3.5258   21.9140 C   0  0  0  0  0  0  0  0  0  0  0  0
   11.5863    9.6815   19.4539 C   0  0  0  0  0  0  0  0  0  0  0  0
   12.9648    4.1543   20.9205 C   0  0  0  0  0  0  0  0  0  0  0  0
    8.2089    3.6265   20.8929 C   0  0  0  0  0  0  0  0  0  0  0  0
    7.3827    2.5724   20.5432 C   0  0  0  0  0  0  0  0  0  0  0  0
   11.1529    7.2750   20.8025 C   0  0  0  0  0  0  0  0  0  0  0  0
   10.2573    8.3215   20.9827 C   0  0  0  0  0  0  0  0  0  0  0  0
   11.1606    5.9378   21.2366 N   0  0  0  0  0  0  0  0  0  0  0  0
    9.8932   11.6736   19.0677 O   0  0  0  0  0  0  0  0  0  0  0  0
    6.4470    4.5850   22.2321 C   0  0  0  0  0  0  0  0  0  0  0  0
    8.4619    6.9895   22.2968 C   0  0  0  0  0  0  0  0  0  0  0  0
   12.2747    7.5102   20.0420 C   0  0  0  0  0  0  0  0  0  0  0  0
   14.2544    6.2142   19.4191 C   0  0  0  0  0  0  0  0  0  0  0  0
   13.0695    6.3705   20.0375 N   0  0  0  0  0  0  0  0  0  0  0  0
    9.1913    8.0876   21.8361 N   0  0  0  0  0  0  0  0  0  0  0  0
   10.4739    9.4813   20.2889 C   0  0  0  0  0  0  0  0  0  0  0  0
    7.5551    7.1270   23.1200 O   0  0  0  0  0  0  0  0  0  0  0  0
  1 11  4  0
  1 21  4  0
  2  4  1  0
  2  8  1  0
  2 11  1  0
  3 10  4  0
  3 14  4  0
  4  5  1  0
  4 18  2  0
  6 12  1  0
  6 17  4  0
  6 23  4  0
  7  9  1  0
  7 13  4  0
  7 19  4  0
  9 20  1  0
 10 19  4  0
 11 25  4  0
 13 14  4  0
 15 16  4  0
 15 17  4  0
 15 21  4  0
 16 24  1  0
 16 25  4  0
 20 24  1  0
 20 26  2  0
 21 23  4  0
 22 23  1  0
M  END
$$$$

 Created by Python create_sdf_string function

 26 28  0  0  0  0  0  0  0  0999 V2000
   12.4616    8.6700   19.4180 N   0  0  0  0  0  0  0  0  0  0  0  0
   11.8329   10.8148   18.6769 N   0  0  0  0  0  0  0  0  0  0  0  0
    6.1021    2.5564   21.0678 C   0  0  0  0  0  0  0  0  0  0  0  0
   10.9097   11.8051   18.4804 C   0  0  0  0  0  0  0  0  0  0  0  0
   11.2280   12.9135   17.5669 C   0  0  0  0  0  0  0  0  0  0  0  0
   12.3782    5.4231   20.7777 C   0  0  0  0  0  0  0  0  0  0  0  0
    7.7365    4.6508   21.6987 C   0  0  0  0  0  0  0  0  0  0  0  0
   13.0186   11.0102   18.0020 C   0  0  0  0  0  0  0  0  0  0  0  0
    8.6628    5.7088   21.8871 N   0  0  0  0  0  0  0  0  0  0  0  0
    5.6516    3.5258   21.9140 C   0  0  0  0  0  0  0  0  0  0  0  0
   11.5863    9.6815   19.4539 C   0  0  0  0  0  0  0  0  0  0  0  0
   12.9648    4.1543   20.9205 C   0  0  0  0  0  0  0  0  0  0  0  0
    8.2089    3.6265   20.8929 C   0  0  0  0  0  0  0  0  0  0  0  0
    7.3827    2.5724   20.5432 C   0  0  0  0  0  0  0  0  0  0  0  0
   11.1529    7.2750   20.8025 C   0  0  0  0  0  0  0  0  0  0  0  0
   10.2573    8.3215   20.9827 C   0  0  0  0  0  0  0  0  0  0  0  0
   11.1606    5.9378   21.2366 N   0  0  0  0  0  0  0  0  0  0  0  0
    9.8932   11.6736   19.0677 O   0  0  0  0  0  0  0  0  0  0  0  0
    6.4470    4.5850   22.2321 C   0  0  0  0  0  0  0  0  0  0  0  0
    8.4619    6.9895   22.2968 C   0  0  0  0  0  0  0  0  0  0  0  0
   12.2747    7.5102   20.0420 C   0  0  0  0  0  0  0  0  0  0  0  0
   14.2544    6.2142   19.4191 C   0  0  0  0  0  0  0  0  0  0  0  0
   13.0695    6.3705   20.0375 N   0  0  0  0  0  0  0  0  0  0  0  0
    9.1913    8.0876   21.8361 N   0  0  0  0  0  0  0  0  0  0  0  0
   10.4739    9.4813   20.2889 C   0  0  0  0  0  0  0  0  0  0  0  0
    7.5551    7.1270   23.1200 O   0  0  0  0  0  0  0  0  0  0  0  0
  1 11  4  0
  1 21  4  0
  2  4  1  0
  2  8  1  0
  2 11  1  0
  3 10  4  0
  3 14  4  0
  4  5  1  0
  4 18  2  0
  6 12  1  0
  6 17  4  0
  6 23  4  0
  7  9  1  0
  7 13  4  0
  7 19  4  0
  9 20  1  0
 10 19  4  0
 11 25  4  0
 13 14  4  0
 15 16  4  0
 15 17  4  0
 15 21  4  0
 16 24  1  0
 16 25  4  0
 20 24  1  0
 20 26  2  0
 21 23  4  0
 22 23  1  0
M  END
$$$$

 Created by Python create_sdf_string function

 26 28  0  0  0  0  0  0  0  0999 V2000
   12.4616    8.6700   19.4180 N   0  0  0  0  0  0  0  0  0  0  0  0
   11.8329   10.8148   18.6769 N   0  0  0  0  0  0  0  0  0  0  0  0
    6.1021    2.5564   21.0678 C   0  0  0  0  0  0  0  0  0  0  0  0
   10.9097   11.8051   18.4804 C   0  0  0  0  0  0  0  0  0  0  0  0
   11.2280   12.9135   17.5669 C   0  0  0  0  0  0  0  0  0  0  0  0
   12.3782    5.4231   20.7777 C   0  0  0  0  0  0  0  0  0  0  0  0
    7.7365    4.6508   21.6987 C   0  0  0  0  0  0  0  0  0  0  0  0
   13.0186   11.0102   18.0020 C   0  0  0  0  0  0  0  0  0  0  0  0
    8.6628    5.7088   21.8871 N   0  0  0  0  0  0  0  0  0  0  0  0
    5.6516    3.5258   21.9140 C   0  0  0  0  0  0  0  0  0  0  0  0
   11.5863    9.6815   19.4539 C   0  0  0  0  0  0  0  0  0  0  0  0
   12.9648    4.1543   20.9205 C   0  0  0  0  0  0  0  0  0  0  0  0
    8.2089    3.6265   20.8929 C   0  0  0  0  0  0  0  0  0  0  0  0
    7.3827    2.5724   20.5432 C   0  0  0  0  0  0  0  0  0  0  0  0
   11.1529    7.2750   20.8025 C   0  0  0  0  0  0  0  0  0  0  0  0
   10.2573    8.3215   20.9827 C   0  0  0  0  0  0  0  0  0  0  0  0
   11.1606    5.9378   21.2366 N   0  0  0  0  0  0  0  0  0  0  0  0
    9.8932   11.6736   19.0677 O   0  0  0  0  0  0  0  0  0  0  0  0
    6.4470    4.5850   22.2321 C   0  0  0  0  0  0  0  0  0  0  0  0
    8.4619    6.9895   22.2968 C   0  0  0  0  0  0  0  0  0  0  0  0
   12.2747    7.5102   20.0420 C   0  0  0  0  0  0  0  0  0  0  0  0
   14.2544    6.2142   19.4191 C   0  0  0  0  0  0  0  0  0  0  0  0
   13.0695    6.3705   20.0375 N   0  0  0  0  0  0  0  0  0  0  0  0
    9.1913    8.0876   21.8361 N   0  0  0  0  0  0  0  0  0  0  0  0
   10.4739    9.4813   20.2889 C   0  0  0  0  0  0  0  0  0  0  0  0
    7.5551    7.1270   23.1200 O   0  0  0  0  0  0  0  0  0  0  0  0
  1 11  4  0
  1 21  4  0
  2  4  1  0
  2  8  1  0
  2 11  1  0
  3 10  4  0
  3 14  4  0
  4  5  1  0
  4 18  2  0
  6 12  1  0
  6 17  4  0
  6 23  4  0
  7  9  1  0
  7 13  4  0
  7 19  4  0
  9 20  1  0
 10 19  4  0
 11 25  4  0
 13 14  4  0
 15 16  4  0
 15 17  4  0
 15 21  4  0
 16 24  1  0
 16 25  4  0
 20 24  1  0
 20 26  2  0
 21 23  4  0
 22 23  1  0
M  END
$$$$

 Created by Python create_sdf_string function

 26 28  0  0  0  0  0  0  0  0999 V2000
   12.4616    8.6700   19.4180 N   0  0  0  0  0  0  0  0  0  0  0  0
   11.8329   10.8148   18.6769 N   0  0  0  0  0  0  0  0  0  0  0  0
    6.1021    2.5564   21.0678 C   0  0  0  0  0  0  0  0  0  0  0  0
   10.9097   11.8051   18.4804 C   0  0  0  0  0  0  0  0  0  0  0  0
   11.2280   12.9135   17.5669 C   0  0  0  0  0  0  0  0  0  0  0  0
   12.3782    5.4231   20.7777 C   0  0  0  0  0  0  0  0  0  0  0  0
    7.7365    4.6508   21.6987 C   0  0  0  0  0  0  0  0  0  0  0  0
   13.0186   11.0102   18.0020 C   0  0  0  0  0  0  0  0  0  0  0  0
    8.6628    5.7088   21.8871 N   0  0  0  0  0  0  0  0  0  0  0  0
    5.6516    3.5258   21.9140 C   0  0  0  0  0  0  0  0  0  0  0  0
   11.5863    9.6815   19.4539 C   0  0  0  0  0  0  0  0  0  0  0  0
   12.9648    4.1543   20.9205 C   0  0  0  0  0  0  0  0  0  0  0  0
    8.2089    3.6265   20.8929 C   0  0  0  0  0  0  0  0  0  0  0  0
    7.3827    2.5724   20.5432 C   0  0  0  0  0  0  0  0  0  0  0  0
   11.1529    7.2750   20.8025 C   0  0  0  0  0  0  0  0  0  0  0  0
   10.2573    8.3215   20.9827 C   0  0  0  0  0  0  0  0  0  0  0  0
   11.1606    5.9378   21.2366 N   0  0  0  0  0  0  0  0  0  0  0  0
    9.8932   11.6736   19.0677 O   0  0  0  0  0  0  0  0  0  0  0  0
    6.4470    4.5850   22.2321 C   0  0  0  0  0  0  0  0  0  0  0  0
    8.4619    6.9895   22.2968 C   0  0  0  0  0  0  0  0  0  0  0  0
   12.2747    7.5102   20.0420 C   0  0  0  0  0  0  0  0  0  0  0  0
   14.2544    6.2142   19.4191 C   0  0  0  0  0  0  0  0  0  0  0  0
   13.0695    6.3705   20.0375 N   0  0  0  0  0  0  0  0  0  0  0  0
    9.1913    8.0876   21.8361 N   0  0  0  0  0  0  0  0  0  0  0  0
   10.4739    9.4813   20.2889 C   0  0  0  0  0  0  0  0  0  0  0  0
    7.5551    7.1270   23.1200 O   0  0  0  0  0  0  0  0  0  0  0  0
  1 11  4  0
  1 21  4  0
  2  4  1  0
  2  8  1  0
  2 11  1  0
  3 10  4  0
  3 14  4  0
  4  5  1  0
  4 18  2  0
  6 12  1  0
  6 17  4  0
  6 23  4  0
  7  9  1  0
  7 13  4  0
  7 19  4  0
  9 20  1  0
 10 19  4  0
 11 25  4  0
 13 14  4  0
 15 16  4  0
 15 17  4  0
 15 21  4  0
 16 24  1  0
 16 25  4  0
 20 24  1  0
 20 26  2  0
 21 23  4  0
 22 23  1  0
M  END
$$$$

 Created by Python create_sdf_string function

 26 28  0  0  0  0  0  0  0  0999 V2000
   12.4616    8.6700   19.4180 N   0  0  0  0  0  0  0  0  0  0  0  0
   11.8329   10.8148   18.6769 N   0  0  0  0  0  0  0  0  0  0  0  0
    6.1021    2.5564   21.0678 C   0  0  0  0  0  0  0  0  0  0  0  0
   10.9097   11.8051   18.4804 C   0  0  0  0  0  0  0  0  0  0  0  0
   11.2280   12.9135   17.5669 C   0  0  0  0  0  0  0  0  0  0  0  0
   12.3782    5.4231   20.7777 C   0  0  0  0  0  0  0  0  0  0  0  0
    7.7365    4.6508   21.6987 C   0  0  0  0  0  0  0  0  0  0  0  0
   13.0186   11.0102   18.0020 C   0  0  0  0  0  0  0  0  0  0  0  0
    8.6628    5.7088   21.8871 N   0  0  0  0  0  0  0  0  0  0  0  0
    5.6516    3.5258   21.9140 C   0  0  0  0  0  0  0  0  0  0  0  0
   11.5863    9.6815   19.4539 C   0  0  0  0  0  0  0  0  0  0  0  0
   12.9648    4.1543   20.9205 C   0  0  0  0  0  0  0  0  0  0  0  0
    8.2089    3.6265   20.8929 C   0  0  0  0  0  0  0  0  0  0  0  0
    7.3827    2.5724   20.5432 C   0  0  0  0  0  0  0  0  0  0  0  0
   11.1529    7.2750   20.8025 C   0  0  0  0  0  0  0  0  0  0  0  0
   10.2573    8.3215   20.9827 C   0  0  0  0  0  0  0  0  0  0  0  0
   11.1606    5.9378   21.2366 N   0  0  0  0  0  0  0  0  0  0  0  0
    9.8932   11.6736   19.0677 O   0  0  0  0  0  0  0  0  0  0  0  0
    6.4470    4.5850   22.2321 C   0  0  0  0  0  0  0  0  0  0  0  0
    8.4619    6.9895   22.2968 C   0  0  0  0  0  0  0  0  0  0  0  0
   12.2747    7.5102   20.0420 C   0  0  0  0  0  0  0  0  0  0  0  0
   14.2544    6.2142   19.4191 C   0  0  0  0  0  0  0  0  0  0  0  0
   13.0695    6.3705   20.0375 N   0  0  0  0  0  0  0  0  0  0  0  0
    9.1913    8.0876   21.8361 N   0  0  0  0  0  0  0  0  0  0  0  0
   10.4739    9.4813   20.2889 C   0  0  0  0  0  0  0  0  0  0  0  0
    7.5551    7.1270   23.1200 O   0  0  0  0  0  0  0  0  0  0  0  0
  1 11  4  0
  1 21  4  0
  2  4  1  0
  2  8  1  0
  2 11  1  0
  3 10  4  0
  3 14  4  0
  4  5  1  0
  4 18  2  0
  6 12  1  0
  6 17  4  0
  6 23  4  0
  7  9  1  0
  7 13  4  0
  7 19  4  0
  9 20  1  0
 10 19  4  0
 11 25  4  0
 13 14  4  0
 15 16  4  0
 15 17  4  0
 15 21  4  0
 16 24  1  0
 16 25  4  0
 20 24  1  0
 20 26  2  0
 21 23  4  0
 22 23  1  0
M  END
$$$$

 Created by Python create_sdf_string function

 26 28  0  0  0  0  0  0  0  0999 V2000
   12.4616    8.6700   19.4180 N   0  0  0  0  0  0  0  0  0  0  0  0
   11.8329   10.8148   18.6769 N   0  0  0  0  0  0  0  0  0  0  0  0
    6.1021    2.5564   21.0678 C   0  0  0  0  0  0  0  0  0  0  0  0
   10.9097   11.8051   18.4804 C   0  0  0  0  0  0  0  0  0  0  0  0
   11.2280   12.9135   17.5669 C   0  0  0  0  0  0  0  0  0  0  0  0
   12.3782    5.4231   20.7777 C   0  0  0  0  0  0  0  0  0  0  0  0
    7.7365    4.6508   21.6987 C   0  0  0  0  0  0  0  0  0  0  0  0
   13.0186   11.0102   18.0020 C   0  0  0  0  0  0  0  0  0  0  0  0
    8.6628    5.7088   21.8871 N   0  0  0  0  0  0  0  0  0  0  0  0
    5.6516    3.5258   21.9140 C   0  0  0  0  0  0  0  0  0  0  0  0
   11.5863    9.6815   19.4539 C   0  0  0  0  0  0  0  0  0  0  0  0
   12.9648    4.1543   20.9205 C   0  0  0  0  0  0  0  0  0  0  0  0
    8.2089    3.6265   20.8929 C   0  0  0  0  0  0  0  0  0  0  0  0
    7.3827    2.5724   20.5432 C   0  0  0  0  0  0  0  0  0  0  0  0
   11.1529    7.2750   20.8025 C   0  0  0  0  0  0  0  0  0  0  0  0
   10.2573    8.3215   20.9827 C   0  0  0  0  0  0  0  0  0  0  0  0
   11.1606    5.9378   21.2366 N   0  0  0  0  0  0  0  0  0  0  0  0
    9.8932   11.6736   19.0677 O   0  0  0  0  0  0  0  0  0  0  0  0
    6.4470    4.5850   22.2321 C   0  0  0  0  0  0  0  0  0  0  0  0
    8.4619    6.9895   22.2968 C   0  0  0  0  0  0  0  0  0  0  0  0
   12.2747    7.5102   20.0420 C   0  0  0  0  0  0  0  0  0  0  0  0
   14.2544    6.2142   19.4191 C   0  0  0  0  0  0  0  0  0  0  0  0
   13.0695    6.3705   20.0375 N   0  0  0  0  0  0  0  0  0  0  0  0
    9.1913    8.0876   21.8361 N   0  0  0  0  0  0  0  0  0  0  0  0
   10.4739    9.4813   20.2889 C   0  0  0  0  0  0  0  0  0  0  0  0
    7.5551    7.1270   23.1200 O   0  0  0  0  0  0  0  0  0  0  0  0
  1 11  4  0
  1 21  4  0
  2  4  1  0
  2  8  1  0
  2 11  1  0
  3 10  4  0
  3 14  4  0
  4  5  1  0
  4 18  2  0
  6 12  1  0
  6 17  4  0
  6 23  4  0
  7  9  1  0
  7 13  4  0
  7 19  4  0
  9 20  1  0
 10 19  4  0
 11 25  4  0
 13 14  4  0
 15 16  4  0
 15 17  4  0
 15 21  4  0
 16 24  1  0
 16 25  4  0
 20 24  1  0
 20 26  2  0
 21 23  4  0
 22 23  1  0
M  END
$$$$

 Created by Python create_sdf_string function

 26 28  0  0  0  0  0  0  0  0999 V2000
   12.4616    8.6700   19.4180 N   0  0  0  0  0  0  0  0  0  0  0  0
   11.8329   10.8148   18.6769 N   0  0  0  0  0  0  0  0  0  0  0  0
    6.1021    2.5564   21.0678 C   0  0  0  0  0  0  0  0  0  0  0  0
   10.9097   11.8051   18.4804 C   0  0  0  0  0  0  0  0  0  0  0  0
   11.2280   12.9135   17.5669 C   0  0  0  0  0  0  0  0  0  0  0  0
   12.3782    5.4231   20.7777 C   0  0  0  0  0  0  0  0  0  0  0  0
    7.7365    4.6508   21.6987 C   0  0  0  0  0  0  0  0  0  0  0  0
   13.0186   11.0102   18.0020 C   0  0  0  0  0  0  0  0  0  0  0  0
    8.6628    5.7088   21.8871 N   0  0  0  0  0  0  0  0  0  0  0  0
    5.6516    3.5258   21.9140 C   0  0  0  0  0  0  0  0  0  0  0  0
   11.5863    9.6815   19.4539 C   0  0  0  0  0  0  0  0  0  0  0  0
   12.9648    4.1543   20.9205 C   0  0  0  0  0  0  0  0  0  0  0  0
    8.2089    3.6265   20.8929 C   0  0  0  0  0  0  0  0  0  0  0  0
    7.3827    2.5724   20.5432 C   0  0  0  0  0  0  0  0  0  0  0  0
   11.1529    7.2750   20.8025 C   0  0  0  0  0  0  0  0  0  0  0  0
   10.2573    8.3215   20.9827 C   0  0  0  0  0  0  0  0  0  0  0  0
   11.1606    5.9378   21.2366 N   0  0  0  0  0  0  0  0  0  0  0  0
    9.8932   11.6736   19.0677 O   0  0  0  0  0  0  0  0  0  0  0  0
    6.4470    4.5850   22.2321 C   0  0  0  0  0  0  0  0  0  0  0  0
    8.4619    6.9895   22.2968 C   0  0  0  0  0  0  0  0  0  0  0  0
   12.2747    7.5102   20.0420 C   0  0  0  0  0  0  0  0  0  0  0  0
   14.2544    6.2142   19.4191 C   0  0  0  0  0  0  0  0  0  0  0  0
   13.0695    6.3705   20.0375 N   0  0  0  0  0  0  0  0  0  0  0  0
    9.1913    8.0876   21.8361 N   0  0  0  0  0  0  0  0  0  0  0  0
   10.4739    9.4813   20.2889 C   0  0  0  0  0  0  0  0  0  0  0  0
    7.5551    7.1270   23.1200 O   0  0  0  0  0  0  0  0  0  0  0  0
  1 11  4  0
  1 21  4  0
  2  4  1  0
  2  8  1  0
  2 11  1  0
  3 10  4  0
  3 14  4  0
  4  5  1  0
  4 18  2  0
  6 12  1  0
  6 17  4  0
  6 23  4  0
  7  9  1  0
  7 13  4  0
  7 19  4  0
  9 20  1  0
 10 19  4  0
 11 25  4  0
 13 14  4  0
 15 16  4  0
 15 17  4  0
 15 21  4  0
 16 24  1  0
 16 25  4  0
 20 24  1  0
 20 26  2  0
 21 23  4  0
 22 23  1  0
M  END
$$$$

 Created by Python create_sdf_string function

 26 28  0  0  0  0  0  0  0  0999 V2000
   12.4616    8.6700   19.4180 N   0  0  0  0  0  0  0  0  0  0  0  0
   11.8329   10.8148   18.6769 N   0  0  0  0  0  0  0  0  0  0  0  0
    6.1021    2.5564   21.0678 C   0  0  0  0  0  0  0  0  0  0  0  0
   10.9097   11.8051   18.4804 C   0  0  0  0  0  0  0  0  0  0  0  0
   11.2280   12.9135   17.5669 C   0  0  0  0  0  0  0  0  0  0  0  0
   12.3782    5.4231   20.7777 C   0  0  0  0  0  0  0  0  0  0  0  0
    7.7365    4.6508   21.6987 C   0  0  0  0  0  0  0  0  0  0  0  0
   13.0186   11.0102   18.0020 C   0  0  0  0  0  0  0  0  0  0  0  0
    8.6628    5.7088   21.8871 N   0  0  0  0  0  0  0  0  0  0  0  0
    5.6516    3.5258   21.9140 C   0  0  0  0  0  0  0  0  0  0  0  0
   11.5863    9.6815   19.4539 C   0  0  0  0  0  0  0  0  0  0  0  0
   12.9648    4.1543   20.9205 C   0  0  0  0  0  0  0  0  0  0  0  0
    8.2089    3.6265   20.8929 C   0  0  0  0  0  0  0  0  0  0  0  0
    7.3827    2.5724   20.5432 C   0  0  0  0  0  0  0  0  0  0  0  0
   11.1529    7.2750   20.8025 C   0  0  0  0  0  0  0  0  0  0  0  0
   10.2573    8.3215   20.9827 C   0  0  0  0  0  0  0  0  0  0  0  0
   11.1606    5.9378   21.2366 N   0  0  0  0  0  0  0  0  0  0  0  0
    9.8932   11.6736   19.0677 O   0  0  0  0  0  0  0  0  0  0  0  0
    6.4470    4.5850   22.2321 C   0  0  0  0  0  0  0  0  0  0  0  0
    8.4619    6.9895   22.2968 C   0  0  0  0  0  0  0  0  0  0  0  0
   12.2747    7.5102   20.0420 C   0  0  0  0  0  0  0  0  0  0  0  0
   14.2544    6.2142   19.4191 C   0  0  0  0  0  0  0  0  0  0  0  0
   13.0695    6.3705   20.0375 N   0  0  0  0  0  0  0  0  0  0  0  0
    9.1913    8.0876   21.8361 N   0  0  0  0  0  0  0  0  0  0  0  0
   10.4739    9.4813   20.2889 C   0  0  0  0  0  0  0  0  0  0  0  0
    7.5551    7.1270   23.1200 O   0  0  0  0  0  0  0  0  0  0  0  0
  1 11  4  0
  1 21  4  0
  2  4  1  0
  2  8  1  0
  2 11  1  0
  3 10  4  0
  3 14  4  0
  4  5  1  0
  4 18  2  0
  6 12  1  0
  6 17  4  0
  6 23  4  0
  7  9  1  0
  7 13  4  0
  7 19  4  0
  9 20  1  0
 10 19  4  0
 11 25  4  0
 13 14  4  0
 15 16  4  0
 15 17  4  0
 15 21  4  0
 16 24  1  0
 16 25  4  0
 20 24  1  0
 20 26  2  0
 21 23  4  0
 22 23  1  0
M  END
$$$$

 Created by Python create_sdf_string function

 26 28  0  0  0  0  0  0  0  0999 V2000
   12.4616    8.6700   19.4180 N   0  0  0  0  0  0  0  0  0  0  0  0
   11.8329   10.8148   18.6769 N   0  0  0  0  0  0  0  0  0  0  0  0
    6.1021    2.5564   21.0678 C   0  0  0  0  0  0  0  0  0  0  0  0
   10.9097   11.8051   18.4804 C   0  0  0  0  0  0  0  0  0  0  0  0
   11.2280   12.9135   17.5669 C   0  0  0  0  0  0  0  0  0  0  0  0
   12.3782    5.4231   20.7777 C   0  0  0  0  0  0  0  0  0  0  0  0
    7.7365    4.6508   21.6987 C   0  0  0  0  0  0  0  0  0  0  0  0
   13.0186   11.0102   18.0020 C   0  0  0  0  0  0  0  0  0  0  0  0
    8.6628    5.7088   21.8871 N   0  0  0  0  0  0  0  0  0  0  0  0
    5.6516    3.5258   21.9140 C   0  0  0  0  0  0  0  0  0  0  0  0
   11.5863    9.6815   19.4539 C   0  0  0  0  0  0  0  0  0  0  0  0
   12.9648    4.1543   20.9205 C   0  0  0  0  0  0  0  0  0  0  0  0
    8.2089    3.6265   20.8929 C   0  0  0  0  0  0  0  0  0  0  0  0
    7.3827    2.5724   20.5432 C   0  0  0  0  0  0  0  0  0  0  0  0
   11.1529    7.2750   20.8025 C   0  0  0  0  0  0  0  0  0  0  0  0
   10.2573    8.3215   20.9827 C   0  0  0  0  0  0  0  0  0  0  0  0
   11.1606    5.9378   21.2366 N   0  0  0  0  0  0  0  0  0  0  0  0
    9.8932   11.6736   19.0677 O   0  0  0  0  0  0  0  0  0  0  0  0
    6.4470    4.5850   22.2321 C   0  0  0  0  0  0  0  0  0  0  0  0
    8.4619    6.9895   22.2968 C   0  0  0  0  0  0  0  0  0  0  0  0
   12.2747    7.5102   20.0420 C   0  0  0  0  0  0  0  0  0  0  0  0
   14.2544    6.2142   19.4191 C   0  0  0  0  0  0  0  0  0  0  0  0
   13.0695    6.3705   20.0375 N   0  0  0  0  0  0  0  0  0  0  0  0
    9.1913    8.0876   21.8361 N   0  0  0  0  0  0  0  0  0  0  0  0
   10.4739    9.4813   20.2889 C   0  0  0  0  0  0  0  0  0  0  0  0
    7.5551    7.1270   23.1200 O   0  0  0  0  0  0  0  0  0  0  0  0
  1 11  4  0
  1 21  4  0
  2  4  1  0
  2  8  1  0
  2 11  1  0
  3 10  4  0
  3 14  4  0
  4  5  1  0
  4 18  2  0
  6 12  1  0
  6 17  4  0
  6 23  4  0
  7  9  1  0
  7 13  4  0
  7 19  4  0
  9 20  1  0
 10 19  4  0
 11 25  4  0
 13 14  4  0
 15 16  4  0
 15 17  4  0
 15 21  4  0
 16 24  1  0
 16 25  4  0
 20 24  1  0
 20 26  2  0
 21 23  4  0
 22 23  1  0
M  END
$$$$

 Created by Python create_sdf_string function

 26 28  0  0  0  0  0  0  0  0999 V2000
   12.4616    8.6700   19.4180 N   0  0  0  0  0  0  0  0  0  0  0  0
   11.8329   10.8148   18.6769 N   0  0  0  0  0  0  0  0  0  0  0  0
    6.1021    2.5564   21.0678 C   0  0  0  0  0  0  0  0  0  0  0  0
   10.9097   11.8051   18.4804 C   0  0  0  0  0  0  0  0  0  0  0  0
   11.2280   12.9135   17.5669 C   0  0  0  0  0  0  0  0  0  0  0  0
   12.3782    5.4231   20.7777 C   0  0  0  0  0  0  0  0  0  0  0  0
    7.7365    4.6508   21.6987 C   0  0  0  0  0  0  0  0  0  0  0  0
   13.0186   11.0102   18.0020 C   0  0  0  0  0  0  0  0  0  0  0  0
    8.6628    5.7088   21.8871 N   0  0  0  0  0  0  0  0  0  0  0  0
    5.6516    3.5258   21.9140 C   0  0  0  0  0  0  0  0  0  0  0  0
   11.5863    9.6815   19.4539 C   0  0  0  0  0  0  0  0  0  0  0  0
   12.9648    4.1543   20.9205 C   0  0  0  0  0  0  0  0  0  0  0  0
    8.2089    3.6265   20.8929 C   0  0  0  0  0  0  0  0  0  0  0  0
    7.3827    2.5724   20.5432 C   0  0  0  0  0  0  0  0  0  0  0  0
   11.1529    7.2750   20.8025 C   0  0  0  0  0  0  0  0  0  0  0  0
   10.2573    8.3215   20.9827 C   0  0  0  0  0  0  0  0  0  0  0  0
   11.1606    5.9378   21.2366 N   0  0  0  0  0  0  0  0  0  0  0  0
    9.8932   11.6736   19.0677 O   0  0  0  0  0  0  0  0  0  0  0  0
    6.4470    4.5850   22.2321 C   0  0  0  0  0  0  0  0  0  0  0  0
    8.4619    6.9895   22.2968 C   0  0  0  0  0  0  0  0  0  0  0  0
   12.2747    7.5102   20.0420 C   0  0  0  0  0  0  0  0  0  0  0  0
   14.2544    6.2142   19.4191 C   0  0  0  0  0  0  0  0  0  0  0  0
   13.0695    6.3705   20.0375 N   0  0  0  0  0  0  0  0  0  0  0  0
    9.1913    8.0876   21.8361 N   0  0  0  0  0  0  0  0  0  0  0  0
   10.4739    9.4813   20.2889 C   0  0  0  0  0  0  0  0  0  0  0  0
    7.5551    7.1270   23.1200 O   0  0  0  0  0  0  0  0  0  0  0  0
  1 11  4  0
  1 21  4  0
  2  4  1  0
  2  8  1  0
  2 11  1  0
  3 10  4  0
  3 14  4  0
  4  5  1  0
  4 18  2  0
  6 12  1  0
  6 17  4  0
  6 23  4  0
  7  9  1  0
  7 13  4  0
  7 19  4  0
  9 20  1  0
 10 19  4  0
 11 25  4  0
 13 14  4  0
 15 16  4  0
 15 17  4  0
 15 21  4  0
 16 24  1  0
 16 25  4  0
 20 24  1  0
 20 26  2  0
 21 23  4  0
 22 23  1  0
M  END
$$$$

 Created by Python create_sdf_string function

 26 28  0  0  0  0  0  0  0  0999 V2000
   12.4616    8.6700   19.4180 N   0  0  0  0  0  0  0  0  0  0  0  0
   11.8329   10.8148   18.6769 N   0  0  0  0  0  0  0  0  0  0  0  0
    6.1021    2.5564   21.0678 C   0  0  0  0  0  0  0  0  0  0  0  0
   10.9097   11.8051   18.4804 C   0  0  0  0  0  0  0  0  0  0  0  0
   11.2280   12.9135   17.5669 C   0  0  0  0  0  0  0  0  0  0  0  0
   12.3782    5.4231   20.7777 C   0  0  0  0  0  0  0  0  0  0  0  0
    7.7365    4.6508   21.6987 C   0  0  0  0  0  0  0  0  0  0  0  0
   13.0186   11.0102   18.0020 C   0  0  0  0  0  0  0  0  0  0  0  0
    8.6628    5.7088   21.8871 N   0  0  0  0  0  0  0  0  0  0  0  0
    5.6516    3.5258   21.9140 C   0  0  0  0  0  0  0  0  0  0  0  0
   11.5863    9.6815   19.4539 C   0  0  0  0  0  0  0  0  0  0  0  0
   12.9648    4.1543   20.9205 C   0  0  0  0  0  0  0  0  0  0  0  0
    8.2089    3.6265   20.8929 C   0  0  0  0  0  0  0  0  0  0  0  0
    7.3827    2.5724   20.5432 C   0  0  0  0  0  0  0  0  0  0  0  0
   11.1529    7.2750   20.8025 C   0  0  0  0  0  0  0  0  0  0  0  0
   10.2573    8.3215   20.9827 C   0  0  0  0  0  0  0  0  0  0  0  0
   11.1606    5.9378   21.2366 N   0  0  0  0  0  0  0  0  0  0  0  0
    9.8932   11.6736   19.0677 O   0  0  0  0  0  0  0  0  0  0  0  0
    6.4470    4.5850   22.2321 C   0  0  0  0  0  0  0  0  0  0  0  0
    8.4619    6.9895   22.2968 C   0  0  0  0  0  0  0  0  0  0  0  0
   12.2747    7.5102   20.0420 C   0  0  0  0  0  0  0  0  0  0  0  0
   14.2544    6.2142   19.4191 C   0  0  0  0  0  0  0  0  0  0  0  0
   13.0695    6.3705   20.0375 N   0  0  0  0  0  0  0  0  0  0  0  0
    9.1913    8.0876   21.8361 N   0  0  0  0  0  0  0  0  0  0  0  0
   10.4739    9.4813   20.2889 C   0  0  0  0  0  0  0  0  0  0  0  0
    7.5551    7.1270   23.1200 O   0  0  0  0  0  0  0  0  0  0  0  0
  1 11  4  0
  1 21  4  0
  2  4  1  0
  2  8  1  0
  2 11  1  0
  3 10  4  0
  3 14  4  0
  4  5  1  0
  4 18  2  0
  6 12  1  0
  6 17  4  0
  6 23  4  0
  7  9  1  0
  7 13  4  0
  7 19  4  0
  9 20  1  0
 10 19  4  0
 11 25  4  0
 13 14  4  0
 15 16  4  0
 15 17  4  0
 15 21  4  0
 16 24  1  0
 16 25  4  0
 20 24  1  0
 20 26  2  0
 21 23  4  0
 22 23  1  0
M  END
$$$$

 Created by Python create_sdf_string function

 26 28  0  0  0  0  0  0  0  0999 V2000
   12.4616    8.6700   19.4180 N   0  0  0  0  0  0  0  0  0  0  0  0
   11.8329   10.8148   18.6769 N   0  0  0  0  0  0  0  0  0  0  0  0
    6.1021    2.5564   21.0678 C   0  0  0  0  0  0  0  0  0  0  0  0
   10.9097   11.8051   18.4804 C   0  0  0  0  0  0  0  0  0  0  0  0
   11.2280   12.9135   17.5669 C   0  0  0  0  0  0  0  0  0  0  0  0
   12.3782    5.4231   20.7777 C   0  0  0  0  0  0  0  0  0  0  0  0
    7.7365    4.6508   21.6987 C   0  0  0  0  0  0  0  0  0  0  0  0
   13.0186   11.0102   18.0020 C   0  0  0  0  0  0  0  0  0  0  0  0
    8.6628    5.7088   21.8871 N   0  0  0  0  0  0  0  0  0  0  0  0
    5.6516    3.5258   21.9140 C   0  0  0  0  0  0  0  0  0  0  0  0
   11.5863    9.6815   19.4539 C   0  0  0  0  0  0  0  0  0  0  0  0
   12.9648    4.1543   20.9205 C   0  0  0  0  0  0  0  0  0  0  0  0
    8.2089    3.6265   20.8929 C   0  0  0  0  0  0  0  0  0  0  0  0
    7.3827    2.5724   20.5432 C   0  0  0  0  0  0  0  0  0  0  0  0
   11.1529    7.2750   20.8025 C   0  0  0  0  0  0  0  0  0  0  0  0
   10.2573    8.3215   20.9827 C   0  0  0  0  0  0  0  0  0  0  0  0
   11.1606    5.9378   21.2366 N   0  0  0  0  0  0  0  0  0  0  0  0
    9.8932   11.6736   19.0677 O   0  0  0  0  0  0  0  0  0  0  0  0
    6.4470    4.5850   22.2321 C   0  0  0  0  0  0  0  0  0  0  0  0
    8.4619    6.9895   22.2968 C   0  0  0  0  0  0  0  0  0  0  0  0
   12.2747    7.5102   20.0420 C   0  0  0  0  0  0  0  0  0  0  0  0
   14.2544    6.2142   19.4191 C   0  0  0  0  0  0  0  0  0  0  0  0
   13.0695    6.3705   20.0375 N   0  0  0  0  0  0  0  0  0  0  0  0
    9.1913    8.0876   21.8361 N   0  0  0  0  0  0  0  0  0  0  0  0
   10.4739    9.4813   20.2889 C   0  0  0  0  0  0  0  0  0  0  0  0
    7.5551    7.1270   23.1200 O   0  0  0  0  0  0  0  0  0  0  0  0
  1 11  4  0
  1 21  4  0
  2  4  1  0
  2  8  1  0
  2 11  1  0
  3 10  4  0
  3 14  4  0
  4  5  1  0
  4 18  2  0
  6 12  1  0
  6 17  4  0
  6 23  4  0
  7  9  1  0
  7 13  4  0
  7 19  4  0
  9 20  1  0
 10 19  4  0
 11 25  4  0
 13 14  4  0
 15 16  4  0
 15 17  4  0
 15 21  4  0
 16 24  1  0
 16 25  4  0
 20 24  1  0
 20 26  2  0
 21 23  4  0
 22 23  1  0
M  END
$$$$

 Created by Python create_sdf_string function

 26 28  0  0  0  0  0  0  0  0999 V2000
   12.4616    8.6700   19.4180 N   0  0  0  0  0  0  0  0  0  0  0  0
   11.8329   10.8148   18.6769 N   0  0  0  0  0  0  0  0  0  0  0  0
    6.1021    2.5564   21.0678 C   0  0  0  0  0  0  0  0  0  0  0  0
   10.9097   11.8051   18.4804 C   0  0  0  0  0  0  0  0  0  0  0  0
   11.2280   12.9135   17.5669 C   0  0  0  0  0  0  0  0  0  0  0  0
   12.3782    5.4231   20.7777 C   0  0  0  0  0  0  0  0  0  0  0  0
    7.7365    4.6508   21.6987 C   0  0  0  0  0  0  0  0  0  0  0  0
   13.0186   11.0102   18.0020 C   0  0  0  0  0  0  0  0  0  0  0  0
    8.6628    5.7088   21.8871 N   0  0  0  0  0  0  0  0  0  0  0  0
    5.6516    3.5258   21.9140 C   0  0  0  0  0  0  0  0  0  0  0  0
   11.5863    9.6815   19.4539 C   0  0  0  0  0  0  0  0  0  0  0  0
   12.9648    4.1543   20.9205 C   0  0  0  0  0  0  0  0  0  0  0  0
    8.2089    3.6265   20.8929 C   0  0  0  0  0  0  0  0  0  0  0  0
    7.3827    2.5724   20.5432 C   0  0  0  0  0  0  0  0  0  0  0  0
   11.1529    7.2750   20.8025 C   0  0  0  0  0  0  0  0  0  0  0  0
   10.2573    8.3215   20.9827 C   0  0  0  0  0  0  0  0  0  0  0  0
   11.1606    5.9378   21.2366 N   0  0  0  0  0  0  0  0  0  0  0  0
    9.8932   11.6736   19.0677 O   0  0  0  0  0  0  0  0  0  0  0  0
    6.4470    4.5850   22.2321 C   0  0  0  0  0  0  0  0  0  0  0  0
    8.4619    6.9895   22.2968 C   0  0  0  0  0  0  0  0  0  0  0  0
   12.2747    7.5102   20.0420 C   0  0  0  0  0  0  0  0  0  0  0  0
   14.2544    6.2142   19.4191 C   0  0  0  0  0  0  0  0  0  0  0  0
   13.0695    6.3705   20.0375 N   0  0  0  0  0  0  0  0  0  0  0  0
    9.1913    8.0876   21.8361 N   0  0  0  0  0  0  0  0  0  0  0  0
   10.4739    9.4813   20.2889 C   0  0  0  0  0  0  0  0  0  0  0  0
    7.5551    7.1270   23.1200 O   0  0  0  0  0  0  0  0  0  0  0  0
  1 11  4  0
  1 21  4  0
  2  4  1  0
  2  8  1  0
  2 11  1  0
  3 10  4  0
  3 14  4  0
  4  5  1  0
  4 18  2  0
  6 12  1  0
  6 17  4  0
  6 23  4  0
  7  9  1  0
  7 13  4  0
  7 19  4  0
  9 20  1  0
 10 19  4  0
 11 25  4  0
 13 14  4  0
 15 16  4  0
 15 17  4  0
 15 21  4  0
 16 24  1  0
 16 25  4  0
 20 24  1  0
 20 26  2  0
 21 23  4  0
 22 23  1  0
M  END
$$$$

 Created by Python create_sdf_string function

 26 28  0  0  0  0  0  0  0  0999 V2000
   12.4616    8.6700   19.4180 N   0  0  0  0  0  0  0  0  0  0  0  0
   11.8329   10.8148   18.6769 N   0  0  0  0  0  0  0  0  0  0  0  0
    6.1021    2.5564   21.0678 C   0  0  0  0  0  0  0  0  0  0  0  0
   10.9097   11.8051   18.4804 C   0  0  0  0  0  0  0  0  0  0  0  0
   11.2280   12.9135   17.5669 C   0  0  0  0  0  0  0  0  0  0  0  0
   12.3782    5.4231   20.7777 C   0  0  0  0  0  0  0  0  0  0  0  0
    7.7365    4.6508   21.6987 C   0  0  0  0  0  0  0  0  0  0  0  0
   13.0186   11.0102   18.0020 C   0  0  0  0  0  0  0  0  0  0  0  0
    8.6628    5.7088   21.8871 N   0  0  0  0  0  0  0  0  0  0  0  0
    5.6516    3.5258   21.9140 C   0  0  0  0  0  0  0  0  0  0  0  0
   11.5863    9.6815   19.4539 C   0  0  0  0  0  0  0  0  0  0  0  0
   12.9648    4.1543   20.9205 C   0  0  0  0  0  0  0  0  0  0  0  0
    8.2089    3.6265   20.8929 C   0  0  0  0  0  0  0  0  0  0  0  0
    7.3827    2.5724   20.5432 C   0  0  0  0  0  0  0  0  0  0  0  0
   11.1529    7.2750   20.8025 C   0  0  0  0  0  0  0  0  0  0  0  0
   10.2573    8.3215   20.9827 C   0  0  0  0  0  0  0  0  0  0  0  0
   11.1606    5.9378   21.2366 N   0  0  0  0  0  0  0  0  0  0  0  0
    9.8932   11.6736   19.0677 O   0  0  0  0  0  0  0  0  0  0  0  0
    6.4470    4.5850   22.2321 C   0  0  0  0  0  0  0  0  0  0  0  0
    8.4619    6.9895   22.2968 C   0  0  0  0  0  0  0  0  0  0  0  0
   12.2747    7.5102   20.0420 C   0  0  0  0  0  0  0  0  0  0  0  0
   14.2544    6.2142   19.4191 C   0  0  0  0  0  0  0  0  0  0  0  0
   13.0695    6.3705   20.0375 N   0  0  0  0  0  0  0  0  0  0  0  0
    9.1913    8.0876   21.8361 N   0  0  0  0  0  0  0  0  0  0  0  0
   10.4739    9.4813   20.2889 C   0  0  0  0  0  0  0  0  0  0  0  0
    7.5551    7.1270   23.1200 O   0  0  0  0  0  0  0  0  0  0  0  0
  1 11  4  0
  1 21  4  0
  2  4  1  0
  2  8  1  0
  2 11  1  0
  3 10  4  0
  3 14  4  0
  4  5  1  0
  4 18  2  0
  6 12  1  0
  6 17  4  0
  6 23  4  0
  7  9  1  0
  7 13  4  0
  7 19  4  0
  9 20  1  0
 10 19  4  0
 11 25  4  0
 13 14  4  0
 15 16  4  0
 15 17  4  0
 15 21  4  0
 16 24  1  0
 16 25  4  0
 20 24  1  0
 20 26  2  0
 21 23  4  0
 22 23  1  0
M  END
$$$$

 Created by Python create_sdf_string function

 26 28  0  0  0  0  0  0  0  0999 V2000
   12.4616    8.6700   19.4180 N   0  0  0  0  0  0  0  0  0  0  0  0
   11.8329   10.8148   18.6769 N   0  0  0  0  0  0  0  0  0  0  0  0
    6.1021    2.5564   21.0678 C   0  0  0  0  0  0  0  0  0  0  0  0
   10.9097   11.8051   18.4804 C   0  0  0  0  0  0  0  0  0  0  0  0
   11.2280   12.9135   17.5669 C   0  0  0  0  0  0  0  0  0  0  0  0
   12.3782    5.4231   20.7777 C   0  0  0  0  0  0  0  0  0  0  0  0
    7.7365    4.6508   21.6987 C   0  0  0  0  0  0  0  0  0  0  0  0
   13.0186   11.0102   18.0020 C   0  0  0  0  0  0  0  0  0  0  0  0
    8.6628    5.7088   21.8871 N   0  0  0  0  0  0  0  0  0  0  0  0
    5.6516    3.5258   21.9140 C   0  0  0  0  0  0  0  0  0  0  0  0
   11.5863    9.6815   19.4539 C   0  0  0  0  0  0  0  0  0  0  0  0
   12.9648    4.1543   20.9205 C   0  0  0  0  0  0  0  0  0  0  0  0
    8.2089    3.6265   20.8929 C   0  0  0  0  0  0  0  0  0  0  0  0
    7.3827    2.5724   20.5432 C   0  0  0  0  0  0  0  0  0  0  0  0
   11.1529    7.2750   20.8025 C   0  0  0  0  0  0  0  0  0  0  0  0
   10.2573    8.3215   20.9827 C   0  0  0  0  0  0  0  0  0  0  0  0
   11.1606    5.9378   21.2366 N   0  0  0  0  0  0  0  0  0  0  0  0
    9.8932   11.6736   19.0677 O   0  0  0  0  0  0  0  0  0  0  0  0
    6.4470    4.5850   22.2321 C   0  0  0  0  0  0  0  0  0  0  0  0
    8.4619    6.9895   22.2968 C   0  0  0  0  0  0  0  0  0  0  0  0
   12.2747    7.5102   20.0420 C   0  0  0  0  0  0  0  0  0  0  0  0
   14.2544    6.2142   19.4191 C   0  0  0  0  0  0  0  0  0  0  0  0
   13.0695    6.3705   20.0375 N   0  0  0  0  0  0  0  0  0  0  0  0
    9.1913    8.0876   21.8361 N   0  0  0  0  0  0  0  0  0  0  0  0
   10.4739    9.4813   20.2889 C   0  0  0  0  0  0  0  0  0  0  0  0
    7.5551    7.1270   23.1200 O   0  0  0  0  0  0  0  0  0  0  0  0
  1 11  4  0
  1 21  4  0
  2  4  1  0
  2  8  1  0
  2 11  1  0
  3 10  4  0
  3 14  4  0
  4  5  1  0
  4 18  2  0
  6 12  1  0
  6 17  4  0
  6 23  4  0
  7  9  1  0
  7 13  4  0
  7 19  4  0
  9 20  1  0
 10 19  4  0
 11 25  4  0
 13 14  4  0
 15 16  4  0
 15 17  4  0
 15 21  4  0
 16 24  1  0
 16 25  4  0
 20 24  1  0
 20 26  2  0
 21 23  4  0
 22 23  1  0
M  END
$$$$

 Created by Python create_sdf_string function

 26 28  0  0  0  0  0  0  0  0999 V2000
   12.4616    8.6700   19.4180 N   0  0  0  0  0  0  0  0  0  0  0  0
   11.8329   10.8148   18.6769 N   0  0  0  0  0  0  0  0  0  0  0  0
    6.1021    2.5564   21.0678 C   0  0  0  0  0  0  0  0  0  0  0  0
   10.9097   11.8051   18.4804 C   0  0  0  0  0  0  0  0  0  0  0  0
   11.2280   12.9135   17.5669 C   0  0  0  0  0  0  0  0  0  0  0  0
   12.3782    5.4231   20.7777 C   0  0  0  0  0  0  0  0  0  0  0  0
    7.7365    4.6508   21.6987 C   0  0  0  0  0  0  0  0  0  0  0  0
   13.0186   11.0102   18.0020 C   0  0  0  0  0  0  0  0  0  0  0  0
    8.6628    5.7088   21.8871 N   0  0  0  0  0  0  0  0  0  0  0  0
    5.6516    3.5258   21.9140 C   0  0  0  0  0  0  0  0  0  0  0  0
   11.5863    9.6815   19.4539 C   0  0  0  0  0  0  0  0  0  0  0  0
   12.9648    4.1543   20.9205 C   0  0  0  0  0  0  0  0  0  0  0  0
    8.2089    3.6265   20.8929 C   0  0  0  0  0  0  0  0  0  0  0  0
    7.3827    2.5724   20.5432 C   0  0  0  0  0  0  0  0  0  0  0  0
   11.1529    7.2750   20.8025 C   0  0  0  0  0  0  0  0  0  0  0  0
   10.2573    8.3215   20.9827 C   0  0  0  0  0  0  0  0  0  0  0  0
   11.1606    5.9378   21.2366 N   0  0  0  0  0  0  0  0  0  0  0  0
    9.8932   11.6736   19.0677 O   0  0  0  0  0  0  0  0  0  0  0  0
    6.4470    4.5850   22.2321 C   0  0  0  0  0  0  0  0  0  0  0  0
    8.4619    6.9895   22.2968 C   0  0  0  0  0  0  0  0  0  0  0  0
   12.2747    7.5102   20.0420 C   0  0  0  0  0  0  0  0  0  0  0  0
   14.2544    6.2142   19.4191 C   0  0  0  0  0  0  0  0  0  0  0  0
   13.0695    6.3705   20.0375 N   0  0  0  0  0  0  0  0  0  0  0  0
    9.1913    8.0876   21.8361 N   0  0  0  0  0  0  0  0  0  0  0  0
   10.4739    9.4813   20.2889 C   0  0  0  0  0  0  0  0  0  0  0  0
    7.5551    7.1270   23.1200 O   0  0  0  0  0  0  0  0  0  0  0  0
  1 11  4  0
  1 21  4  0
  2  4  1  0
  2  8  1  0
  2 11  1  0
  3 10  4  0
  3 14  4  0
  4  5  1  0
  4 18  2  0
  6 12  1  0
  6 17  4  0
  6 23  4  0
  7  9  1  0
  7 13  4  0
  7 19  4  0
  9 20  1  0
 10 19  4  0
 11 25  4  0
 13 14  4  0
 15 16  4  0
 15 17  4  0
 15 21  4  0
 16 24  1  0
 16 25  4  0
 20 24  1  0
 20 26  2  0
 21 23  4  0
 22 23  1  0
M  END
$$$$

 Created by Python create_sdf_string function

 26 28  0  0  0  0  0  0  0  0999 V2000
   12.4616    8.6700   19.4180 N   0  0  0  0  0  0  0  0  0  0  0  0
   11.8329   10.8148   18.6769 N   0  0  0  0  0  0  0  0  0  0  0  0
    6.1021    2.5564   21.0678 C   0  0  0  0  0  0  0  0  0  0  0  0
   10.9097   11.8051   18.4804 C   0  0  0  0  0  0  0  0  0  0  0  0
   11.2280   12.9135   17.5669 C   0  0  0  0  0  0  0  0  0  0  0  0
   12.3782    5.4231   20.7777 C   0  0  0  0  0  0  0  0  0  0  0  0
    7.7365    4.6508   21.6987 C   0  0  0  0  0  0  0  0  0  0  0  0
   13.0186   11.0102   18.0020 C   0  0  0  0  0  0  0  0  0  0  0  0
    8.6628    5.7088   21.8871 N   0  0  0  0  0  0  0  0  0  0  0  0
    5.6516    3.5258   21.9140 C   0  0  0  0  0  0  0  0  0  0  0  0
   11.5863    9.6815   19.4539 C   0  0  0  0  0  0  0  0  0  0  0  0
   12.9648    4.1543   20.9205 C   0  0  0  0  0  0  0  0  0  0  0  0
    8.2089    3.6265   20.8929 C   0  0  0  0  0  0  0  0  0  0  0  0
    7.3827    2.5724   20.5432 C   0  0  0  0  0  0  0  0  0  0  0  0
   11.1529    7.2750   20.8025 C   0  0  0  0  0  0  0  0  0  0  0  0
   10.2573    8.3215   20.9827 C   0  0  0  0  0  0  0  0  0  0  0  0
   11.1606    5.9378   21.2366 N   0  0  0  0  0  0  0  0  0  0  0  0
    9.8932   11.6736   19.0677 O   0  0  0  0  0  0  0  0  0  0  0  0
    6.4470    4.5850   22.2321 C   0  0  0  0  0  0  0  0  0  0  0  0
    8.4619    6.9895   22.2968 C   0  0  0  0  0  0  0  0  0  0  0  0
   12.2747    7.5102   20.0420 C   0  0  0  0  0  0  0  0  0  0  0  0
   14.2544    6.2142   19.4191 C   0  0  0  0  0  0  0  0  0  0  0  0
   13.0695    6.3705   20.0375 N   0  0  0  0  0  0  0  0  0  0  0  0
    9.1913    8.0876   21.8361 N   0  0  0  0  0  0  0  0  0  0  0  0
   10.4739    9.4813   20.2889 C   0  0  0  0  0  0  0  0  0  0  0  0
    7.5551    7.1270   23.1200 O   0  0  0  0  0  0  0  0  0  0  0  0
  1 11  4  0
  1 21  4  0
  2  4  1  0
  2  8  1  0
  2 11  1  0
  3 10  4  0
  3 14  4  0
  4  5  1  0
  4 18  2  0
  6 12  1  0
  6 17  4  0
  6 23  4  0
  7  9  1  0
  7 13  4  0
  7 19  4  0
  9 20  1  0
 10 19  4  0
 11 25  4  0
 13 14  4  0
 15 16  4  0
 15 17  4  0
 15 21  4  0
 16 24  1  0
 16 25  4  0
 20 24  1  0
 20 26  2  0
 21 23  4  0
 22 23  1  0
M  END
$$$$

 Created by Python create_sdf_string function

 26 28  0  0  0  0  0  0  0  0999 V2000
   12.4616    8.6700   19.4180 N   0  0  0  0  0  0  0  0  0  0  0  0
   11.8329   10.8148   18.6769 N   0  0  0  0  0  0  0  0  0  0  0  0
    6.1021    2.5564   21.0678 C   0  0  0  0  0  0  0  0  0  0  0  0
   10.9097   11.8051   18.4804 C   0  0  0  0  0  0  0  0  0  0  0  0
   11.2280   12.9135   17.5669 C   0  0  0  0  0  0  0  0  0  0  0  0
   12.3782    5.4231   20.7777 C   0  0  0  0  0  0  0  0  0  0  0  0
    7.7365    4.6508   21.6987 C   0  0  0  0  0  0  0  0  0  0  0  0
   13.0186   11.0102   18.0020 C   0  0  0  0  0  0  0  0  0  0  0  0
    8.6628    5.7088   21.8871 N   0  0  0  0  0  0  0  0  0  0  0  0
    5.6516    3.5258   21.9140 C   0  0  0  0  0  0  0  0  0  0  0  0
   11.5863    9.6815   19.4539 C   0  0  0  0  0  0  0  0  0  0  0  0
   12.9648    4.1543   20.9205 C   0  0  0  0  0  0  0  0  0  0  0  0
    8.2089    3.6265   20.8929 C   0  0  0  0  0  0  0  0  0  0  0  0
    7.3827    2.5724   20.5432 C   0  0  0  0  0  0  0  0  0  0  0  0
   11.1529    7.2750   20.8025 C   0  0  0  0  0  0  0  0  0  0  0  0
   10.2573    8.3215   20.9827 C   0  0  0  0  0  0  0  0  0  0  0  0
   11.1606    5.9378   21.2366 N   0  0  0  0  0  0  0  0  0  0  0  0
    9.8932   11.6736   19.0677 O   0  0  0  0  0  0  0  0  0  0  0  0
    6.4470    4.5850   22.2321 C   0  0  0  0  0  0  0  0  0  0  0  0
    8.4619    6.9895   22.2968 C   0  0  0  0  0  0  0  0  0  0  0  0
   12.2747    7.5102   20.0420 C   0  0  0  0  0  0  0  0  0  0  0  0
   14.2544    6.2142   19.4191 C   0  0  0  0  0  0  0  0  0  0  0  0
   13.0695    6.3705   20.0375 N   0  0  0  0  0  0  0  0  0  0  0  0
    9.1913    8.0876   21.8361 N   0  0  0  0  0  0  0  0  0  0  0  0
   10.4739    9.4813   20.2889 C   0  0  0  0  0  0  0  0  0  0  0  0
    7.5551    7.1270   23.1200 O   0  0  0  0  0  0  0  0  0  0  0  0
  1 11  4  0
  1 21  4  0
  2  4  1  0
  2  8  1  0
  2 11  1  0
  3 10  4  0
  3 14  4  0
  4  5  1  0
  4 18  2  0
  6 12  1  0
  6 17  4  0
  6 23  4  0
  7  9  1  0
  7 13  4  0
  7 19  4  0
  9 20  1  0
 10 19  4  0
 11 25  4  0
 13 14  4  0
 15 16  4  0
 15 17  4  0
 15 21  4  0
 16 24  1  0
 16 25  4  0
 20 24  1  0
 20 26  2  0
 21 23  4  0
 22 23  1  0
M  END
$$$$

 Created by Python create_sdf_string function

 26 28  0  0  0  0  0  0  0  0999 V2000
   12.4616    8.6700   19.4180 N   0  0  0  0  0  0  0  0  0  0  0  0
   11.8329   10.8148   18.6769 N   0  0  0  0  0  0  0  0  0  0  0  0
    6.1021    2.5564   21.0678 C   0  0  0  0  0  0  0  0  0  0  0  0
   10.9097   11.8051   18.4804 C   0  0  0  0  0  0  0  0  0  0  0  0
   11.2280   12.9135   17.5669 C   0  0  0  0  0  0  0  0  0  0  0  0
   12.3782    5.4231   20.7777 C   0  0  0  0  0  0  0  0  0  0  0  0
    7.7365    4.6508   21.6987 C   0  0  0  0  0  0  0  0  0  0  0  0
   13.0186   11.0102   18.0020 C   0  0  0  0  0  0  0  0  0  0  0  0
    8.6628    5.7088   21.8871 N   0  0  0  0  0  0  0  0  0  0  0  0
    5.6516    3.5258   21.9140 C   0  0  0  0  0  0  0  0  0  0  0  0
   11.5863    9.6815   19.4539 C   0  0  0  0  0  0  0  0  0  0  0  0
   12.9648    4.1543   20.9205 C   0  0  0  0  0  0  0  0  0  0  0  0
    8.2089    3.6265   20.8929 C   0  0  0  0  0  0  0  0  0  0  0  0
    7.3827    2.5724   20.5432 C   0  0  0  0  0  0  0  0  0  0  0  0
   11.1529    7.2750   20.8025 C   0  0  0  0  0  0  0  0  0  0  0  0
   10.2573    8.3215   20.9827 C   0  0  0  0  0  0  0  0  0  0  0  0
   11.1606    5.9378   21.2366 N   0  0  0  0  0  0  0  0  0  0  0  0
    9.8932   11.6736   19.0677 O   0  0  0  0  0  0  0  0  0  0  0  0
    6.4470    4.5850   22.2321 C   0  0  0  0  0  0  0  0  0  0  0  0
    8.4619    6.9895   22.2968 C   0  0  0  0  0  0  0  0  0  0  0  0
   12.2747    7.5102   20.0420 C   0  0  0  0  0  0  0  0  0  0  0  0
   14.2544    6.2142   19.4191 C   0  0  0  0  0  0  0  0  0  0  0  0
   13.0695    6.3705   20.0375 N   0  0  0  0  0  0  0  0  0  0  0  0
    9.1913    8.0876   21.8361 N   0  0  0  0  0  0  0  0  0  0  0  0
   10.4739    9.4813   20.2889 C   0  0  0  0  0  0  0  0  0  0  0  0
    7.5551    7.1270   23.1200 O   0  0  0  0  0  0  0  0  0  0  0  0
  1 11  4  0
  1 21  4  0
  2  4  1  0
  2  8  1  0
  2 11  1  0
  3 10  4  0
  3 14  4  0
  4  5  1  0
  4 18  2  0
  6 12  1  0
  6 17  4  0
  6 23  4  0
  7  9  1  0
  7 13  4  0
  7 19  4  0
  9 20  1  0
 10 19  4  0
 11 25  4  0
 13 14  4  0
 15 16  4  0
 15 17  4  0
 15 21  4  0
 16 24  1  0
 16 25  4  0
 20 24  1  0
 20 26  2  0
 21 23  4  0
 22 23  1  0
M  END
$$$$

 Created by Python create_sdf_string function

 26 28  0  0  0  0  0  0  0  0999 V2000
   12.4616    8.6700   19.4180 N   0  0  0  0  0  0  0  0  0  0  0  0
   11.8329   10.8148   18.6769 N   0  0  0  0  0  0  0  0  0  0  0  0
    6.1021    2.5564   21.0678 C   0  0  0  0  0  0  0  0  0  0  0  0
   10.9097   11.8051   18.4804 C   0  0  0  0  0  0  0  0  0  0  0  0
   11.2280   12.9135   17.5669 C   0  0  0  0  0  0  0  0  0  0  0  0
   12.3782    5.4231   20.7777 C   0  0  0  0  0  0  0  0  0  0  0  0
    7.7365    4.6508   21.6987 C   0  0  0  0  0  0  0  0  0  0  0  0
   13.0186   11.0102   18.0020 C   0  0  0  0  0  0  0  0  0  0  0  0
    8.6628    5.7088   21.8871 N   0  0  0  0  0  0  0  0  0  0  0  0
    5.6516    3.5258   21.9140 C   0  0  0  0  0  0  0  0  0  0  0  0
   11.5863    9.6815   19.4539 C   0  0  0  0  0  0  0  0  0  0  0  0
   12.9648    4.1543   20.9205 C   0  0  0  0  0  0  0  0  0  0  0  0
    8.2089    3.6265   20.8929 C   0  0  0  0  0  0  0  0  0  0  0  0
    7.3827    2.5724   20.5432 C   0  0  0  0  0  0  0  0  0  0  0  0
   11.1529    7.2750   20.8025 C   0  0  0  0  0  0  0  0  0  0  0  0
   10.2573    8.3215   20.9827 C   0  0  0  0  0  0  0  0  0  0  0  0
   11.1606    5.9378   21.2366 N   0  0  0  0  0  0  0  0  0  0  0  0
    9.8932   11.6736   19.0677 O   0  0  0  0  0  0  0  0  0  0  0  0
    6.4470    4.5850   22.2321 C   0  0  0  0  0  0  0  0  0  0  0  0
    8.4619    6.9895   22.2968 C   0  0  0  0  0  0  0  0  0  0  0  0
   12.2747    7.5102   20.0420 C   0  0  0  0  0  0  0  0  0  0  0  0
   14.2544    6.2142   19.4191 C   0  0  0  0  0  0  0  0  0  0  0  0
   13.0695    6.3705   20.0375 N   0  0  0  0  0  0  0  0  0  0  0  0
    9.1913    8.0876   21.8361 N   0  0  0  0  0  0  0  0  0  0  0  0
   10.4739    9.4813   20.2889 C   0  0  0  0  0  0  0  0  0  0  0  0
    7.5551    7.1270   23.1200 O   0  0  0  0  0  0  0  0  0  0  0  0
  1 11  4  0
  1 21  4  0
  2  4  1  0
  2  8  1  0
  2 11  1  0
  3 10  4  0
  3 14  4  0
  4  5  1  0
  4 18  2  0
  6 12  1  0
  6 17  4  0
  6 23  4  0
  7  9  1  0
  7 13  4  0
  7 19  4  0
  9 20  1  0
 10 19  4  0
 11 25  4  0
 13 14  4  0
 15 16  4  0
 15 17  4  0
 15 21  4  0
 16 24  1  0
 16 25  4  0
 20 24  1  0
 20 26  2  0
 21 23  4  0
 22 23  1  0
M  END
$$$$

 Created by Python create_sdf_string function

 26 28  0  0  0  0  0  0  0  0999 V2000
   12.4616    8.6700   19.4180 N   0  0  0  0  0  0  0  0  0  0  0  0
   11.8329   10.8148   18.6769 N   0  0  0  0  0  0  0  0  0  0  0  0
    6.1021    2.5564   21.0678 C   0  0  0  0  0  0  0  0  0  0  0  0
   10.9097   11.8051   18.4804 C   0  0  0  0  0  0  0  0  0  0  0  0
   11.2280   12.9135   17.5669 C   0  0  0  0  0  0  0  0  0  0  0  0
   12.3782    5.4231   20.7777 C   0  0  0  0  0  0  0  0  0  0  0  0
    7.7365    4.6508   21.6987 C   0  0  0  0  0  0  0  0  0  0  0  0
   13.0186   11.0102   18.0020 C   0  0  0  0  0  0  0  0  0  0  0  0
    8.6628    5.7088   21.8871 N   0  0  0  0  0  0  0  0  0  0  0  0
    5.6516    3.5258   21.9140 C   0  0  0  0  0  0  0  0  0  0  0  0
   11.5863    9.6815   19.4539 C   0  0  0  0  0  0  0  0  0  0  0  0
   12.9648    4.1543   20.9205 C   0  0  0  0  0  0  0  0  0  0  0  0
    8.2089    3.6265   20.8929 C   0  0  0  0  0  0  0  0  0  0  0  0
    7.3827    2.5724   20.5432 C   0  0  0  0  0  0  0  0  0  0  0  0
   11.1529    7.2750   20.8025 C   0  0  0  0  0  0  0  0  0  0  0  0
   10.2573    8.3215   20.9827 C   0  0  0  0  0  0  0  0  0  0  0  0
   11.1606    5.9378   21.2366 N   0  0  0  0  0  0  0  0  0  0  0  0
    9.8932   11.6736   19.0677 O   0  0  0  0  0  0  0  0  0  0  0  0
    6.4470    4.5850   22.2321 C   0  0  0  0  0  0  0  0  0  0  0  0
    8.4619    6.9895   22.2968 C   0  0  0  0  0  0  0  0  0  0  0  0
   12.2747    7.5102   20.0420 C   0  0  0  0  0  0  0  0  0  0  0  0
   14.2544    6.2142   19.4191 C   0  0  0  0  0  0  0  0  0  0  0  0
   13.0695    6.3705   20.0375 N   0  0  0  0  0  0  0  0  0  0  0  0
    9.1913    8.0876   21.8361 N   0  0  0  0  0  0  0  0  0  0  0  0
   10.4739    9.4813   20.2889 C   0  0  0  0  0  0  0  0  0  0  0  0
    7.5551    7.1270   23.1200 O   0  0  0  0  0  0  0  0  0  0  0  0
  1 11  4  0
  1 21  4  0
  2  4  1  0
  2  8  1  0
  2 11  1  0
  3 10  4  0
  3 14  4  0
  4  5  1  0
  4 18  2  0
  6 12  1  0
  6 17  4  0
  6 23  4  0
  7  9  1  0
  7 13  4  0
  7 19  4  0
  9 20  1  0
 10 19  4  0
 11 25  4  0
 13 14  4  0
 15 16  4  0
 15 17  4  0
 15 21  4  0
 16 24  1  0
 16 25  4  0
 20 24  1  0
 20 26  2  0
 21 23  4  0
 22 23  1  0
M  END
$$$$

 Created by Python create_sdf_string function

 26 28  0  0  0  0  0  0  0  0999 V2000
   12.4616    8.6700   19.4180 N   0  0  0  0  0  0  0  0  0  0  0  0
   11.8329   10.8148   18.6769 N   0  0  0  0  0  0  0  0  0  0  0  0
    6.1021    2.5564   21.0678 C   0  0  0  0  0  0  0  0  0  0  0  0
   10.9097   11.8051   18.4804 C   0  0  0  0  0  0  0  0  0  0  0  0
   11.2280   12.9135   17.5669 C   0  0  0  0  0  0  0  0  0  0  0  0
   12.3782    5.4231   20.7777 C   0  0  0  0  0  0  0  0  0  0  0  0
    7.7365    4.6508   21.6987 C   0  0  0  0  0  0  0  0  0  0  0  0
   13.0186   11.0102   18.0020 C   0  0  0  0  0  0  0  0  0  0  0  0
    8.6628    5.7088   21.8871 N   0  0  0  0  0  0  0  0  0  0  0  0
    5.6516    3.5258   21.9140 C   0  0  0  0  0  0  0  0  0  0  0  0
   11.5863    9.6815   19.4539 C   0  0  0  0  0  0  0  0  0  0  0  0
   12.9648    4.1543   20.9205 C   0  0  0  0  0  0  0  0  0  0  0  0
    8.2089    3.6265   20.8929 C   0  0  0  0  0  0  0  0  0  0  0  0
    7.3827    2.5724   20.5432 C   0  0  0  0  0  0  0  0  0  0  0  0
   11.1529    7.2750   20.8025 C   0  0  0  0  0  0  0  0  0  0  0  0
   10.2573    8.3215   20.9827 C   0  0  0  0  0  0  0  0  0  0  0  0
   11.1606    5.9378   21.2366 N   0  0  0  0  0  0  0  0  0  0  0  0
    9.8932   11.6736   19.0677 O   0  0  0  0  0  0  0  0  0  0  0  0
    6.4470    4.5850   22.2321 C   0  0  0  0  0  0  0  0  0  0  0  0
    8.4619    6.9895   22.2968 C   0  0  0  0  0  0  0  0  0  0  0  0
   12.2747    7.5102   20.0420 C   0  0  0  0  0  0  0  0  0  0  0  0
   14.2544    6.2142   19.4191 C   0  0  0  0  0  0  0  0  0  0  0  0
   13.0695    6.3705   20.0375 N   0  0  0  0  0  0  0  0  0  0  0  0
    9.1913    8.0876   21.8361 N   0  0  0  0  0  0  0  0  0  0  0  0
   10.4739    9.4813   20.2889 C   0  0  0  0  0  0  0  0  0  0  0  0
    7.5551    7.1270   23.1200 O   0  0  0  0  0  0  0  0  0  0  0  0
  1 11  4  0
  1 21  4  0
  2  4  1  0
  2  8  1  0
  2 11  1  0
  3 10  4  0
  3 14  4  0
  4  5  1  0
  4 18  2  0
  6 12  1  0
  6 17  4  0
  6 23  4  0
  7  9  1  0
  7 13  4  0
  7 19  4  0
  9 20  1  0
 10 19  4  0
 11 25  4  0
 13 14  4  0
 15 16  4  0
 15 17  4  0
 15 21  4  0
 16 24  1  0
 16 25  4  0
 20 24  1  0
 20 26  2  0
 21 23  4  0
 22 23  1  0
M  END
$$$$

 Created by Python create_sdf_string function

 26 28  0  0  0  0  0  0  0  0999 V2000
   12.4616    8.6700   19.4180 N   0  0  0  0  0  0  0  0  0  0  0  0
   11.8329   10.8148   18.6769 N   0  0  0  0  0  0  0  0  0  0  0  0
    6.1021    2.5564   21.0678 C   0  0  0  0  0  0  0  0  0  0  0  0
   10.9097   11.8051   18.4804 C   0  0  0  0  0  0  0  0  0  0  0  0
   11.2280   12.9135   17.5669 C   0  0  0  0  0  0  0  0  0  0  0  0
   12.3782    5.4231   20.7777 C   0  0  0  0  0  0  0  0  0  0  0  0
    7.7365    4.6508   21.6987 C   0  0  0  0  0  0  0  0  0  0  0  0
   13.0186   11.0102   18.0020 C   0  0  0  0  0  0  0  0  0  0  0  0
    8.6628    5.7088   21.8871 N   0  0  0  0  0  0  0  0  0  0  0  0
    5.6516    3.5258   21.9140 C   0  0  0  0  0  0  0  0  0  0  0  0
   11.5863    9.6815   19.4539 C   0  0  0  0  0  0  0  0  0  0  0  0
   12.9648    4.1543   20.9205 C   0  0  0  0  0  0  0  0  0  0  0  0
    8.2089    3.6265   20.8929 C   0  0  0  0  0  0  0  0  0  0  0  0
    7.3827    2.5724   20.5432 C   0  0  0  0  0  0  0  0  0  0  0  0
   11.1529    7.2750   20.8025 C   0  0  0  0  0  0  0  0  0  0  0  0
   10.2573    8.3215   20.9827 C   0  0  0  0  0  0  0  0  0  0  0  0
   11.1606    5.9378   21.2366 N   0  0  0  0  0  0  0  0  0  0  0  0
    9.8932   11.6736   19.0677 O   0  0  0  0  0  0  0  0  0  0  0  0
    6.4470    4.5850   22.2321 C   0  0  0  0  0  0  0  0  0  0  0  0
    8.4619    6.9895   22.2968 C   0  0  0  0  0  0  0  0  0  0  0  0
   12.2747    7.5102   20.0420 C   0  0  0  0  0  0  0  0  0  0  0  0
   14.2544    6.2142   19.4191 C   0  0  0  0  0  0  0  0  0  0  0  0
   13.0695    6.3705   20.0375 N   0  0  0  0  0  0  0  0  0  0  0  0
    9.1913    8.0876   21.8361 N   0  0  0  0  0  0  0  0  0  0  0  0
   10.4739    9.4813   20.2889 C   0  0  0  0  0  0  0  0  0  0  0  0
    7.5551    7.1270   23.1200 O   0  0  0  0  0  0  0  0  0  0  0  0
  1 11  4  0
  1 21  4  0
  2  4  1  0
  2  8  1  0
  2 11  1  0
  3 10  4  0
  3 14  4  0
  4  5  1  0
  4 18  2  0
  6 12  1  0
  6 17  4  0
  6 23  4  0
  7  9  1  0
  7 13  4  0
  7 19  4  0
  9 20  1  0
 10 19  4  0
 11 25  4  0
 13 14  4  0
 15 16  4  0
 15 17  4  0
 15 21  4  0
 16 24  1  0
 16 25  4  0
 20 24  1  0
 20 26  2  0
 21 23  4  0
 22 23  1  0
M  END
$$$$

 Created by Python create_sdf_string function

 26 28  0  0  0  0  0  0  0  0999 V2000
   12.4616    8.6700   19.4180 N   0  0  0  0  0  0  0  0  0  0  0  0
   11.8329   10.8148   18.6769 N   0  0  0  0  0  0  0  0  0  0  0  0
    6.1021    2.5564   21.0678 C   0  0  0  0  0  0  0  0  0  0  0  0
   10.9097   11.8051   18.4804 C   0  0  0  0  0  0  0  0  0  0  0  0
   11.2280   12.9135   17.5669 C   0  0  0  0  0  0  0  0  0  0  0  0
   12.3782    5.4231   20.7777 C   0  0  0  0  0  0  0  0  0  0  0  0
    7.7365    4.6508   21.6987 C   0  0  0  0  0  0  0  0  0  0  0  0
   13.0186   11.0102   18.0020 C   0  0  0  0  0  0  0  0  0  0  0  0
    8.6628    5.7088   21.8871 N   0  0  0  0  0  0  0  0  0  0  0  0
    5.6516    3.5258   21.9140 C   0  0  0  0  0  0  0  0  0  0  0  0
   11.5863    9.6815   19.4539 C   0  0  0  0  0  0  0  0  0  0  0  0
   12.9648    4.1543   20.9205 C   0  0  0  0  0  0  0  0  0  0  0  0
    8.2089    3.6265   20.8929 C   0  0  0  0  0  0  0  0  0  0  0  0
    7.3827    2.5724   20.5432 C   0  0  0  0  0  0  0  0  0  0  0  0
   11.1529    7.2750   20.8025 C   0  0  0  0  0  0  0  0  0  0  0  0
   10.2573    8.3215   20.9827 C   0  0  0  0  0  0  0  0  0  0  0  0
   11.1606    5.9378   21.2366 N   0  0  0  0  0  0  0  0  0  0  0  0
    9.8932   11.6736   19.0677 O   0  0  0  0  0  0  0  0  0  0  0  0
    6.4470    4.5850   22.2321 C   0  0  0  0  0  0  0  0  0  0  0  0
    8.4619    6.9895   22.2968 C   0  0  0  0  0  0  0  0  0  0  0  0
   12.2747    7.5102   20.0420 C   0  0  0  0  0  0  0  0  0  0  0  0
   14.2544    6.2142   19.4191 C   0  0  0  0  0  0  0  0  0  0  0  0
   13.0695    6.3705   20.0375 N   0  0  0  0  0  0  0  0  0  0  0  0
    9.1913    8.0876   21.8361 N   0  0  0  0  0  0  0  0  0  0  0  0
   10.4739    9.4813   20.2889 C   0  0  0  0  0  0  0  0  0  0  0  0
    7.5551    7.1270   23.1200 O   0  0  0  0  0  0  0  0  0  0  0  0
  1 11  4  0
  1 21  4  0
  2  4  1  0
  2  8  1  0
  2 11  1  0
  3 10  4  0
  3 14  4  0
  4  5  1  0
  4 18  2  0
  6 12  1  0
  6 17  4  0
  6 23  4  0
  7  9  1  0
  7 13  4  0
  7 19  4  0
  9 20  1  0
 10 19  4  0
 11 25  4  0
 13 14  4  0
 15 16  4  0
 15 17  4  0
 15 21  4  0
 16 24  1  0
 16 25  4  0
 20 24  1  0
 20 26  2  0
 21 23  4  0
 22 23  1  0
M  END
$$$$

 Created by Python create_sdf_string function

 26 28  0  0  0  0  0  0  0  0999 V2000
   12.4616    8.6700   19.4180 N   0  0  0  0  0  0  0  0  0  0  0  0
   11.8329   10.8148   18.6769 N   0  0  0  0  0  0  0  0  0  0  0  0
    6.1021    2.5564   21.0678 C   0  0  0  0  0  0  0  0  0  0  0  0
   10.9097   11.8051   18.4804 C   0  0  0  0  0  0  0  0  0  0  0  0
   11.2280   12.9135   17.5669 C   0  0  0  0  0  0  0  0  0  0  0  0
   12.3782    5.4231   20.7777 C   0  0  0  0  0  0  0  0  0  0  0  0
    7.7365    4.6508   21.6987 C   0  0  0  0  0  0  0  0  0  0  0  0
   13.0186   11.0102   18.0020 C   0  0  0  0  0  0  0  0  0  0  0  0
    8.6628    5.7088   21.8871 N   0  0  0  0  0  0  0  0  0  0  0  0
    5.6516    3.5258   21.9140 C   0  0  0  0  0  0  0  0  0  0  0  0
   11.5863    9.6815   19.4539 C   0  0  0  0  0  0  0  0  0  0  0  0
   12.9648    4.1543   20.9205 C   0  0  0  0  0  0  0  0  0  0  0  0
    8.2089    3.6265   20.8929 C   0  0  0  0  0  0  0  0  0  0  0  0
    7.3827    2.5724   20.5432 C   0  0  0  0  0  0  0  0  0  0  0  0
   11.1529    7.2750   20.8025 C   0  0  0  0  0  0  0  0  0  0  0  0
   10.2573    8.3215   20.9827 C   0  0  0  0  0  0  0  0  0  0  0  0
   11.1606    5.9378   21.2366 N   0  0  0  0  0  0  0  0  0  0  0  0
    9.8932   11.6736   19.0677 O   0  0  0  0  0  0  0  0  0  0  0  0
    6.4470    4.5850   22.2321 C   0  0  0  0  0  0  0  0  0  0  0  0
    8.4619    6.9895   22.2968 C   0  0  0  0  0  0  0  0  0  0  0  0
   12.2747    7.5102   20.0420 C   0  0  0  0  0  0  0  0  0  0  0  0
   14.2544    6.2142   19.4191 C   0  0  0  0  0  0  0  0  0  0  0  0
   13.0695    6.3705   20.0375 N   0  0  0  0  0  0  0  0  0  0  0  0
    9.1913    8.0876   21.8361 N   0  0  0  0  0  0  0  0  0  0  0  0
   10.4739    9.4813   20.2889 C   0  0  0  0  0  0  0  0  0  0  0  0
    7.5551    7.1270   23.1200 O   0  0  0  0  0  0  0  0  0  0  0  0
  1 11  4  0
  1 21  4  0
  2  4  1  0
  2  8  1  0
  2 11  1  0
  3 10  4  0
  3 14  4  0
  4  5  1  0
  4 18  2  0
  6 12  1  0
  6 17  4  0
  6 23  4  0
  7  9  1  0
  7 13  4  0
  7 19  4  0
  9 20  1  0
 10 19  4  0
 11 25  4  0
 13 14  4  0
 15 16  4  0
 15 17  4  0
 15 21  4  0
 16 24  1  0
 16 25  4  0
 20 24  1  0
 20 26  2  0
 21 23  4  0
 22 23  1  0
M  END
$$$$

 Created by Python create_sdf_string function

 26 28  0  0  0  0  0  0  0  0999 V2000
   12.4616    8.6700   19.4180 N   0  0  0  0  0  0  0  0  0  0  0  0
   11.8329   10.8148   18.6769 N   0  0  0  0  0  0  0  0  0  0  0  0
    6.1021    2.5564   21.0678 C   0  0  0  0  0  0  0  0  0  0  0  0
   10.9097   11.8051   18.4804 C   0  0  0  0  0  0  0  0  0  0  0  0
   11.2280   12.9135   17.5669 C   0  0  0  0  0  0  0  0  0  0  0  0
   12.3782    5.4231   20.7777 C   0  0  0  0  0  0  0  0  0  0  0  0
    7.7365    4.6508   21.6987 C   0  0  0  0  0  0  0  0  0  0  0  0
   13.0186   11.0102   18.0020 C   0  0  0  0  0  0  0  0  0  0  0  0
    8.6628    5.7088   21.8871 N   0  0  0  0  0  0  0  0  0  0  0  0
    5.6516    3.5258   21.9140 C   0  0  0  0  0  0  0  0  0  0  0  0
   11.5863    9.6815   19.4539 C   0  0  0  0  0  0  0  0  0  0  0  0
   12.9648    4.1543   20.9205 C   0  0  0  0  0  0  0  0  0  0  0  0
    8.2089    3.6265   20.8929 C   0  0  0  0  0  0  0  0  0  0  0  0
    7.3827    2.5724   20.5432 C   0  0  0  0  0  0  0  0  0  0  0  0
   11.1529    7.2750   20.8025 C   0  0  0  0  0  0  0  0  0  0  0  0
   10.2573    8.3215   20.9827 C   0  0  0  0  0  0  0  0  0  0  0  0
   11.1606    5.9378   21.2366 N   0  0  0  0  0  0  0  0  0  0  0  0
    9.8932   11.6736   19.0677 O   0  0  0  0  0  0  0  0  0  0  0  0
    6.4470    4.5850   22.2321 C   0  0  0  0  0  0  0  0  0  0  0  0
    8.4619    6.9895   22.2968 C   0  0  0  0  0  0  0  0  0  0  0  0
   12.2747    7.5102   20.0420 C   0  0  0  0  0  0  0  0  0  0  0  0
   14.2544    6.2142   19.4191 C   0  0  0  0  0  0  0  0  0  0  0  0
   13.0695    6.3705   20.0375 N   0  0  0  0  0  0  0  0  0  0  0  0
    9.1913    8.0876   21.8361 N   0  0  0  0  0  0  0  0  0  0  0  0
   10.4739    9.4813   20.2889 C   0  0  0  0  0  0  0  0  0  0  0  0
    7.5551    7.1270   23.1200 O   0  0  0  0  0  0  0  0  0  0  0  0
  1 11  4  0
  1 21  4  0
  2  4  1  0
  2  8  1  0
  2 11  1  0
  3 10  4  0
  3 14  4  0
  4  5  1  0
  4 18  2  0
  6 12  1  0
  6 17  4  0
  6 23  4  0
  7  9  1  0
  7 13  4  0
  7 19  4  0
  9 20  1  0
 10 19  4  0
 11 25  4  0
 13 14  4  0
 15 16  4  0
 15 17  4  0
 15 21  4  0
 16 24  1  0
 16 25  4  0
 20 24  1  0
 20 26  2  0
 21 23  4  0
 22 23  1  0
M  END
$$$$

 Created by Python create_sdf_string function

 26 28  0  0  0  0  0  0  0  0999 V2000
   12.4616    8.6700   19.4180 N   0  0  0  0  0  0  0  0  0  0  0  0
   11.8329   10.8148   18.6769 N   0  0  0  0  0  0  0  0  0  0  0  0
    6.1021    2.5564   21.0678 C   0  0  0  0  0  0  0  0  0  0  0  0
   10.9097   11.8051   18.4804 C   0  0  0  0  0  0  0  0  0  0  0  0
   11.2280   12.9135   17.5669 C   0  0  0  0  0  0  0  0  0  0  0  0
   12.3782    5.4231   20.7777 C   0  0  0  0  0  0  0  0  0  0  0  0
    7.7365    4.6508   21.6987 C   0  0  0  0  0  0  0  0  0  0  0  0
   13.0186   11.0102   18.0020 C   0  0  0  0  0  0  0  0  0  0  0  0
    8.6628    5.7088   21.8871 N   0  0  0  0  0  0  0  0  0  0  0  0
    5.6516    3.5258   21.9140 C   0  0  0  0  0  0  0  0  0  0  0  0
   11.5863    9.6815   19.4539 C   0  0  0  0  0  0  0  0  0  0  0  0
   12.9648    4.1543   20.9205 C   0  0  0  0  0  0  0  0  0  0  0  0
    8.2089    3.6265   20.8929 C   0  0  0  0  0  0  0  0  0  0  0  0
    7.3827    2.5724   20.5432 C   0  0  0  0  0  0  0  0  0  0  0  0
   11.1529    7.2750   20.8025 C   0  0  0  0  0  0  0  0  0  0  0  0
   10.2573    8.3215   20.9827 C   0  0  0  0  0  0  0  0  0  0  0  0
   11.1606    5.9378   21.2366 N   0  0  0  0  0  0  0  0  0  0  0  0
    9.8932   11.6736   19.0677 O   0  0  0  0  0  0  0  0  0  0  0  0
    6.4470    4.5850   22.2321 C   0  0  0  0  0  0  0  0  0  0  0  0
    8.4619    6.9895   22.2968 C   0  0  0  0  0  0  0  0  0  0  0  0
   12.2747    7.5102   20.0420 C   0  0  0  0  0  0  0  0  0  0  0  0
   14.2544    6.2142   19.4191 C   0  0  0  0  0  0  0  0  0  0  0  0
   13.0695    6.3705   20.0375 N   0  0  0  0  0  0  0  0  0  0  0  0
    9.1913    8.0876   21.8361 N   0  0  0  0  0  0  0  0  0  0  0  0
   10.4739    9.4813   20.2889 C   0  0  0  0  0  0  0  0  0  0  0  0
    7.5551    7.1270   23.1200 O   0  0  0  0  0  0  0  0  0  0  0  0
  1 11  4  0
  1 21  4  0
  2  4  1  0
  2  8  1  0
  2 11  1  0
  3 10  4  0
  3 14  4  0
  4  5  1  0
  4 18  2  0
  6 12  1  0
  6 17  4  0
  6 23  4  0
  7  9  1  0
  7 13  4  0
  7 19  4  0
  9 20  1  0
 10 19  4  0
 11 25  4  0
 13 14  4  0
 15 16  4  0
 15 17  4  0
 15 21  4  0
 16 24  1  0
 16 25  4  0
 20 24  1  0
 20 26  2  0
 21 23  4  0
 22 23  1  0
M  END
$$$$

 Created by Python create_sdf_string function

 26 28  0  0  0  0  0  0  0  0999 V2000
   12.4616    8.6700   19.4180 N   0  0  0  0  0  0  0  0  0  0  0  0
   11.8329   10.8148   18.6769 N   0  0  0  0  0  0  0  0  0  0  0  0
    6.1021    2.5564   21.0678 C   0  0  0  0  0  0  0  0  0  0  0  0
   10.9097   11.8051   18.4804 C   0  0  0  0  0  0  0  0  0  0  0  0
   11.2280   12.9135   17.5669 C   0  0  0  0  0  0  0  0  0  0  0  0
   12.3782    5.4231   20.7777 C   0  0  0  0  0  0  0  0  0  0  0  0
    7.7365    4.6508   21.6987 C   0  0  0  0  0  0  0  0  0  0  0  0
   13.0186   11.0102   18.0020 C   0  0  0  0  0  0  0  0  0  0  0  0
    8.6628    5.7088   21.8871 N   0  0  0  0  0  0  0  0  0  0  0  0
    5.6516    3.5258   21.9140 C   0  0  0  0  0  0  0  0  0  0  0  0
   11.5863    9.6815   19.4539 C   0  0  0  0  0  0  0  0  0  0  0  0
   12.9648    4.1543   20.9205 C   0  0  0  0  0  0  0  0  0  0  0  0
    8.2089    3.6265   20.8929 C   0  0  0  0  0  0  0  0  0  0  0  0
    7.3827    2.5724   20.5432 C   0  0  0  0  0  0  0  0  0  0  0  0
   11.1529    7.2750   20.8025 C   0  0  0  0  0  0  0  0  0  0  0  0
   10.2573    8.3215   20.9827 C   0  0  0  0  0  0  0  0  0  0  0  0
   11.1606    5.9378   21.2366 N   0  0  0  0  0  0  0  0  0  0  0  0
    9.8932   11.6736   19.0677 O   0  0  0  0  0  0  0  0  0  0  0  0
    6.4470    4.5850   22.2321 C   0  0  0  0  0  0  0  0  0  0  0  0
    8.4619    6.9895   22.2968 C   0  0  0  0  0  0  0  0  0  0  0  0
   12.2747    7.5102   20.0420 C   0  0  0  0  0  0  0  0  0  0  0  0
   14.2544    6.2142   19.4191 C   0  0  0  0  0  0  0  0  0  0  0  0
   13.0695    6.3705   20.0375 N   0  0  0  0  0  0  0  0  0  0  0  0
    9.1913    8.0876   21.8361 N   0  0  0  0  0  0  0  0  0  0  0  0
   10.4739    9.4813   20.2889 C   0  0  0  0  0  0  0  0  0  0  0  0
    7.5551    7.1270   23.1200 O   0  0  0  0  0  0  0  0  0  0  0  0
  1 11  4  0
  1 21  4  0
  2  4  1  0
  2  8  1  0
  2 11  1  0
  3 10  4  0
  3 14  4  0
  4  5  1  0
  4 18  2  0
  6 12  1  0
  6 17  4  0
  6 23  4  0
  7  9  1  0
  7 13  4  0
  7 19  4  0
  9 20  1  0
 10 19  4  0
 11 25  4  0
 13 14  4  0
 15 16  4  0
 15 17  4  0
 15 21  4  0
 16 24  1  0
 16 25  4  0
 20 24  1  0
 20 26  2  0
 21 23  4  0
 22 23  1  0
M  END
$$$$

 Created by Python create_sdf_string function

 26 28  0  0  0  0  0  0  0  0999 V2000
   12.4616    8.6700   19.4180 N   0  0  0  0  0  0  0  0  0  0  0  0
   11.8329   10.8148   18.6769 N   0  0  0  0  0  0  0  0  0  0  0  0
    6.1021    2.5564   21.0678 C   0  0  0  0  0  0  0  0  0  0  0  0
   10.9097   11.8051   18.4804 C   0  0  0  0  0  0  0  0  0  0  0  0
   11.2280   12.9135   17.5669 C   0  0  0  0  0  0  0  0  0  0  0  0
   12.3782    5.4231   20.7777 C   0  0  0  0  0  0  0  0  0  0  0  0
    7.7365    4.6508   21.6987 C   0  0  0  0  0  0  0  0  0  0  0  0
   13.0186   11.0102   18.0020 C   0  0  0  0  0  0  0  0  0  0  0  0
    8.6628    5.7088   21.8871 N   0  0  0  0  0  0  0  0  0  0  0  0
    5.6516    3.5258   21.9140 C   0  0  0  0  0  0  0  0  0  0  0  0
   11.5863    9.6815   19.4539 C   0  0  0  0  0  0  0  0  0  0  0  0
   12.9648    4.1543   20.9205 C   0  0  0  0  0  0  0  0  0  0  0  0
    8.2089    3.6265   20.8929 C   0  0  0  0  0  0  0  0  0  0  0  0
    7.3827    2.5724   20.5432 C   0  0  0  0  0  0  0  0  0  0  0  0
   11.1529    7.2750   20.8025 C   0  0  0  0  0  0  0  0  0  0  0  0
   10.2573    8.3215   20.9827 C   0  0  0  0  0  0  0  0  0  0  0  0
   11.1606    5.9378   21.2366 N   0  0  0  0  0  0  0  0  0  0  0  0
    9.8932   11.6736   19.0677 O   0  0  0  0  0  0  0  0  0  0  0  0
    6.4470    4.5850   22.2321 C   0  0  0  0  0  0  0  0  0  0  0  0
    8.4619    6.9895   22.2968 C   0  0  0  0  0  0  0  0  0  0  0  0
   12.2747    7.5102   20.0420 C   0  0  0  0  0  0  0  0  0  0  0  0
   14.2544    6.2142   19.4191 C   0  0  0  0  0  0  0  0  0  0  0  0
   13.0695    6.3705   20.0375 N   0  0  0  0  0  0  0  0  0  0  0  0
    9.1913    8.0876   21.8361 N   0  0  0  0  0  0  0  0  0  0  0  0
   10.4739    9.4813   20.2889 C   0  0  0  0  0  0  0  0  0  0  0  0
    7.5551    7.1270   23.1200 O   0  0  0  0  0  0  0  0  0  0  0  0
  1 11  4  0
  1 21  4  0
  2  4  1  0
  2  8  1  0
  2 11  1  0
  3 10  4  0
  3 14  4  0
  4  5  1  0
  4 18  2  0
  6 12  1  0
  6 17  4  0
  6 23  4  0
  7  9  1  0
  7 13  4  0
  7 19  4  0
  9 20  1  0
 10 19  4  0
 11 25  4  0
 13 14  4  0
 15 16  4  0
 15 17  4  0
 15 21  4  0
 16 24  1  0
 16 25  4  0
 20 24  1  0
 20 26  2  0
 21 23  4  0
 22 23  1  0
M  END
$$$$

 Created by Python create_sdf_string function

 26 28  0  0  0  0  0  0  0  0999 V2000
   12.4616    8.6700   19.4180 N   0  0  0  0  0  0  0  0  0  0  0  0
   11.8329   10.8148   18.6769 N   0  0  0  0  0  0  0  0  0  0  0  0
    6.1021    2.5564   21.0678 C   0  0  0  0  0  0  0  0  0  0  0  0
   10.9097   11.8051   18.4804 C   0  0  0  0  0  0  0  0  0  0  0  0
   11.2280   12.9135   17.5669 C   0  0  0  0  0  0  0  0  0  0  0  0
   12.3782    5.4231   20.7777 C   0  0  0  0  0  0  0  0  0  0  0  0
    7.7365    4.6508   21.6987 C   0  0  0  0  0  0  0  0  0  0  0  0
   13.0186   11.0102   18.0020 C   0  0  0  0  0  0  0  0  0  0  0  0
    8.6628    5.7088   21.8871 N   0  0  0  0  0  0  0  0  0  0  0  0
    5.6516    3.5258   21.9140 C   0  0  0  0  0  0  0  0  0  0  0  0
   11.5863    9.6815   19.4539 C   0  0  0  0  0  0  0  0  0  0  0  0
   12.9648    4.1543   20.9205 C   0  0  0  0  0  0  0  0  0  0  0  0
    8.2089    3.6265   20.8929 C   0  0  0  0  0  0  0  0  0  0  0  0
    7.3827    2.5724   20.5432 C   0  0  0  0  0  0  0  0  0  0  0  0
   11.1529    7.2750   20.8025 C   0  0  0  0  0  0  0  0  0  0  0  0
   10.2573    8.3215   20.9827 C   0  0  0  0  0  0  0  0  0  0  0  0
   11.1606    5.9378   21.2366 N   0  0  0  0  0  0  0  0  0  0  0  0
    9.8932   11.6736   19.0677 O   0  0  0  0  0  0  0  0  0  0  0  0
    6.4470    4.5850   22.2321 C   0  0  0  0  0  0  0  0  0  0  0  0
    8.4619    6.9895   22.2968 C   0  0  0  0  0  0  0  0  0  0  0  0
   12.2747    7.5102   20.0420 C   0  0  0  0  0  0  0  0  0  0  0  0
   14.2544    6.2142   19.4191 C   0  0  0  0  0  0  0  0  0  0  0  0
   13.0695    6.3705   20.0375 N   0  0  0  0  0  0  0  0  0  0  0  0
    9.1913    8.0876   21.8361 N   0  0  0  0  0  0  0  0  0  0  0  0
   10.4739    9.4813   20.2889 C   0  0  0  0  0  0  0  0  0  0  0  0
    7.5551    7.1270   23.1200 O   0  0  0  0  0  0  0  0  0  0  0  0
  1 11  4  0
  1 21  4  0
  2  4  1  0
  2  8  1  0
  2 11  1  0
  3 10  4  0
  3 14  4  0
  4  5  1  0
  4 18  2  0
  6 12  1  0
  6 17  4  0
  6 23  4  0
  7  9  1  0
  7 13  4  0
  7 19  4  0
  9 20  1  0
 10 19  4  0
 11 25  4  0
 13 14  4  0
 15 16  4  0
 15 17  4  0
 15 21  4  0
 16 24  1  0
 16 25  4  0
 20 24  1  0
 20 26  2  0
 21 23  4  0
 22 23  1  0
M  END
$$$$

 Created by Python create_sdf_string function

 26 28  0  0  0  0  0  0  0  0999 V2000
   12.4616    8.6700   19.4180 N   0  0  0  0  0  0  0  0  0  0  0  0
   11.8329   10.8148   18.6769 N   0  0  0  0  0  0  0  0  0  0  0  0
    6.1021    2.5564   21.0678 C   0  0  0  0  0  0  0  0  0  0  0  0
   10.9097   11.8051   18.4804 C   0  0  0  0  0  0  0  0  0  0  0  0
   11.2280   12.9135   17.5669 C   0  0  0  0  0  0  0  0  0  0  0  0
   12.3782    5.4231   20.7777 C   0  0  0  0  0  0  0  0  0  0  0  0
    7.7365    4.6508   21.6987 C   0  0  0  0  0  0  0  0  0  0  0  0
   13.0186   11.0102   18.0020 C   0  0  0  0  0  0  0  0  0  0  0  0
    8.6628    5.7088   21.8871 N   0  0  0  0  0  0  0  0  0  0  0  0
    5.6516    3.5258   21.9140 C   0  0  0  0  0  0  0  0  0  0  0  0
   11.5863    9.6815   19.4539 C   0  0  0  0  0  0  0  0  0  0  0  0
   12.9648    4.1543   20.9205 C   0  0  0  0  0  0  0  0  0  0  0  0
    8.2089    3.6265   20.8929 C   0  0  0  0  0  0  0  0  0  0  0  0
    7.3827    2.5724   20.5432 C   0  0  0  0  0  0  0  0  0  0  0  0
   11.1529    7.2750   20.8025 C   0  0  0  0  0  0  0  0  0  0  0  0
   10.2573    8.3215   20.9827 C   0  0  0  0  0  0  0  0  0  0  0  0
   11.1606    5.9378   21.2366 N   0  0  0  0  0  0  0  0  0  0  0  0
    9.8932   11.6736   19.0677 O   0  0  0  0  0  0  0  0  0  0  0  0
    6.4470    4.5850   22.2321 C   0  0  0  0  0  0  0  0  0  0  0  0
    8.4619    6.9895   22.2968 C   0  0  0  0  0  0  0  0  0  0  0  0
   12.2747    7.5102   20.0420 C   0  0  0  0  0  0  0  0  0  0  0  0
   14.2544    6.2142   19.4191 C   0  0  0  0  0  0  0  0  0  0  0  0
   13.0695    6.3705   20.0375 N   0  0  0  0  0  0  0  0  0  0  0  0
    9.1913    8.0876   21.8361 N   0  0  0  0  0  0  0  0  0  0  0  0
   10.4739    9.4813   20.2889 C   0  0  0  0  0  0  0  0  0  0  0  0
    7.5551    7.1270   23.1200 O   0  0  0  0  0  0  0  0  0  0  0  0
  1 11  4  0
  1 21  4  0
  2  4  1  0
  2  8  1  0
  2 11  1  0
  3 10  4  0
  3 14  4  0
  4  5  1  0
  4 18  2  0
  6 12  1  0
  6 17  4  0
  6 23  4  0
  7  9  1  0
  7 13  4  0
  7 19  4  0
  9 20  1  0
 10 19  4  0
 11 25  4  0
 13 14  4  0
 15 16  4  0
 15 17  4  0
 15 21  4  0
 16 24  1  0
 16 25  4  0
 20 24  1  0
 20 26  2  0
 21 23  4  0
 22 23  1  0
M  END
$$$$

 Created by Python create_sdf_string function

 26 28  0  0  0  0  0  0  0  0999 V2000
   12.4616    8.6700   19.4180 N   0  0  0  0  0  0  0  0  0  0  0  0
   11.8329   10.8148   18.6769 N   0  0  0  0  0  0  0  0  0  0  0  0
    6.1021    2.5564   21.0678 C   0  0  0  0  0  0  0  0  0  0  0  0
   10.9097   11.8051   18.4804 C   0  0  0  0  0  0  0  0  0  0  0  0
   11.2280   12.9135   17.5669 C   0  0  0  0  0  0  0  0  0  0  0  0
   12.3782    5.4231   20.7777 C   0  0  0  0  0  0  0  0  0  0  0  0
    7.7365    4.6508   21.6987 C   0  0  0  0  0  0  0  0  0  0  0  0
   13.0186   11.0102   18.0020 C   0  0  0  0  0  0  0  0  0  0  0  0
    8.6628    5.7088   21.8871 N   0  0  0  0  0  0  0  0  0  0  0  0
    5.6516    3.5258   21.9140 C   0  0  0  0  0  0  0  0  0  0  0  0
   11.5863    9.6815   19.4539 C   0  0  0  0  0  0  0  0  0  0  0  0
   12.9648    4.1543   20.9205 C   0  0  0  0  0  0  0  0  0  0  0  0
    8.2089    3.6265   20.8929 C   0  0  0  0  0  0  0  0  0  0  0  0
    7.3827    2.5724   20.5432 C   0  0  0  0  0  0  0  0  0  0  0  0
   11.1529    7.2750   20.8025 C   0  0  0  0  0  0  0  0  0  0  0  0
   10.2573    8.3215   20.9827 C   0  0  0  0  0  0  0  0  0  0  0  0
   11.1606    5.9378   21.2366 N   0  0  0  0  0  0  0  0  0  0  0  0
    9.8932   11.6736   19.0677 O   0  0  0  0  0  0  0  0  0  0  0  0
    6.4470    4.5850   22.2321 C   0  0  0  0  0  0  0  0  0  0  0  0
    8.4619    6.9895   22.2968 C   0  0  0  0  0  0  0  0  0  0  0  0
   12.2747    7.5102   20.0420 C   0  0  0  0  0  0  0  0  0  0  0  0
   14.2544    6.2142   19.4191 C   0  0  0  0  0  0  0  0  0  0  0  0
   13.0695    6.3705   20.0375 N   0  0  0  0  0  0  0  0  0  0  0  0
    9.1913    8.0876   21.8361 N   0  0  0  0  0  0  0  0  0  0  0  0
   10.4739    9.4813   20.2889 C   0  0  0  0  0  0  0  0  0  0  0  0
    7.5551    7.1270   23.1200 O   0  0  0  0  0  0  0  0  0  0  0  0
  1 11  4  0
  1 21  4  0
  2  4  1  0
  2  8  1  0
  2 11  1  0
  3 10  4  0
  3 14  4  0
  4  5  1  0
  4 18  2  0
  6 12  1  0
  6 17  4  0
  6 23  4  0
  7  9  1  0
  7 13  4  0
  7 19  4  0
  9 20  1  0
 10 19  4  0
 11 25  4  0
 13 14  4  0
 15 16  4  0
 15 17  4  0
 15 21  4  0
 16 24  1  0
 16 25  4  0
 20 24  1  0
 20 26  2  0
 21 23  4  0
 22 23  1  0
M  END
$$$$

 Created by Python create_sdf_string function

 26 28  0  0  0  0  0  0  0  0999 V2000
   12.4616    8.6700   19.4180 N   0  0  0  0  0  0  0  0  0  0  0  0
   11.8329   10.8148   18.6769 N   0  0  0  0  0  0  0  0  0  0  0  0
    6.1021    2.5564   21.0678 C   0  0  0  0  0  0  0  0  0  0  0  0
   10.9097   11.8051   18.4804 C   0  0  0  0  0  0  0  0  0  0  0  0
   11.2280   12.9135   17.5669 C   0  0  0  0  0  0  0  0  0  0  0  0
   12.3782    5.4231   20.7777 C   0  0  0  0  0  0  0  0  0  0  0  0
    7.7365    4.6508   21.6987 C   0  0  0  0  0  0  0  0  0  0  0  0
   13.0186   11.0102   18.0020 C   0  0  0  0  0  0  0  0  0  0  0  0
    8.6628    5.7088   21.8871 N   0  0  0  0  0  0  0  0  0  0  0  0
    5.6516    3.5258   21.9140 C   0  0  0  0  0  0  0  0  0  0  0  0
   11.5863    9.6815   19.4539 C   0  0  0  0  0  0  0  0  0  0  0  0
   12.9648    4.1543   20.9205 C   0  0  0  0  0  0  0  0  0  0  0  0
    8.2089    3.6265   20.8929 C   0  0  0  0  0  0  0  0  0  0  0  0
    7.3827    2.5724   20.5432 C   0  0  0  0  0  0  0  0  0  0  0  0
   11.1529    7.2750   20.8025 C   0  0  0  0  0  0  0  0  0  0  0  0
   10.2573    8.3215   20.9827 C   0  0  0  0  0  0  0  0  0  0  0  0
   11.1606    5.9378   21.2366 N   0  0  0  0  0  0  0  0  0  0  0  0
    9.8932   11.6736   19.0677 O   0  0  0  0  0  0  0  0  0  0  0  0
    6.4470    4.5850   22.2321 C   0  0  0  0  0  0  0  0  0  0  0  0
    8.4619    6.9895   22.2968 C   0  0  0  0  0  0  0  0  0  0  0  0
   12.2747    7.5102   20.0420 C   0  0  0  0  0  0  0  0  0  0  0  0
   14.2544    6.2142   19.4191 C   0  0  0  0  0  0  0  0  0  0  0  0
   13.0695    6.3705   20.0375 N   0  0  0  0  0  0  0  0  0  0  0  0
    9.1913    8.0876   21.8361 N   0  0  0  0  0  0  0  0  0  0  0  0
   10.4739    9.4813   20.2889 C   0  0  0  0  0  0  0  0  0  0  0  0
    7.5551    7.1270   23.1200 O   0  0  0  0  0  0  0  0  0  0  0  0
  1 11  4  0
  1 21  4  0
  2  4  1  0
  2  8  1  0
  2 11  1  0
  3 10  4  0
  3 14  4  0
  4  5  1  0
  4 18  2  0
  6 12  1  0
  6 17  4  0
  6 23  4  0
  7  9  1  0
  7 13  4  0
  7 19  4  0
  9 20  1  0
 10 19  4  0
 11 25  4  0
 13 14  4  0
 15 16  4  0
 15 17  4  0
 15 21  4  0
 16 24  1  0
 16 25  4  0
 20 24  1  0
 20 26  2  0
 21 23  4  0
 22 23  1  0
M  END
$$$$

 Created by Python create_sdf_string function

 26 28  0  0  0  0  0  0  0  0999 V2000
   12.4616    8.6700   19.4180 N   0  0  0  0  0  0  0  0  0  0  0  0
   11.8329   10.8148   18.6769 N   0  0  0  0  0  0  0  0  0  0  0  0
    6.1021    2.5564   21.0678 C   0  0  0  0  0  0  0  0  0  0  0  0
   10.9097   11.8051   18.4804 C   0  0  0  0  0  0  0  0  0  0  0  0
   11.2280   12.9135   17.5669 C   0  0  0  0  0  0  0  0  0  0  0  0
   12.3782    5.4231   20.7777 C   0  0  0  0  0  0  0  0  0  0  0  0
    7.7365    4.6508   21.6987 C   0  0  0  0  0  0  0  0  0  0  0  0
   13.0186   11.0102   18.0020 C   0  0  0  0  0  0  0  0  0  0  0  0
    8.6628    5.7088   21.8871 N   0  0  0  0  0  0  0  0  0  0  0  0
    5.6516    3.5258   21.9140 C   0  0  0  0  0  0  0  0  0  0  0  0
   11.5863    9.6815   19.4539 C   0  0  0  0  0  0  0  0  0  0  0  0
   12.9648    4.1543   20.9205 C   0  0  0  0  0  0  0  0  0  0  0  0
    8.2089    3.6265   20.8929 C   0  0  0  0  0  0  0  0  0  0  0  0
    7.3827    2.5724   20.5432 C   0  0  0  0  0  0  0  0  0  0  0  0
   11.1529    7.2750   20.8025 C   0  0  0  0  0  0  0  0  0  0  0  0
   10.2573    8.3215   20.9827 C   0  0  0  0  0  0  0  0  0  0  0  0
   11.1606    5.9378   21.2366 N   0  0  0  0  0  0  0  0  0  0  0  0
    9.8932   11.6736   19.0677 O   0  0  0  0  0  0  0  0  0  0  0  0
    6.4470    4.5850   22.2321 C   0  0  0  0  0  0  0  0  0  0  0  0
    8.4619    6.9895   22.2968 C   0  0  0  0  0  0  0  0  0  0  0  0
   12.2747    7.5102   20.0420 C   0  0  0  0  0  0  0  0  0  0  0  0
   14.2544    6.2142   19.4191 C   0  0  0  0  0  0  0  0  0  0  0  0
   13.0695    6.3705   20.0375 N   0  0  0  0  0  0  0  0  0  0  0  0
    9.1913    8.0876   21.8361 N   0  0  0  0  0  0  0  0  0  0  0  0
   10.4739    9.4813   20.2889 C   0  0  0  0  0  0  0  0  0  0  0  0
    7.5551    7.1270   23.1200 O   0  0  0  0  0  0  0  0  0  0  0  0
  1 11  4  0
  1 21  4  0
  2  4  1  0
  2  8  1  0
  2 11  1  0
  3 10  4  0
  3 14  4  0
  4  5  1  0
  4 18  2  0
  6 12  1  0
  6 17  4  0
  6 23  4  0
  7  9  1  0
  7 13  4  0
  7 19  4  0
  9 20  1  0
 10 19  4  0
 11 25  4  0
 13 14  4  0
 15 16  4  0
 15 17  4  0
 15 21  4  0
 16 24  1  0
 16 25  4  0
 20 24  1  0
 20 26  2  0
 21 23  4  0
 22 23  1  0
M  END
$$$$

 Created by Python create_sdf_string function

 26 28  0  0  0  0  0  0  0  0999 V2000
   12.4616    8.6700   19.4180 N   0  0  0  0  0  0  0  0  0  0  0  0
   11.8329   10.8148   18.6769 N   0  0  0  0  0  0  0  0  0  0  0  0
    6.1021    2.5564   21.0678 C   0  0  0  0  0  0  0  0  0  0  0  0
   10.9097   11.8051   18.4804 C   0  0  0  0  0  0  0  0  0  0  0  0
   11.2280   12.9135   17.5669 C   0  0  0  0  0  0  0  0  0  0  0  0
   12.3782    5.4231   20.7777 C   0  0  0  0  0  0  0  0  0  0  0  0
    7.7365    4.6508   21.6987 C   0  0  0  0  0  0  0  0  0  0  0  0
   13.0186   11.0102   18.0020 C   0  0  0  0  0  0  0  0  0  0  0  0
    8.6628    5.7088   21.8871 N   0  0  0  0  0  0  0  0  0  0  0  0
    5.6516    3.5258   21.9140 C   0  0  0  0  0  0  0  0  0  0  0  0
   11.5863    9.6815   19.4539 C   0  0  0  0  0  0  0  0  0  0  0  0
   12.9648    4.1543   20.9205 C   0  0  0  0  0  0  0  0  0  0  0  0
    8.2089    3.6265   20.8929 C   0  0  0  0  0  0  0  0  0  0  0  0
    7.3827    2.5724   20.5432 C   0  0  0  0  0  0  0  0  0  0  0  0
   11.1529    7.2750   20.8025 C   0  0  0  0  0  0  0  0  0  0  0  0
   10.2573    8.3215   20.9827 C   0  0  0  0  0  0  0  0  0  0  0  0
   11.1606    5.9378   21.2366 N   0  0  0  0  0  0  0  0  0  0  0  0
    9.8932   11.6736   19.0677 O   0  0  0  0  0  0  0  0  0  0  0  0
    6.4470    4.5850   22.2321 C   0  0  0  0  0  0  0  0  0  0  0  0
    8.4619    6.9895   22.2968 C   0  0  0  0  0  0  0  0  0  0  0  0
   12.2747    7.5102   20.0420 C   0  0  0  0  0  0  0  0  0  0  0  0
   14.2544    6.2142   19.4191 C   0  0  0  0  0  0  0  0  0  0  0  0
   13.0695    6.3705   20.0375 N   0  0  0  0  0  0  0  0  0  0  0  0
    9.1913    8.0876   21.8361 N   0  0  0  0  0  0  0  0  0  0  0  0
   10.4739    9.4813   20.2889 C   0  0  0  0  0  0  0  0  0  0  0  0
    7.5551    7.1270   23.1200 O   0  0  0  0  0  0  0  0  0  0  0  0
  1 11  4  0
  1 21  4  0
  2  4  1  0
  2  8  1  0
  2 11  1  0
  3 10  4  0
  3 14  4  0
  4  5  1  0
  4 18  2  0
  6 12  1  0
  6 17  4  0
  6 23  4  0
  7  9  1  0
  7 13  4  0
  7 19  4  0
  9 20  1  0
 10 19  4  0
 11 25  4  0
 13 14  4  0
 15 16  4  0
 15 17  4  0
 15 21  4  0
 16 24  1  0
 16 25  4  0
 20 24  1  0
 20 26  2  0
 21 23  4  0
 22 23  1  0
M  END
$$$$

 Created by Python create_sdf_string function

 26 28  0  0  0  0  0  0  0  0999 V2000
   12.4616    8.6700   19.4180 N   0  0  0  0  0  0  0  0  0  0  0  0
   11.8329   10.8148   18.6769 N   0  0  0  0  0  0  0  0  0  0  0  0
    6.1021    2.5564   21.0678 C   0  0  0  0  0  0  0  0  0  0  0  0
   10.9097   11.8051   18.4804 C   0  0  0  0  0  0  0  0  0  0  0  0
   11.2280   12.9135   17.5669 C   0  0  0  0  0  0  0  0  0  0  0  0
   12.3782    5.4231   20.7777 C   0  0  0  0  0  0  0  0  0  0  0  0
    7.7365    4.6508   21.6987 C   0  0  0  0  0  0  0  0  0  0  0  0
   13.0186   11.0102   18.0020 C   0  0  0  0  0  0  0  0  0  0  0  0
    8.6628    5.7088   21.8871 N   0  0  0  0  0  0  0  0  0  0  0  0
    5.6516    3.5258   21.9140 C   0  0  0  0  0  0  0  0  0  0  0  0
   11.5863    9.6815   19.4539 C   0  0  0  0  0  0  0  0  0  0  0  0
   12.9648    4.1543   20.9205 C   0  0  0  0  0  0  0  0  0  0  0  0
    8.2089    3.6265   20.8929 C   0  0  0  0  0  0  0  0  0  0  0  0
    7.3827    2.5724   20.5432 C   0  0  0  0  0  0  0  0  0  0  0  0
   11.1529    7.2750   20.8025 C   0  0  0  0  0  0  0  0  0  0  0  0
   10.2573    8.3215   20.9827 C   0  0  0  0  0  0  0  0  0  0  0  0
   11.1606    5.9378   21.2366 N   0  0  0  0  0  0  0  0  0  0  0  0
    9.8932   11.6736   19.0677 O   0  0  0  0  0  0  0  0  0  0  0  0
    6.4470    4.5850   22.2321 C   0  0  0  0  0  0  0  0  0  0  0  0
    8.4619    6.9895   22.2968 C   0  0  0  0  0  0  0  0  0  0  0  0
   12.2747    7.5102   20.0420 C   0  0  0  0  0  0  0  0  0  0  0  0
   14.2544    6.2142   19.4191 C   0  0  0  0  0  0  0  0  0  0  0  0
   13.0695    6.3705   20.0375 N   0  0  0  0  0  0  0  0  0  0  0  0
    9.1913    8.0876   21.8361 N   0  0  0  0  0  0  0  0  0  0  0  0
   10.4739    9.4813   20.2889 C   0  0  0  0  0  0  0  0  0  0  0  0
    7.5551    7.1270   23.1200 O   0  0  0  0  0  0  0  0  0  0  0  0
  1 11  4  0
  1 21  4  0
  2  4  1  0
  2  8  1  0
  2 11  1  0
  3 10  4  0
  3 14  4  0
  4  5  1  0
  4 18  2  0
  6 12  1  0
  6 17  4  0
  6 23  4  0
  7  9  1  0
  7 13  4  0
  7 19  4  0
  9 20  1  0
 10 19  4  0
 11 25  4  0
 13 14  4  0
 15 16  4  0
 15 17  4  0
 15 21  4  0
 16 24  1  0
 16 25  4  0
 20 24  1  0
 20 26  2  0
 21 23  4  0
 22 23  1  0
M  END
$$$$

 Created by Python create_sdf_string function

 26 28  0  0  0  0  0  0  0  0999 V2000
   12.4616    8.6700   19.4180 N   0  0  0  0  0  0  0  0  0  0  0  0
   11.8329   10.8148   18.6769 N   0  0  0  0  0  0  0  0  0  0  0  0
    6.1021    2.5564   21.0678 C   0  0  0  0  0  0  0  0  0  0  0  0
   10.9097   11.8051   18.4804 C   0  0  0  0  0  0  0  0  0  0  0  0
   11.2280   12.9135   17.5669 C   0  0  0  0  0  0  0  0  0  0  0  0
   12.3782    5.4231   20.7777 C   0  0  0  0  0  0  0  0  0  0  0  0
    7.7365    4.6508   21.6987 C   0  0  0  0  0  0  0  0  0  0  0  0
   13.0186   11.0102   18.0020 C   0  0  0  0  0  0  0  0  0  0  0  0
    8.6628    5.7088   21.8871 N   0  0  0  0  0  0  0  0  0  0  0  0
    5.6516    3.5258   21.9140 C   0  0  0  0  0  0  0  0  0  0  0  0
   11.5863    9.6815   19.4539 C   0  0  0  0  0  0  0  0  0  0  0  0
   12.9648    4.1543   20.9205 C   0  0  0  0  0  0  0  0  0  0  0  0
    8.2089    3.6265   20.8929 C   0  0  0  0  0  0  0  0  0  0  0  0
    7.3827    2.5724   20.5432 C   0  0  0  0  0  0  0  0  0  0  0  0
   11.1529    7.2750   20.8025 C   0  0  0  0  0  0  0  0  0  0  0  0
   10.2573    8.3215   20.9827 C   0  0  0  0  0  0  0  0  0  0  0  0
   11.1606    5.9378   21.2366 N   0  0  0  0  0  0  0  0  0  0  0  0
    9.8932   11.6736   19.0677 O   0  0  0  0  0  0  0  0  0  0  0  0
    6.4470    4.5850   22.2321 C   0  0  0  0  0  0  0  0  0  0  0  0
    8.4619    6.9895   22.2968 C   0  0  0  0  0  0  0  0  0  0  0  0
   12.2747    7.5102   20.0420 C   0  0  0  0  0  0  0  0  0  0  0  0
   14.2544    6.2142   19.4191 C   0  0  0  0  0  0  0  0  0  0  0  0
   13.0695    6.3705   20.0375 N   0  0  0  0  0  0  0  0  0  0  0  0
    9.1913    8.0876   21.8361 N   0  0  0  0  0  0  0  0  0  0  0  0
   10.4739    9.4813   20.2889 C   0  0  0  0  0  0  0  0  0  0  0  0
    7.5551    7.1270   23.1200 O   0  0  0  0  0  0  0  0  0  0  0  0
  1 11  4  0
  1 21  4  0
  2  4  1  0
  2  8  1  0
  2 11  1  0
  3 10  4  0
  3 14  4  0
  4  5  1  0
  4 18  2  0
  6 12  1  0
  6 17  4  0
  6 23  4  0
  7  9  1  0
  7 13  4  0
  7 19  4  0
  9 20  1  0
 10 19  4  0
 11 25  4  0
 13 14  4  0
 15 16  4  0
 15 17  4  0
 15 21  4  0
 16 24  1  0
 16 25  4  0
 20 24  1  0
 20 26  2  0
 21 23  4  0
 22 23  1  0
M  END
$$$$

 Created by Python create_sdf_string function

 26 28  0  0  0  0  0  0  0  0999 V2000
   12.4616    8.6700   19.4180 N   0  0  0  0  0  0  0  0  0  0  0  0
   11.8329   10.8148   18.6769 N   0  0  0  0  0  0  0  0  0  0  0  0
    6.1021    2.5564   21.0678 C   0  0  0  0  0  0  0  0  0  0  0  0
   10.9097   11.8051   18.4804 C   0  0  0  0  0  0  0  0  0  0  0  0
   11.2280   12.9135   17.5669 C   0  0  0  0  0  0  0  0  0  0  0  0
   12.3782    5.4231   20.7777 C   0  0  0  0  0  0  0  0  0  0  0  0
    7.7365    4.6508   21.6987 C   0  0  0  0  0  0  0  0  0  0  0  0
   13.0186   11.0102   18.0020 C   0  0  0  0  0  0  0  0  0  0  0  0
    8.6628    5.7088   21.8871 N   0  0  0  0  0  0  0  0  0  0  0  0
    5.6516    3.5258   21.9140 C   0  0  0  0  0  0  0  0  0  0  0  0
   11.5863    9.6815   19.4539 C   0  0  0  0  0  0  0  0  0  0  0  0
   12.9648    4.1543   20.9205 C   0  0  0  0  0  0  0  0  0  0  0  0
    8.2089    3.6265   20.8929 C   0  0  0  0  0  0  0  0  0  0  0  0
    7.3827    2.5724   20.5432 C   0  0  0  0  0  0  0  0  0  0  0  0
   11.1529    7.2750   20.8025 C   0  0  0  0  0  0  0  0  0  0  0  0
   10.2573    8.3215   20.9827 C   0  0  0  0  0  0  0  0  0  0  0  0
   11.1606    5.9378   21.2366 N   0  0  0  0  0  0  0  0  0  0  0  0
    9.8932   11.6736   19.0677 O   0  0  0  0  0  0  0  0  0  0  0  0
    6.4470    4.5850   22.2321 C   0  0  0  0  0  0  0  0  0  0  0  0
    8.4619    6.9895   22.2968 C   0  0  0  0  0  0  0  0  0  0  0  0
   12.2747    7.5102   20.0420 C   0  0  0  0  0  0  0  0  0  0  0  0
   14.2544    6.2142   19.4191 C   0  0  0  0  0  0  0  0  0  0  0  0
   13.0695    6.3705   20.0375 N   0  0  0  0  0  0  0  0  0  0  0  0
    9.1913    8.0876   21.8361 N   0  0  0  0  0  0  0  0  0  0  0  0
   10.4739    9.4813   20.2889 C   0  0  0  0  0  0  0  0  0  0  0  0
    7.5551    7.1270   23.1200 O   0  0  0  0  0  0  0  0  0  0  0  0
  1 11  4  0
  1 21  4  0
  2  4  1  0
  2  8  1  0
  2 11  1  0
  3 10  4  0
  3 14  4  0
  4  5  1  0
  4 18  2  0
  6 12  1  0
  6 17  4  0
  6 23  4  0
  7  9  1  0
  7 13  4  0
  7 19  4  0
  9 20  1  0
 10 19  4  0
 11 25  4  0
 13 14  4  0
 15 16  4  0
 15 17  4  0
 15 21  4  0
 16 24  1  0
 16 25  4  0
 20 24  1  0
 20 26  2  0
 21 23  4  0
 22 23  1  0
M  END
$$$$

 Created by Python create_sdf_string function

 26 28  0  0  0  0  0  0  0  0999 V2000
   12.4616    8.6700   19.4180 N   0  0  0  0  0  0  0  0  0  0  0  0
   11.8329   10.8148   18.6769 N   0  0  0  0  0  0  0  0  0  0  0  0
    6.1021    2.5564   21.0678 C   0  0  0  0  0  0  0  0  0  0  0  0
   10.9097   11.8051   18.4804 C   0  0  0  0  0  0  0  0  0  0  0  0
   11.2280   12.9135   17.5669 C   0  0  0  0  0  0  0  0  0  0  0  0
   12.3782    5.4231   20.7777 C   0  0  0  0  0  0  0  0  0  0  0  0
    7.7365    4.6508   21.6987 C   0  0  0  0  0  0  0  0  0  0  0  0
   13.0186   11.0102   18.0020 C   0  0  0  0  0  0  0  0  0  0  0  0
    8.6628    5.7088   21.8871 N   0  0  0  0  0  0  0  0  0  0  0  0
    5.6516    3.5258   21.9140 C   0  0  0  0  0  0  0  0  0  0  0  0
   11.5863    9.6815   19.4539 C   0  0  0  0  0  0  0  0  0  0  0  0
   12.9648    4.1543   20.9205 C   0  0  0  0  0  0  0  0  0  0  0  0
    8.2089    3.6265   20.8929 C   0  0  0  0  0  0  0  0  0  0  0  0
    7.3827    2.5724   20.5432 C   0  0  0  0  0  0  0  0  0  0  0  0
   11.1529    7.2750   20.8025 C   0  0  0  0  0  0  0  0  0  0  0  0
   10.2573    8.3215   20.9827 C   0  0  0  0  0  0  0  0  0  0  0  0
   11.1606    5.9378   21.2366 N   0  0  0  0  0  0  0  0  0  0  0  0
    9.8932   11.6736   19.0677 O   0  0  0  0  0  0  0  0  0  0  0  0
    6.4470    4.5850   22.2321 C   0  0  0  0  0  0  0  0  0  0  0  0
    8.4619    6.9895   22.2968 C   0  0  0  0  0  0  0  0  0  0  0  0
   12.2747    7.5102   20.0420 C   0  0  0  0  0  0  0  0  0  0  0  0
   14.2544    6.2142   19.4191 C   0  0  0  0  0  0  0  0  0  0  0  0
   13.0695    6.3705   20.0375 N   0  0  0  0  0  0  0  0  0  0  0  0
    9.1913    8.0876   21.8361 N   0  0  0  0  0  0  0  0  0  0  0  0
   10.4739    9.4813   20.2889 C   0  0  0  0  0  0  0  0  0  0  0  0
    7.5551    7.1270   23.1200 O   0  0  0  0  0  0  0  0  0  0  0  0
  1 11  4  0
  1 21  4  0
  2  4  1  0
  2  8  1  0
  2 11  1  0
  3 10  4  0
  3 14  4  0
  4  5  1  0
  4 18  2  0
  6 12  1  0
  6 17  4  0
  6 23  4  0
  7  9  1  0
  7 13  4  0
  7 19  4  0
  9 20  1  0
 10 19  4  0
 11 25  4  0
 13 14  4  0
 15 16  4  0
 15 17  4  0
 15 21  4  0
 16 24  1  0
 16 25  4  0
 20 24  1  0
 20 26  2  0
 21 23  4  0
 22 23  1  0
M  END
$$$$

 Created by Python create_sdf_string function

 26 28  0  0  0  0  0  0  0  0999 V2000
   12.4616    8.6700   19.4180 N   0  0  0  0  0  0  0  0  0  0  0  0
   11.8329   10.8148   18.6769 N   0  0  0  0  0  0  0  0  0  0  0  0
    6.1021    2.5564   21.0678 C   0  0  0  0  0  0  0  0  0  0  0  0
   10.9097   11.8051   18.4804 C   0  0  0  0  0  0  0  0  0  0  0  0
   11.2280   12.9135   17.5669 C   0  0  0  0  0  0  0  0  0  0  0  0
   12.3782    5.4231   20.7777 C   0  0  0  0  0  0  0  0  0  0  0  0
    7.7365    4.6508   21.6987 C   0  0  0  0  0  0  0  0  0  0  0  0
   13.0186   11.0102   18.0020 C   0  0  0  0  0  0  0  0  0  0  0  0
    8.6628    5.7088   21.8871 N   0  0  0  0  0  0  0  0  0  0  0  0
    5.6516    3.5258   21.9140 C   0  0  0  0  0  0  0  0  0  0  0  0
   11.5863    9.6815   19.4539 C   0  0  0  0  0  0  0  0  0  0  0  0
   12.9648    4.1543   20.9205 C   0  0  0  0  0  0  0  0  0  0  0  0
    8.2089    3.6265   20.8929 C   0  0  0  0  0  0  0  0  0  0  0  0
    7.3827    2.5724   20.5432 C   0  0  0  0  0  0  0  0  0  0  0  0
   11.1529    7.2750   20.8025 C   0  0  0  0  0  0  0  0  0  0  0  0
   10.2573    8.3215   20.9827 C   0  0  0  0  0  0  0  0  0  0  0  0
   11.1606    5.9378   21.2366 N   0  0  0  0  0  0  0  0  0  0  0  0
    9.8932   11.6736   19.0677 O   0  0  0  0  0  0  0  0  0  0  0  0
    6.4470    4.5850   22.2321 C   0  0  0  0  0  0  0  0  0  0  0  0
    8.4619    6.9895   22.2968 C   0  0  0  0  0  0  0  0  0  0  0  0
   12.2747    7.5102   20.0420 C   0  0  0  0  0  0  0  0  0  0  0  0
   14.2544    6.2142   19.4191 C   0  0  0  0  0  0  0  0  0  0  0  0
   13.0695    6.3705   20.0375 N   0  0  0  0  0  0  0  0  0  0  0  0
    9.1913    8.0876   21.8361 N   0  0  0  0  0  0  0  0  0  0  0  0
   10.4739    9.4813   20.2889 C   0  0  0  0  0  0  0  0  0  0  0  0
    7.5551    7.1270   23.1200 O   0  0  0  0  0  0  0  0  0  0  0  0
  1 11  4  0
  1 21  4  0
  2  4  1  0
  2  8  1  0
  2 11  1  0
  3 10  4  0
  3 14  4  0
  4  5  1  0
  4 18  2  0
  6 12  1  0
  6 17  4  0
  6 23  4  0
  7  9  1  0
  7 13  4  0
  7 19  4  0
  9 20  1  0
 10 19  4  0
 11 25  4  0
 13 14  4  0
 15 16  4  0
 15 17  4  0
 15 21  4  0
 16 24  1  0
 16 25  4  0
 20 24  1  0
 20 26  2  0
 21 23  4  0
 22 23  1  0
M  END
$$$$

 Created by Python create_sdf_string function

 26 28  0  0  0  0  0  0  0  0999 V2000
   12.4616    8.6700   19.4180 N   0  0  0  0  0  0  0  0  0  0  0  0
   11.8329   10.8148   18.6769 N   0  0  0  0  0  0  0  0  0  0  0  0
    6.1021    2.5564   21.0678 C   0  0  0  0  0  0  0  0  0  0  0  0
   10.9097   11.8051   18.4804 C   0  0  0  0  0  0  0  0  0  0  0  0
   11.2280   12.9135   17.5669 C   0  0  0  0  0  0  0  0  0  0  0  0
   12.3782    5.4231   20.7777 C   0  0  0  0  0  0  0  0  0  0  0  0
    7.7365    4.6508   21.6987 C   0  0  0  0  0  0  0  0  0  0  0  0
   13.0186   11.0102   18.0020 C   0  0  0  0  0  0  0  0  0  0  0  0
    8.6628    5.7088   21.8871 N   0  0  0  0  0  0  0  0  0  0  0  0
    5.6516    3.5258   21.9140 C   0  0  0  0  0  0  0  0  0  0  0  0
   11.5863    9.6815   19.4539 C   0  0  0  0  0  0  0  0  0  0  0  0
   12.9648    4.1543   20.9205 C   0  0  0  0  0  0  0  0  0  0  0  0
    8.2089    3.6265   20.8929 C   0  0  0  0  0  0  0  0  0  0  0  0
    7.3827    2.5724   20.5432 C   0  0  0  0  0  0  0  0  0  0  0  0
   11.1529    7.2750   20.8025 C   0  0  0  0  0  0  0  0  0  0  0  0
   10.2573    8.3215   20.9827 C   0  0  0  0  0  0  0  0  0  0  0  0
   11.1606    5.9378   21.2366 N   0  0  0  0  0  0  0  0  0  0  0  0
    9.8932   11.6736   19.0677 O   0  0  0  0  0  0  0  0  0  0  0  0
    6.4470    4.5850   22.2321 C   0  0  0  0  0  0  0  0  0  0  0  0
    8.4619    6.9895   22.2968 C   0  0  0  0  0  0  0  0  0  0  0  0
   12.2747    7.5102   20.0420 C   0  0  0  0  0  0  0  0  0  0  0  0
   14.2544    6.2142   19.4191 C   0  0  0  0  0  0  0  0  0  0  0  0
   13.0695    6.3705   20.0375 N   0  0  0  0  0  0  0  0  0  0  0  0
    9.1913    8.0876   21.8361 N   0  0  0  0  0  0  0  0  0  0  0  0
   10.4739    9.4813   20.2889 C   0  0  0  0  0  0  0  0  0  0  0  0
    7.5551    7.1270   23.1200 O   0  0  0  0  0  0  0  0  0  0  0  0
  1 11  4  0
  1 21  4  0
  2  4  1  0
  2  8  1  0
  2 11  1  0
  3 10  4  0
  3 14  4  0
  4  5  1  0
  4 18  2  0
  6 12  1  0
  6 17  4  0
  6 23  4  0
  7  9  1  0
  7 13  4  0
  7 19  4  0
  9 20  1  0
 10 19  4  0
 11 25  4  0
 13 14  4  0
 15 16  4  0
 15 17  4  0
 15 21  4  0
 16 24  1  0
 16 25  4  0
 20 24  1  0
 20 26  2  0
 21 23  4  0
 22 23  1  0
M  END
$$$$

 Created by Python create_sdf_string function

 26 28  0  0  0  0  0  0  0  0999 V2000
   12.4616    8.6700   19.4180 N   0  0  0  0  0  0  0  0  0  0  0  0
   11.8329   10.8148   18.6769 N   0  0  0  0  0  0  0  0  0  0  0  0
    6.1021    2.5564   21.0678 C   0  0  0  0  0  0  0  0  0  0  0  0
   10.9097   11.8051   18.4804 C   0  0  0  0  0  0  0  0  0  0  0  0
   11.2280   12.9135   17.5669 C   0  0  0  0  0  0  0  0  0  0  0  0
   12.3782    5.4231   20.7777 C   0  0  0  0  0  0  0  0  0  0  0  0
    7.7365    4.6508   21.6987 C   0  0  0  0  0  0  0  0  0  0  0  0
   13.0186   11.0102   18.0020 C   0  0  0  0  0  0  0  0  0  0  0  0
    8.6628    5.7088   21.8871 N   0  0  0  0  0  0  0  0  0  0  0  0
    5.6516    3.5258   21.9140 C   0  0  0  0  0  0  0  0  0  0  0  0
   11.5863    9.6815   19.4539 C   0  0  0  0  0  0  0  0  0  0  0  0
   12.9648    4.1543   20.9205 C   0  0  0  0  0  0  0  0  0  0  0  0
    8.2089    3.6265   20.8929 C   0  0  0  0  0  0  0  0  0  0  0  0
    7.3827    2.5724   20.5432 C   0  0  0  0  0  0  0  0  0  0  0  0
   11.1529    7.2750   20.8025 C   0  0  0  0  0  0  0  0  0  0  0  0
   10.2573    8.3215   20.9827 C   0  0  0  0  0  0  0  0  0  0  0  0
   11.1606    5.9378   21.2366 N   0  0  0  0  0  0  0  0  0  0  0  0
    9.8932   11.6736   19.0677 O   0  0  0  0  0  0  0  0  0  0  0  0
    6.4470    4.5850   22.2321 C   0  0  0  0  0  0  0  0  0  0  0  0
    8.4619    6.9895   22.2968 C   0  0  0  0  0  0  0  0  0  0  0  0
   12.2747    7.5102   20.0420 C   0  0  0  0  0  0  0  0  0  0  0  0
   14.2544    6.2142   19.4191 C   0  0  0  0  0  0  0  0  0  0  0  0
   13.0695    6.3705   20.0375 N   0  0  0  0  0  0  0  0  0  0  0  0
    9.1913    8.0876   21.8361 N   0  0  0  0  0  0  0  0  0  0  0  0
   10.4739    9.4813   20.2889 C   0  0  0  0  0  0  0  0  0  0  0  0
    7.5551    7.1270   23.1200 O   0  0  0  0  0  0  0  0  0  0  0  0
  1 11  4  0
  1 21  4  0
  2  4  1  0
  2  8  1  0
  2 11  1  0
  3 10  4  0
  3 14  4  0
  4  5  1  0
  4 18  2  0
  6 12  1  0
  6 17  4  0
  6 23  4  0
  7  9  1  0
  7 13  4  0
  7 19  4  0
  9 20  1  0
 10 19  4  0
 11 25  4  0
 13 14  4  0
 15 16  4  0
 15 17  4  0
 15 21  4  0
 16 24  1  0
 16 25  4  0
 20 24  1  0
 20 26  2  0
 21 23  4  0
 22 23  1  0
M  END
$$$$

 Created by Python create_sdf_string function

 26 28  0  0  0  0  0  0  0  0999 V2000
   12.4616    8.6700   19.4180 N   0  0  0  0  0  0  0  0  0  0  0  0
   11.8329   10.8148   18.6769 N   0  0  0  0  0  0  0  0  0  0  0  0
    6.1021    2.5564   21.0678 C   0  0  0  0  0  0  0  0  0  0  0  0
   10.9097   11.8051   18.4804 C   0  0  0  0  0  0  0  0  0  0  0  0
   11.2280   12.9135   17.5669 C   0  0  0  0  0  0  0  0  0  0  0  0
   12.3782    5.4231   20.7777 C   0  0  0  0  0  0  0  0  0  0  0  0
    7.7365    4.6508   21.6987 C   0  0  0  0  0  0  0  0  0  0  0  0
   13.0186   11.0102   18.0020 C   0  0  0  0  0  0  0  0  0  0  0  0
    8.6628    5.7088   21.8871 N   0  0  0  0  0  0  0  0  0  0  0  0
    5.6516    3.5258   21.9140 C   0  0  0  0  0  0  0  0  0  0  0  0
   11.5863    9.6815   19.4539 C   0  0  0  0  0  0  0  0  0  0  0  0
   12.9648    4.1543   20.9205 C   0  0  0  0  0  0  0  0  0  0  0  0
    8.2089    3.6265   20.8929 C   0  0  0  0  0  0  0  0  0  0  0  0
    7.3827    2.5724   20.5432 C   0  0  0  0  0  0  0  0  0  0  0  0
   11.1529    7.2750   20.8025 C   0  0  0  0  0  0  0  0  0  0  0  0
   10.2573    8.3215   20.9827 C   0  0  0  0  0  0  0  0  0  0  0  0
   11.1606    5.9378   21.2366 N   0  0  0  0  0  0  0  0  0  0  0  0
    9.8932   11.6736   19.0677 O   0  0  0  0  0  0  0  0  0  0  0  0
    6.4470    4.5850   22.2321 C   0  0  0  0  0  0  0  0  0  0  0  0
    8.4619    6.9895   22.2968 C   0  0  0  0  0  0  0  0  0  0  0  0
   12.2747    7.5102   20.0420 C   0  0  0  0  0  0  0  0  0  0  0  0
   14.2544    6.2142   19.4191 C   0  0  0  0  0  0  0  0  0  0  0  0
   13.0695    6.3705   20.0375 N   0  0  0  0  0  0  0  0  0  0  0  0
    9.1913    8.0876   21.8361 N   0  0  0  0  0  0  0  0  0  0  0  0
   10.4739    9.4813   20.2889 C   0  0  0  0  0  0  0  0  0  0  0  0
    7.5551    7.1270   23.1200 O   0  0  0  0  0  0  0  0  0  0  0  0
  1 11  4  0
  1 21  4  0
  2  4  1  0
  2  8  1  0
  2 11  1  0
  3 10  4  0
  3 14  4  0
  4  5  1  0
  4 18  2  0
  6 12  1  0
  6 17  4  0
  6 23  4  0
  7  9  1  0
  7 13  4  0
  7 19  4  0
  9 20  1  0
 10 19  4  0
 11 25  4  0
 13 14  4  0
 15 16  4  0
 15 17  4  0
 15 21  4  0
 16 24  1  0
 16 25  4  0
 20 24  1  0
 20 26  2  0
 21 23  4  0
 22 23  1  0
M  END
$$$$

 Created by Python create_sdf_string function

 26 28  0  0  0  0  0  0  0  0999 V2000
   12.4616    8.6700   19.4180 N   0  0  0  0  0  0  0  0  0  0  0  0
   11.8329   10.8148   18.6769 N   0  0  0  0  0  0  0  0  0  0  0  0
    6.1021    2.5564   21.0678 C   0  0  0  0  0  0  0  0  0  0  0  0
   10.9097   11.8051   18.4804 C   0  0  0  0  0  0  0  0  0  0  0  0
   11.2280   12.9135   17.5669 C   0  0  0  0  0  0  0  0  0  0  0  0
   12.3782    5.4231   20.7777 C   0  0  0  0  0  0  0  0  0  0  0  0
    7.7365    4.6508   21.6987 C   0  0  0  0  0  0  0  0  0  0  0  0
   13.0186   11.0102   18.0020 C   0  0  0  0  0  0  0  0  0  0  0  0
    8.6628    5.7088   21.8871 N   0  0  0  0  0  0  0  0  0  0  0  0
    5.6516    3.5258   21.9140 C   0  0  0  0  0  0  0  0  0  0  0  0
   11.5863    9.6815   19.4539 C   0  0  0  0  0  0  0  0  0  0  0  0
   12.9648    4.1543   20.9205 C   0  0  0  0  0  0  0  0  0  0  0  0
    8.2089    3.6265   20.8929 C   0  0  0  0  0  0  0  0  0  0  0  0
    7.3827    2.5724   20.5432 C   0  0  0  0  0  0  0  0  0  0  0  0
   11.1529    7.2750   20.8025 C   0  0  0  0  0  0  0  0  0  0  0  0
   10.2573    8.3215   20.9827 C   0  0  0  0  0  0  0  0  0  0  0  0
   11.1606    5.9378   21.2366 N   0  0  0  0  0  0  0  0  0  0  0  0
    9.8932   11.6736   19.0677 O   0  0  0  0  0  0  0  0  0  0  0  0
    6.4470    4.5850   22.2321 C   0  0  0  0  0  0  0  0  0  0  0  0
    8.4619    6.9895   22.2968 C   0  0  0  0  0  0  0  0  0  0  0  0
   12.2747    7.5102   20.0420 C   0  0  0  0  0  0  0  0  0  0  0  0
   14.2544    6.2142   19.4191 C   0  0  0  0  0  0  0  0  0  0  0  0
   13.0695    6.3705   20.0375 N   0  0  0  0  0  0  0  0  0  0  0  0
    9.1913    8.0876   21.8361 N   0  0  0  0  0  0  0  0  0  0  0  0
   10.4739    9.4813   20.2889 C   0  0  0  0  0  0  0  0  0  0  0  0
    7.5551    7.1270   23.1200 O   0  0  0  0  0  0  0  0  0  0  0  0
  1 11  4  0
  1 21  4  0
  2  4  1  0
  2  8  1  0
  2 11  1  0
  3 10  4  0
  3 14  4  0
  4  5  1  0
  4 18  2  0
  6 12  1  0
  6 17  4  0
  6 23  4  0
  7  9  1  0
  7 13  4  0
  7 19  4  0
  9 20  1  0
 10 19  4  0
 11 25  4  0
 13 14  4  0
 15 16  4  0
 15 17  4  0
 15 21  4  0
 16 24  1  0
 16 25  4  0
 20 24  1  0
 20 26  2  0
 21 23  4  0
 22 23  1  0
M  END
$$$$

 Created by Python create_sdf_string function

 26 28  0  0  0  0  0  0  0  0999 V2000
   12.4616    8.6700   19.4180 N   0  0  0  0  0  0  0  0  0  0  0  0
   11.8329   10.8148   18.6769 N   0  0  0  0  0  0  0  0  0  0  0  0
    6.1021    2.5564   21.0678 C   0  0  0  0  0  0  0  0  0  0  0  0
   10.9097   11.8051   18.4804 C   0  0  0  0  0  0  0  0  0  0  0  0
   11.2280   12.9135   17.5669 C   0  0  0  0  0  0  0  0  0  0  0  0
   12.3782    5.4231   20.7777 C   0  0  0  0  0  0  0  0  0  0  0  0
    7.7365    4.6508   21.6987 C   0  0  0  0  0  0  0  0  0  0  0  0
   13.0186   11.0102   18.0020 C   0  0  0  0  0  0  0  0  0  0  0  0
    8.6628    5.7088   21.8871 N   0  0  0  0  0  0  0  0  0  0  0  0
    5.6516    3.5258   21.9140 C   0  0  0  0  0  0  0  0  0  0  0  0
   11.5863    9.6815   19.4539 C   0  0  0  0  0  0  0  0  0  0  0  0
   12.9648    4.1543   20.9205 C   0  0  0  0  0  0  0  0  0  0  0  0
    8.2089    3.6265   20.8929 C   0  0  0  0  0  0  0  0  0  0  0  0
    7.3827    2.5724   20.5432 C   0  0  0  0  0  0  0  0  0  0  0  0
   11.1529    7.2750   20.8025 C   0  0  0  0  0  0  0  0  0  0  0  0
   10.2573    8.3215   20.9827 C   0  0  0  0  0  0  0  0  0  0  0  0
   11.1606    5.9378   21.2366 N   0  0  0  0  0  0  0  0  0  0  0  0
    9.8932   11.6736   19.0677 O   0  0  0  0  0  0  0  0  0  0  0  0
    6.4470    4.5850   22.2321 C   0  0  0  0  0  0  0  0  0  0  0  0
    8.4619    6.9895   22.2968 C   0  0  0  0  0  0  0  0  0  0  0  0
   12.2747    7.5102   20.0420 C   0  0  0  0  0  0  0  0  0  0  0  0
   14.2544    6.2142   19.4191 C   0  0  0  0  0  0  0  0  0  0  0  0
   13.0695    6.3705   20.0375 N   0  0  0  0  0  0  0  0  0  0  0  0
    9.1913    8.0876   21.8361 N   0  0  0  0  0  0  0  0  0  0  0  0
   10.4739    9.4813   20.2889 C   0  0  0  0  0  0  0  0  0  0  0  0
    7.5551    7.1270   23.1200 O   0  0  0  0  0  0  0  0  0  0  0  0
  1 11  4  0
  1 21  4  0
  2  4  1  0
  2  8  1  0
  2 11  1  0
  3 10  4  0
  3 14  4  0
  4  5  1  0
  4 18  2  0
  6 12  1  0
  6 17  4  0
  6 23  4  0
  7  9  1  0
  7 13  4  0
  7 19  4  0
  9 20  1  0
 10 19  4  0
 11 25  4  0
 13 14  4  0
 15 16  4  0
 15 17  4  0
 15 21  4  0
 16 24  1  0
 16 25  4  0
 20 24  1  0
 20 26  2  0
 21 23  4  0
 22 23  1  0
M  END
$$$$

 Created by Python create_sdf_string function

 26 28  0  0  0  0  0  0  0  0999 V2000
   12.4616    8.6700   19.4180 N   0  0  0  0  0  0  0  0  0  0  0  0
   11.8329   10.8148   18.6769 N   0  0  0  0  0  0  0  0  0  0  0  0
    6.1021    2.5564   21.0678 C   0  0  0  0  0  0  0  0  0  0  0  0
   10.9097   11.8051   18.4804 C   0  0  0  0  0  0  0  0  0  0  0  0
   11.2280   12.9135   17.5669 C   0  0  0  0  0  0  0  0  0  0  0  0
   12.3782    5.4231   20.7777 C   0  0  0  0  0  0  0  0  0  0  0  0
    7.7365    4.6508   21.6987 C   0  0  0  0  0  0  0  0  0  0  0  0
   13.0186   11.0102   18.0020 C   0  0  0  0  0  0  0  0  0  0  0  0
    8.6628    5.7088   21.8871 N   0  0  0  0  0  0  0  0  0  0  0  0
    5.6516    3.5258   21.9140 C   0  0  0  0  0  0  0  0  0  0  0  0
   11.5863    9.6815   19.4539 C   0  0  0  0  0  0  0  0  0  0  0  0
   12.9648    4.1543   20.9205 C   0  0  0  0  0  0  0  0  0  0  0  0
    8.2089    3.6265   20.8929 C   0  0  0  0  0  0  0  0  0  0  0  0
    7.3827    2.5724   20.5432 C   0  0  0  0  0  0  0  0  0  0  0  0
   11.1529    7.2750   20.8025 C   0  0  0  0  0  0  0  0  0  0  0  0
   10.2573    8.3215   20.9827 C   0  0  0  0  0  0  0  0  0  0  0  0
   11.1606    5.9378   21.2366 N   0  0  0  0  0  0  0  0  0  0  0  0
    9.8932   11.6736   19.0677 O   0  0  0  0  0  0  0  0  0  0  0  0
    6.4470    4.5850   22.2321 C   0  0  0  0  0  0  0  0  0  0  0  0
    8.4619    6.9895   22.2968 C   0  0  0  0  0  0  0  0  0  0  0  0
   12.2747    7.5102   20.0420 C   0  0  0  0  0  0  0  0  0  0  0  0
   14.2544    6.2142   19.4191 C   0  0  0  0  0  0  0  0  0  0  0  0
   13.0695    6.3705   20.0375 N   0  0  0  0  0  0  0  0  0  0  0  0
    9.1913    8.0876   21.8361 N   0  0  0  0  0  0  0  0  0  0  0  0
   10.4739    9.4813   20.2889 C   0  0  0  0  0  0  0  0  0  0  0  0
    7.5551    7.1270   23.1200 O   0  0  0  0  0  0  0  0  0  0  0  0
  1 11  4  0
  1 21  4  0
  2  4  1  0
  2  8  1  0
  2 11  1  0
  3 10  4  0
  3 14  4  0
  4  5  1  0
  4 18  2  0
  6 12  1  0
  6 17  4  0
  6 23  4  0
  7  9  1  0
  7 13  4  0
  7 19  4  0
  9 20  1  0
 10 19  4  0
 11 25  4  0
 13 14  4  0
 15 16  4  0
 15 17  4  0
 15 21  4  0
 16 24  1  0
 16 25  4  0
 20 24  1  0
 20 26  2  0
 21 23  4  0
 22 23  1  0
M  END
$$$$

 Created by Python create_sdf_string function

 26 28  0  0  0  0  0  0  0  0999 V2000
   12.4616    8.6700   19.4180 N   0  0  0  0  0  0  0  0  0  0  0  0
   11.8329   10.8148   18.6769 N   0  0  0  0  0  0  0  0  0  0  0  0
    6.1021    2.5564   21.0678 C   0  0  0  0  0  0  0  0  0  0  0  0
   10.9097   11.8051   18.4804 C   0  0  0  0  0  0  0  0  0  0  0  0
   11.2280   12.9135   17.5669 C   0  0  0  0  0  0  0  0  0  0  0  0
   12.3782    5.4231   20.7777 C   0  0  0  0  0  0  0  0  0  0  0  0
    7.7365    4.6508   21.6987 C   0  0  0  0  0  0  0  0  0  0  0  0
   13.0186   11.0102   18.0020 C   0  0  0  0  0  0  0  0  0  0  0  0
    8.6628    5.7088   21.8871 N   0  0  0  0  0  0  0  0  0  0  0  0
    5.6516    3.5258   21.9140 C   0  0  0  0  0  0  0  0  0  0  0  0
   11.5863    9.6815   19.4539 C   0  0  0  0  0  0  0  0  0  0  0  0
   12.9648    4.1543   20.9205 C   0  0  0  0  0  0  0  0  0  0  0  0
    8.2089    3.6265   20.8929 C   0  0  0  0  0  0  0  0  0  0  0  0
    7.3827    2.5724   20.5432 C   0  0  0  0  0  0  0  0  0  0  0  0
   11.1529    7.2750   20.8025 C   0  0  0  0  0  0  0  0  0  0  0  0
   10.2573    8.3215   20.9827 C   0  0  0  0  0  0  0  0  0  0  0  0
   11.1606    5.9378   21.2366 N   0  0  0  0  0  0  0  0  0  0  0  0
    9.8932   11.6736   19.0677 O   0  0  0  0  0  0  0  0  0  0  0  0
    6.4470    4.5850   22.2321 C   0  0  0  0  0  0  0  0  0  0  0  0
    8.4619    6.9895   22.2968 C   0  0  0  0  0  0  0  0  0  0  0  0
   12.2747    7.5102   20.0420 C   0  0  0  0  0  0  0  0  0  0  0  0
   14.2544    6.2142   19.4191 C   0  0  0  0  0  0  0  0  0  0  0  0
   13.0695    6.3705   20.0375 N   0  0  0  0  0  0  0  0  0  0  0  0
    9.1913    8.0876   21.8361 N   0  0  0  0  0  0  0  0  0  0  0  0
   10.4739    9.4813   20.2889 C   0  0  0  0  0  0  0  0  0  0  0  0
    7.5551    7.1270   23.1200 O   0  0  0  0  0  0  0  0  0  0  0  0
  1 11  4  0
  1 21  4  0
  2  4  1  0
  2  8  1  0
  2 11  1  0
  3 10  4  0
  3 14  4  0
  4  5  1  0
  4 18  2  0
  6 12  1  0
  6 17  4  0
  6 23  4  0
  7  9  1  0
  7 13  4  0
  7 19  4  0
  9 20  1  0
 10 19  4  0
 11 25  4  0
 13 14  4  0
 15 16  4  0
 15 17  4  0
 15 21  4  0
 16 24  1  0
 16 25  4  0
 20 24  1  0
 20 26  2  0
 21 23  4  0
 22 23  1  0
M  END
$$$$

 Created by Python create_sdf_string function

 26 28  0  0  0  0  0  0  0  0999 V2000
   12.4616    8.6700   19.4180 N   0  0  0  0  0  0  0  0  0  0  0  0
   11.8329   10.8148   18.6769 N   0  0  0  0  0  0  0  0  0  0  0  0
    6.1021    2.5564   21.0678 C   0  0  0  0  0  0  0  0  0  0  0  0
   10.9097   11.8051   18.4804 C   0  0  0  0  0  0  0  0  0  0  0  0
   11.2280   12.9135   17.5669 C   0  0  0  0  0  0  0  0  0  0  0  0
   12.3782    5.4231   20.7777 C   0  0  0  0  0  0  0  0  0  0  0  0
    7.7365    4.6508   21.6987 C   0  0  0  0  0  0  0  0  0  0  0  0
   13.0186   11.0102   18.0020 C   0  0  0  0  0  0  0  0  0  0  0  0
    8.6628    5.7088   21.8871 N   0  0  0  0  0  0  0  0  0  0  0  0
    5.6516    3.5258   21.9140 C   0  0  0  0  0  0  0  0  0  0  0  0
   11.5863    9.6815   19.4539 C   0  0  0  0  0  0  0  0  0  0  0  0
   12.9648    4.1543   20.9205 C   0  0  0  0  0  0  0  0  0  0  0  0
    8.2089    3.6265   20.8929 C   0  0  0  0  0  0  0  0  0  0  0  0
    7.3827    2.5724   20.5432 C   0  0  0  0  0  0  0  0  0  0  0  0
   11.1529    7.2750   20.8025 C   0  0  0  0  0  0  0  0  0  0  0  0
   10.2573    8.3215   20.9827 C   0  0  0  0  0  0  0  0  0  0  0  0
   11.1606    5.9378   21.2366 N   0  0  0  0  0  0  0  0  0  0  0  0
    9.8932   11.6736   19.0677 O   0  0  0  0  0  0  0  0  0  0  0  0
    6.4470    4.5850   22.2321 C   0  0  0  0  0  0  0  0  0  0  0  0
    8.4619    6.9895   22.2968 C   0  0  0  0  0  0  0  0  0  0  0  0
   12.2747    7.5102   20.0420 C   0  0  0  0  0  0  0  0  0  0  0  0
   14.2544    6.2142   19.4191 C   0  0  0  0  0  0  0  0  0  0  0  0
   13.0695    6.3705   20.0375 N   0  0  0  0  0  0  0  0  0  0  0  0
    9.1913    8.0876   21.8361 N   0  0  0  0  0  0  0  0  0  0  0  0
   10.4739    9.4813   20.2889 C   0  0  0  0  0  0  0  0  0  0  0  0
    7.5551    7.1270   23.1200 O   0  0  0  0  0  0  0  0  0  0  0  0
  1 11  4  0
  1 21  4  0
  2  4  1  0
  2  8  1  0
  2 11  1  0
  3 10  4  0
  3 14  4  0
  4  5  1  0
  4 18  2  0
  6 12  1  0
  6 17  4  0
  6 23  4  0
  7  9  1  0
  7 13  4  0
  7 19  4  0
  9 20  1  0
 10 19  4  0
 11 25  4  0
 13 14  4  0
 15 16  4  0
 15 17  4  0
 15 21  4  0
 16 24  1  0
 16 25  4  0
 20 24  1  0
 20 26  2  0
 21 23  4  0
 22 23  1  0
M  END
$$$$

 Created by Python create_sdf_string function

 26 28  0  0  0  0  0  0  0  0999 V2000
   12.4616    8.6700   19.4180 N   0  0  0  0  0  0  0  0  0  0  0  0
   11.8329   10.8148   18.6769 N   0  0  0  0  0  0  0  0  0  0  0  0
    6.1021    2.5564   21.0678 C   0  0  0  0  0  0  0  0  0  0  0  0
   10.9097   11.8051   18.4804 C   0  0  0  0  0  0  0  0  0  0  0  0
   11.2280   12.9135   17.5669 C   0  0  0  0  0  0  0  0  0  0  0  0
   12.3782    5.4231   20.7777 C   0  0  0  0  0  0  0  0  0  0  0  0
    7.7365    4.6508   21.6987 C   0  0  0  0  0  0  0  0  0  0  0  0
   13.0186   11.0102   18.0020 C   0  0  0  0  0  0  0  0  0  0  0  0
    8.6628    5.7088   21.8871 N   0  0  0  0  0  0  0  0  0  0  0  0
    5.6516    3.5258   21.9140 C   0  0  0  0  0  0  0  0  0  0  0  0
   11.5863    9.6815   19.4539 C   0  0  0  0  0  0  0  0  0  0  0  0
   12.9648    4.1543   20.9205 C   0  0  0  0  0  0  0  0  0  0  0  0
    8.2089    3.6265   20.8929 C   0  0  0  0  0  0  0  0  0  0  0  0
    7.3827    2.5724   20.5432 C   0  0  0  0  0  0  0  0  0  0  0  0
   11.1529    7.2750   20.8025 C   0  0  0  0  0  0  0  0  0  0  0  0
   10.2573    8.3215   20.9827 C   0  0  0  0  0  0  0  0  0  0  0  0
   11.1606    5.9378   21.2366 N   0  0  0  0  0  0  0  0  0  0  0  0
    9.8932   11.6736   19.0677 O   0  0  0  0  0  0  0  0  0  0  0  0
    6.4470    4.5850   22.2321 C   0  0  0  0  0  0  0  0  0  0  0  0
    8.4619    6.9895   22.2968 C   0  0  0  0  0  0  0  0  0  0  0  0
   12.2747    7.5102   20.0420 C   0  0  0  0  0  0  0  0  0  0  0  0
   14.2544    6.2142   19.4191 C   0  0  0  0  0  0  0  0  0  0  0  0
   13.0695    6.3705   20.0375 N   0  0  0  0  0  0  0  0  0  0  0  0
    9.1913    8.0876   21.8361 N   0  0  0  0  0  0  0  0  0  0  0  0
   10.4739    9.4813   20.2889 C   0  0  0  0  0  0  0  0  0  0  0  0
    7.5551    7.1270   23.1200 O   0  0  0  0  0  0  0  0  0  0  0  0
  1 11  4  0
  1 21  4  0
  2  4  1  0
  2  8  1  0
  2 11  1  0
  3 10  4  0
  3 14  4  0
  4  5  1  0
  4 18  2  0
  6 12  1  0
  6 17  4  0
  6 23  4  0
  7  9  1  0
  7 13  4  0
  7 19  4  0
  9 20  1  0
 10 19  4  0
 11 25  4  0
 13 14  4  0
 15 16  4  0
 15 17  4  0
 15 21  4  0
 16 24  1  0
 16 25  4  0
 20 24  1  0
 20 26  2  0
 21 23  4  0
 22 23  1  0
M  END
$$$$

 Created by Python create_sdf_string function

 26 28  0  0  0  0  0  0  0  0999 V2000
   12.4616    8.6700   19.4180 N   0  0  0  0  0  0  0  0  0  0  0  0
   11.8329   10.8148   18.6769 N   0  0  0  0  0  0  0  0  0  0  0  0
    6.1021    2.5564   21.0678 C   0  0  0  0  0  0  0  0  0  0  0  0
   10.9097   11.8051   18.4804 C   0  0  0  0  0  0  0  0  0  0  0  0
   11.2280   12.9135   17.5669 C   0  0  0  0  0  0  0  0  0  0  0  0
   12.3782    5.4231   20.7777 C   0  0  0  0  0  0  0  0  0  0  0  0
    7.7365    4.6508   21.6987 C   0  0  0  0  0  0  0  0  0  0  0  0
   13.0186   11.0102   18.0020 C   0  0  0  0  0  0  0  0  0  0  0  0
    8.6628    5.7088   21.8871 N   0  0  0  0  0  0  0  0  0  0  0  0
    5.6516    3.5258   21.9140 C   0  0  0  0  0  0  0  0  0  0  0  0
   11.5863    9.6815   19.4539 C   0  0  0  0  0  0  0  0  0  0  0  0
   12.9648    4.1543   20.9205 C   0  0  0  0  0  0  0  0  0  0  0  0
    8.2089    3.6265   20.8929 C   0  0  0  0  0  0  0  0  0  0  0  0
    7.3827    2.5724   20.5432 C   0  0  0  0  0  0  0  0  0  0  0  0
   11.1529    7.2750   20.8025 C   0  0  0  0  0  0  0  0  0  0  0  0
   10.2573    8.3215   20.9827 C   0  0  0  0  0  0  0  0  0  0  0  0
   11.1606    5.9378   21.2366 N   0  0  0  0  0  0  0  0  0  0  0  0
    9.8932   11.6736   19.0677 O   0  0  0  0  0  0  0  0  0  0  0  0
    6.4470    4.5850   22.2321 C   0  0  0  0  0  0  0  0  0  0  0  0
    8.4619    6.9895   22.2968 C   0  0  0  0  0  0  0  0  0  0  0  0
   12.2747    7.5102   20.0420 C   0  0  0  0  0  0  0  0  0  0  0  0
   14.2544    6.2142   19.4191 C   0  0  0  0  0  0  0  0  0  0  0  0
   13.0695    6.3705   20.0375 N   0  0  0  0  0  0  0  0  0  0  0  0
    9.1913    8.0876   21.8361 N   0  0  0  0  0  0  0  0  0  0  0  0
   10.4739    9.4813   20.2889 C   0  0  0  0  0  0  0  0  0  0  0  0
    7.5551    7.1270   23.1200 O   0  0  0  0  0  0  0  0  0  0  0  0
  1 11  4  0
  1 21  4  0
  2  4  1  0
  2  8  1  0
  2 11  1  0
  3 10  4  0
  3 14  4  0
  4  5  1  0
  4 18  2  0
  6 12  1  0
  6 17  4  0
  6 23  4  0
  7  9  1  0
  7 13  4  0
  7 19  4  0
  9 20  1  0
 10 19  4  0
 11 25  4  0
 13 14  4  0
 15 16  4  0
 15 17  4  0
 15 21  4  0
 16 24  1  0
 16 25  4  0
 20 24  1  0
 20 26  2  0
 21 23  4  0
 22 23  1  0
M  END
$$$$

 Created by Python create_sdf_string function

 26 28  0  0  0  0  0  0  0  0999 V2000
   12.4616    8.6700   19.4180 N   0  0  0  0  0  0  0  0  0  0  0  0
   11.8329   10.8148   18.6769 N   0  0  0  0  0  0  0  0  0  0  0  0
    6.1021    2.5564   21.0678 C   0  0  0  0  0  0  0  0  0  0  0  0
   10.9097   11.8051   18.4804 C   0  0  0  0  0  0  0  0  0  0  0  0
   11.2280   12.9135   17.5669 C   0  0  0  0  0  0  0  0  0  0  0  0
   12.3782    5.4231   20.7777 C   0  0  0  0  0  0  0  0  0  0  0  0
    7.7365    4.6508   21.6987 C   0  0  0  0  0  0  0  0  0  0  0  0
   13.0186   11.0102   18.0020 C   0  0  0  0  0  0  0  0  0  0  0  0
    8.6628    5.7088   21.8871 N   0  0  0  0  0  0  0  0  0  0  0  0
    5.6516    3.5258   21.9140 C   0  0  0  0  0  0  0  0  0  0  0  0
   11.5863    9.6815   19.4539 C   0  0  0  0  0  0  0  0  0  0  0  0
   12.9648    4.1543   20.9205 C   0  0  0  0  0  0  0  0  0  0  0  0
    8.2089    3.6265   20.8929 C   0  0  0  0  0  0  0  0  0  0  0  0
    7.3827    2.5724   20.5432 C   0  0  0  0  0  0  0  0  0  0  0  0
   11.1529    7.2750   20.8025 C   0  0  0  0  0  0  0  0  0  0  0  0
   10.2573    8.3215   20.9827 C   0  0  0  0  0  0  0  0  0  0  0  0
   11.1606    5.9378   21.2366 N   0  0  0  0  0  0  0  0  0  0  0  0
    9.8932   11.6736   19.0677 O   0  0  0  0  0  0  0  0  0  0  0  0
    6.4470    4.5850   22.2321 C   0  0  0  0  0  0  0  0  0  0  0  0
    8.4619    6.9895   22.2968 C   0  0  0  0  0  0  0  0  0  0  0  0
   12.2747    7.5102   20.0420 C   0  0  0  0  0  0  0  0  0  0  0  0
   14.2544    6.2142   19.4191 C   0  0  0  0  0  0  0  0  0  0  0  0
   13.0695    6.3705   20.0375 N   0  0  0  0  0  0  0  0  0  0  0  0
    9.1913    8.0876   21.8361 N   0  0  0  0  0  0  0  0  0  0  0  0
   10.4739    9.4813   20.2889 C   0  0  0  0  0  0  0  0  0  0  0  0
    7.5551    7.1270   23.1200 O   0  0  0  0  0  0  0  0  0  0  0  0
  1 11  4  0
  1 21  4  0
  2  4  1  0
  2  8  1  0
  2 11  1  0
  3 10  4  0
  3 14  4  0
  4  5  1  0
  4 18  2  0
  6 12  1  0
  6 17  4  0
  6 23  4  0
  7  9  1  0
  7 13  4  0
  7 19  4  0
  9 20  1  0
 10 19  4  0
 11 25  4  0
 13 14  4  0
 15 16  4  0
 15 17  4  0
 15 21  4  0
 16 24  1  0
 16 25  4  0
 20 24  1  0
 20 26  2  0
 21 23  4  0
 22 23  1  0
M  END
$$$$

 Created by Python create_sdf_string function

 26 28  0  0  0  0  0  0  0  0999 V2000
   12.4616    8.6700   19.4180 N   0  0  0  0  0  0  0  0  0  0  0  0
   11.8329   10.8148   18.6769 N   0  0  0  0  0  0  0  0  0  0  0  0
    6.1021    2.5564   21.0678 C   0  0  0  0  0  0  0  0  0  0  0  0
   10.9097   11.8051   18.4804 C   0  0  0  0  0  0  0  0  0  0  0  0
   11.2280   12.9135   17.5669 C   0  0  0  0  0  0  0  0  0  0  0  0
   12.3782    5.4231   20.7777 C   0  0  0  0  0  0  0  0  0  0  0  0
    7.7365    4.6508   21.6987 C   0  0  0  0  0  0  0  0  0  0  0  0
   13.0186   11.0102   18.0020 C   0  0  0  0  0  0  0  0  0  0  0  0
    8.6628    5.7088   21.8871 N   0  0  0  0  0  0  0  0  0  0  0  0
    5.6516    3.5258   21.9140 C   0  0  0  0  0  0  0  0  0  0  0  0
   11.5863    9.6815   19.4539 C   0  0  0  0  0  0  0  0  0  0  0  0
   12.9648    4.1543   20.9205 C   0  0  0  0  0  0  0  0  0  0  0  0
    8.2089    3.6265   20.8929 C   0  0  0  0  0  0  0  0  0  0  0  0
    7.3827    2.5724   20.5432 C   0  0  0  0  0  0  0  0  0  0  0  0
   11.1529    7.2750   20.8025 C   0  0  0  0  0  0  0  0  0  0  0  0
   10.2573    8.3215   20.9827 C   0  0  0  0  0  0  0  0  0  0  0  0
   11.1606    5.9378   21.2366 N   0  0  0  0  0  0  0  0  0  0  0  0
    9.8932   11.6736   19.0677 O   0  0  0  0  0  0  0  0  0  0  0  0
    6.4470    4.5850   22.2321 C   0  0  0  0  0  0  0  0  0  0  0  0
    8.4619    6.9895   22.2968 C   0  0  0  0  0  0  0  0  0  0  0  0
   12.2747    7.5102   20.0420 C   0  0  0  0  0  0  0  0  0  0  0  0
   14.2544    6.2142   19.4191 C   0  0  0  0  0  0  0  0  0  0  0  0
   13.0695    6.3705   20.0375 N   0  0  0  0  0  0  0  0  0  0  0  0
    9.1913    8.0876   21.8361 N   0  0  0  0  0  0  0  0  0  0  0  0
   10.4739    9.4813   20.2889 C   0  0  0  0  0  0  0  0  0  0  0  0
    7.5551    7.1270   23.1200 O   0  0  0  0  0  0  0  0  0  0  0  0
  1 11  4  0
  1 21  4  0
  2  4  1  0
  2  8  1  0
  2 11  1  0
  3 10  4  0
  3 14  4  0
  4  5  1  0
  4 18  2  0
  6 12  1  0
  6 17  4  0
  6 23  4  0
  7  9  1  0
  7 13  4  0
  7 19  4  0
  9 20  1  0
 10 19  4  0
 11 25  4  0
 13 14  4  0
 15 16  4  0
 15 17  4  0
 15 21  4  0
 16 24  1  0
 16 25  4  0
 20 24  1  0
 20 26  2  0
 21 23  4  0
 22 23  1  0
M  END
$$$$

 Created by Python create_sdf_string function

 26 28  0  0  0  0  0  0  0  0999 V2000
   12.4616    8.6700   19.4180 N   0  0  0  0  0  0  0  0  0  0  0  0
   11.8329   10.8148   18.6769 N   0  0  0  0  0  0  0  0  0  0  0  0
    6.1021    2.5564   21.0678 C   0  0  0  0  0  0  0  0  0  0  0  0
   10.9097   11.8051   18.4804 C   0  0  0  0  0  0  0  0  0  0  0  0
   11.2280   12.9135   17.5669 C   0  0  0  0  0  0  0  0  0  0  0  0
   12.3782    5.4231   20.7777 C   0  0  0  0  0  0  0  0  0  0  0  0
    7.7365    4.6508   21.6987 C   0  0  0  0  0  0  0  0  0  0  0  0
   13.0186   11.0102   18.0020 C   0  0  0  0  0  0  0  0  0  0  0  0
    8.6628    5.7088   21.8871 N   0  0  0  0  0  0  0  0  0  0  0  0
    5.6516    3.5258   21.9140 C   0  0  0  0  0  0  0  0  0  0  0  0
   11.5863    9.6815   19.4539 C   0  0  0  0  0  0  0  0  0  0  0  0
   12.9648    4.1543   20.9205 C   0  0  0  0  0  0  0  0  0  0  0  0
    8.2089    3.6265   20.8929 C   0  0  0  0  0  0  0  0  0  0  0  0
    7.3827    2.5724   20.5432 C   0  0  0  0  0  0  0  0  0  0  0  0
   11.1529    7.2750   20.8025 C   0  0  0  0  0  0  0  0  0  0  0  0
   10.2573    8.3215   20.9827 C   0  0  0  0  0  0  0  0  0  0  0  0
   11.1606    5.9378   21.2366 N   0  0  0  0  0  0  0  0  0  0  0  0
    9.8932   11.6736   19.0677 O   0  0  0  0  0  0  0  0  0  0  0  0
    6.4470    4.5850   22.2321 C   0  0  0  0  0  0  0  0  0  0  0  0
    8.4619    6.9895   22.2968 C   0  0  0  0  0  0  0  0  0  0  0  0
   12.2747    7.5102   20.0420 C   0  0  0  0  0  0  0  0  0  0  0  0
   14.2544    6.2142   19.4191 C   0  0  0  0  0  0  0  0  0  0  0  0
   13.0695    6.3705   20.0375 N   0  0  0  0  0  0  0  0  0  0  0  0
    9.1913    8.0876   21.8361 N   0  0  0  0  0  0  0  0  0  0  0  0
   10.4739    9.4813   20.2889 C   0  0  0  0  0  0  0  0  0  0  0  0
    7.5551    7.1270   23.1200 O   0  0  0  0  0  0  0  0  0  0  0  0
  1 11  4  0
  1 21  4  0
  2  4  1  0
  2  8  1  0
  2 11  1  0
  3 10  4  0
  3 14  4  0
  4  5  1  0
  4 18  2  0
  6 12  1  0
  6 17  4  0
  6 23  4  0
  7  9  1  0
  7 13  4  0
  7 19  4  0
  9 20  1  0
 10 19  4  0
 11 25  4  0
 13 14  4  0
 15 16  4  0
 15 17  4  0
 15 21  4  0
 16 24  1  0
 16 25  4  0
 20 24  1  0
 20 26  2  0
 21 23  4  0
 22 23  1  0
M  END
$$$$

 Created by Python create_sdf_string function

 26 28  0  0  0  0  0  0  0  0999 V2000
   12.4616    8.6700   19.4180 N   0  0  0  0  0  0  0  0  0  0  0  0
   11.8329   10.8148   18.6769 N   0  0  0  0  0  0  0  0  0  0  0  0
    6.1021    2.5564   21.0678 C   0  0  0  0  0  0  0  0  0  0  0  0
   10.9097   11.8051   18.4804 C   0  0  0  0  0  0  0  0  0  0  0  0
   11.2280   12.9135   17.5669 C   0  0  0  0  0  0  0  0  0  0  0  0
   12.3782    5.4231   20.7777 C   0  0  0  0  0  0  0  0  0  0  0  0
    7.7365    4.6508   21.6987 C   0  0  0  0  0  0  0  0  0  0  0  0
   13.0186   11.0102   18.0020 C   0  0  0  0  0  0  0  0  0  0  0  0
    8.6628    5.7088   21.8871 N   0  0  0  0  0  0  0  0  0  0  0  0
    5.6516    3.5258   21.9140 C   0  0  0  0  0  0  0  0  0  0  0  0
   11.5863    9.6815   19.4539 C   0  0  0  0  0  0  0  0  0  0  0  0
   12.9648    4.1543   20.9205 C   0  0  0  0  0  0  0  0  0  0  0  0
    8.2089    3.6265   20.8929 C   0  0  0  0  0  0  0  0  0  0  0  0
    7.3827    2.5724   20.5432 C   0  0  0  0  0  0  0  0  0  0  0  0
   11.1529    7.2750   20.8025 C   0  0  0  0  0  0  0  0  0  0  0  0
   10.2573    8.3215   20.9827 C   0  0  0  0  0  0  0  0  0  0  0  0
   11.1606    5.9378   21.2366 N   0  0  0  0  0  0  0  0  0  0  0  0
    9.8932   11.6736   19.0677 O   0  0  0  0  0  0  0  0  0  0  0  0
    6.4470    4.5850   22.2321 C   0  0  0  0  0  0  0  0  0  0  0  0
    8.4619    6.9895   22.2968 C   0  0  0  0  0  0  0  0  0  0  0  0
   12.2747    7.5102   20.0420 C   0  0  0  0  0  0  0  0  0  0  0  0
   14.2544    6.2142   19.4191 C   0  0  0  0  0  0  0  0  0  0  0  0
   13.0695    6.3705   20.0375 N   0  0  0  0  0  0  0  0  0  0  0  0
    9.1913    8.0876   21.8361 N   0  0  0  0  0  0  0  0  0  0  0  0
   10.4739    9.4813   20.2889 C   0  0  0  0  0  0  0  0  0  0  0  0
    7.5551    7.1270   23.1200 O   0  0  0  0  0  0  0  0  0  0  0  0
  1 11  4  0
  1 21  4  0
  2  4  1  0
  2  8  1  0
  2 11  1  0
  3 10  4  0
  3 14  4  0
  4  5  1  0
  4 18  2  0
  6 12  1  0
  6 17  4  0
  6 23  4  0
  7  9  1  0
  7 13  4  0
  7 19  4  0
  9 20  1  0
 10 19  4  0
 11 25  4  0
 13 14  4  0
 15 16  4  0
 15 17  4  0
 15 21  4  0
 16 24  1  0
 16 25  4  0
 20 24  1  0
 20 26  2  0
 21 23  4  0
 22 23  1  0
M  END
$$$$

 Created by Python create_sdf_string function

 26 28  0  0  0  0  0  0  0  0999 V2000
   12.4616    8.6700   19.4180 N   0  0  0  0  0  0  0  0  0  0  0  0
   11.8329   10.8148   18.6769 N   0  0  0  0  0  0  0  0  0  0  0  0
    6.1021    2.5564   21.0678 C   0  0  0  0  0  0  0  0  0  0  0  0
   10.9097   11.8051   18.4804 C   0  0  0  0  0  0  0  0  0  0  0  0
   11.2280   12.9135   17.5669 C   0  0  0  0  0  0  0  0  0  0  0  0
   12.3782    5.4231   20.7777 C   0  0  0  0  0  0  0  0  0  0  0  0
    7.7365    4.6508   21.6987 C   0  0  0  0  0  0  0  0  0  0  0  0
   13.0186   11.0102   18.0020 C   0  0  0  0  0  0  0  0  0  0  0  0
    8.6628    5.7088   21.8871 N   0  0  0  0  0  0  0  0  0  0  0  0
    5.6516    3.5258   21.9140 C   0  0  0  0  0  0  0  0  0  0  0  0
   11.5863    9.6815   19.4539 C   0  0  0  0  0  0  0  0  0  0  0  0
   12.9648    4.1543   20.9205 C   0  0  0  0  0  0  0  0  0  0  0  0
    8.2089    3.6265   20.8929 C   0  0  0  0  0  0  0  0  0  0  0  0
    7.3827    2.5724   20.5432 C   0  0  0  0  0  0  0  0  0  0  0  0
   11.1529    7.2750   20.8025 C   0  0  0  0  0  0  0  0  0  0  0  0
   10.2573    8.3215   20.9827 C   0  0  0  0  0  0  0  0  0  0  0  0
   11.1606    5.9378   21.2366 N   0  0  0  0  0  0  0  0  0  0  0  0
    9.8932   11.6736   19.0677 O   0  0  0  0  0  0  0  0  0  0  0  0
    6.4470    4.5850   22.2321 C   0  0  0  0  0  0  0  0  0  0  0  0
    8.4619    6.9895   22.2968 C   0  0  0  0  0  0  0  0  0  0  0  0
   12.2747    7.5102   20.0420 C   0  0  0  0  0  0  0  0  0  0  0  0
   14.2544    6.2142   19.4191 C   0  0  0  0  0  0  0  0  0  0  0  0
   13.0695    6.3705   20.0375 N   0  0  0  0  0  0  0  0  0  0  0  0
    9.1913    8.0876   21.8361 N   0  0  0  0  0  0  0  0  0  0  0  0
   10.4739    9.4813   20.2889 C   0  0  0  0  0  0  0  0  0  0  0  0
    7.5551    7.1270   23.1200 O   0  0  0  0  0  0  0  0  0  0  0  0
  1 11  4  0
  1 21  4  0
  2  4  1  0
  2  8  1  0
  2 11  1  0
  3 10  4  0
  3 14  4  0
  4  5  1  0
  4 18  2  0
  6 12  1  0
  6 17  4  0
  6 23  4  0
  7  9  1  0
  7 13  4  0
  7 19  4  0
  9 20  1  0
 10 19  4  0
 11 25  4  0
 13 14  4  0
 15 16  4  0
 15 17  4  0
 15 21  4  0
 16 24  1  0
 16 25  4  0
 20 24  1  0
 20 26  2  0
 21 23  4  0
 22 23  1  0
M  END
$$$$

 Created by Python create_sdf_string function

 26 28  0  0  0  0  0  0  0  0999 V2000
   12.4616    8.6700   19.4180 N   0  0  0  0  0  0  0  0  0  0  0  0
   11.8329   10.8148   18.6769 N   0  0  0  0  0  0  0  0  0  0  0  0
    6.1021    2.5564   21.0678 C   0  0  0  0  0  0  0  0  0  0  0  0
   10.9097   11.8051   18.4804 C   0  0  0  0  0  0  0  0  0  0  0  0
   11.2280   12.9135   17.5669 C   0  0  0  0  0  0  0  0  0  0  0  0
   12.3782    5.4231   20.7777 C   0  0  0  0  0  0  0  0  0  0  0  0
    7.7365    4.6508   21.6987 C   0  0  0  0  0  0  0  0  0  0  0  0
   13.0186   11.0102   18.0020 C   0  0  0  0  0  0  0  0  0  0  0  0
    8.6628    5.7088   21.8871 N   0  0  0  0  0  0  0  0  0  0  0  0
    5.6516    3.5258   21.9140 C   0  0  0  0  0  0  0  0  0  0  0  0
   11.5863    9.6815   19.4539 C   0  0  0  0  0  0  0  0  0  0  0  0
   12.9648    4.1543   20.9205 C   0  0  0  0  0  0  0  0  0  0  0  0
    8.2089    3.6265   20.8929 C   0  0  0  0  0  0  0  0  0  0  0  0
    7.3827    2.5724   20.5432 C   0  0  0  0  0  0  0  0  0  0  0  0
   11.1529    7.2750   20.8025 C   0  0  0  0  0  0  0  0  0  0  0  0
   10.2573    8.3215   20.9827 C   0  0  0  0  0  0  0  0  0  0  0  0
   11.1606    5.9378   21.2366 N   0  0  0  0  0  0  0  0  0  0  0  0
    9.8932   11.6736   19.0677 O   0  0  0  0  0  0  0  0  0  0  0  0
    6.4470    4.5850   22.2321 C   0  0  0  0  0  0  0  0  0  0  0  0
    8.4619    6.9895   22.2968 C   0  0  0  0  0  0  0  0  0  0  0  0
   12.2747    7.5102   20.0420 C   0  0  0  0  0  0  0  0  0  0  0  0
   14.2544    6.2142   19.4191 C   0  0  0  0  0  0  0  0  0  0  0  0
   13.0695    6.3705   20.0375 N   0  0  0  0  0  0  0  0  0  0  0  0
    9.1913    8.0876   21.8361 N   0  0  0  0  0  0  0  0  0  0  0  0
   10.4739    9.4813   20.2889 C   0  0  0  0  0  0  0  0  0  0  0  0
    7.5551    7.1270   23.1200 O   0  0  0  0  0  0  0  0  0  0  0  0
  1 11  4  0
  1 21  4  0
  2  4  1  0
  2  8  1  0
  2 11  1  0
  3 10  4  0
  3 14  4  0
  4  5  1  0
  4 18  2  0
  6 12  1  0
  6 17  4  0
  6 23  4  0
  7  9  1  0
  7 13  4  0
  7 19  4  0
  9 20  1  0
 10 19  4  0
 11 25  4  0
 13 14  4  0
 15 16  4  0
 15 17  4  0
 15 21  4  0
 16 24  1  0
 16 25  4  0
 20 24  1  0
 20 26  2  0
 21 23  4  0
 22 23  1  0
M  END
$$$$

 Created by Python create_sdf_string function

 26 28  0  0  0  0  0  0  0  0999 V2000
   12.4616    8.6700   19.4180 N   0  0  0  0  0  0  0  0  0  0  0  0
   11.8329   10.8148   18.6769 N   0  0  0  0  0  0  0  0  0  0  0  0
    6.1021    2.5564   21.0678 C   0  0  0  0  0  0  0  0  0  0  0  0
   10.9097   11.8051   18.4804 C   0  0  0  0  0  0  0  0  0  0  0  0
   11.2280   12.9135   17.5669 C   0  0  0  0  0  0  0  0  0  0  0  0
   12.3782    5.4231   20.7777 C   0  0  0  0  0  0  0  0  0  0  0  0
    7.7365    4.6508   21.6987 C   0  0  0  0  0  0  0  0  0  0  0  0
   13.0186   11.0102   18.0020 C   0  0  0  0  0  0  0  0  0  0  0  0
    8.6628    5.7088   21.8871 N   0  0  0  0  0  0  0  0  0  0  0  0
    5.6516    3.5258   21.9140 C   0  0  0  0  0  0  0  0  0  0  0  0
   11.5863    9.6815   19.4539 C   0  0  0  0  0  0  0  0  0  0  0  0
   12.9648    4.1543   20.9205 C   0  0  0  0  0  0  0  0  0  0  0  0
    8.2089    3.6265   20.8929 C   0  0  0  0  0  0  0  0  0  0  0  0
    7.3827    2.5724   20.5432 C   0  0  0  0  0  0  0  0  0  0  0  0
   11.1529    7.2750   20.8025 C   0  0  0  0  0  0  0  0  0  0  0  0
   10.2573    8.3215   20.9827 C   0  0  0  0  0  0  0  0  0  0  0  0
   11.1606    5.9378   21.2366 N   0  0  0  0  0  0  0  0  0  0  0  0
    9.8932   11.6736   19.0677 O   0  0  0  0  0  0  0  0  0  0  0  0
    6.4470    4.5850   22.2321 C   0  0  0  0  0  0  0  0  0  0  0  0
    8.4619    6.9895   22.2968 C   0  0  0  0  0  0  0  0  0  0  0  0
   12.2747    7.5102   20.0420 C   0  0  0  0  0  0  0  0  0  0  0  0
   14.2544    6.2142   19.4191 C   0  0  0  0  0  0  0  0  0  0  0  0
   13.0695    6.3705   20.0375 N   0  0  0  0  0  0  0  0  0  0  0  0
    9.1913    8.0876   21.8361 N   0  0  0  0  0  0  0  0  0  0  0  0
   10.4739    9.4813   20.2889 C   0  0  0  0  0  0  0  0  0  0  0  0
    7.5551    7.1270   23.1200 O   0  0  0  0  0  0  0  0  0  0  0  0
  1 11  4  0
  1 21  4  0
  2  4  1  0
  2  8  1  0
  2 11  1  0
  3 10  4  0
  3 14  4  0
  4  5  1  0
  4 18  2  0
  6 12  1  0
  6 17  4  0
  6 23  4  0
  7  9  1  0
  7 13  4  0
  7 19  4  0
  9 20  1  0
 10 19  4  0
 11 25  4  0
 13 14  4  0
 15 16  4  0
 15 17  4  0
 15 21  4  0
 16 24  1  0
 16 25  4  0
 20 24  1  0
 20 26  2  0
 21 23  4  0
 22 23  1  0
M  END
$$$$

 Created by Python create_sdf_string function

 26 28  0  0  0  0  0  0  0  0999 V2000
   12.4616    8.6700   19.4180 N   0  0  0  0  0  0  0  0  0  0  0  0
   11.8329   10.8148   18.6769 N   0  0  0  0  0  0  0  0  0  0  0  0
    6.1021    2.5564   21.0678 C   0  0  0  0  0  0  0  0  0  0  0  0
   10.9097   11.8051   18.4804 C   0  0  0  0  0  0  0  0  0  0  0  0
   11.2280   12.9135   17.5669 C   0  0  0  0  0  0  0  0  0  0  0  0
   12.3782    5.4231   20.7777 C   0  0  0  0  0  0  0  0  0  0  0  0
    7.7365    4.6508   21.6987 C   0  0  0  0  0  0  0  0  0  0  0  0
   13.0186   11.0102   18.0020 C   0  0  0  0  0  0  0  0  0  0  0  0
    8.6628    5.7088   21.8871 N   0  0  0  0  0  0  0  0  0  0  0  0
    5.6516    3.5258   21.9140 C   0  0  0  0  0  0  0  0  0  0  0  0
   11.5863    9.6815   19.4539 C   0  0  0  0  0  0  0  0  0  0  0  0
   12.9648    4.1543   20.9205 C   0  0  0  0  0  0  0  0  0  0  0  0
    8.2089    3.6265   20.8929 C   0  0  0  0  0  0  0  0  0  0  0  0
    7.3827    2.5724   20.5432 C   0  0  0  0  0  0  0  0  0  0  0  0
   11.1529    7.2750   20.8025 C   0  0  0  0  0  0  0  0  0  0  0  0
   10.2573    8.3215   20.9827 C   0  0  0  0  0  0  0  0  0  0  0  0
   11.1606    5.9378   21.2366 N   0  0  0  0  0  0  0  0  0  0  0  0
    9.8932   11.6736   19.0677 O   0  0  0  0  0  0  0  0  0  0  0  0
    6.4470    4.5850   22.2321 C   0  0  0  0  0  0  0  0  0  0  0  0
    8.4619    6.9895   22.2968 C   0  0  0  0  0  0  0  0  0  0  0  0
   12.2747    7.5102   20.0420 C   0  0  0  0  0  0  0  0  0  0  0  0
   14.2544    6.2142   19.4191 C   0  0  0  0  0  0  0  0  0  0  0  0
   13.0695    6.3705   20.0375 N   0  0  0  0  0  0  0  0  0  0  0  0
    9.1913    8.0876   21.8361 N   0  0  0  0  0  0  0  0  0  0  0  0
   10.4739    9.4813   20.2889 C   0  0  0  0  0  0  0  0  0  0  0  0
    7.5551    7.1270   23.1200 O   0  0  0  0  0  0  0  0  0  0  0  0
  1 11  4  0
  1 21  4  0
  2  4  1  0
  2  8  1  0
  2 11  1  0
  3 10  4  0
  3 14  4  0
  4  5  1  0
  4 18  2  0
  6 12  1  0
  6 17  4  0
  6 23  4  0
  7  9  1  0
  7 13  4  0
  7 19  4  0
  9 20  1  0
 10 19  4  0
 11 25  4  0
 13 14  4  0
 15 16  4  0
 15 17  4  0
 15 21  4  0
 16 24  1  0
 16 25  4  0
 20 24  1  0
 20 26  2  0
 21 23  4  0
 22 23  1  0
M  END
$$$$

 Created by Python create_sdf_string function

 26 28  0  0  0  0  0  0  0  0999 V2000
   12.4616    8.6700   19.4180 N   0  0  0  0  0  0  0  0  0  0  0  0
   11.8329   10.8148   18.6769 N   0  0  0  0  0  0  0  0  0  0  0  0
    6.1021    2.5564   21.0678 C   0  0  0  0  0  0  0  0  0  0  0  0
   10.9097   11.8051   18.4804 C   0  0  0  0  0  0  0  0  0  0  0  0
   11.2280   12.9135   17.5669 C   0  0  0  0  0  0  0  0  0  0  0  0
   12.3782    5.4231   20.7777 C   0  0  0  0  0  0  0  0  0  0  0  0
    7.7365    4.6508   21.6987 C   0  0  0  0  0  0  0  0  0  0  0  0
   13.0186   11.0102   18.0020 C   0  0  0  0  0  0  0  0  0  0  0  0
    8.6628    5.7088   21.8871 N   0  0  0  0  0  0  0  0  0  0  0  0
    5.6516    3.5258   21.9140 C   0  0  0  0  0  0  0  0  0  0  0  0
   11.5863    9.6815   19.4539 C   0  0  0  0  0  0  0  0  0  0  0  0
   12.9648    4.1543   20.9205 C   0  0  0  0  0  0  0  0  0  0  0  0
    8.2089    3.6265   20.8929 C   0  0  0  0  0  0  0  0  0  0  0  0
    7.3827    2.5724   20.5432 C   0  0  0  0  0  0  0  0  0  0  0  0
   11.1529    7.2750   20.8025 C   0  0  0  0  0  0  0  0  0  0  0  0
   10.2573    8.3215   20.9827 C   0  0  0  0  0  0  0  0  0  0  0  0
   11.1606    5.9378   21.2366 N   0  0  0  0  0  0  0  0  0  0  0  0
    9.8932   11.6736   19.0677 O   0  0  0  0  0  0  0  0  0  0  0  0
    6.4470    4.5850   22.2321 C   0  0  0  0  0  0  0  0  0  0  0  0
    8.4619    6.9895   22.2968 C   0  0  0  0  0  0  0  0  0  0  0  0
   12.2747    7.5102   20.0420 C   0  0  0  0  0  0  0  0  0  0  0  0
   14.2544    6.2142   19.4191 C   0  0  0  0  0  0  0  0  0  0  0  0
   13.0695    6.3705   20.0375 N   0  0  0  0  0  0  0  0  0  0  0  0
    9.1913    8.0876   21.8361 N   0  0  0  0  0  0  0  0  0  0  0  0
   10.4739    9.4813   20.2889 C   0  0  0  0  0  0  0  0  0  0  0  0
    7.5551    7.1270   23.1200 O   0  0  0  0  0  0  0  0  0  0  0  0
  1 11  4  0
  1 21  4  0
  2  4  1  0
  2  8  1  0
  2 11  1  0
  3 10  4  0
  3 14  4  0
  4  5  1  0
  4 18  2  0
  6 12  1  0
  6 17  4  0
  6 23  4  0
  7  9  1  0
  7 13  4  0
  7 19  4  0
  9 20  1  0
 10 19  4  0
 11 25  4  0
 13 14  4  0
 15 16  4  0
 15 17  4  0
 15 21  4  0
 16 24  1  0
 16 25  4  0
 20 24  1  0
 20 26  2  0
 21 23  4  0
 22 23  1  0
M  END
$$$$

 Created by Python create_sdf_string function

 26 28  0  0  0  0  0  0  0  0999 V2000
   12.4616    8.6700   19.4180 N   0  0  0  0  0  0  0  0  0  0  0  0
   11.8329   10.8148   18.6769 N   0  0  0  0  0  0  0  0  0  0  0  0
    6.1021    2.5564   21.0678 C   0  0  0  0  0  0  0  0  0  0  0  0
   10.9097   11.8051   18.4804 C   0  0  0  0  0  0  0  0  0  0  0  0
   11.2280   12.9135   17.5669 C   0  0  0  0  0  0  0  0  0  0  0  0
   12.3782    5.4231   20.7777 C   0  0  0  0  0  0  0  0  0  0  0  0
    7.7365    4.6508   21.6987 C   0  0  0  0  0  0  0  0  0  0  0  0
   13.0186   11.0102   18.0020 C   0  0  0  0  0  0  0  0  0  0  0  0
    8.6628    5.7088   21.8871 N   0  0  0  0  0  0  0  0  0  0  0  0
    5.6516    3.5258   21.9140 C   0  0  0  0  0  0  0  0  0  0  0  0
   11.5863    9.6815   19.4539 C   0  0  0  0  0  0  0  0  0  0  0  0
   12.9648    4.1543   20.9205 C   0  0  0  0  0  0  0  0  0  0  0  0
    8.2089    3.6265   20.8929 C   0  0  0  0  0  0  0  0  0  0  0  0
    7.3827    2.5724   20.5432 C   0  0  0  0  0  0  0  0  0  0  0  0
   11.1529    7.2750   20.8025 C   0  0  0  0  0  0  0  0  0  0  0  0
   10.2573    8.3215   20.9827 C   0  0  0  0  0  0  0  0  0  0  0  0
   11.1606    5.9378   21.2366 N   0  0  0  0  0  0  0  0  0  0  0  0
    9.8932   11.6736   19.0677 O   0  0  0  0  0  0  0  0  0  0  0  0
    6.4470    4.5850   22.2321 C   0  0  0  0  0  0  0  0  0  0  0  0
    8.4619    6.9895   22.2968 C   0  0  0  0  0  0  0  0  0  0  0  0
   12.2747    7.5102   20.0420 C   0  0  0  0  0  0  0  0  0  0  0  0
   14.2544    6.2142   19.4191 C   0  0  0  0  0  0  0  0  0  0  0  0
   13.0695    6.3705   20.0375 N   0  0  0  0  0  0  0  0  0  0  0  0
    9.1913    8.0876   21.8361 N   0  0  0  0  0  0  0  0  0  0  0  0
   10.4739    9.4813   20.2889 C   0  0  0  0  0  0  0  0  0  0  0  0
    7.5551    7.1270   23.1200 O   0  0  0  0  0  0  0  0  0  0  0  0
  1 11  4  0
  1 21  4  0
  2  4  1  0
  2  8  1  0
  2 11  1  0
  3 10  4  0
  3 14  4  0
  4  5  1  0
  4 18  2  0
  6 12  1  0
  6 17  4  0
  6 23  4  0
  7  9  1  0
  7 13  4  0
  7 19  4  0
  9 20  1  0
 10 19  4  0
 11 25  4  0
 13 14  4  0
 15 16  4  0
 15 17  4  0
 15 21  4  0
 16 24  1  0
 16 25  4  0
 20 24  1  0
 20 26  2  0
 21 23  4  0
 22 23  1  0
M  END
$$$$

 Created by Python create_sdf_string function

 26 28  0  0  0  0  0  0  0  0999 V2000
   12.4616    8.6700   19.4180 N   0  0  0  0  0  0  0  0  0  0  0  0
   11.8329   10.8148   18.6769 N   0  0  0  0  0  0  0  0  0  0  0  0
    6.1021    2.5564   21.0678 C   0  0  0  0  0  0  0  0  0  0  0  0
   10.9097   11.8051   18.4804 C   0  0  0  0  0  0  0  0  0  0  0  0
   11.2280   12.9135   17.5669 C   0  0  0  0  0  0  0  0  0  0  0  0
   12.3782    5.4231   20.7777 C   0  0  0  0  0  0  0  0  0  0  0  0
    7.7365    4.6508   21.6987 C   0  0  0  0  0  0  0  0  0  0  0  0
   13.0186   11.0102   18.0020 C   0  0  0  0  0  0  0  0  0  0  0  0
    8.6628    5.7088   21.8871 N   0  0  0  0  0  0  0  0  0  0  0  0
    5.6516    3.5258   21.9140 C   0  0  0  0  0  0  0  0  0  0  0  0
   11.5863    9.6815   19.4539 C   0  0  0  0  0  0  0  0  0  0  0  0
   12.9648    4.1543   20.9205 C   0  0  0  0  0  0  0  0  0  0  0  0
    8.2089    3.6265   20.8929 C   0  0  0  0  0  0  0  0  0  0  0  0
    7.3827    2.5724   20.5432 C   0  0  0  0  0  0  0  0  0  0  0  0
   11.1529    7.2750   20.8025 C   0  0  0  0  0  0  0  0  0  0  0  0
   10.2573    8.3215   20.9827 C   0  0  0  0  0  0  0  0  0  0  0  0
   11.1606    5.9378   21.2366 N   0  0  0  0  0  0  0  0  0  0  0  0
    9.8932   11.6736   19.0677 O   0  0  0  0  0  0  0  0  0  0  0  0
    6.4470    4.5850   22.2321 C   0  0  0  0  0  0  0  0  0  0  0  0
    8.4619    6.9895   22.2968 C   0  0  0  0  0  0  0  0  0  0  0  0
   12.2747    7.5102   20.0420 C   0  0  0  0  0  0  0  0  0  0  0  0
   14.2544    6.2142   19.4191 C   0  0  0  0  0  0  0  0  0  0  0  0
   13.0695    6.3705   20.0375 N   0  0  0  0  0  0  0  0  0  0  0  0
    9.1913    8.0876   21.8361 N   0  0  0  0  0  0  0  0  0  0  0  0
   10.4739    9.4813   20.2889 C   0  0  0  0  0  0  0  0  0  0  0  0
    7.5551    7.1270   23.1200 O   0  0  0  0  0  0  0  0  0  0  0  0
  1 11  4  0
  1 21  4  0
  2  4  1  0
  2  8  1  0
  2 11  1  0
  3 10  4  0
  3 14  4  0
  4  5  1  0
  4 18  2  0
  6 12  1  0
  6 17  4  0
  6 23  4  0
  7  9  1  0
  7 13  4  0
  7 19  4  0
  9 20  1  0
 10 19  4  0
 11 25  4  0
 13 14  4  0
 15 16  4  0
 15 17  4  0
 15 21  4  0
 16 24  1  0
 16 25  4  0
 20 24  1  0
 20 26  2  0
 21 23  4  0
 22 23  1  0
M  END
$$$$

 Created by Python create_sdf_string function

 26 28  0  0  0  0  0  0  0  0999 V2000
   12.4616    8.6700   19.4180 N   0  0  0  0  0  0  0  0  0  0  0  0
   11.8329   10.8148   18.6769 N   0  0  0  0  0  0  0  0  0  0  0  0
    6.1021    2.5564   21.0678 C   0  0  0  0  0  0  0  0  0  0  0  0
   10.9097   11.8051   18.4804 C   0  0  0  0  0  0  0  0  0  0  0  0
   11.2280   12.9135   17.5669 C   0  0  0  0  0  0  0  0  0  0  0  0
   12.3782    5.4231   20.7777 C   0  0  0  0  0  0  0  0  0  0  0  0
    7.7365    4.6508   21.6987 C   0  0  0  0  0  0  0  0  0  0  0  0
   13.0186   11.0102   18.0020 C   0  0  0  0  0  0  0  0  0  0  0  0
    8.6628    5.7088   21.8871 N   0  0  0  0  0  0  0  0  0  0  0  0
    5.6516    3.5258   21.9140 C   0  0  0  0  0  0  0  0  0  0  0  0
   11.5863    9.6815   19.4539 C   0  0  0  0  0  0  0  0  0  0  0  0
   12.9648    4.1543   20.9205 C   0  0  0  0  0  0  0  0  0  0  0  0
    8.2089    3.6265   20.8929 C   0  0  0  0  0  0  0  0  0  0  0  0
    7.3827    2.5724   20.5432 C   0  0  0  0  0  0  0  0  0  0  0  0
   11.1529    7.2750   20.8025 C   0  0  0  0  0  0  0  0  0  0  0  0
   10.2573    8.3215   20.9827 C   0  0  0  0  0  0  0  0  0  0  0  0
   11.1606    5.9378   21.2366 N   0  0  0  0  0  0  0  0  0  0  0  0
    9.8932   11.6736   19.0677 O   0  0  0  0  0  0  0  0  0  0  0  0
    6.4470    4.5850   22.2321 C   0  0  0  0  0  0  0  0  0  0  0  0
    8.4619    6.9895   22.2968 C   0  0  0  0  0  0  0  0  0  0  0  0
   12.2747    7.5102   20.0420 C   0  0  0  0  0  0  0  0  0  0  0  0
   14.2544    6.2142   19.4191 C   0  0  0  0  0  0  0  0  0  0  0  0
   13.0695    6.3705   20.0375 N   0  0  0  0  0  0  0  0  0  0  0  0
    9.1913    8.0876   21.8361 N   0  0  0  0  0  0  0  0  0  0  0  0
   10.4739    9.4813   20.2889 C   0  0  0  0  0  0  0  0  0  0  0  0
    7.5551    7.1270   23.1200 O   0  0  0  0  0  0  0  0  0  0  0  0
  1 11  4  0
  1 21  4  0
  2  4  1  0
  2  8  1  0
  2 11  1  0
  3 10  4  0
  3 14  4  0
  4  5  1  0
  4 18  2  0
  6 12  1  0
  6 17  4  0
  6 23  4  0
  7  9  1  0
  7 13  4  0
  7 19  4  0
  9 20  1  0
 10 19  4  0
 11 25  4  0
 13 14  4  0
 15 16  4  0
 15 17  4  0
 15 21  4  0
 16 24  1  0
 16 25  4  0
 20 24  1  0
 20 26  2  0
 21 23  4  0
 22 23  1  0
M  END
$$$$

 Created by Python create_sdf_string function

 26 28  0  0  0  0  0  0  0  0999 V2000
   12.4616    8.6700   19.4180 N   0  0  0  0  0  0  0  0  0  0  0  0
   11.8329   10.8148   18.6769 N   0  0  0  0  0  0  0  0  0  0  0  0
    6.1021    2.5564   21.0678 C   0  0  0  0  0  0  0  0  0  0  0  0
   10.9097   11.8051   18.4804 C   0  0  0  0  0  0  0  0  0  0  0  0
   11.2280   12.9135   17.5669 C   0  0  0  0  0  0  0  0  0  0  0  0
   12.3782    5.4231   20.7777 C   0  0  0  0  0  0  0  0  0  0  0  0
    7.7365    4.6508   21.6987 C   0  0  0  0  0  0  0  0  0  0  0  0
   13.0186   11.0102   18.0020 C   0  0  0  0  0  0  0  0  0  0  0  0
    8.6628    5.7088   21.8871 N   0  0  0  0  0  0  0  0  0  0  0  0
    5.6516    3.5258   21.9140 C   0  0  0  0  0  0  0  0  0  0  0  0
   11.5863    9.6815   19.4539 C   0  0  0  0  0  0  0  0  0  0  0  0
   12.9648    4.1543   20.9205 C   0  0  0  0  0  0  0  0  0  0  0  0
    8.2089    3.6265   20.8929 C   0  0  0  0  0  0  0  0  0  0  0  0
    7.3827    2.5724   20.5432 C   0  0  0  0  0  0  0  0  0  0  0  0
   11.1529    7.2750   20.8025 C   0  0  0  0  0  0  0  0  0  0  0  0
   10.2573    8.3215   20.9827 C   0  0  0  0  0  0  0  0  0  0  0  0
   11.1606    5.9378   21.2366 N   0  0  0  0  0  0  0  0  0  0  0  0
    9.8932   11.6736   19.0677 O   0  0  0  0  0  0  0  0  0  0  0  0
    6.4470    4.5850   22.2321 C   0  0  0  0  0  0  0  0  0  0  0  0
    8.4619    6.9895   22.2968 C   0  0  0  0  0  0  0  0  0  0  0  0
   12.2747    7.5102   20.0420 C   0  0  0  0  0  0  0  0  0  0  0  0
   14.2544    6.2142   19.4191 C   0  0  0  0  0  0  0  0  0  0  0  0
   13.0695    6.3705   20.0375 N   0  0  0  0  0  0  0  0  0  0  0  0
    9.1913    8.0876   21.8361 N   0  0  0  0  0  0  0  0  0  0  0  0
   10.4739    9.4813   20.2889 C   0  0  0  0  0  0  0  0  0  0  0  0
    7.5551    7.1270   23.1200 O   0  0  0  0  0  0  0  0  0  0  0  0
  1 11  4  0
  1 21  4  0
  2  4  1  0
  2  8  1  0
  2 11  1  0
  3 10  4  0
  3 14  4  0
  4  5  1  0
  4 18  2  0
  6 12  1  0
  6 17  4  0
  6 23  4  0
  7  9  1  0
  7 13  4  0
  7 19  4  0
  9 20  1  0
 10 19  4  0
 11 25  4  0
 13 14  4  0
 15 16  4  0
 15 17  4  0
 15 21  4  0
 16 24  1  0
 16 25  4  0
 20 24  1  0
 20 26  2  0
 21 23  4  0
 22 23  1  0
M  END
$$$$

 Created by Python create_sdf_string function

 26 28  0  0  0  0  0  0  0  0999 V2000
   12.4616    8.6700   19.4180 N   0  0  0  0  0  0  0  0  0  0  0  0
   11.8329   10.8148   18.6769 N   0  0  0  0  0  0  0  0  0  0  0  0
    6.1021    2.5564   21.0678 C   0  0  0  0  0  0  0  0  0  0  0  0
   10.9097   11.8051   18.4804 C   0  0  0  0  0  0  0  0  0  0  0  0
   11.2280   12.9135   17.5669 C   0  0  0  0  0  0  0  0  0  0  0  0
   12.3782    5.4231   20.7777 C   0  0  0  0  0  0  0  0  0  0  0  0
    7.7365    4.6508   21.6987 C   0  0  0  0  0  0  0  0  0  0  0  0
   13.0186   11.0102   18.0020 C   0  0  0  0  0  0  0  0  0  0  0  0
    8.6628    5.7088   21.8871 N   0  0  0  0  0  0  0  0  0  0  0  0
    5.6516    3.5258   21.9140 C   0  0  0  0  0  0  0  0  0  0  0  0
   11.5863    9.6815   19.4539 C   0  0  0  0  0  0  0  0  0  0  0  0
   12.9648    4.1543   20.9205 C   0  0  0  0  0  0  0  0  0  0  0  0
    8.2089    3.6265   20.8929 C   0  0  0  0  0  0  0  0  0  0  0  0
    7.3827    2.5724   20.5432 C   0  0  0  0  0  0  0  0  0  0  0  0
   11.1529    7.2750   20.8025 C   0  0  0  0  0  0  0  0  0  0  0  0
   10.2573    8.3215   20.9827 C   0  0  0  0  0  0  0  0  0  0  0  0
   11.1606    5.9378   21.2366 N   0  0  0  0  0  0  0  0  0  0  0  0
    9.8932   11.6736   19.0677 O   0  0  0  0  0  0  0  0  0  0  0  0
    6.4470    4.5850   22.2321 C   0  0  0  0  0  0  0  0  0  0  0  0
    8.4619    6.9895   22.2968 C   0  0  0  0  0  0  0  0  0  0  0  0
   12.2747    7.5102   20.0420 C   0  0  0  0  0  0  0  0  0  0  0  0
   14.2544    6.2142   19.4191 C   0  0  0  0  0  0  0  0  0  0  0  0
   13.0695    6.3705   20.0375 N   0  0  0  0  0  0  0  0  0  0  0  0
    9.1913    8.0876   21.8361 N   0  0  0  0  0  0  0  0  0  0  0  0
   10.4739    9.4813   20.2889 C   0  0  0  0  0  0  0  0  0  0  0  0
    7.5551    7.1270   23.1200 O   0  0  0  0  0  0  0  0  0  0  0  0
  1 11  4  0
  1 21  4  0
  2  4  1  0
  2  8  1  0
  2 11  1  0
  3 10  4  0
  3 14  4  0
  4  5  1  0
  4 18  2  0
  6 12  1  0
  6 17  4  0
  6 23  4  0
  7  9  1  0
  7 13  4  0
  7 19  4  0
  9 20  1  0
 10 19  4  0
 11 25  4  0
 13 14  4  0
 15 16  4  0
 15 17  4  0
 15 21  4  0
 16 24  1  0
 16 25  4  0
 20 24  1  0
 20 26  2  0
 21 23  4  0
 22 23  1  0
M  END
$$$$

 Created by Python create_sdf_string function

 26 28  0  0  0  0  0  0  0  0999 V2000
   12.4616    8.6700   19.4180 N   0  0  0  0  0  0  0  0  0  0  0  0
   11.8329   10.8148   18.6769 N   0  0  0  0  0  0  0  0  0  0  0  0
    6.1021    2.5564   21.0678 C   0  0  0  0  0  0  0  0  0  0  0  0
   10.9097   11.8051   18.4804 C   0  0  0  0  0  0  0  0  0  0  0  0
   11.2280   12.9135   17.5669 C   0  0  0  0  0  0  0  0  0  0  0  0
   12.3782    5.4231   20.7777 C   0  0  0  0  0  0  0  0  0  0  0  0
    7.7365    4.6508   21.6987 C   0  0  0  0  0  0  0  0  0  0  0  0
   13.0186   11.0102   18.0020 C   0  0  0  0  0  0  0  0  0  0  0  0
    8.6628    5.7088   21.8871 N   0  0  0  0  0  0  0  0  0  0  0  0
    5.6516    3.5258   21.9140 C   0  0  0  0  0  0  0  0  0  0  0  0
   11.5863    9.6815   19.4539 C   0  0  0  0  0  0  0  0  0  0  0  0
   12.9648    4.1543   20.9205 C   0  0  0  0  0  0  0  0  0  0  0  0
    8.2089    3.6265   20.8929 C   0  0  0  0  0  0  0  0  0  0  0  0
    7.3827    2.5724   20.5432 C   0  0  0  0  0  0  0  0  0  0  0  0
   11.1529    7.2750   20.8025 C   0  0  0  0  0  0  0  0  0  0  0  0
   10.2573    8.3215   20.9827 C   0  0  0  0  0  0  0  0  0  0  0  0
   11.1606    5.9378   21.2366 N   0  0  0  0  0  0  0  0  0  0  0  0
    9.8932   11.6736   19.0677 O   0  0  0  0  0  0  0  0  0  0  0  0
    6.4470    4.5850   22.2321 C   0  0  0  0  0  0  0  0  0  0  0  0
    8.4619    6.9895   22.2968 C   0  0  0  0  0  0  0  0  0  0  0  0
   12.2747    7.5102   20.0420 C   0  0  0  0  0  0  0  0  0  0  0  0
   14.2544    6.2142   19.4191 C   0  0  0  0  0  0  0  0  0  0  0  0
   13.0695    6.3705   20.0375 N   0  0  0  0  0  0  0  0  0  0  0  0
    9.1913    8.0876   21.8361 N   0  0  0  0  0  0  0  0  0  0  0  0
   10.4739    9.4813   20.2889 C   0  0  0  0  0  0  0  0  0  0  0  0
    7.5551    7.1270   23.1200 O   0  0  0  0  0  0  0  0  0  0  0  0
  1 11  4  0
  1 21  4  0
  2  4  1  0
  2  8  1  0
  2 11  1  0
  3 10  4  0
  3 14  4  0
  4  5  1  0
  4 18  2  0
  6 12  1  0
  6 17  4  0
  6 23  4  0
  7  9  1  0
  7 13  4  0
  7 19  4  0
  9 20  1  0
 10 19  4  0
 11 25  4  0
 13 14  4  0
 15 16  4  0
 15 17  4  0
 15 21  4  0
 16 24  1  0
 16 25  4  0
 20 24  1  0
 20 26  2  0
 21 23  4  0
 22 23  1  0
M  END
$$$$

 Created by Python create_sdf_string function

 26 28  0  0  0  0  0  0  0  0999 V2000
   12.4616    8.6700   19.4180 N   0  0  0  0  0  0  0  0  0  0  0  0
   11.8329   10.8148   18.6769 N   0  0  0  0  0  0  0  0  0  0  0  0
    6.1021    2.5564   21.0678 C   0  0  0  0  0  0  0  0  0  0  0  0
   10.9097   11.8051   18.4804 C   0  0  0  0  0  0  0  0  0  0  0  0
   11.2280   12.9135   17.5669 C   0  0  0  0  0  0  0  0  0  0  0  0
   12.3782    5.4231   20.7777 C   0  0  0  0  0  0  0  0  0  0  0  0
    7.7365    4.6508   21.6987 C   0  0  0  0  0  0  0  0  0  0  0  0
   13.0186   11.0102   18.0020 C   0  0  0  0  0  0  0  0  0  0  0  0
    8.6628    5.7088   21.8871 N   0  0  0  0  0  0  0  0  0  0  0  0
    5.6516    3.5258   21.9140 C   0  0  0  0  0  0  0  0  0  0  0  0
   11.5863    9.6815   19.4539 C   0  0  0  0  0  0  0  0  0  0  0  0
   12.9648    4.1543   20.9205 C   0  0  0  0  0  0  0  0  0  0  0  0
    8.2089    3.6265   20.8929 C   0  0  0  0  0  0  0  0  0  0  0  0
    7.3827    2.5724   20.5432 C   0  0  0  0  0  0  0  0  0  0  0  0
   11.1529    7.2750   20.8025 C   0  0  0  0  0  0  0  0  0  0  0  0
   10.2573    8.3215   20.9827 C   0  0  0  0  0  0  0  0  0  0  0  0
   11.1606    5.9378   21.2366 N   0  0  0  0  0  0  0  0  0  0  0  0
    9.8932   11.6736   19.0677 O   0  0  0  0  0  0  0  0  0  0  0  0
    6.4470    4.5850   22.2321 C   0  0  0  0  0  0  0  0  0  0  0  0
    8.4619    6.9895   22.2968 C   0  0  0  0  0  0  0  0  0  0  0  0
   12.2747    7.5102   20.0420 C   0  0  0  0  0  0  0  0  0  0  0  0
   14.2544    6.2142   19.4191 C   0  0  0  0  0  0  0  0  0  0  0  0
   13.0695    6.3705   20.0375 N   0  0  0  0  0  0  0  0  0  0  0  0
    9.1913    8.0876   21.8361 N   0  0  0  0  0  0  0  0  0  0  0  0
   10.4739    9.4813   20.2889 C   0  0  0  0  0  0  0  0  0  0  0  0
    7.5551    7.1270   23.1200 O   0  0  0  0  0  0  0  0  0  0  0  0
  1 11  4  0
  1 21  4  0
  2  4  1  0
  2  8  1  0
  2 11  1  0
  3 10  4  0
  3 14  4  0
  4  5  1  0
  4 18  2  0
  6 12  1  0
  6 17  4  0
  6 23  4  0
  7  9  1  0
  7 13  4  0
  7 19  4  0
  9 20  1  0
 10 19  4  0
 11 25  4  0
 13 14  4  0
 15 16  4  0
 15 17  4  0
 15 21  4  0
 16 24  1  0
 16 25  4  0
 20 24  1  0
 20 26  2  0
 21 23  4  0
 22 23  1  0
M  END
$$$$

 Created by Python create_sdf_string function

 26 28  0  0  0  0  0  0  0  0999 V2000
   12.4616    8.6700   19.4180 N   0  0  0  0  0  0  0  0  0  0  0  0
   11.8329   10.8148   18.6769 N   0  0  0  0  0  0  0  0  0  0  0  0
    6.1021    2.5564   21.0678 C   0  0  0  0  0  0  0  0  0  0  0  0
   10.9097   11.8051   18.4804 C   0  0  0  0  0  0  0  0  0  0  0  0
   11.2280   12.9135   17.5669 C   0  0  0  0  0  0  0  0  0  0  0  0
   12.3782    5.4231   20.7777 C   0  0  0  0  0  0  0  0  0  0  0  0
    7.7365    4.6508   21.6987 C   0  0  0  0  0  0  0  0  0  0  0  0
   13.0186   11.0102   18.0020 C   0  0  0  0  0  0  0  0  0  0  0  0
    8.6628    5.7088   21.8871 N   0  0  0  0  0  0  0  0  0  0  0  0
    5.6516    3.5258   21.9140 C   0  0  0  0  0  0  0  0  0  0  0  0
   11.5863    9.6815   19.4539 C   0  0  0  0  0  0  0  0  0  0  0  0
   12.9648    4.1543   20.9205 C   0  0  0  0  0  0  0  0  0  0  0  0
    8.2089    3.6265   20.8929 C   0  0  0  0  0  0  0  0  0  0  0  0
    7.3827    2.5724   20.5432 C   0  0  0  0  0  0  0  0  0  0  0  0
   11.1529    7.2750   20.8025 C   0  0  0  0  0  0  0  0  0  0  0  0
   10.2573    8.3215   20.9827 C   0  0  0  0  0  0  0  0  0  0  0  0
   11.1606    5.9378   21.2366 N   0  0  0  0  0  0  0  0  0  0  0  0
    9.8932   11.6736   19.0677 O   0  0  0  0  0  0  0  0  0  0  0  0
    6.4470    4.5850   22.2321 C   0  0  0  0  0  0  0  0  0  0  0  0
    8.4619    6.9895   22.2968 C   0  0  0  0  0  0  0  0  0  0  0  0
   12.2747    7.5102   20.0420 C   0  0  0  0  0  0  0  0  0  0  0  0
   14.2544    6.2142   19.4191 C   0  0  0  0  0  0  0  0  0  0  0  0
   13.0695    6.3705   20.0375 N   0  0  0  0  0  0  0  0  0  0  0  0
    9.1913    8.0876   21.8361 N   0  0  0  0  0  0  0  0  0  0  0  0
   10.4739    9.4813   20.2889 C   0  0  0  0  0  0  0  0  0  0  0  0
    7.5551    7.1270   23.1200 O   0  0  0  0  0  0  0  0  0  0  0  0
  1 11  4  0
  1 21  4  0
  2  4  1  0
  2  8  1  0
  2 11  1  0
  3 10  4  0
  3 14  4  0
  4  5  1  0
  4 18  2  0
  6 12  1  0
  6 17  4  0
  6 23  4  0
  7  9  1  0
  7 13  4  0
  7 19  4  0
  9 20  1  0
 10 19  4  0
 11 25  4  0
 13 14  4  0
 15 16  4  0
 15 17  4  0
 15 21  4  0
 16 24  1  0
 16 25  4  0
 20 24  1  0
 20 26  2  0
 21 23  4  0
 22 23  1  0
M  END
$$$$

 Created by Python create_sdf_string function

 26 28  0  0  0  0  0  0  0  0999 V2000
   12.4616    8.6700   19.4180 N   0  0  0  0  0  0  0  0  0  0  0  0
   11.8329   10.8148   18.6769 N   0  0  0  0  0  0  0  0  0  0  0  0
    6.1021    2.5564   21.0678 C   0  0  0  0  0  0  0  0  0  0  0  0
   10.9097   11.8051   18.4804 C   0  0  0  0  0  0  0  0  0  0  0  0
   11.2280   12.9135   17.5669 C   0  0  0  0  0  0  0  0  0  0  0  0
   12.3782    5.4231   20.7777 C   0  0  0  0  0  0  0  0  0  0  0  0
    7.7365    4.6508   21.6987 C   0  0  0  0  0  0  0  0  0  0  0  0
   13.0186   11.0102   18.0020 C   0  0  0  0  0  0  0  0  0  0  0  0
    8.6628    5.7088   21.8871 N   0  0  0  0  0  0  0  0  0  0  0  0
    5.6516    3.5258   21.9140 C   0  0  0  0  0  0  0  0  0  0  0  0
   11.5863    9.6815   19.4539 C   0  0  0  0  0  0  0  0  0  0  0  0
   12.9648    4.1543   20.9205 C   0  0  0  0  0  0  0  0  0  0  0  0
    8.2089    3.6265   20.8929 C   0  0  0  0  0  0  0  0  0  0  0  0
    7.3827    2.5724   20.5432 C   0  0  0  0  0  0  0  0  0  0  0  0
   11.1529    7.2750   20.8025 C   0  0  0  0  0  0  0  0  0  0  0  0
   10.2573    8.3215   20.9827 C   0  0  0  0  0  0  0  0  0  0  0  0
   11.1606    5.9378   21.2366 N   0  0  0  0  0  0  0  0  0  0  0  0
    9.8932   11.6736   19.0677 O   0  0  0  0  0  0  0  0  0  0  0  0
    6.4470    4.5850   22.2321 C   0  0  0  0  0  0  0  0  0  0  0  0
    8.4619    6.9895   22.2968 C   0  0  0  0  0  0  0  0  0  0  0  0
   12.2747    7.5102   20.0420 C   0  0  0  0  0  0  0  0  0  0  0  0
   14.2544    6.2142   19.4191 C   0  0  0  0  0  0  0  0  0  0  0  0
   13.0695    6.3705   20.0375 N   0  0  0  0  0  0  0  0  0  0  0  0
    9.1913    8.0876   21.8361 N   0  0  0  0  0  0  0  0  0  0  0  0
   10.4739    9.4813   20.2889 C   0  0  0  0  0  0  0  0  0  0  0  0
    7.5551    7.1270   23.1200 O   0  0  0  0  0  0  0  0  0  0  0  0
  1 11  4  0
  1 21  4  0
  2  4  1  0
  2  8  1  0
  2 11  1  0
  3 10  4  0
  3 14  4  0
  4  5  1  0
  4 18  2  0
  6 12  1  0
  6 17  4  0
  6 23  4  0
  7  9  1  0
  7 13  4  0
  7 19  4  0
  9 20  1  0
 10 19  4  0
 11 25  4  0
 13 14  4  0
 15 16  4  0
 15 17  4  0
 15 21  4  0
 16 24  1  0
 16 25  4  0
 20 24  1  0
 20 26  2  0
 21 23  4  0
 22 23  1  0
M  END
$$$$

 Created by Python create_sdf_string function

 26 28  0  0  0  0  0  0  0  0999 V2000
   12.4616    8.6700   19.4180 N   0  0  0  0  0  0  0  0  0  0  0  0
   11.8329   10.8148   18.6769 N   0  0  0  0  0  0  0  0  0  0  0  0
    6.1021    2.5564   21.0678 C   0  0  0  0  0  0  0  0  0  0  0  0
   10.9097   11.8051   18.4804 C   0  0  0  0  0  0  0  0  0  0  0  0
   11.2280   12.9135   17.5669 C   0  0  0  0  0  0  0  0  0  0  0  0
   12.3782    5.4231   20.7777 C   0  0  0  0  0  0  0  0  0  0  0  0
    7.7365    4.6508   21.6987 C   0  0  0  0  0  0  0  0  0  0  0  0
   13.0186   11.0102   18.0020 C   0  0  0  0  0  0  0  0  0  0  0  0
    8.6628    5.7088   21.8871 N   0  0  0  0  0  0  0  0  0  0  0  0
    5.6516    3.5258   21.9140 C   0  0  0  0  0  0  0  0  0  0  0  0
   11.5863    9.6815   19.4539 C   0  0  0  0  0  0  0  0  0  0  0  0
   12.9648    4.1543   20.9205 C   0  0  0  0  0  0  0  0  0  0  0  0
    8.2089    3.6265   20.8929 C   0  0  0  0  0  0  0  0  0  0  0  0
    7.3827    2.5724   20.5432 C   0  0  0  0  0  0  0  0  0  0  0  0
   11.1529    7.2750   20.8025 C   0  0  0  0  0  0  0  0  0  0  0  0
   10.2573    8.3215   20.9827 C   0  0  0  0  0  0  0  0  0  0  0  0
   11.1606    5.9378   21.2366 N   0  0  0  0  0  0  0  0  0  0  0  0
    9.8932   11.6736   19.0677 O   0  0  0  0  0  0  0  0  0  0  0  0
    6.4470    4.5850   22.2321 C   0  0  0  0  0  0  0  0  0  0  0  0
    8.4619    6.9895   22.2968 C   0  0  0  0  0  0  0  0  0  0  0  0
   12.2747    7.5102   20.0420 C   0  0  0  0  0  0  0  0  0  0  0  0
   14.2544    6.2142   19.4191 C   0  0  0  0  0  0  0  0  0  0  0  0
   13.0695    6.3705   20.0375 N   0  0  0  0  0  0  0  0  0  0  0  0
    9.1913    8.0876   21.8361 N   0  0  0  0  0  0  0  0  0  0  0  0
   10.4739    9.4813   20.2889 C   0  0  0  0  0  0  0  0  0  0  0  0
    7.5551    7.1270   23.1200 O   0  0  0  0  0  0  0  0  0  0  0  0
  1 11  4  0
  1 21  4  0
  2  4  1  0
  2  8  1  0
  2 11  1  0
  3 10  4  0
  3 14  4  0
  4  5  1  0
  4 18  2  0
  6 12  1  0
  6 17  4  0
  6 23  4  0
  7  9  1  0
  7 13  4  0
  7 19  4  0
  9 20  1  0
 10 19  4  0
 11 25  4  0
 13 14  4  0
 15 16  4  0
 15 17  4  0
 15 21  4  0
 16 24  1  0
 16 25  4  0
 20 24  1  0
 20 26  2  0
 21 23  4  0
 22 23  1  0
M  END
$$$$

 Created by Python create_sdf_string function

 26 28  0  0  0  0  0  0  0  0999 V2000
   12.4616    8.6700   19.4180 N   0  0  0  0  0  0  0  0  0  0  0  0
   11.8329   10.8148   18.6769 N   0  0  0  0  0  0  0  0  0  0  0  0
    6.1021    2.5564   21.0678 C   0  0  0  0  0  0  0  0  0  0  0  0
   10.9097   11.8051   18.4804 C   0  0  0  0  0  0  0  0  0  0  0  0
   11.2280   12.9135   17.5669 C   0  0  0  0  0  0  0  0  0  0  0  0
   12.3782    5.4231   20.7777 C   0  0  0  0  0  0  0  0  0  0  0  0
    7.7365    4.6508   21.6987 C   0  0  0  0  0  0  0  0  0  0  0  0
   13.0186   11.0102   18.0020 C   0  0  0  0  0  0  0  0  0  0  0  0
    8.6628    5.7088   21.8871 N   0  0  0  0  0  0  0  0  0  0  0  0
    5.6516    3.5258   21.9140 C   0  0  0  0  0  0  0  0  0  0  0  0
   11.5863    9.6815   19.4539 C   0  0  0  0  0  0  0  0  0  0  0  0
   12.9648    4.1543   20.9205 C   0  0  0  0  0  0  0  0  0  0  0  0
    8.2089    3.6265   20.8929 C   0  0  0  0  0  0  0  0  0  0  0  0
    7.3827    2.5724   20.5432 C   0  0  0  0  0  0  0  0  0  0  0  0
   11.1529    7.2750   20.8025 C   0  0  0  0  0  0  0  0  0  0  0  0
   10.2573    8.3215   20.9827 C   0  0  0  0  0  0  0  0  0  0  0  0
   11.1606    5.9378   21.2366 N   0  0  0  0  0  0  0  0  0  0  0  0
    9.8932   11.6736   19.0677 O   0  0  0  0  0  0  0  0  0  0  0  0
    6.4470    4.5850   22.2321 C   0  0  0  0  0  0  0  0  0  0  0  0
    8.4619    6.9895   22.2968 C   0  0  0  0  0  0  0  0  0  0  0  0
   12.2747    7.5102   20.0420 C   0  0  0  0  0  0  0  0  0  0  0  0
   14.2544    6.2142   19.4191 C   0  0  0  0  0  0  0  0  0  0  0  0
   13.0695    6.3705   20.0375 N   0  0  0  0  0  0  0  0  0  0  0  0
    9.1913    8.0876   21.8361 N   0  0  0  0  0  0  0  0  0  0  0  0
   10.4739    9.4813   20.2889 C   0  0  0  0  0  0  0  0  0  0  0  0
    7.5551    7.1270   23.1200 O   0  0  0  0  0  0  0  0  0  0  0  0
  1 11  4  0
  1 21  4  0
  2  4  1  0
  2  8  1  0
  2 11  1  0
  3 10  4  0
  3 14  4  0
  4  5  1  0
  4 18  2  0
  6 12  1  0
  6 17  4  0
  6 23  4  0
  7  9  1  0
  7 13  4  0
  7 19  4  0
  9 20  1  0
 10 19  4  0
 11 25  4  0
 13 14  4  0
 15 16  4  0
 15 17  4  0
 15 21  4  0
 16 24  1  0
 16 25  4  0
 20 24  1  0
 20 26  2  0
 21 23  4  0
 22 23  1  0
M  END
$$$$

 Created by Python create_sdf_string function

 26 28  0  0  0  0  0  0  0  0999 V2000
   12.4616    8.6700   19.4180 N   0  0  0  0  0  0  0  0  0  0  0  0
   11.8329   10.8148   18.6769 N   0  0  0  0  0  0  0  0  0  0  0  0
    6.1021    2.5564   21.0678 C   0  0  0  0  0  0  0  0  0  0  0  0
   10.9097   11.8051   18.4804 C   0  0  0  0  0  0  0  0  0  0  0  0
   11.2280   12.9135   17.5669 C   0  0  0  0  0  0  0  0  0  0  0  0
   12.3782    5.4231   20.7777 C   0  0  0  0  0  0  0  0  0  0  0  0
    7.7365    4.6508   21.6987 C   0  0  0  0  0  0  0  0  0  0  0  0
   13.0186   11.0102   18.0020 C   0  0  0  0  0  0  0  0  0  0  0  0
    8.6628    5.7088   21.8871 N   0  0  0  0  0  0  0  0  0  0  0  0
    5.6516    3.5258   21.9140 C   0  0  0  0  0  0  0  0  0  0  0  0
   11.5863    9.6815   19.4539 C   0  0  0  0  0  0  0  0  0  0  0  0
   12.9648    4.1543   20.9205 C   0  0  0  0  0  0  0  0  0  0  0  0
    8.2089    3.6265   20.8929 C   0  0  0  0  0  0  0  0  0  0  0  0
    7.3827    2.5724   20.5432 C   0  0  0  0  0  0  0  0  0  0  0  0
   11.1529    7.2750   20.8025 C   0  0  0  0  0  0  0  0  0  0  0  0
   10.2573    8.3215   20.9827 C   0  0  0  0  0  0  0  0  0  0  0  0
   11.1606    5.9378   21.2366 N   0  0  0  0  0  0  0  0  0  0  0  0
    9.8932   11.6736   19.0677 O   0  0  0  0  0  0  0  0  0  0  0  0
    6.4470    4.5850   22.2321 C   0  0  0  0  0  0  0  0  0  0  0  0
    8.4619    6.9895   22.2968 C   0  0  0  0  0  0  0  0  0  0  0  0
   12.2747    7.5102   20.0420 C   0  0  0  0  0  0  0  0  0  0  0  0
   14.2544    6.2142   19.4191 C   0  0  0  0  0  0  0  0  0  0  0  0
   13.0695    6.3705   20.0375 N   0  0  0  0  0  0  0  0  0  0  0  0
    9.1913    8.0876   21.8361 N   0  0  0  0  0  0  0  0  0  0  0  0
   10.4739    9.4813   20.2889 C   0  0  0  0  0  0  0  0  0  0  0  0
    7.5551    7.1270   23.1200 O   0  0  0  0  0  0  0  0  0  0  0  0
  1 11  4  0
  1 21  4  0
  2  4  1  0
  2  8  1  0
  2 11  1  0
  3 10  4  0
  3 14  4  0
  4  5  1  0
  4 18  2  0
  6 12  1  0
  6 17  4  0
  6 23  4  0
  7  9  1  0
  7 13  4  0
  7 19  4  0
  9 20  1  0
 10 19  4  0
 11 25  4  0
 13 14  4  0
 15 16  4  0
 15 17  4  0
 15 21  4  0
 16 24  1  0
 16 25  4  0
 20 24  1  0
 20 26  2  0
 21 23  4  0
 22 23  1  0
M  END
$$$$

 Created by Python create_sdf_string function

 26 28  0  0  0  0  0  0  0  0999 V2000
   12.4616    8.6700   19.4180 N   0  0  0  0  0  0  0  0  0  0  0  0
   11.8329   10.8148   18.6769 N   0  0  0  0  0  0  0  0  0  0  0  0
    6.1021    2.5564   21.0678 C   0  0  0  0  0  0  0  0  0  0  0  0
   10.9097   11.8051   18.4804 C   0  0  0  0  0  0  0  0  0  0  0  0
   11.2280   12.9135   17.5669 C   0  0  0  0  0  0  0  0  0  0  0  0
   12.3782    5.4231   20.7777 C   0  0  0  0  0  0  0  0  0  0  0  0
    7.7365    4.6508   21.6987 C   0  0  0  0  0  0  0  0  0  0  0  0
   13.0186   11.0102   18.0020 C   0  0  0  0  0  0  0  0  0  0  0  0
    8.6628    5.7088   21.8871 N   0  0  0  0  0  0  0  0  0  0  0  0
    5.6516    3.5258   21.9140 C   0  0  0  0  0  0  0  0  0  0  0  0
   11.5863    9.6815   19.4539 C   0  0  0  0  0  0  0  0  0  0  0  0
   12.9648    4.1543   20.9205 C   0  0  0  0  0  0  0  0  0  0  0  0
    8.2089    3.6265   20.8929 C   0  0  0  0  0  0  0  0  0  0  0  0
    7.3827    2.5724   20.5432 C   0  0  0  0  0  0  0  0  0  0  0  0
   11.1529    7.2750   20.8025 C   0  0  0  0  0  0  0  0  0  0  0  0
   10.2573    8.3215   20.9827 C   0  0  0  0  0  0  0  0  0  0  0  0
   11.1606    5.9378   21.2366 N   0  0  0  0  0  0  0  0  0  0  0  0
    9.8932   11.6736   19.0677 O   0  0  0  0  0  0  0  0  0  0  0  0
    6.4470    4.5850   22.2321 C   0  0  0  0  0  0  0  0  0  0  0  0
    8.4619    6.9895   22.2968 C   0  0  0  0  0  0  0  0  0  0  0  0
   12.2747    7.5102   20.0420 C   0  0  0  0  0  0  0  0  0  0  0  0
   14.2544    6.2142   19.4191 C   0  0  0  0  0  0  0  0  0  0  0  0
   13.0695    6.3705   20.0375 N   0  0  0  0  0  0  0  0  0  0  0  0
    9.1913    8.0876   21.8361 N   0  0  0  0  0  0  0  0  0  0  0  0
   10.4739    9.4813   20.2889 C   0  0  0  0  0  0  0  0  0  0  0  0
    7.5551    7.1270   23.1200 O   0  0  0  0  0  0  0  0  0  0  0  0
  1 11  4  0
  1 21  4  0
  2  4  1  0
  2  8  1  0
  2 11  1  0
  3 10  4  0
  3 14  4  0
  4  5  1  0
  4 18  2  0
  6 12  1  0
  6 17  4  0
  6 23  4  0
  7  9  1  0
  7 13  4  0
  7 19  4  0
  9 20  1  0
 10 19  4  0
 11 25  4  0
 13 14  4  0
 15 16  4  0
 15 17  4  0
 15 21  4  0
 16 24  1  0
 16 25  4  0
 20 24  1  0
 20 26  2  0
 21 23  4  0
 22 23  1  0
M  END
$$$$

 Created by Python create_sdf_string function

 26 28  0  0  0  0  0  0  0  0999 V2000
   12.4616    8.6700   19.4180 N   0  0  0  0  0  0  0  0  0  0  0  0
   11.8329   10.8148   18.6769 N   0  0  0  0  0  0  0  0  0  0  0  0
    6.1021    2.5564   21.0678 C   0  0  0  0  0  0  0  0  0  0  0  0
   10.9097   11.8051   18.4804 C   0  0  0  0  0  0  0  0  0  0  0  0
   11.2280   12.9135   17.5669 C   0  0  0  0  0  0  0  0  0  0  0  0
   12.3782    5.4231   20.7777 C   0  0  0  0  0  0  0  0  0  0  0  0
    7.7365    4.6508   21.6987 C   0  0  0  0  0  0  0  0  0  0  0  0
   13.0186   11.0102   18.0020 C   0  0  0  0  0  0  0  0  0  0  0  0
    8.6628    5.7088   21.8871 N   0  0  0  0  0  0  0  0  0  0  0  0
    5.6516    3.5258   21.9140 C   0  0  0  0  0  0  0  0  0  0  0  0
   11.5863    9.6815   19.4539 C   0  0  0  0  0  0  0  0  0  0  0  0
   12.9648    4.1543   20.9205 C   0  0  0  0  0  0  0  0  0  0  0  0
    8.2089    3.6265   20.8929 C   0  0  0  0  0  0  0  0  0  0  0  0
    7.3827    2.5724   20.5432 C   0  0  0  0  0  0  0  0  0  0  0  0
   11.1529    7.2750   20.8025 C   0  0  0  0  0  0  0  0  0  0  0  0
   10.2573    8.3215   20.9827 C   0  0  0  0  0  0  0  0  0  0  0  0
   11.1606    5.9378   21.2366 N   0  0  0  0  0  0  0  0  0  0  0  0
    9.8932   11.6736   19.0677 O   0  0  0  0  0  0  0  0  0  0  0  0
    6.4470    4.5850   22.2321 C   0  0  0  0  0  0  0  0  0  0  0  0
    8.4619    6.9895   22.2968 C   0  0  0  0  0  0  0  0  0  0  0  0
   12.2747    7.5102   20.0420 C   0  0  0  0  0  0  0  0  0  0  0  0
   14.2544    6.2142   19.4191 C   0  0  0  0  0  0  0  0  0  0  0  0
   13.0695    6.3705   20.0375 N   0  0  0  0  0  0  0  0  0  0  0  0
    9.1913    8.0876   21.8361 N   0  0  0  0  0  0  0  0  0  0  0  0
   10.4739    9.4813   20.2889 C   0  0  0  0  0  0  0  0  0  0  0  0
    7.5551    7.1270   23.1200 O   0  0  0  0  0  0  0  0  0  0  0  0
  1 11  4  0
  1 21  4  0
  2  4  1  0
  2  8  1  0
  2 11  1  0
  3 10  4  0
  3 14  4  0
  4  5  1  0
  4 18  2  0
  6 12  1  0
  6 17  4  0
  6 23  4  0
  7  9  1  0
  7 13  4  0
  7 19  4  0
  9 20  1  0
 10 19  4  0
 11 25  4  0
 13 14  4  0
 15 16  4  0
 15 17  4  0
 15 21  4  0
 16 24  1  0
 16 25  4  0
 20 24  1  0
 20 26  2  0
 21 23  4  0
 22 23  1  0
M  END
$$$$

 Created by Python create_sdf_string function

 26 28  0  0  0  0  0  0  0  0999 V2000
   12.4616    8.6700   19.4180 N   0  0  0  0  0  0  0  0  0  0  0  0
   11.8329   10.8148   18.6769 N   0  0  0  0  0  0  0  0  0  0  0  0
    6.1021    2.5564   21.0678 C   0  0  0  0  0  0  0  0  0  0  0  0
   10.9097   11.8051   18.4804 C   0  0  0  0  0  0  0  0  0  0  0  0
   11.2280   12.9135   17.5669 C   0  0  0  0  0  0  0  0  0  0  0  0
   12.3782    5.4231   20.7777 C   0  0  0  0  0  0  0  0  0  0  0  0
    7.7365    4.6508   21.6987 C   0  0  0  0  0  0  0  0  0  0  0  0
   13.0186   11.0102   18.0020 C   0  0  0  0  0  0  0  0  0  0  0  0
    8.6628    5.7088   21.8871 N   0  0  0  0  0  0  0  0  0  0  0  0
    5.6516    3.5258   21.9140 C   0  0  0  0  0  0  0  0  0  0  0  0
   11.5863    9.6815   19.4539 C   0  0  0  0  0  0  0  0  0  0  0  0
   12.9648    4.1543   20.9205 C   0  0  0  0  0  0  0  0  0  0  0  0
    8.2089    3.6265   20.8929 C   0  0  0  0  0  0  0  0  0  0  0  0
    7.3827    2.5724   20.5432 C   0  0  0  0  0  0  0  0  0  0  0  0
   11.1529    7.2750   20.8025 C   0  0  0  0  0  0  0  0  0  0  0  0
   10.2573    8.3215   20.9827 C   0  0  0  0  0  0  0  0  0  0  0  0
   11.1606    5.9378   21.2366 N   0  0  0  0  0  0  0  0  0  0  0  0
    9.8932   11.6736   19.0677 O   0  0  0  0  0  0  0  0  0  0  0  0
    6.4470    4.5850   22.2321 C   0  0  0  0  0  0  0  0  0  0  0  0
    8.4619    6.9895   22.2968 C   0  0  0  0  0  0  0  0  0  0  0  0
   12.2747    7.5102   20.0420 C   0  0  0  0  0  0  0  0  0  0  0  0
   14.2544    6.2142   19.4191 C   0  0  0  0  0  0  0  0  0  0  0  0
   13.0695    6.3705   20.0375 N   0  0  0  0  0  0  0  0  0  0  0  0
    9.1913    8.0876   21.8361 N   0  0  0  0  0  0  0  0  0  0  0  0
   10.4739    9.4813   20.2889 C   0  0  0  0  0  0  0  0  0  0  0  0
    7.5551    7.1270   23.1200 O   0  0  0  0  0  0  0  0  0  0  0  0
  1 11  4  0
  1 21  4  0
  2  4  1  0
  2  8  1  0
  2 11  1  0
  3 10  4  0
  3 14  4  0
  4  5  1  0
  4 18  2  0
  6 12  1  0
  6 17  4  0
  6 23  4  0
  7  9  1  0
  7 13  4  0
  7 19  4  0
  9 20  1  0
 10 19  4  0
 11 25  4  0
 13 14  4  0
 15 16  4  0
 15 17  4  0
 15 21  4  0
 16 24  1  0
 16 25  4  0
 20 24  1  0
 20 26  2  0
 21 23  4  0
 22 23  1  0
M  END
$$$$

 Created by Python create_sdf_string function

 26 28  0  0  0  0  0  0  0  0999 V2000
   12.4616    8.6700   19.4180 N   0  0  0  0  0  0  0  0  0  0  0  0
   11.8329   10.8148   18.6769 N   0  0  0  0  0  0  0  0  0  0  0  0
    6.1021    2.5564   21.0678 C   0  0  0  0  0  0  0  0  0  0  0  0
   10.9097   11.8051   18.4804 C   0  0  0  0  0  0  0  0  0  0  0  0
   11.2280   12.9135   17.5669 C   0  0  0  0  0  0  0  0  0  0  0  0
   12.3782    5.4231   20.7777 C   0  0  0  0  0  0  0  0  0  0  0  0
    7.7365    4.6508   21.6987 C   0  0  0  0  0  0  0  0  0  0  0  0
   13.0186   11.0102   18.0020 C   0  0  0  0  0  0  0  0  0  0  0  0
    8.6628    5.7088   21.8871 N   0  0  0  0  0  0  0  0  0  0  0  0
    5.6516    3.5258   21.9140 C   0  0  0  0  0  0  0  0  0  0  0  0
   11.5863    9.6815   19.4539 C   0  0  0  0  0  0  0  0  0  0  0  0
   12.9648    4.1543   20.9205 C   0  0  0  0  0  0  0  0  0  0  0  0
    8.2089    3.6265   20.8929 C   0  0  0  0  0  0  0  0  0  0  0  0
    7.3827    2.5724   20.5432 C   0  0  0  0  0  0  0  0  0  0  0  0
   11.1529    7.2750   20.8025 C   0  0  0  0  0  0  0  0  0  0  0  0
   10.2573    8.3215   20.9827 C   0  0  0  0  0  0  0  0  0  0  0  0
   11.1606    5.9378   21.2366 N   0  0  0  0  0  0  0  0  0  0  0  0
    9.8932   11.6736   19.0677 O   0  0  0  0  0  0  0  0  0  0  0  0
    6.4470    4.5850   22.2321 C   0  0  0  0  0  0  0  0  0  0  0  0
    8.4619    6.9895   22.2968 C   0  0  0  0  0  0  0  0  0  0  0  0
   12.2747    7.5102   20.0420 C   0  0  0  0  0  0  0  0  0  0  0  0
   14.2544    6.2142   19.4191 C   0  0  0  0  0  0  0  0  0  0  0  0
   13.0695    6.3705   20.0375 N   0  0  0  0  0  0  0  0  0  0  0  0
    9.1913    8.0876   21.8361 N   0  0  0  0  0  0  0  0  0  0  0  0
   10.4739    9.4813   20.2889 C   0  0  0  0  0  0  0  0  0  0  0  0
    7.5551    7.1270   23.1200 O   0  0  0  0  0  0  0  0  0  0  0  0
  1 11  4  0
  1 21  4  0
  2  4  1  0
  2  8  1  0
  2 11  1  0
  3 10  4  0
  3 14  4  0
  4  5  1  0
  4 18  2  0
  6 12  1  0
  6 17  4  0
  6 23  4  0
  7  9  1  0
  7 13  4  0
  7 19  4  0
  9 20  1  0
 10 19  4  0
 11 25  4  0
 13 14  4  0
 15 16  4  0
 15 17  4  0
 15 21  4  0
 16 24  1  0
 16 25  4  0
 20 24  1  0
 20 26  2  0
 21 23  4  0
 22 23  1  0
M  END
$$$$

 Created by Python create_sdf_string function

 26 28  0  0  0  0  0  0  0  0999 V2000
   12.4616    8.6700   19.4180 N   0  0  0  0  0  0  0  0  0  0  0  0
   11.8329   10.8148   18.6769 N   0  0  0  0  0  0  0  0  0  0  0  0
    6.1021    2.5564   21.0678 C   0  0  0  0  0  0  0  0  0  0  0  0
   10.9097   11.8051   18.4804 C   0  0  0  0  0  0  0  0  0  0  0  0
   11.2280   12.9135   17.5669 C   0  0  0  0  0  0  0  0  0  0  0  0
   12.3782    5.4231   20.7777 C   0  0  0  0  0  0  0  0  0  0  0  0
    7.7365    4.6508   21.6987 C   0  0  0  0  0  0  0  0  0  0  0  0
   13.0186   11.0102   18.0020 C   0  0  0  0  0  0  0  0  0  0  0  0
    8.6628    5.7088   21.8871 N   0  0  0  0  0  0  0  0  0  0  0  0
    5.6516    3.5258   21.9140 C   0  0  0  0  0  0  0  0  0  0  0  0
   11.5863    9.6815   19.4539 C   0  0  0  0  0  0  0  0  0  0  0  0
   12.9648    4.1543   20.9205 C   0  0  0  0  0  0  0  0  0  0  0  0
    8.2089    3.6265   20.8929 C   0  0  0  0  0  0  0  0  0  0  0  0
    7.3827    2.5724   20.5432 C   0  0  0  0  0  0  0  0  0  0  0  0
   11.1529    7.2750   20.8025 C   0  0  0  0  0  0  0  0  0  0  0  0
   10.2573    8.3215   20.9827 C   0  0  0  0  0  0  0  0  0  0  0  0
   11.1606    5.9378   21.2366 N   0  0  0  0  0  0  0  0  0  0  0  0
    9.8932   11.6736   19.0677 O   0  0  0  0  0  0  0  0  0  0  0  0
    6.4470    4.5850   22.2321 C   0  0  0  0  0  0  0  0  0  0  0  0
    8.4619    6.9895   22.2968 C   0  0  0  0  0  0  0  0  0  0  0  0
   12.2747    7.5102   20.0420 C   0  0  0  0  0  0  0  0  0  0  0  0
   14.2544    6.2142   19.4191 C   0  0  0  0  0  0  0  0  0  0  0  0
   13.0695    6.3705   20.0375 N   0  0  0  0  0  0  0  0  0  0  0  0
    9.1913    8.0876   21.8361 N   0  0  0  0  0  0  0  0  0  0  0  0
   10.4739    9.4813   20.2889 C   0  0  0  0  0  0  0  0  0  0  0  0
    7.5551    7.1270   23.1200 O   0  0  0  0  0  0  0  0  0  0  0  0
  1 11  4  0
  1 21  4  0
  2  4  1  0
  2  8  1  0
  2 11  1  0
  3 10  4  0
  3 14  4  0
  4  5  1  0
  4 18  2  0
  6 12  1  0
  6 17  4  0
  6 23  4  0
  7  9  1  0
  7 13  4  0
  7 19  4  0
  9 20  1  0
 10 19  4  0
 11 25  4  0
 13 14  4  0
 15 16  4  0
 15 17  4  0
 15 21  4  0
 16 24  1  0
 16 25  4  0
 20 24  1  0
 20 26  2  0
 21 23  4  0
 22 23  1  0
M  END
$$$$

 Created by Python create_sdf_string function

 26 28  0  0  0  0  0  0  0  0999 V2000
   12.4616    8.6700   19.4180 N   0  0  0  0  0  0  0  0  0  0  0  0
   11.8329   10.8148   18.6769 N   0  0  0  0  0  0  0  0  0  0  0  0
    6.1021    2.5564   21.0678 C   0  0  0  0  0  0  0  0  0  0  0  0
   10.9097   11.8051   18.4804 C   0  0  0  0  0  0  0  0  0  0  0  0
   11.2280   12.9135   17.5669 C   0  0  0  0  0  0  0  0  0  0  0  0
   12.3782    5.4231   20.7777 C   0  0  0  0  0  0  0  0  0  0  0  0
    7.7365    4.6508   21.6987 C   0  0  0  0  0  0  0  0  0  0  0  0
   13.0186   11.0102   18.0020 C   0  0  0  0  0  0  0  0  0  0  0  0
    8.6628    5.7088   21.8871 N   0  0  0  0  0  0  0  0  0  0  0  0
    5.6516    3.5258   21.9140 C   0  0  0  0  0  0  0  0  0  0  0  0
   11.5863    9.6815   19.4539 C   0  0  0  0  0  0  0  0  0  0  0  0
   12.9648    4.1543   20.9205 C   0  0  0  0  0  0  0  0  0  0  0  0
    8.2089    3.6265   20.8929 C   0  0  0  0  0  0  0  0  0  0  0  0
    7.3827    2.5724   20.5432 C   0  0  0  0  0  0  0  0  0  0  0  0
   11.1529    7.2750   20.8025 C   0  0  0  0  0  0  0  0  0  0  0  0
   10.2573    8.3215   20.9827 C   0  0  0  0  0  0  0  0  0  0  0  0
   11.1606    5.9378   21.2366 N   0  0  0  0  0  0  0  0  0  0  0  0
    9.8932   11.6736   19.0677 O   0  0  0  0  0  0  0  0  0  0  0  0
    6.4470    4.5850   22.2321 C   0  0  0  0  0  0  0  0  0  0  0  0
    8.4619    6.9895   22.2968 C   0  0  0  0  0  0  0  0  0  0  0  0
   12.2747    7.5102   20.0420 C   0  0  0  0  0  0  0  0  0  0  0  0
   14.2544    6.2142   19.4191 C   0  0  0  0  0  0  0  0  0  0  0  0
   13.0695    6.3705   20.0375 N   0  0  0  0  0  0  0  0  0  0  0  0
    9.1913    8.0876   21.8361 N   0  0  0  0  0  0  0  0  0  0  0  0
   10.4739    9.4813   20.2889 C   0  0  0  0  0  0  0  0  0  0  0  0
    7.5551    7.1270   23.1200 O   0  0  0  0  0  0  0  0  0  0  0  0
  1 11  4  0
  1 21  4  0
  2  4  1  0
  2  8  1  0
  2 11  1  0
  3 10  4  0
  3 14  4  0
  4  5  1  0
  4 18  2  0
  6 12  1  0
  6 17  4  0
  6 23  4  0
  7  9  1  0
  7 13  4  0
  7 19  4  0
  9 20  1  0
 10 19  4  0
 11 25  4  0
 13 14  4  0
 15 16  4  0
 15 17  4  0
 15 21  4  0
 16 24  1  0
 16 25  4  0
 20 24  1  0
 20 26  2  0
 21 23  4  0
 22 23  1  0
M  END
$$$$

 Created by Python create_sdf_string function

 26 28  0  0  0  0  0  0  0  0999 V2000
   12.4616    8.6700   19.4180 N   0  0  0  0  0  0  0  0  0  0  0  0
   11.8329   10.8148   18.6769 N   0  0  0  0  0  0  0  0  0  0  0  0
    6.1021    2.5564   21.0678 C   0  0  0  0  0  0  0  0  0  0  0  0
   10.9097   11.8051   18.4804 C   0  0  0  0  0  0  0  0  0  0  0  0
   11.2280   12.9135   17.5669 C   0  0  0  0  0  0  0  0  0  0  0  0
   12.3782    5.4231   20.7777 C   0  0  0  0  0  0  0  0  0  0  0  0
    7.7365    4.6508   21.6987 C   0  0  0  0  0  0  0  0  0  0  0  0
   13.0186   11.0102   18.0020 C   0  0  0  0  0  0  0  0  0  0  0  0
    8.6628    5.7088   21.8871 N   0  0  0  0  0  0  0  0  0  0  0  0
    5.6516    3.5258   21.9140 C   0  0  0  0  0  0  0  0  0  0  0  0
   11.5863    9.6815   19.4539 C   0  0  0  0  0  0  0  0  0  0  0  0
   12.9648    4.1543   20.9205 C   0  0  0  0  0  0  0  0  0  0  0  0
    8.2089    3.6265   20.8929 C   0  0  0  0  0  0  0  0  0  0  0  0
    7.3827    2.5724   20.5432 C   0  0  0  0  0  0  0  0  0  0  0  0
   11.1529    7.2750   20.8025 C   0  0  0  0  0  0  0  0  0  0  0  0
   10.2573    8.3215   20.9827 C   0  0  0  0  0  0  0  0  0  0  0  0
   11.1606    5.9378   21.2366 N   0  0  0  0  0  0  0  0  0  0  0  0
    9.8932   11.6736   19.0677 O   0  0  0  0  0  0  0  0  0  0  0  0
    6.4470    4.5850   22.2321 C   0  0  0  0  0  0  0  0  0  0  0  0
    8.4619    6.9895   22.2968 C   0  0  0  0  0  0  0  0  0  0  0  0
   12.2747    7.5102   20.0420 C   0  0  0  0  0  0  0  0  0  0  0  0
   14.2544    6.2142   19.4191 C   0  0  0  0  0  0  0  0  0  0  0  0
   13.0695    6.3705   20.0375 N   0  0  0  0  0  0  0  0  0  0  0  0
    9.1913    8.0876   21.8361 N   0  0  0  0  0  0  0  0  0  0  0  0
   10.4739    9.4813   20.2889 C   0  0  0  0  0  0  0  0  0  0  0  0
    7.5551    7.1270   23.1200 O   0  0  0  0  0  0  0  0  0  0  0  0
  1 11  4  0
  1 21  4  0
  2  4  1  0
  2  8  1  0
  2 11  1  0
  3 10  4  0
  3 14  4  0
  4  5  1  0
  4 18  2  0
  6 12  1  0
  6 17  4  0
  6 23  4  0
  7  9  1  0
  7 13  4  0
  7 19  4  0
  9 20  1  0
 10 19  4  0
 11 25  4  0
 13 14  4  0
 15 16  4  0
 15 17  4  0
 15 21  4  0
 16 24  1  0
 16 25  4  0
 20 24  1  0
 20 26  2  0
 21 23  4  0
 22 23  1  0
M  END
$$$$

 Created by Python create_sdf_string function

 26 28  0  0  0  0  0  0  0  0999 V2000
   12.4616    8.6700   19.4180 N   0  0  0  0  0  0  0  0  0  0  0  0
   11.8329   10.8148   18.6769 N   0  0  0  0  0  0  0  0  0  0  0  0
    6.1021    2.5564   21.0678 C   0  0  0  0  0  0  0  0  0  0  0  0
   10.9097   11.8051   18.4804 C   0  0  0  0  0  0  0  0  0  0  0  0
   11.2280   12.9135   17.5669 C   0  0  0  0  0  0  0  0  0  0  0  0
   12.3782    5.4231   20.7777 C   0  0  0  0  0  0  0  0  0  0  0  0
    7.7365    4.6508   21.6987 C   0  0  0  0  0  0  0  0  0  0  0  0
   13.0186   11.0102   18.0020 C   0  0  0  0  0  0  0  0  0  0  0  0
    8.6628    5.7088   21.8871 N   0  0  0  0  0  0  0  0  0  0  0  0
    5.6516    3.5258   21.9140 C   0  0  0  0  0  0  0  0  0  0  0  0
   11.5863    9.6815   19.4539 C   0  0  0  0  0  0  0  0  0  0  0  0
   12.9648    4.1543   20.9205 C   0  0  0  0  0  0  0  0  0  0  0  0
    8.2089    3.6265   20.8929 C   0  0  0  0  0  0  0  0  0  0  0  0
    7.3827    2.5724   20.5432 C   0  0  0  0  0  0  0  0  0  0  0  0
   11.1529    7.2750   20.8025 C   0  0  0  0  0  0  0  0  0  0  0  0
   10.2573    8.3215   20.9827 C   0  0  0  0  0  0  0  0  0  0  0  0
   11.1606    5.9378   21.2366 N   0  0  0  0  0  0  0  0  0  0  0  0
    9.8932   11.6736   19.0677 O   0  0  0  0  0  0  0  0  0  0  0  0
    6.4470    4.5850   22.2321 C   0  0  0  0  0  0  0  0  0  0  0  0
    8.4619    6.9895   22.2968 C   0  0  0  0  0  0  0  0  0  0  0  0
   12.2747    7.5102   20.0420 C   0  0  0  0  0  0  0  0  0  0  0  0
   14.2544    6.2142   19.4191 C   0  0  0  0  0  0  0  0  0  0  0  0
   13.0695    6.3705   20.0375 N   0  0  0  0  0  0  0  0  0  0  0  0
    9.1913    8.0876   21.8361 N   0  0  0  0  0  0  0  0  0  0  0  0
   10.4739    9.4813   20.2889 C   0  0  0  0  0  0  0  0  0  0  0  0
    7.5551    7.1270   23.1200 O   0  0  0  0  0  0  0  0  0  0  0  0
  1 11  4  0
  1 21  4  0
  2  4  1  0
  2  8  1  0
  2 11  1  0
  3 10  4  0
  3 14  4  0
  4  5  1  0
  4 18  2  0
  6 12  1  0
  6 17  4  0
  6 23  4  0
  7  9  1  0
  7 13  4  0
  7 19  4  0
  9 20  1  0
 10 19  4  0
 11 25  4  0
 13 14  4  0
 15 16  4  0
 15 17  4  0
 15 21  4  0
 16 24  1  0
 16 25  4  0
 20 24  1  0
 20 26  2  0
 21 23  4  0
 22 23  1  0
M  END
$$$$

 Created by Python create_sdf_string function

 26 28  0  0  0  0  0  0  0  0999 V2000
   12.4616    8.6700   19.4180 N   0  0  0  0  0  0  0  0  0  0  0  0
   11.8329   10.8148   18.6769 N   0  0  0  0  0  0  0  0  0  0  0  0
    6.1021    2.5564   21.0678 C   0  0  0  0  0  0  0  0  0  0  0  0
   10.9097   11.8051   18.4804 C   0  0  0  0  0  0  0  0  0  0  0  0
   11.2280   12.9135   17.5669 C   0  0  0  0  0  0  0  0  0  0  0  0
   12.3782    5.4231   20.7777 C   0  0  0  0  0  0  0  0  0  0  0  0
    7.7365    4.6508   21.6987 C   0  0  0  0  0  0  0  0  0  0  0  0
   13.0186   11.0102   18.0020 C   0  0  0  0  0  0  0  0  0  0  0  0
    8.6628    5.7088   21.8871 N   0  0  0  0  0  0  0  0  0  0  0  0
    5.6516    3.5258   21.9140 C   0  0  0  0  0  0  0  0  0  0  0  0
   11.5863    9.6815   19.4539 C   0  0  0  0  0  0  0  0  0  0  0  0
   12.9648    4.1543   20.9205 C   0  0  0  0  0  0  0  0  0  0  0  0
    8.2089    3.6265   20.8929 C   0  0  0  0  0  0  0  0  0  0  0  0
    7.3827    2.5724   20.5432 C   0  0  0  0  0  0  0  0  0  0  0  0
   11.1529    7.2750   20.8025 C   0  0  0  0  0  0  0  0  0  0  0  0
   10.2573    8.3215   20.9827 C   0  0  0  0  0  0  0  0  0  0  0  0
   11.1606    5.9378   21.2366 N   0  0  0  0  0  0  0  0  0  0  0  0
    9.8932   11.6736   19.0677 O   0  0  0  0  0  0  0  0  0  0  0  0
    6.4470    4.5850   22.2321 C   0  0  0  0  0  0  0  0  0  0  0  0
    8.4619    6.9895   22.2968 C   0  0  0  0  0  0  0  0  0  0  0  0
   12.2747    7.5102   20.0420 C   0  0  0  0  0  0  0  0  0  0  0  0
   14.2544    6.2142   19.4191 C   0  0  0  0  0  0  0  0  0  0  0  0
   13.0695    6.3705   20.0375 N   0  0  0  0  0  0  0  0  0  0  0  0
    9.1913    8.0876   21.8361 N   0  0  0  0  0  0  0  0  0  0  0  0
   10.4739    9.4813   20.2889 C   0  0  0  0  0  0  0  0  0  0  0  0
    7.5551    7.1270   23.1200 O   0  0  0  0  0  0  0  0  0  0  0  0
  1 11  4  0
  1 21  4  0
  2  4  1  0
  2  8  1  0
  2 11  1  0
  3 10  4  0
  3 14  4  0
  4  5  1  0
  4 18  2  0
  6 12  1  0
  6 17  4  0
  6 23  4  0
  7  9  1  0
  7 13  4  0
  7 19  4  0
  9 20  1  0
 10 19  4  0
 11 25  4  0
 13 14  4  0
 15 16  4  0
 15 17  4  0
 15 21  4  0
 16 24  1  0
 16 25  4  0
 20 24  1  0
 20 26  2  0
 21 23  4  0
 22 23  1  0
M  END
$$$$

 Created by Python create_sdf_string function

 26 28  0  0  0  0  0  0  0  0999 V2000
   12.4616    8.6700   19.4180 N   0  0  0  0  0  0  0  0  0  0  0  0
   11.8329   10.8148   18.6769 N   0  0  0  0  0  0  0  0  0  0  0  0
    6.1021    2.5564   21.0678 C   0  0  0  0  0  0  0  0  0  0  0  0
   10.9097   11.8051   18.4804 C   0  0  0  0  0  0  0  0  0  0  0  0
   11.2280   12.9135   17.5669 C   0  0  0  0  0  0  0  0  0  0  0  0
   12.3782    5.4231   20.7777 C   0  0  0  0  0  0  0  0  0  0  0  0
    7.7365    4.6508   21.6987 C   0  0  0  0  0  0  0  0  0  0  0  0
   13.0186   11.0102   18.0020 C   0  0  0  0  0  0  0  0  0  0  0  0
    8.6628    5.7088   21.8871 N   0  0  0  0  0  0  0  0  0  0  0  0
    5.6516    3.5258   21.9140 C   0  0  0  0  0  0  0  0  0  0  0  0
   11.5863    9.6815   19.4539 C   0  0  0  0  0  0  0  0  0  0  0  0
   12.9648    4.1543   20.9205 C   0  0  0  0  0  0  0  0  0  0  0  0
    8.2089    3.6265   20.8929 C   0  0  0  0  0  0  0  0  0  0  0  0
    7.3827    2.5724   20.5432 C   0  0  0  0  0  0  0  0  0  0  0  0
   11.1529    7.2750   20.8025 C   0  0  0  0  0  0  0  0  0  0  0  0
   10.2573    8.3215   20.9827 C   0  0  0  0  0  0  0  0  0  0  0  0
   11.1606    5.9378   21.2366 N   0  0  0  0  0  0  0  0  0  0  0  0
    9.8932   11.6736   19.0677 O   0  0  0  0  0  0  0  0  0  0  0  0
    6.4470    4.5850   22.2321 C   0  0  0  0  0  0  0  0  0  0  0  0
    8.4619    6.9895   22.2968 C   0  0  0  0  0  0  0  0  0  0  0  0
   12.2747    7.5102   20.0420 C   0  0  0  0  0  0  0  0  0  0  0  0
   14.2544    6.2142   19.4191 C   0  0  0  0  0  0  0  0  0  0  0  0
   13.0695    6.3705   20.0375 N   0  0  0  0  0  0  0  0  0  0  0  0
    9.1913    8.0876   21.8361 N   0  0  0  0  0  0  0  0  0  0  0  0
   10.4739    9.4813   20.2889 C   0  0  0  0  0  0  0  0  0  0  0  0
    7.5551    7.1270   23.1200 O   0  0  0  0  0  0  0  0  0  0  0  0
  1 11  4  0
  1 21  4  0
  2  4  1  0
  2  8  1  0
  2 11  1  0
  3 10  4  0
  3 14  4  0
  4  5  1  0
  4 18  2  0
  6 12  1  0
  6 17  4  0
  6 23  4  0
  7  9  1  0
  7 13  4  0
  7 19  4  0
  9 20  1  0
 10 19  4  0
 11 25  4  0
 13 14  4  0
 15 16  4  0
 15 17  4  0
 15 21  4  0
 16 24  1  0
 16 25  4  0
 20 24  1  0
 20 26  2  0
 21 23  4  0
 22 23  1  0
M  END
$$$$

 Created by Python create_sdf_string function

 26 28  0  0  0  0  0  0  0  0999 V2000
   12.4616    8.6700   19.4180 N   0  0  0  0  0  0  0  0  0  0  0  0
   11.8329   10.8148   18.6769 N   0  0  0  0  0  0  0  0  0  0  0  0
    6.1021    2.5564   21.0678 C   0  0  0  0  0  0  0  0  0  0  0  0
   10.9097   11.8051   18.4804 C   0  0  0  0  0  0  0  0  0  0  0  0
   11.2280   12.9135   17.5669 C   0  0  0  0  0  0  0  0  0  0  0  0
   12.3782    5.4231   20.7777 C   0  0  0  0  0  0  0  0  0  0  0  0
    7.7365    4.6508   21.6987 C   0  0  0  0  0  0  0  0  0  0  0  0
   13.0186   11.0102   18.0020 C   0  0  0  0  0  0  0  0  0  0  0  0
    8.6628    5.7088   21.8871 N   0  0  0  0  0  0  0  0  0  0  0  0
    5.6516    3.5258   21.9140 C   0  0  0  0  0  0  0  0  0  0  0  0
   11.5863    9.6815   19.4539 C   0  0  0  0  0  0  0  0  0  0  0  0
   12.9648    4.1543   20.9205 C   0  0  0  0  0  0  0  0  0  0  0  0
    8.2089    3.6265   20.8929 C   0  0  0  0  0  0  0  0  0  0  0  0
    7.3827    2.5724   20.5432 C   0  0  0  0  0  0  0  0  0  0  0  0
   11.1529    7.2750   20.8025 C   0  0  0  0  0  0  0  0  0  0  0  0
   10.2573    8.3215   20.9827 C   0  0  0  0  0  0  0  0  0  0  0  0
   11.1606    5.9378   21.2366 N   0  0  0  0  0  0  0  0  0  0  0  0
    9.8932   11.6736   19.0677 O   0  0  0  0  0  0  0  0  0  0  0  0
    6.4470    4.5850   22.2321 C   0  0  0  0  0  0  0  0  0  0  0  0
    8.4619    6.9895   22.2968 C   0  0  0  0  0  0  0  0  0  0  0  0
   12.2747    7.5102   20.0420 C   0  0  0  0  0  0  0  0  0  0  0  0
   14.2544    6.2142   19.4191 C   0  0  0  0  0  0  0  0  0  0  0  0
   13.0695    6.3705   20.0375 N   0  0  0  0  0  0  0  0  0  0  0  0
    9.1913    8.0876   21.8361 N   0  0  0  0  0  0  0  0  0  0  0  0
   10.4739    9.4813   20.2889 C   0  0  0  0  0  0  0  0  0  0  0  0
    7.5551    7.1270   23.1200 O   0  0  0  0  0  0  0  0  0  0  0  0
  1 11  4  0
  1 21  4  0
  2  4  1  0
  2  8  1  0
  2 11  1  0
  3 10  4  0
  3 14  4  0
  4  5  1  0
  4 18  2  0
  6 12  1  0
  6 17  4  0
  6 23  4  0
  7  9  1  0
  7 13  4  0
  7 19  4  0
  9 20  1  0
 10 19  4  0
 11 25  4  0
 13 14  4  0
 15 16  4  0
 15 17  4  0
 15 21  4  0
 16 24  1  0
 16 25  4  0
 20 24  1  0
 20 26  2  0
 21 23  4  0
 22 23  1  0
M  END
$$$$

 Created by Python create_sdf_string function

 26 28  0  0  0  0  0  0  0  0999 V2000
   12.4616    8.6700   19.4180 N   0  0  0  0  0  0  0  0  0  0  0  0
   11.8329   10.8148   18.6769 N   0  0  0  0  0  0  0  0  0  0  0  0
    6.1021    2.5564   21.0678 C   0  0  0  0  0  0  0  0  0  0  0  0
   10.9097   11.8051   18.4804 C   0  0  0  0  0  0  0  0  0  0  0  0
   11.2280   12.9135   17.5669 C   0  0  0  0  0  0  0  0  0  0  0  0
   12.3782    5.4231   20.7777 C   0  0  0  0  0  0  0  0  0  0  0  0
    7.7365    4.6508   21.6987 C   0  0  0  0  0  0  0  0  0  0  0  0
   13.0186   11.0102   18.0020 C   0  0  0  0  0  0  0  0  0  0  0  0
    8.6628    5.7088   21.8871 N   0  0  0  0  0  0  0  0  0  0  0  0
    5.6516    3.5258   21.9140 C   0  0  0  0  0  0  0  0  0  0  0  0
   11.5863    9.6815   19.4539 C   0  0  0  0  0  0  0  0  0  0  0  0
   12.9648    4.1543   20.9205 C   0  0  0  0  0  0  0  0  0  0  0  0
    8.2089    3.6265   20.8929 C   0  0  0  0  0  0  0  0  0  0  0  0
    7.3827    2.5724   20.5432 C   0  0  0  0  0  0  0  0  0  0  0  0
   11.1529    7.2750   20.8025 C   0  0  0  0  0  0  0  0  0  0  0  0
   10.2573    8.3215   20.9827 C   0  0  0  0  0  0  0  0  0  0  0  0
   11.1606    5.9378   21.2366 N   0  0  0  0  0  0  0  0  0  0  0  0
    9.8932   11.6736   19.0677 O   0  0  0  0  0  0  0  0  0  0  0  0
    6.4470    4.5850   22.2321 C   0  0  0  0  0  0  0  0  0  0  0  0
    8.4619    6.9895   22.2968 C   0  0  0  0  0  0  0  0  0  0  0  0
   12.2747    7.5102   20.0420 C   0  0  0  0  0  0  0  0  0  0  0  0
   14.2544    6.2142   19.4191 C   0  0  0  0  0  0  0  0  0  0  0  0
   13.0695    6.3705   20.0375 N   0  0  0  0  0  0  0  0  0  0  0  0
    9.1913    8.0876   21.8361 N   0  0  0  0  0  0  0  0  0  0  0  0
   10.4739    9.4813   20.2889 C   0  0  0  0  0  0  0  0  0  0  0  0
    7.5551    7.1270   23.1200 O   0  0  0  0  0  0  0  0  0  0  0  0
  1 11  4  0
  1 21  4  0
  2  4  1  0
  2  8  1  0
  2 11  1  0
  3 10  4  0
  3 14  4  0
  4  5  1  0
  4 18  2  0
  6 12  1  0
  6 17  4  0
  6 23  4  0
  7  9  1  0
  7 13  4  0
  7 19  4  0
  9 20  1  0
 10 19  4  0
 11 25  4  0
 13 14  4  0
 15 16  4  0
 15 17  4  0
 15 21  4  0
 16 24  1  0
 16 25  4  0
 20 24  1  0
 20 26  2  0
 21 23  4  0
 22 23  1  0
M  END
$$$$

 Created by Python create_sdf_string function

 26 28  0  0  0  0  0  0  0  0999 V2000
   12.4616    8.6700   19.4180 N   0  0  0  0  0  0  0  0  0  0  0  0
   11.8329   10.8148   18.6769 N   0  0  0  0  0  0  0  0  0  0  0  0
    6.1021    2.5564   21.0678 C   0  0  0  0  0  0  0  0  0  0  0  0
   10.9097   11.8051   18.4804 C   0  0  0  0  0  0  0  0  0  0  0  0
   11.2280   12.9135   17.5669 C   0  0  0  0  0  0  0  0  0  0  0  0
   12.3782    5.4231   20.7777 C   0  0  0  0  0  0  0  0  0  0  0  0
    7.7365    4.6508   21.6987 C   0  0  0  0  0  0  0  0  0  0  0  0
   13.0186   11.0102   18.0020 C   0  0  0  0  0  0  0  0  0  0  0  0
    8.6628    5.7088   21.8871 N   0  0  0  0  0  0  0  0  0  0  0  0
    5.6516    3.5258   21.9140 C   0  0  0  0  0  0  0  0  0  0  0  0
   11.5863    9.6815   19.4539 C   0  0  0  0  0  0  0  0  0  0  0  0
   12.9648    4.1543   20.9205 C   0  0  0  0  0  0  0  0  0  0  0  0
    8.2089    3.6265   20.8929 C   0  0  0  0  0  0  0  0  0  0  0  0
    7.3827    2.5724   20.5432 C   0  0  0  0  0  0  0  0  0  0  0  0
   11.1529    7.2750   20.8025 C   0  0  0  0  0  0  0  0  0  0  0  0
   10.2573    8.3215   20.9827 C   0  0  0  0  0  0  0  0  0  0  0  0
   11.1606    5.9378   21.2366 N   0  0  0  0  0  0  0  0  0  0  0  0
    9.8932   11.6736   19.0677 O   0  0  0  0  0  0  0  0  0  0  0  0
    6.4470    4.5850   22.2321 C   0  0  0  0  0  0  0  0  0  0  0  0
    8.4619    6.9895   22.2968 C   0  0  0  0  0  0  0  0  0  0  0  0
   12.2747    7.5102   20.0420 C   0  0  0  0  0  0  0  0  0  0  0  0
   14.2544    6.2142   19.4191 C   0  0  0  0  0  0  0  0  0  0  0  0
   13.0695    6.3705   20.0375 N   0  0  0  0  0  0  0  0  0  0  0  0
    9.1913    8.0876   21.8361 N   0  0  0  0  0  0  0  0  0  0  0  0
   10.4739    9.4813   20.2889 C   0  0  0  0  0  0  0  0  0  0  0  0
    7.5551    7.1270   23.1200 O   0  0  0  0  0  0  0  0  0  0  0  0
  1 11  4  0
  1 21  4  0
  2  4  1  0
  2  8  1  0
  2 11  1  0
  3 10  4  0
  3 14  4  0
  4  5  1  0
  4 18  2  0
  6 12  1  0
  6 17  4  0
  6 23  4  0
  7  9  1  0
  7 13  4  0
  7 19  4  0
  9 20  1  0
 10 19  4  0
 11 25  4  0
 13 14  4  0
 15 16  4  0
 15 17  4  0
 15 21  4  0
 16 24  1  0
 16 25  4  0
 20 24  1  0
 20 26  2  0
 21 23  4  0
 22 23  1  0
M  END
$$$$

 Created by Python create_sdf_string function

 26 28  0  0  0  0  0  0  0  0999 V2000
   12.4616    8.6700   19.4180 N   0  0  0  0  0  0  0  0  0  0  0  0
   11.8329   10.8148   18.6769 N   0  0  0  0  0  0  0  0  0  0  0  0
    6.1021    2.5564   21.0678 C   0  0  0  0  0  0  0  0  0  0  0  0
   10.9097   11.8051   18.4804 C   0  0  0  0  0  0  0  0  0  0  0  0
   11.2280   12.9135   17.5669 C   0  0  0  0  0  0  0  0  0  0  0  0
   12.3782    5.4231   20.7777 C   0  0  0  0  0  0  0  0  0  0  0  0
    7.7365    4.6508   21.6987 C   0  0  0  0  0  0  0  0  0  0  0  0
   13.0186   11.0102   18.0020 C   0  0  0  0  0  0  0  0  0  0  0  0
    8.6628    5.7088   21.8871 N   0  0  0  0  0  0  0  0  0  0  0  0
    5.6516    3.5258   21.9140 C   0  0  0  0  0  0  0  0  0  0  0  0
   11.5863    9.6815   19.4539 C   0  0  0  0  0  0  0  0  0  0  0  0
   12.9648    4.1543   20.9205 C   0  0  0  0  0  0  0  0  0  0  0  0
    8.2089    3.6265   20.8929 C   0  0  0  0  0  0  0  0  0  0  0  0
    7.3827    2.5724   20.5432 C   0  0  0  0  0  0  0  0  0  0  0  0
   11.1529    7.2750   20.8025 C   0  0  0  0  0  0  0  0  0  0  0  0
   10.2573    8.3215   20.9827 C   0  0  0  0  0  0  0  0  0  0  0  0
   11.1606    5.9378   21.2366 N   0  0  0  0  0  0  0  0  0  0  0  0
    9.8932   11.6736   19.0677 O   0  0  0  0  0  0  0  0  0  0  0  0
    6.4470    4.5850   22.2321 C   0  0  0  0  0  0  0  0  0  0  0  0
    8.4619    6.9895   22.2968 C   0  0  0  0  0  0  0  0  0  0  0  0
   12.2747    7.5102   20.0420 C   0  0  0  0  0  0  0  0  0  0  0  0
   14.2544    6.2142   19.4191 C   0  0  0  0  0  0  0  0  0  0  0  0
   13.0695    6.3705   20.0375 N   0  0  0  0  0  0  0  0  0  0  0  0
    9.1913    8.0876   21.8361 N   0  0  0  0  0  0  0  0  0  0  0  0
   10.4739    9.4813   20.2889 C   0  0  0  0  0  0  0  0  0  0  0  0
    7.5551    7.1270   23.1200 O   0  0  0  0  0  0  0  0  0  0  0  0
  1 11  4  0
  1 21  4  0
  2  4  1  0
  2  8  1  0
  2 11  1  0
  3 10  4  0
  3 14  4  0
  4  5  1  0
  4 18  2  0
  6 12  1  0
  6 17  4  0
  6 23  4  0
  7  9  1  0
  7 13  4  0
  7 19  4  0
  9 20  1  0
 10 19  4  0
 11 25  4  0
 13 14  4  0
 15 16  4  0
 15 17  4  0
 15 21  4  0
 16 24  1  0
 16 25  4  0
 20 24  1  0
 20 26  2  0
 21 23  4  0
 22 23  1  0
M  END
$$$$

 Created by Python create_sdf_string function

 26 28  0  0  0  0  0  0  0  0999 V2000
   12.4616    8.6700   19.4180 N   0  0  0  0  0  0  0  0  0  0  0  0
   11.8329   10.8148   18.6769 N   0  0  0  0  0  0  0  0  0  0  0  0
    6.1021    2.5564   21.0678 C   0  0  0  0  0  0  0  0  0  0  0  0
   10.9097   11.8051   18.4804 C   0  0  0  0  0  0  0  0  0  0  0  0
   11.2280   12.9135   17.5669 C   0  0  0  0  0  0  0  0  0  0  0  0
   12.3782    5.4231   20.7777 C   0  0  0  0  0  0  0  0  0  0  0  0
    7.7365    4.6508   21.6987 C   0  0  0  0  0  0  0  0  0  0  0  0
   13.0186   11.0102   18.0020 C   0  0  0  0  0  0  0  0  0  0  0  0
    8.6628    5.7088   21.8871 N   0  0  0  0  0  0  0  0  0  0  0  0
    5.6516    3.5258   21.9140 C   0  0  0  0  0  0  0  0  0  0  0  0
   11.5863    9.6815   19.4539 C   0  0  0  0  0  0  0  0  0  0  0  0
   12.9648    4.1543   20.9205 C   0  0  0  0  0  0  0  0  0  0  0  0
    8.2089    3.6265   20.8929 C   0  0  0  0  0  0  0  0  0  0  0  0
    7.3827    2.5724   20.5432 C   0  0  0  0  0  0  0  0  0  0  0  0
   11.1529    7.2750   20.8025 C   0  0  0  0  0  0  0  0  0  0  0  0
   10.2573    8.3215   20.9827 C   0  0  0  0  0  0  0  0  0  0  0  0
   11.1606    5.9378   21.2366 N   0  0  0  0  0  0  0  0  0  0  0  0
    9.8932   11.6736   19.0677 O   0  0  0  0  0  0  0  0  0  0  0  0
    6.4470    4.5850   22.2321 C   0  0  0  0  0  0  0  0  0  0  0  0
    8.4619    6.9895   22.2968 C   0  0  0  0  0  0  0  0  0  0  0  0
   12.2747    7.5102   20.0420 C   0  0  0  0  0  0  0  0  0  0  0  0
   14.2544    6.2142   19.4191 C   0  0  0  0  0  0  0  0  0  0  0  0
   13.0695    6.3705   20.0375 N   0  0  0  0  0  0  0  0  0  0  0  0
    9.1913    8.0876   21.8361 N   0  0  0  0  0  0  0  0  0  0  0  0
   10.4739    9.4813   20.2889 C   0  0  0  0  0  0  0  0  0  0  0  0
    7.5551    7.1270   23.1200 O   0  0  0  0  0  0  0  0  0  0  0  0
  1 11  4  0
  1 21  4  0
  2  4  1  0
  2  8  1  0
  2 11  1  0
  3 10  4  0
  3 14  4  0
  4  5  1  0
  4 18  2  0
  6 12  1  0
  6 17  4  0
  6 23  4  0
  7  9  1  0
  7 13  4  0
  7 19  4  0
  9 20  1  0
 10 19  4  0
 11 25  4  0
 13 14  4  0
 15 16  4  0
 15 17  4  0
 15 21  4  0
 16 24  1  0
 16 25  4  0
 20 24  1  0
 20 26  2  0
 21 23  4  0
 22 23  1  0
M  END
$$$$

 Created by Python create_sdf_string function

 26 28  0  0  0  0  0  0  0  0999 V2000
   12.4616    8.6700   19.4180 N   0  0  0  0  0  0  0  0  0  0  0  0
   11.8329   10.8148   18.6769 N   0  0  0  0  0  0  0  0  0  0  0  0
    6.1021    2.5564   21.0678 C   0  0  0  0  0  0  0  0  0  0  0  0
   10.9097   11.8051   18.4804 C   0  0  0  0  0  0  0  0  0  0  0  0
   11.2280   12.9135   17.5669 C   0  0  0  0  0  0  0  0  0  0  0  0
   12.3782    5.4231   20.7777 C   0  0  0  0  0  0  0  0  0  0  0  0
    7.7365    4.6508   21.6987 C   0  0  0  0  0  0  0  0  0  0  0  0
   13.0186   11.0102   18.0020 C   0  0  0  0  0  0  0  0  0  0  0  0
    8.6628    5.7088   21.8871 N   0  0  0  0  0  0  0  0  0  0  0  0
    5.6516    3.5258   21.9140 C   0  0  0  0  0  0  0  0  0  0  0  0
   11.5863    9.6815   19.4539 C   0  0  0  0  0  0  0  0  0  0  0  0
   12.9648    4.1543   20.9205 C   0  0  0  0  0  0  0  0  0  0  0  0
    8.2089    3.6265   20.8929 C   0  0  0  0  0  0  0  0  0  0  0  0
    7.3827    2.5724   20.5432 C   0  0  0  0  0  0  0  0  0  0  0  0
   11.1529    7.2750   20.8025 C   0  0  0  0  0  0  0  0  0  0  0  0
   10.2573    8.3215   20.9827 C   0  0  0  0  0  0  0  0  0  0  0  0
   11.1606    5.9378   21.2366 N   0  0  0  0  0  0  0  0  0  0  0  0
    9.8932   11.6736   19.0677 O   0  0  0  0  0  0  0  0  0  0  0  0
    6.4470    4.5850   22.2321 C   0  0  0  0  0  0  0  0  0  0  0  0
    8.4619    6.9895   22.2968 C   0  0  0  0  0  0  0  0  0  0  0  0
   12.2747    7.5102   20.0420 C   0  0  0  0  0  0  0  0  0  0  0  0
   14.2544    6.2142   19.4191 C   0  0  0  0  0  0  0  0  0  0  0  0
   13.0695    6.3705   20.0375 N   0  0  0  0  0  0  0  0  0  0  0  0
    9.1913    8.0876   21.8361 N   0  0  0  0  0  0  0  0  0  0  0  0
   10.4739    9.4813   20.2889 C   0  0  0  0  0  0  0  0  0  0  0  0
    7.5551    7.1270   23.1200 O   0  0  0  0  0  0  0  0  0  0  0  0
  1 11  4  0
  1 21  4  0
  2  4  1  0
  2  8  1  0
  2 11  1  0
  3 10  4  0
  3 14  4  0
  4  5  1  0
  4 18  2  0
  6 12  1  0
  6 17  4  0
  6 23  4  0
  7  9  1  0
  7 13  4  0
  7 19  4  0
  9 20  1  0
 10 19  4  0
 11 25  4  0
 13 14  4  0
 15 16  4  0
 15 17  4  0
 15 21  4  0
 16 24  1  0
 16 25  4  0
 20 24  1  0
 20 26  2  0
 21 23  4  0
 22 23  1  0
M  END
$$$$

 Created by Python create_sdf_string function

 26 28  0  0  0  0  0  0  0  0999 V2000
   12.4616    8.6700   19.4180 N   0  0  0  0  0  0  0  0  0  0  0  0
   11.8329   10.8148   18.6769 N   0  0  0  0  0  0  0  0  0  0  0  0
    6.1021    2.5564   21.0678 C   0  0  0  0  0  0  0  0  0  0  0  0
   10.9097   11.8051   18.4804 C   0  0  0  0  0  0  0  0  0  0  0  0
   11.2280   12.9135   17.5669 C   0  0  0  0  0  0  0  0  0  0  0  0
   12.3782    5.4231   20.7777 C   0  0  0  0  0  0  0  0  0  0  0  0
    7.7365    4.6508   21.6987 C   0  0  0  0  0  0  0  0  0  0  0  0
   13.0186   11.0102   18.0020 C   0  0  0  0  0  0  0  0  0  0  0  0
    8.6628    5.7088   21.8871 N   0  0  0  0  0  0  0  0  0  0  0  0
    5.6516    3.5258   21.9140 C   0  0  0  0  0  0  0  0  0  0  0  0
   11.5863    9.6815   19.4539 C   0  0  0  0  0  0  0  0  0  0  0  0
   12.9648    4.1543   20.9205 C   0  0  0  0  0  0  0  0  0  0  0  0
    8.2089    3.6265   20.8929 C   0  0  0  0  0  0  0  0  0  0  0  0
    7.3827    2.5724   20.5432 C   0  0  0  0  0  0  0  0  0  0  0  0
   11.1529    7.2750   20.8025 C   0  0  0  0  0  0  0  0  0  0  0  0
   10.2573    8.3215   20.9827 C   0  0  0  0  0  0  0  0  0  0  0  0
   11.1606    5.9378   21.2366 N   0  0  0  0  0  0  0  0  0  0  0  0
    9.8932   11.6736   19.0677 O   0  0  0  0  0  0  0  0  0  0  0  0
    6.4470    4.5850   22.2321 C   0  0  0  0  0  0  0  0  0  0  0  0
    8.4619    6.9895   22.2968 C   0  0  0  0  0  0  0  0  0  0  0  0
   12.2747    7.5102   20.0420 C   0  0  0  0  0  0  0  0  0  0  0  0
   14.2544    6.2142   19.4191 C   0  0  0  0  0  0  0  0  0  0  0  0
   13.0695    6.3705   20.0375 N   0  0  0  0  0  0  0  0  0  0  0  0
    9.1913    8.0876   21.8361 N   0  0  0  0  0  0  0  0  0  0  0  0
   10.4739    9.4813   20.2889 C   0  0  0  0  0  0  0  0  0  0  0  0
    7.5551    7.1270   23.1200 O   0  0  0  0  0  0  0  0  0  0  0  0
  1 11  4  0
  1 21  4  0
  2  4  1  0
  2  8  1  0
  2 11  1  0
  3 10  4  0
  3 14  4  0
  4  5  1  0
  4 18  2  0
  6 12  1  0
  6 17  4  0
  6 23  4  0
  7  9  1  0
  7 13  4  0
  7 19  4  0
  9 20  1  0
 10 19  4  0
 11 25  4  0
 13 14  4  0
 15 16  4  0
 15 17  4  0
 15 21  4  0
 16 24  1  0
 16 25  4  0
 20 24  1  0
 20 26  2  0
 21 23  4  0
 22 23  1  0
M  END
$$$$

 Created by Python create_sdf_string function

 26 28  0  0  0  0  0  0  0  0999 V2000
   12.4616    8.6700   19.4180 N   0  0  0  0  0  0  0  0  0  0  0  0
   11.8329   10.8148   18.6769 N   0  0  0  0  0  0  0  0  0  0  0  0
    6.1021    2.5564   21.0678 C   0  0  0  0  0  0  0  0  0  0  0  0
   10.9097   11.8051   18.4804 C   0  0  0  0  0  0  0  0  0  0  0  0
   11.2280   12.9135   17.5669 C   0  0  0  0  0  0  0  0  0  0  0  0
   12.3782    5.4231   20.7777 C   0  0  0  0  0  0  0  0  0  0  0  0
    7.7365    4.6508   21.6987 C   0  0  0  0  0  0  0  0  0  0  0  0
   13.0186   11.0102   18.0020 C   0  0  0  0  0  0  0  0  0  0  0  0
    8.6628    5.7088   21.8871 N   0  0  0  0  0  0  0  0  0  0  0  0
    5.6516    3.5258   21.9140 C   0  0  0  0  0  0  0  0  0  0  0  0
   11.5863    9.6815   19.4539 C   0  0  0  0  0  0  0  0  0  0  0  0
   12.9648    4.1543   20.9205 C   0  0  0  0  0  0  0  0  0  0  0  0
    8.2089    3.6265   20.8929 C   0  0  0  0  0  0  0  0  0  0  0  0
    7.3827    2.5724   20.5432 C   0  0  0  0  0  0  0  0  0  0  0  0
   11.1529    7.2750   20.8025 C   0  0  0  0  0  0  0  0  0  0  0  0
   10.2573    8.3215   20.9827 C   0  0  0  0  0  0  0  0  0  0  0  0
   11.1606    5.9378   21.2366 N   0  0  0  0  0  0  0  0  0  0  0  0
    9.8932   11.6736   19.0677 O   0  0  0  0  0  0  0  0  0  0  0  0
    6.4470    4.5850   22.2321 C   0  0  0  0  0  0  0  0  0  0  0  0
    8.4619    6.9895   22.2968 C   0  0  0  0  0  0  0  0  0  0  0  0
   12.2747    7.5102   20.0420 C   0  0  0  0  0  0  0  0  0  0  0  0
   14.2544    6.2142   19.4191 C   0  0  0  0  0  0  0  0  0  0  0  0
   13.0695    6.3705   20.0375 N   0  0  0  0  0  0  0  0  0  0  0  0
    9.1913    8.0876   21.8361 N   0  0  0  0  0  0  0  0  0  0  0  0
   10.4739    9.4813   20.2889 C   0  0  0  0  0  0  0  0  0  0  0  0
    7.5551    7.1270   23.1200 O   0  0  0  0  0  0  0  0  0  0  0  0
  1 11  4  0
  1 21  4  0
  2  4  1  0
  2  8  1  0
  2 11  1  0
  3 10  4  0
  3 14  4  0
  4  5  1  0
  4 18  2  0
  6 12  1  0
  6 17  4  0
  6 23  4  0
  7  9  1  0
  7 13  4  0
  7 19  4  0
  9 20  1  0
 10 19  4  0
 11 25  4  0
 13 14  4  0
 15 16  4  0
 15 17  4  0
 15 21  4  0
 16 24  1  0
 16 25  4  0
 20 24  1  0
 20 26  2  0
 21 23  4  0
 22 23  1  0
M  END
$$$$

 Created by Python create_sdf_string function

 26 28  0  0  0  0  0  0  0  0999 V2000
   12.4616    8.6700   19.4180 N   0  0  0  0  0  0  0  0  0  0  0  0
   11.8329   10.8148   18.6769 N   0  0  0  0  0  0  0  0  0  0  0  0
    6.1021    2.5564   21.0678 C   0  0  0  0  0  0  0  0  0  0  0  0
   10.9097   11.8051   18.4804 C   0  0  0  0  0  0  0  0  0  0  0  0
   11.2280   12.9135   17.5669 C   0  0  0  0  0  0  0  0  0  0  0  0
   12.3782    5.4231   20.7777 C   0  0  0  0  0  0  0  0  0  0  0  0
    7.7365    4.6508   21.6987 C   0  0  0  0  0  0  0  0  0  0  0  0
   13.0186   11.0102   18.0020 C   0  0  0  0  0  0  0  0  0  0  0  0
    8.6628    5.7088   21.8871 N   0  0  0  0  0  0  0  0  0  0  0  0
    5.6516    3.5258   21.9140 C   0  0  0  0  0  0  0  0  0  0  0  0
   11.5863    9.6815   19.4539 C   0  0  0  0  0  0  0  0  0  0  0  0
   12.9648    4.1543   20.9205 C   0  0  0  0  0  0  0  0  0  0  0  0
    8.2089    3.6265   20.8929 C   0  0  0  0  0  0  0  0  0  0  0  0
    7.3827    2.5724   20.5432 C   0  0  0  0  0  0  0  0  0  0  0  0
   11.1529    7.2750   20.8025 C   0  0  0  0  0  0  0  0  0  0  0  0
   10.2573    8.3215   20.9827 C   0  0  0  0  0  0  0  0  0  0  0  0
   11.1606    5.9378   21.2366 N   0  0  0  0  0  0  0  0  0  0  0  0
    9.8932   11.6736   19.0677 O   0  0  0  0  0  0  0  0  0  0  0  0
    6.4470    4.5850   22.2321 C   0  0  0  0  0  0  0  0  0  0  0  0
    8.4619    6.9895   22.2968 C   0  0  0  0  0  0  0  0  0  0  0  0
   12.2747    7.5102   20.0420 C   0  0  0  0  0  0  0  0  0  0  0  0
   14.2544    6.2142   19.4191 C   0  0  0  0  0  0  0  0  0  0  0  0
   13.0695    6.3705   20.0375 N   0  0  0  0  0  0  0  0  0  0  0  0
    9.1913    8.0876   21.8361 N   0  0  0  0  0  0  0  0  0  0  0  0
   10.4739    9.4813   20.2889 C   0  0  0  0  0  0  0  0  0  0  0  0
    7.5551    7.1270   23.1200 O   0  0  0  0  0  0  0  0  0  0  0  0
  1 11  4  0
  1 21  4  0
  2  4  1  0
  2  8  1  0
  2 11  1  0
  3 10  4  0
  3 14  4  0
  4  5  1  0
  4 18  2  0
  6 12  1  0
  6 17  4  0
  6 23  4  0
  7  9  1  0
  7 13  4  0
  7 19  4  0
  9 20  1  0
 10 19  4  0
 11 25  4  0
 13 14  4  0
 15 16  4  0
 15 17  4  0
 15 21  4  0
 16 24  1  0
 16 25  4  0
 20 24  1  0
 20 26  2  0
 21 23  4  0
 22 23  1  0
M  END
$$$$

 Created by Python create_sdf_string function

 26 28  0  0  0  0  0  0  0  0999 V2000
   12.4616    8.6700   19.4180 N   0  0  0  0  0  0  0  0  0  0  0  0
   11.8329   10.8148   18.6769 N   0  0  0  0  0  0  0  0  0  0  0  0
    6.1021    2.5564   21.0678 C   0  0  0  0  0  0  0  0  0  0  0  0
   10.9097   11.8051   18.4804 C   0  0  0  0  0  0  0  0  0  0  0  0
   11.2280   12.9135   17.5669 C   0  0  0  0  0  0  0  0  0  0  0  0
   12.3782    5.4231   20.7777 C   0  0  0  0  0  0  0  0  0  0  0  0
    7.7365    4.6508   21.6987 C   0  0  0  0  0  0  0  0  0  0  0  0
   13.0186   11.0102   18.0020 C   0  0  0  0  0  0  0  0  0  0  0  0
    8.6628    5.7088   21.8871 N   0  0  0  0  0  0  0  0  0  0  0  0
    5.6516    3.5258   21.9140 C   0  0  0  0  0  0  0  0  0  0  0  0
   11.5863    9.6815   19.4539 C   0  0  0  0  0  0  0  0  0  0  0  0
   12.9648    4.1543   20.9205 C   0  0  0  0  0  0  0  0  0  0  0  0
    8.2089    3.6265   20.8929 C   0  0  0  0  0  0  0  0  0  0  0  0
    7.3827    2.5724   20.5432 C   0  0  0  0  0  0  0  0  0  0  0  0
   11.1529    7.2750   20.8025 C   0  0  0  0  0  0  0  0  0  0  0  0
   10.2573    8.3215   20.9827 C   0  0  0  0  0  0  0  0  0  0  0  0
   11.1606    5.9378   21.2366 N   0  0  0  0  0  0  0  0  0  0  0  0
    9.8932   11.6736   19.0677 O   0  0  0  0  0  0  0  0  0  0  0  0
    6.4470    4.5850   22.2321 C   0  0  0  0  0  0  0  0  0  0  0  0
    8.4619    6.9895   22.2968 C   0  0  0  0  0  0  0  0  0  0  0  0
   12.2747    7.5102   20.0420 C   0  0  0  0  0  0  0  0  0  0  0  0
   14.2544    6.2142   19.4191 C   0  0  0  0  0  0  0  0  0  0  0  0
   13.0695    6.3705   20.0375 N   0  0  0  0  0  0  0  0  0  0  0  0
    9.1913    8.0876   21.8361 N   0  0  0  0  0  0  0  0  0  0  0  0
   10.4739    9.4813   20.2889 C   0  0  0  0  0  0  0  0  0  0  0  0
    7.5551    7.1270   23.1200 O   0  0  0  0  0  0  0  0  0  0  0  0
  1 11  4  0
  1 21  4  0
  2  4  1  0
  2  8  1  0
  2 11  1  0
  3 10  4  0
  3 14  4  0
  4  5  1  0
  4 18  2  0
  6 12  1  0
  6 17  4  0
  6 23  4  0
  7  9  1  0
  7 13  4  0
  7 19  4  0
  9 20  1  0
 10 19  4  0
 11 25  4  0
 13 14  4  0
 15 16  4  0
 15 17  4  0
 15 21  4  0
 16 24  1  0
 16 25  4  0
 20 24  1  0
 20 26  2  0
 21 23  4  0
 22 23  1  0
M  END
$$$$

 Created by Python create_sdf_string function

 26 28  0  0  0  0  0  0  0  0999 V2000
   12.4616    8.6700   19.4180 N   0  0  0  0  0  0  0  0  0  0  0  0
   11.8329   10.8148   18.6769 N   0  0  0  0  0  0  0  0  0  0  0  0
    6.1021    2.5564   21.0678 C   0  0  0  0  0  0  0  0  0  0  0  0
   10.9097   11.8051   18.4804 C   0  0  0  0  0  0  0  0  0  0  0  0
   11.2280   12.9135   17.5669 C   0  0  0  0  0  0  0  0  0  0  0  0
   12.3782    5.4231   20.7777 C   0  0  0  0  0  0  0  0  0  0  0  0
    7.7365    4.6508   21.6987 C   0  0  0  0  0  0  0  0  0  0  0  0
   13.0186   11.0102   18.0020 C   0  0  0  0  0  0  0  0  0  0  0  0
    8.6628    5.7088   21.8871 N   0  0  0  0  0  0  0  0  0  0  0  0
    5.6516    3.5258   21.9140 C   0  0  0  0  0  0  0  0  0  0  0  0
   11.5863    9.6815   19.4539 C   0  0  0  0  0  0  0  0  0  0  0  0
   12.9648    4.1543   20.9205 C   0  0  0  0  0  0  0  0  0  0  0  0
    8.2089    3.6265   20.8929 C   0  0  0  0  0  0  0  0  0  0  0  0
    7.3827    2.5724   20.5432 C   0  0  0  0  0  0  0  0  0  0  0  0
   11.1529    7.2750   20.8025 C   0  0  0  0  0  0  0  0  0  0  0  0
   10.2573    8.3215   20.9827 C   0  0  0  0  0  0  0  0  0  0  0  0
   11.1606    5.9378   21.2366 N   0  0  0  0  0  0  0  0  0  0  0  0
    9.8932   11.6736   19.0677 O   0  0  0  0  0  0  0  0  0  0  0  0
    6.4470    4.5850   22.2321 C   0  0  0  0  0  0  0  0  0  0  0  0
    8.4619    6.9895   22.2968 C   0  0  0  0  0  0  0  0  0  0  0  0
   12.2747    7.5102   20.0420 C   0  0  0  0  0  0  0  0  0  0  0  0
   14.2544    6.2142   19.4191 C   0  0  0  0  0  0  0  0  0  0  0  0
   13.0695    6.3705   20.0375 N   0  0  0  0  0  0  0  0  0  0  0  0
    9.1913    8.0876   21.8361 N   0  0  0  0  0  0  0  0  0  0  0  0
   10.4739    9.4813   20.2889 C   0  0  0  0  0  0  0  0  0  0  0  0
    7.5551    7.1270   23.1200 O   0  0  0  0  0  0  0  0  0  0  0  0
  1 11  4  0
  1 21  4  0
  2  4  1  0
  2  8  1  0
  2 11  1  0
  3 10  4  0
  3 14  4  0
  4  5  1  0
  4 18  2  0
  6 12  1  0
  6 17  4  0
  6 23  4  0
  7  9  1  0
  7 13  4  0
  7 19  4  0
  9 20  1  0
 10 19  4  0
 11 25  4  0
 13 14  4  0
 15 16  4  0
 15 17  4  0
 15 21  4  0
 16 24  1  0
 16 25  4  0
 20 24  1  0
 20 26  2  0
 21 23  4  0
 22 23  1  0
M  END
$$$$

 Created by Python create_sdf_string function

 26 28  0  0  0  0  0  0  0  0999 V2000
   12.4616    8.6700   19.4180 N   0  0  0  0  0  0  0  0  0  0  0  0
   11.8329   10.8148   18.6769 N   0  0  0  0  0  0  0  0  0  0  0  0
    6.1021    2.5564   21.0678 C   0  0  0  0  0  0  0  0  0  0  0  0
   10.9097   11.8051   18.4804 C   0  0  0  0  0  0  0  0  0  0  0  0
   11.2280   12.9135   17.5669 C   0  0  0  0  0  0  0  0  0  0  0  0
   12.3782    5.4231   20.7777 C   0  0  0  0  0  0  0  0  0  0  0  0
    7.7365    4.6508   21.6987 C   0  0  0  0  0  0  0  0  0  0  0  0
   13.0186   11.0102   18.0020 C   0  0  0  0  0  0  0  0  0  0  0  0
    8.6628    5.7088   21.8871 N   0  0  0  0  0  0  0  0  0  0  0  0
    5.6516    3.5258   21.9140 C   0  0  0  0  0  0  0  0  0  0  0  0
   11.5863    9.6815   19.4539 C   0  0  0  0  0  0  0  0  0  0  0  0
   12.9648    4.1543   20.9205 C   0  0  0  0  0  0  0  0  0  0  0  0
    8.2089    3.6265   20.8929 C   0  0  0  0  0  0  0  0  0  0  0  0
    7.3827    2.5724   20.5432 C   0  0  0  0  0  0  0  0  0  0  0  0
   11.1529    7.2750   20.8025 C   0  0  0  0  0  0  0  0  0  0  0  0
   10.2573    8.3215   20.9827 C   0  0  0  0  0  0  0  0  0  0  0  0
   11.1606    5.9378   21.2366 N   0  0  0  0  0  0  0  0  0  0  0  0
    9.8932   11.6736   19.0677 O   0  0  0  0  0  0  0  0  0  0  0  0
    6.4470    4.5850   22.2321 C   0  0  0  0  0  0  0  0  0  0  0  0
    8.4619    6.9895   22.2968 C   0  0  0  0  0  0  0  0  0  0  0  0
   12.2747    7.5102   20.0420 C   0  0  0  0  0  0  0  0  0  0  0  0
   14.2544    6.2142   19.4191 C   0  0  0  0  0  0  0  0  0  0  0  0
   13.0695    6.3705   20.0375 N   0  0  0  0  0  0  0  0  0  0  0  0
    9.1913    8.0876   21.8361 N   0  0  0  0  0  0  0  0  0  0  0  0
   10.4739    9.4813   20.2889 C   0  0  0  0  0  0  0  0  0  0  0  0
    7.5551    7.1270   23.1200 O   0  0  0  0  0  0  0  0  0  0  0  0
  1 11  4  0
  1 21  4  0
  2  4  1  0
  2  8  1  0
  2 11  1  0
  3 10  4  0
  3 14  4  0
  4  5  1  0
  4 18  2  0
  6 12  1  0
  6 17  4  0
  6 23  4  0
  7  9  1  0
  7 13  4  0
  7 19  4  0
  9 20  1  0
 10 19  4  0
 11 25  4  0
 13 14  4  0
 15 16  4  0
 15 17  4  0
 15 21  4  0
 16 24  1  0
 16 25  4  0
 20 24  1  0
 20 26  2  0
 21 23  4  0
 22 23  1  0
M  END
$$$$

 Created by Python create_sdf_string function

 26 28  0  0  0  0  0  0  0  0999 V2000
   12.4616    8.6700   19.4180 N   0  0  0  0  0  0  0  0  0  0  0  0
   11.8329   10.8148   18.6769 N   0  0  0  0  0  0  0  0  0  0  0  0
    6.1021    2.5564   21.0678 C   0  0  0  0  0  0  0  0  0  0  0  0
   10.9097   11.8051   18.4804 C   0  0  0  0  0  0  0  0  0  0  0  0
   11.2280   12.9135   17.5669 C   0  0  0  0  0  0  0  0  0  0  0  0
   12.3782    5.4231   20.7777 C   0  0  0  0  0  0  0  0  0  0  0  0
    7.7365    4.6508   21.6987 C   0  0  0  0  0  0  0  0  0  0  0  0
   13.0186   11.0102   18.0020 C   0  0  0  0  0  0  0  0  0  0  0  0
    8.6628    5.7088   21.8871 N   0  0  0  0  0  0  0  0  0  0  0  0
    5.6516    3.5258   21.9140 C   0  0  0  0  0  0  0  0  0  0  0  0
   11.5863    9.6815   19.4539 C   0  0  0  0  0  0  0  0  0  0  0  0
   12.9648    4.1543   20.9205 C   0  0  0  0  0  0  0  0  0  0  0  0
    8.2089    3.6265   20.8929 C   0  0  0  0  0  0  0  0  0  0  0  0
    7.3827    2.5724   20.5432 C   0  0  0  0  0  0  0  0  0  0  0  0
   11.1529    7.2750   20.8025 C   0  0  0  0  0  0  0  0  0  0  0  0
   10.2573    8.3215   20.9827 C   0  0  0  0  0  0  0  0  0  0  0  0
   11.1606    5.9378   21.2366 N   0  0  0  0  0  0  0  0  0  0  0  0
    9.8932   11.6736   19.0677 O   0  0  0  0  0  0  0  0  0  0  0  0
    6.4470    4.5850   22.2321 C   0  0  0  0  0  0  0  0  0  0  0  0
    8.4619    6.9895   22.2968 C   0  0  0  0  0  0  0  0  0  0  0  0
   12.2747    7.5102   20.0420 C   0  0  0  0  0  0  0  0  0  0  0  0
   14.2544    6.2142   19.4191 C   0  0  0  0  0  0  0  0  0  0  0  0
   13.0695    6.3705   20.0375 N   0  0  0  0  0  0  0  0  0  0  0  0
    9.1913    8.0876   21.8361 N   0  0  0  0  0  0  0  0  0  0  0  0
   10.4739    9.4813   20.2889 C   0  0  0  0  0  0  0  0  0  0  0  0
    7.5551    7.1270   23.1200 O   0  0  0  0  0  0  0  0  0  0  0  0
  1 11  4  0
  1 21  4  0
  2  4  1  0
  2  8  1  0
  2 11  1  0
  3 10  4  0
  3 14  4  0
  4  5  1  0
  4 18  2  0
  6 12  1  0
  6 17  4  0
  6 23  4  0
  7  9  1  0
  7 13  4  0
  7 19  4  0
  9 20  1  0
 10 19  4  0
 11 25  4  0
 13 14  4  0
 15 16  4  0
 15 17  4  0
 15 21  4  0
 16 24  1  0
 16 25  4  0
 20 24  1  0
 20 26  2  0
 21 23  4  0
 22 23  1  0
M  END
$$$$

 Created by Python create_sdf_string function

 26 28  0  0  0  0  0  0  0  0999 V2000
   12.4616    8.6700   19.4180 N   0  0  0  0  0  0  0  0  0  0  0  0
   11.8329   10.8148   18.6769 N   0  0  0  0  0  0  0  0  0  0  0  0
    6.1021    2.5564   21.0678 C   0  0  0  0  0  0  0  0  0  0  0  0
   10.9097   11.8051   18.4804 C   0  0  0  0  0  0  0  0  0  0  0  0
   11.2280   12.9135   17.5669 C   0  0  0  0  0  0  0  0  0  0  0  0
   12.3782    5.4231   20.7777 C   0  0  0  0  0  0  0  0  0  0  0  0
    7.7365    4.6508   21.6987 C   0  0  0  0  0  0  0  0  0  0  0  0
   13.0186   11.0102   18.0020 C   0  0  0  0  0  0  0  0  0  0  0  0
    8.6628    5.7088   21.8871 N   0  0  0  0  0  0  0  0  0  0  0  0
    5.6516    3.5258   21.9140 C   0  0  0  0  0  0  0  0  0  0  0  0
   11.5863    9.6815   19.4539 C   0  0  0  0  0  0  0  0  0  0  0  0
   12.9648    4.1543   20.9205 C   0  0  0  0  0  0  0  0  0  0  0  0
    8.2089    3.6265   20.8929 C   0  0  0  0  0  0  0  0  0  0  0  0
    7.3827    2.5724   20.5432 C   0  0  0  0  0  0  0  0  0  0  0  0
   11.1529    7.2750   20.8025 C   0  0  0  0  0  0  0  0  0  0  0  0
   10.2573    8.3215   20.9827 C   0  0  0  0  0  0  0  0  0  0  0  0
   11.1606    5.9378   21.2366 N   0  0  0  0  0  0  0  0  0  0  0  0
    9.8932   11.6736   19.0677 O   0  0  0  0  0  0  0  0  0  0  0  0
    6.4470    4.5850   22.2321 C   0  0  0  0  0  0  0  0  0  0  0  0
    8.4619    6.9895   22.2968 C   0  0  0  0  0  0  0  0  0  0  0  0
   12.2747    7.5102   20.0420 C   0  0  0  0  0  0  0  0  0  0  0  0
   14.2544    6.2142   19.4191 C   0  0  0  0  0  0  0  0  0  0  0  0
   13.0695    6.3705   20.0375 N   0  0  0  0  0  0  0  0  0  0  0  0
    9.1913    8.0876   21.8361 N   0  0  0  0  0  0  0  0  0  0  0  0
   10.4739    9.4813   20.2889 C   0  0  0  0  0  0  0  0  0  0  0  0
    7.5551    7.1270   23.1200 O   0  0  0  0  0  0  0  0  0  0  0  0
  1 11  4  0
  1 21  4  0
  2  4  1  0
  2  8  1  0
  2 11  1  0
  3 10  4  0
  3 14  4  0
  4  5  1  0
  4 18  2  0
  6 12  1  0
  6 17  4  0
  6 23  4  0
  7  9  1  0
  7 13  4  0
  7 19  4  0
  9 20  1  0
 10 19  4  0
 11 25  4  0
 13 14  4  0
 15 16  4  0
 15 17  4  0
 15 21  4  0
 16 24  1  0
 16 25  4  0
 20 24  1  0
 20 26  2  0
 21 23  4  0
 22 23  1  0
M  END
$$$$

 Created by Python create_sdf_string function

 26 28  0  0  0  0  0  0  0  0999 V2000
   12.4616    8.6700   19.4180 N   0  0  0  0  0  0  0  0  0  0  0  0
   11.8329   10.8148   18.6769 N   0  0  0  0  0  0  0  0  0  0  0  0
    6.1021    2.5564   21.0678 C   0  0  0  0  0  0  0  0  0  0  0  0
   10.9097   11.8051   18.4804 C   0  0  0  0  0  0  0  0  0  0  0  0
   11.2280   12.9135   17.5669 C   0  0  0  0  0  0  0  0  0  0  0  0
   12.3782    5.4231   20.7777 C   0  0  0  0  0  0  0  0  0  0  0  0
    7.7365    4.6508   21.6987 C   0  0  0  0  0  0  0  0  0  0  0  0
   13.0186   11.0102   18.0020 C   0  0  0  0  0  0  0  0  0  0  0  0
    8.6628    5.7088   21.8871 N   0  0  0  0  0  0  0  0  0  0  0  0
    5.6516    3.5258   21.9140 C   0  0  0  0  0  0  0  0  0  0  0  0
   11.5863    9.6815   19.4539 C   0  0  0  0  0  0  0  0  0  0  0  0
   12.9648    4.1543   20.9205 C   0  0  0  0  0  0  0  0  0  0  0  0
    8.2089    3.6265   20.8929 C   0  0  0  0  0  0  0  0  0  0  0  0
    7.3827    2.5724   20.5432 C   0  0  0  0  0  0  0  0  0  0  0  0
   11.1529    7.2750   20.8025 C   0  0  0  0  0  0  0  0  0  0  0  0
   10.2573    8.3215   20.9827 C   0  0  0  0  0  0  0  0  0  0  0  0
   11.1606    5.9378   21.2366 N   0  0  0  0  0  0  0  0  0  0  0  0
    9.8932   11.6736   19.0677 O   0  0  0  0  0  0  0  0  0  0  0  0
    6.4470    4.5850   22.2321 C   0  0  0  0  0  0  0  0  0  0  0  0
    8.4619    6.9895   22.2968 C   0  0  0  0  0  0  0  0  0  0  0  0
   12.2747    7.5102   20.0420 C   0  0  0  0  0  0  0  0  0  0  0  0
   14.2544    6.2142   19.4191 C   0  0  0  0  0  0  0  0  0  0  0  0
   13.0695    6.3705   20.0375 N   0  0  0  0  0  0  0  0  0  0  0  0
    9.1913    8.0876   21.8361 N   0  0  0  0  0  0  0  0  0  0  0  0
   10.4739    9.4813   20.2889 C   0  0  0  0  0  0  0  0  0  0  0  0
    7.5551    7.1270   23.1200 O   0  0  0  0  0  0  0  0  0  0  0  0
  1 11  4  0
  1 21  4  0
  2  4  1  0
  2  8  1  0
  2 11  1  0
  3 10  4  0
  3 14  4  0
  4  5  1  0
  4 18  2  0
  6 12  1  0
  6 17  4  0
  6 23  4  0
  7  9  1  0
  7 13  4  0
  7 19  4  0
  9 20  1  0
 10 19  4  0
 11 25  4  0
 13 14  4  0
 15 16  4  0
 15 17  4  0
 15 21  4  0
 16 24  1  0
 16 25  4  0
 20 24  1  0
 20 26  2  0
 21 23  4  0
 22 23  1  0
M  END
$$$$

 Created by Python create_sdf_string function

 26 28  0  0  0  0  0  0  0  0999 V2000
   12.4616    8.6700   19.4180 N   0  0  0  0  0  0  0  0  0  0  0  0
   11.8329   10.8148   18.6769 N   0  0  0  0  0  0  0  0  0  0  0  0
    6.1021    2.5564   21.0678 C   0  0  0  0  0  0  0  0  0  0  0  0
   10.9097   11.8051   18.4804 C   0  0  0  0  0  0  0  0  0  0  0  0
   11.2280   12.9135   17.5669 C   0  0  0  0  0  0  0  0  0  0  0  0
   12.3782    5.4231   20.7777 C   0  0  0  0  0  0  0  0  0  0  0  0
    7.7365    4.6508   21.6987 C   0  0  0  0  0  0  0  0  0  0  0  0
   13.0186   11.0102   18.0020 C   0  0  0  0  0  0  0  0  0  0  0  0
    8.6628    5.7088   21.8871 N   0  0  0  0  0  0  0  0  0  0  0  0
    5.6516    3.5258   21.9140 C   0  0  0  0  0  0  0  0  0  0  0  0
   11.5863    9.6815   19.4539 C   0  0  0  0  0  0  0  0  0  0  0  0
   12.9648    4.1543   20.9205 C   0  0  0  0  0  0  0  0  0  0  0  0
    8.2089    3.6265   20.8929 C   0  0  0  0  0  0  0  0  0  0  0  0
    7.3827    2.5724   20.5432 C   0  0  0  0  0  0  0  0  0  0  0  0
   11.1529    7.2750   20.8025 C   0  0  0  0  0  0  0  0  0  0  0  0
   10.2573    8.3215   20.9827 C   0  0  0  0  0  0  0  0  0  0  0  0
   11.1606    5.9378   21.2366 N   0  0  0  0  0  0  0  0  0  0  0  0
    9.8932   11.6736   19.0677 O   0  0  0  0  0  0  0  0  0  0  0  0
    6.4470    4.5850   22.2321 C   0  0  0  0  0  0  0  0  0  0  0  0
    8.4619    6.9895   22.2968 C   0  0  0  0  0  0  0  0  0  0  0  0
   12.2747    7.5102   20.0420 C   0  0  0  0  0  0  0  0  0  0  0  0
   14.2544    6.2142   19.4191 C   0  0  0  0  0  0  0  0  0  0  0  0
   13.0695    6.3705   20.0375 N   0  0  0  0  0  0  0  0  0  0  0  0
    9.1913    8.0876   21.8361 N   0  0  0  0  0  0  0  0  0  0  0  0
   10.4739    9.4813   20.2889 C   0  0  0  0  0  0  0  0  0  0  0  0
    7.5551    7.1270   23.1200 O   0  0  0  0  0  0  0  0  0  0  0  0
  1 11  4  0
  1 21  4  0
  2  4  1  0
  2  8  1  0
  2 11  1  0
  3 10  4  0
  3 14  4  0
  4  5  1  0
  4 18  2  0
  6 12  1  0
  6 17  4  0
  6 23  4  0
  7  9  1  0
  7 13  4  0
  7 19  4  0
  9 20  1  0
 10 19  4  0
 11 25  4  0
 13 14  4  0
 15 16  4  0
 15 17  4  0
 15 21  4  0
 16 24  1  0
 16 25  4  0
 20 24  1  0
 20 26  2  0
 21 23  4  0
 22 23  1  0
M  END
$$$$

 Created by Python create_sdf_string function

 26 28  0  0  0  0  0  0  0  0999 V2000
   12.4616    8.6700   19.4180 N   0  0  0  0  0  0  0  0  0  0  0  0
   11.8329   10.8148   18.6769 N   0  0  0  0  0  0  0  0  0  0  0  0
    6.1021    2.5564   21.0678 C   0  0  0  0  0  0  0  0  0  0  0  0
   10.9097   11.8051   18.4804 C   0  0  0  0  0  0  0  0  0  0  0  0
   11.2280   12.9135   17.5669 C   0  0  0  0  0  0  0  0  0  0  0  0
   12.3782    5.4231   20.7777 C   0  0  0  0  0  0  0  0  0  0  0  0
    7.7365    4.6508   21.6987 C   0  0  0  0  0  0  0  0  0  0  0  0
   13.0186   11.0102   18.0020 C   0  0  0  0  0  0  0  0  0  0  0  0
    8.6628    5.7088   21.8871 N   0  0  0  0  0  0  0  0  0  0  0  0
    5.6516    3.5258   21.9140 C   0  0  0  0  0  0  0  0  0  0  0  0
   11.5863    9.6815   19.4539 C   0  0  0  0  0  0  0  0  0  0  0  0
   12.9648    4.1543   20.9205 C   0  0  0  0  0  0  0  0  0  0  0  0
    8.2089    3.6265   20.8929 C   0  0  0  0  0  0  0  0  0  0  0  0
    7.3827    2.5724   20.5432 C   0  0  0  0  0  0  0  0  0  0  0  0
   11.1529    7.2750   20.8025 C   0  0  0  0  0  0  0  0  0  0  0  0
   10.2573    8.3215   20.9827 C   0  0  0  0  0  0  0  0  0  0  0  0
   11.1606    5.9378   21.2366 N   0  0  0  0  0  0  0  0  0  0  0  0
    9.8932   11.6736   19.0677 O   0  0  0  0  0  0  0  0  0  0  0  0
    6.4470    4.5850   22.2321 C   0  0  0  0  0  0  0  0  0  0  0  0
    8.4619    6.9895   22.2968 C   0  0  0  0  0  0  0  0  0  0  0  0
   12.2747    7.5102   20.0420 C   0  0  0  0  0  0  0  0  0  0  0  0
   14.2544    6.2142   19.4191 C   0  0  0  0  0  0  0  0  0  0  0  0
   13.0695    6.3705   20.0375 N   0  0  0  0  0  0  0  0  0  0  0  0
    9.1913    8.0876   21.8361 N   0  0  0  0  0  0  0  0  0  0  0  0
   10.4739    9.4813   20.2889 C   0  0  0  0  0  0  0  0  0  0  0  0
    7.5551    7.1270   23.1200 O   0  0  0  0  0  0  0  0  0  0  0  0
  1 11  4  0
  1 21  4  0
  2  4  1  0
  2  8  1  0
  2 11  1  0
  3 10  4  0
  3 14  4  0
  4  5  1  0
  4 18  2  0
  6 12  1  0
  6 17  4  0
  6 23  4  0
  7  9  1  0
  7 13  4  0
  7 19  4  0
  9 20  1  0
 10 19  4  0
 11 25  4  0
 13 14  4  0
 15 16  4  0
 15 17  4  0
 15 21  4  0
 16 24  1  0
 16 25  4  0
 20 24  1  0
 20 26  2  0
 21 23  4  0
 22 23  1  0
M  END
$$$$

 Created by Python create_sdf_string function

 26 28  0  0  0  0  0  0  0  0999 V2000
   12.4616    8.6700   19.4180 N   0  0  0  0  0  0  0  0  0  0  0  0
   11.8329   10.8148   18.6769 N   0  0  0  0  0  0  0  0  0  0  0  0
    6.1021    2.5564   21.0678 C   0  0  0  0  0  0  0  0  0  0  0  0
   10.9097   11.8051   18.4804 C   0  0  0  0  0  0  0  0  0  0  0  0
   11.2280   12.9135   17.5669 C   0  0  0  0  0  0  0  0  0  0  0  0
   12.3782    5.4231   20.7777 C   0  0  0  0  0  0  0  0  0  0  0  0
    7.7365    4.6508   21.6987 C   0  0  0  0  0  0  0  0  0  0  0  0
   13.0186   11.0102   18.0020 C   0  0  0  0  0  0  0  0  0  0  0  0
    8.6628    5.7088   21.8871 N   0  0  0  0  0  0  0  0  0  0  0  0
    5.6516    3.5258   21.9140 C   0  0  0  0  0  0  0  0  0  0  0  0
   11.5863    9.6815   19.4539 C   0  0  0  0  0  0  0  0  0  0  0  0
   12.9648    4.1543   20.9205 C   0  0  0  0  0  0  0  0  0  0  0  0
    8.2089    3.6265   20.8929 C   0  0  0  0  0  0  0  0  0  0  0  0
    7.3827    2.5724   20.5432 C   0  0  0  0  0  0  0  0  0  0  0  0
   11.1529    7.2750   20.8025 C   0  0  0  0  0  0  0  0  0  0  0  0
   10.2573    8.3215   20.9827 C   0  0  0  0  0  0  0  0  0  0  0  0
   11.1606    5.9378   21.2366 N   0  0  0  0  0  0  0  0  0  0  0  0
    9.8932   11.6736   19.0677 O   0  0  0  0  0  0  0  0  0  0  0  0
    6.4470    4.5850   22.2321 C   0  0  0  0  0  0  0  0  0  0  0  0
    8.4619    6.9895   22.2968 C   0  0  0  0  0  0  0  0  0  0  0  0
   12.2747    7.5102   20.0420 C   0  0  0  0  0  0  0  0  0  0  0  0
   14.2544    6.2142   19.4191 C   0  0  0  0  0  0  0  0  0  0  0  0
   13.0695    6.3705   20.0375 N   0  0  0  0  0  0  0  0  0  0  0  0
    9.1913    8.0876   21.8361 N   0  0  0  0  0  0  0  0  0  0  0  0
   10.4739    9.4813   20.2889 C   0  0  0  0  0  0  0  0  0  0  0  0
    7.5551    7.1270   23.1200 O   0  0  0  0  0  0  0  0  0  0  0  0
  1 11  4  0
  1 21  4  0
  2  4  1  0
  2  8  1  0
  2 11  1  0
  3 10  4  0
  3 14  4  0
  4  5  1  0
  4 18  2  0
  6 12  1  0
  6 17  4  0
  6 23  4  0
  7  9  1  0
  7 13  4  0
  7 19  4  0
  9 20  1  0
 10 19  4  0
 11 25  4  0
 13 14  4  0
 15 16  4  0
 15 17  4  0
 15 21  4  0
 16 24  1  0
 16 25  4  0
 20 24  1  0
 20 26  2  0
 21 23  4  0
 22 23  1  0
M  END
$$$$

 Created by Python create_sdf_string function

 26 28  0  0  0  0  0  0  0  0999 V2000
   12.4616    8.6700   19.4180 N   0  0  0  0  0  0  0  0  0  0  0  0
   11.8329   10.8148   18.6769 N   0  0  0  0  0  0  0  0  0  0  0  0
    6.1021    2.5564   21.0678 C   0  0  0  0  0  0  0  0  0  0  0  0
   10.9097   11.8051   18.4804 C   0  0  0  0  0  0  0  0  0  0  0  0
   11.2280   12.9135   17.5669 C   0  0  0  0  0  0  0  0  0  0  0  0
   12.3782    5.4231   20.7777 C   0  0  0  0  0  0  0  0  0  0  0  0
    7.7365    4.6508   21.6987 C   0  0  0  0  0  0  0  0  0  0  0  0
   13.0186   11.0102   18.0020 C   0  0  0  0  0  0  0  0  0  0  0  0
    8.6628    5.7088   21.8871 N   0  0  0  0  0  0  0  0  0  0  0  0
    5.6516    3.5258   21.9140 C   0  0  0  0  0  0  0  0  0  0  0  0
   11.5863    9.6815   19.4539 C   0  0  0  0  0  0  0  0  0  0  0  0
   12.9648    4.1543   20.9205 C   0  0  0  0  0  0  0  0  0  0  0  0
    8.2089    3.6265   20.8929 C   0  0  0  0  0  0  0  0  0  0  0  0
    7.3827    2.5724   20.5432 C   0  0  0  0  0  0  0  0  0  0  0  0
   11.1529    7.2750   20.8025 C   0  0  0  0  0  0  0  0  0  0  0  0
   10.2573    8.3215   20.9827 C   0  0  0  0  0  0  0  0  0  0  0  0
   11.1606    5.9378   21.2366 N   0  0  0  0  0  0  0  0  0  0  0  0
    9.8932   11.6736   19.0677 O   0  0  0  0  0  0  0  0  0  0  0  0
    6.4470    4.5850   22.2321 C   0  0  0  0  0  0  0  0  0  0  0  0
    8.4619    6.9895   22.2968 C   0  0  0  0  0  0  0  0  0  0  0  0
   12.2747    7.5102   20.0420 C   0  0  0  0  0  0  0  0  0  0  0  0
   14.2544    6.2142   19.4191 C   0  0  0  0  0  0  0  0  0  0  0  0
   13.0695    6.3705   20.0375 N   0  0  0  0  0  0  0  0  0  0  0  0
    9.1913    8.0876   21.8361 N   0  0  0  0  0  0  0  0  0  0  0  0
   10.4739    9.4813   20.2889 C   0  0  0  0  0  0  0  0  0  0  0  0
    7.5551    7.1270   23.1200 O   0  0  0  0  0  0  0  0  0  0  0  0
  1 11  4  0
  1 21  4  0
  2  4  1  0
  2  8  1  0
  2 11  1  0
  3 10  4  0
  3 14  4  0
  4  5  1  0
  4 18  2  0
  6 12  1  0
  6 17  4  0
  6 23  4  0
  7  9  1  0
  7 13  4  0
  7 19  4  0
  9 20  1  0
 10 19  4  0
 11 25  4  0
 13 14  4  0
 15 16  4  0
 15 17  4  0
 15 21  4  0
 16 24  1  0
 16 25  4  0
 20 24  1  0
 20 26  2  0
 21 23  4  0
 22 23  1  0
M  END
$$$$

 Created by Python create_sdf_string function

 26 28  0  0  0  0  0  0  0  0999 V2000
   12.4616    8.6700   19.4180 N   0  0  0  0  0  0  0  0  0  0  0  0
   11.8329   10.8148   18.6769 N   0  0  0  0  0  0  0  0  0  0  0  0
    6.1021    2.5564   21.0678 C   0  0  0  0  0  0  0  0  0  0  0  0
   10.9097   11.8051   18.4804 C   0  0  0  0  0  0  0  0  0  0  0  0
   11.2280   12.9135   17.5669 C   0  0  0  0  0  0  0  0  0  0  0  0
   12.3782    5.4231   20.7777 C   0  0  0  0  0  0  0  0  0  0  0  0
    7.7365    4.6508   21.6987 C   0  0  0  0  0  0  0  0  0  0  0  0
   13.0186   11.0102   18.0020 C   0  0  0  0  0  0  0  0  0  0  0  0
    8.6628    5.7088   21.8871 N   0  0  0  0  0  0  0  0  0  0  0  0
    5.6516    3.5258   21.9140 C   0  0  0  0  0  0  0  0  0  0  0  0
   11.5863    9.6815   19.4539 C   0  0  0  0  0  0  0  0  0  0  0  0
   12.9648    4.1543   20.9205 C   0  0  0  0  0  0  0  0  0  0  0  0
    8.2089    3.6265   20.8929 C   0  0  0  0  0  0  0  0  0  0  0  0
    7.3827    2.5724   20.5432 C   0  0  0  0  0  0  0  0  0  0  0  0
   11.1529    7.2750   20.8025 C   0  0  0  0  0  0  0  0  0  0  0  0
   10.2573    8.3215   20.9827 C   0  0  0  0  0  0  0  0  0  0  0  0
   11.1606    5.9378   21.2366 N   0  0  0  0  0  0  0  0  0  0  0  0
    9.8932   11.6736   19.0677 O   0  0  0  0  0  0  0  0  0  0  0  0
    6.4470    4.5850   22.2321 C   0  0  0  0  0  0  0  0  0  0  0  0
    8.4619    6.9895   22.2968 C   0  0  0  0  0  0  0  0  0  0  0  0
   12.2747    7.5102   20.0420 C   0  0  0  0  0  0  0  0  0  0  0  0
   14.2544    6.2142   19.4191 C   0  0  0  0  0  0  0  0  0  0  0  0
   13.0695    6.3705   20.0375 N   0  0  0  0  0  0  0  0  0  0  0  0
    9.1913    8.0876   21.8361 N   0  0  0  0  0  0  0  0  0  0  0  0
   10.4739    9.4813   20.2889 C   0  0  0  0  0  0  0  0  0  0  0  0
    7.5551    7.1270   23.1200 O   0  0  0  0  0  0  0  0  0  0  0  0
  1 11  4  0
  1 21  4  0
  2  4  1  0
  2  8  1  0
  2 11  1  0
  3 10  4  0
  3 14  4  0
  4  5  1  0
  4 18  2  0
  6 12  1  0
  6 17  4  0
  6 23  4  0
  7  9  1  0
  7 13  4  0
  7 19  4  0
  9 20  1  0
 10 19  4  0
 11 25  4  0
 13 14  4  0
 15 16  4  0
 15 17  4  0
 15 21  4  0
 16 24  1  0
 16 25  4  0
 20 24  1  0
 20 26  2  0
 21 23  4  0
 22 23  1  0
M  END
$$$$

 Created by Python create_sdf_string function

 26 28  0  0  0  0  0  0  0  0999 V2000
   12.4616    8.6700   19.4180 N   0  0  0  0  0  0  0  0  0  0  0  0
   11.8329   10.8148   18.6769 N   0  0  0  0  0  0  0  0  0  0  0  0
    6.1021    2.5564   21.0678 C   0  0  0  0  0  0  0  0  0  0  0  0
   10.9097   11.8051   18.4804 C   0  0  0  0  0  0  0  0  0  0  0  0
   11.2280   12.9135   17.5669 C   0  0  0  0  0  0  0  0  0  0  0  0
   12.3782    5.4231   20.7777 C   0  0  0  0  0  0  0  0  0  0  0  0
    7.7365    4.6508   21.6987 C   0  0  0  0  0  0  0  0  0  0  0  0
   13.0186   11.0102   18.0020 C   0  0  0  0  0  0  0  0  0  0  0  0
    8.6628    5.7088   21.8871 N   0  0  0  0  0  0  0  0  0  0  0  0
    5.6516    3.5258   21.9140 C   0  0  0  0  0  0  0  0  0  0  0  0
   11.5863    9.6815   19.4539 C   0  0  0  0  0  0  0  0  0  0  0  0
   12.9648    4.1543   20.9205 C   0  0  0  0  0  0  0  0  0  0  0  0
    8.2089    3.6265   20.8929 C   0  0  0  0  0  0  0  0  0  0  0  0
    7.3827    2.5724   20.5432 C   0  0  0  0  0  0  0  0  0  0  0  0
   11.1529    7.2750   20.8025 C   0  0  0  0  0  0  0  0  0  0  0  0
   10.2573    8.3215   20.9827 C   0  0  0  0  0  0  0  0  0  0  0  0
   11.1606    5.9378   21.2366 N   0  0  0  0  0  0  0  0  0  0  0  0
    9.8932   11.6736   19.0677 O   0  0  0  0  0  0  0  0  0  0  0  0
    6.4470    4.5850   22.2321 C   0  0  0  0  0  0  0  0  0  0  0  0
    8.4619    6.9895   22.2968 C   0  0  0  0  0  0  0  0  0  0  0  0
   12.2747    7.5102   20.0420 C   0  0  0  0  0  0  0  0  0  0  0  0
   14.2544    6.2142   19.4191 C   0  0  0  0  0  0  0  0  0  0  0  0
   13.0695    6.3705   20.0375 N   0  0  0  0  0  0  0  0  0  0  0  0
    9.1913    8.0876   21.8361 N   0  0  0  0  0  0  0  0  0  0  0  0
   10.4739    9.4813   20.2889 C   0  0  0  0  0  0  0  0  0  0  0  0
    7.5551    7.1270   23.1200 O   0  0  0  0  0  0  0  0  0  0  0  0
  1 11  4  0
  1 21  4  0
  2  4  1  0
  2  8  1  0
  2 11  1  0
  3 10  4  0
  3 14  4  0
  4  5  1  0
  4 18  2  0
  6 12  1  0
  6 17  4  0
  6 23  4  0
  7  9  1  0
  7 13  4  0
  7 19  4  0
  9 20  1  0
 10 19  4  0
 11 25  4  0
 13 14  4  0
 15 16  4  0
 15 17  4  0
 15 21  4  0
 16 24  1  0
 16 25  4  0
 20 24  1  0
 20 26  2  0
 21 23  4  0
 22 23  1  0
M  END
$$$$

 Created by Python create_sdf_string function

 26 28  0  0  0  0  0  0  0  0999 V2000
   12.4616    8.6700   19.4180 N   0  0  0  0  0  0  0  0  0  0  0  0
   11.8329   10.8148   18.6769 N   0  0  0  0  0  0  0  0  0  0  0  0
    6.1021    2.5564   21.0678 C   0  0  0  0  0  0  0  0  0  0  0  0
   10.9097   11.8051   18.4804 C   0  0  0  0  0  0  0  0  0  0  0  0
   11.2280   12.9135   17.5669 C   0  0  0  0  0  0  0  0  0  0  0  0
   12.3782    5.4231   20.7777 C   0  0  0  0  0  0  0  0  0  0  0  0
    7.7365    4.6508   21.6987 C   0  0  0  0  0  0  0  0  0  0  0  0
   13.0186   11.0102   18.0020 C   0  0  0  0  0  0  0  0  0  0  0  0
    8.6628    5.7088   21.8871 N   0  0  0  0  0  0  0  0  0  0  0  0
    5.6516    3.5258   21.9140 C   0  0  0  0  0  0  0  0  0  0  0  0
   11.5863    9.6815   19.4539 C   0  0  0  0  0  0  0  0  0  0  0  0
   12.9648    4.1543   20.9205 C   0  0  0  0  0  0  0  0  0  0  0  0
    8.2089    3.6265   20.8929 C   0  0  0  0  0  0  0  0  0  0  0  0
    7.3827    2.5724   20.5432 C   0  0  0  0  0  0  0  0  0  0  0  0
   11.1529    7.2750   20.8025 C   0  0  0  0  0  0  0  0  0  0  0  0
   10.2573    8.3215   20.9827 C   0  0  0  0  0  0  0  0  0  0  0  0
   11.1606    5.9378   21.2366 N   0  0  0  0  0  0  0  0  0  0  0  0
    9.8932   11.6736   19.0677 O   0  0  0  0  0  0  0  0  0  0  0  0
    6.4470    4.5850   22.2321 C   0  0  0  0  0  0  0  0  0  0  0  0
    8.4619    6.9895   22.2968 C   0  0  0  0  0  0  0  0  0  0  0  0
   12.2747    7.5102   20.0420 C   0  0  0  0  0  0  0  0  0  0  0  0
   14.2544    6.2142   19.4191 C   0  0  0  0  0  0  0  0  0  0  0  0
   13.0695    6.3705   20.0375 N   0  0  0  0  0  0  0  0  0  0  0  0
    9.1913    8.0876   21.8361 N   0  0  0  0  0  0  0  0  0  0  0  0
   10.4739    9.4813   20.2889 C   0  0  0  0  0  0  0  0  0  0  0  0
    7.5551    7.1270   23.1200 O   0  0  0  0  0  0  0  0  0  0  0  0
  1 11  4  0
  1 21  4  0
  2  4  1  0
  2  8  1  0
  2 11  1  0
  3 10  4  0
  3 14  4  0
  4  5  1  0
  4 18  2  0
  6 12  1  0
  6 17  4  0
  6 23  4  0
  7  9  1  0
  7 13  4  0
  7 19  4  0
  9 20  1  0
 10 19  4  0
 11 25  4  0
 13 14  4  0
 15 16  4  0
 15 17  4  0
 15 21  4  0
 16 24  1  0
 16 25  4  0
 20 24  1  0
 20 26  2  0
 21 23  4  0
 22 23  1  0
M  END
$$$$

 Created by Python create_sdf_string function

 26 28  0  0  0  0  0  0  0  0999 V2000
   12.4616    8.6700   19.4180 N   0  0  0  0  0  0  0  0  0  0  0  0
   11.8329   10.8148   18.6769 N   0  0  0  0  0  0  0  0  0  0  0  0
    6.1021    2.5564   21.0678 C   0  0  0  0  0  0  0  0  0  0  0  0
   10.9097   11.8051   18.4804 C   0  0  0  0  0  0  0  0  0  0  0  0
   11.2280   12.9135   17.5669 C   0  0  0  0  0  0  0  0  0  0  0  0
   12.3782    5.4231   20.7777 C   0  0  0  0  0  0  0  0  0  0  0  0
    7.7365    4.6508   21.6987 C   0  0  0  0  0  0  0  0  0  0  0  0
   13.0186   11.0102   18.0020 C   0  0  0  0  0  0  0  0  0  0  0  0
    8.6628    5.7088   21.8871 N   0  0  0  0  0  0  0  0  0  0  0  0
    5.6516    3.5258   21.9140 C   0  0  0  0  0  0  0  0  0  0  0  0
   11.5863    9.6815   19.4539 C   0  0  0  0  0  0  0  0  0  0  0  0
   12.9648    4.1543   20.9205 C   0  0  0  0  0  0  0  0  0  0  0  0
    8.2089    3.6265   20.8929 C   0  0  0  0  0  0  0  0  0  0  0  0
    7.3827    2.5724   20.5432 C   0  0  0  0  0  0  0  0  0  0  0  0
   11.1529    7.2750   20.8025 C   0  0  0  0  0  0  0  0  0  0  0  0
   10.2573    8.3215   20.9827 C   0  0  0  0  0  0  0  0  0  0  0  0
   11.1606    5.9378   21.2366 N   0  0  0  0  0  0  0  0  0  0  0  0
    9.8932   11.6736   19.0677 O   0  0  0  0  0  0  0  0  0  0  0  0
    6.4470    4.5850   22.2321 C   0  0  0  0  0  0  0  0  0  0  0  0
    8.4619    6.9895   22.2968 C   0  0  0  0  0  0  0  0  0  0  0  0
   12.2747    7.5102   20.0420 C   0  0  0  0  0  0  0  0  0  0  0  0
   14.2544    6.2142   19.4191 C   0  0  0  0  0  0  0  0  0  0  0  0
   13.0695    6.3705   20.0375 N   0  0  0  0  0  0  0  0  0  0  0  0
    9.1913    8.0876   21.8361 N   0  0  0  0  0  0  0  0  0  0  0  0
   10.4739    9.4813   20.2889 C   0  0  0  0  0  0  0  0  0  0  0  0
    7.5551    7.1270   23.1200 O   0  0  0  0  0  0  0  0  0  0  0  0
  1 11  4  0
  1 21  4  0
  2  4  1  0
  2  8  1  0
  2 11  1  0
  3 10  4  0
  3 14  4  0
  4  5  1  0
  4 18  2  0
  6 12  1  0
  6 17  4  0
  6 23  4  0
  7  9  1  0
  7 13  4  0
  7 19  4  0
  9 20  1  0
 10 19  4  0
 11 25  4  0
 13 14  4  0
 15 16  4  0
 15 17  4  0
 15 21  4  0
 16 24  1  0
 16 25  4  0
 20 24  1  0
 20 26  2  0
 21 23  4  0
 22 23  1  0
M  END
$$$$

 Created by Python create_sdf_string function

 26 28  0  0  0  0  0  0  0  0999 V2000
   12.4616    8.6700   19.4180 N   0  0  0  0  0  0  0  0  0  0  0  0
   11.8329   10.8148   18.6769 N   0  0  0  0  0  0  0  0  0  0  0  0
    6.1021    2.5564   21.0678 C   0  0  0  0  0  0  0  0  0  0  0  0
   10.9097   11.8051   18.4804 C   0  0  0  0  0  0  0  0  0  0  0  0
   11.2280   12.9135   17.5669 C   0  0  0  0  0  0  0  0  0  0  0  0
   12.3782    5.4231   20.7777 C   0  0  0  0  0  0  0  0  0  0  0  0
    7.7365    4.6508   21.6987 C   0  0  0  0  0  0  0  0  0  0  0  0
   13.0186   11.0102   18.0020 C   0  0  0  0  0  0  0  0  0  0  0  0
    8.6628    5.7088   21.8871 N   0  0  0  0  0  0  0  0  0  0  0  0
    5.6516    3.5258   21.9140 C   0  0  0  0  0  0  0  0  0  0  0  0
   11.5863    9.6815   19.4539 C   0  0  0  0  0  0  0  0  0  0  0  0
   12.9648    4.1543   20.9205 C   0  0  0  0  0  0  0  0  0  0  0  0
    8.2089    3.6265   20.8929 C   0  0  0  0  0  0  0  0  0  0  0  0
    7.3827    2.5724   20.5432 C   0  0  0  0  0  0  0  0  0  0  0  0
   11.1529    7.2750   20.8025 C   0  0  0  0  0  0  0  0  0  0  0  0
   10.2573    8.3215   20.9827 C   0  0  0  0  0  0  0  0  0  0  0  0
   11.1606    5.9378   21.2366 N   0  0  0  0  0  0  0  0  0  0  0  0
    9.8932   11.6736   19.0677 O   0  0  0  0  0  0  0  0  0  0  0  0
    6.4470    4.5850   22.2321 C   0  0  0  0  0  0  0  0  0  0  0  0
    8.4619    6.9895   22.2968 C   0  0  0  0  0  0  0  0  0  0  0  0
   12.2747    7.5102   20.0420 C   0  0  0  0  0  0  0  0  0  0  0  0
   14.2544    6.2142   19.4191 C   0  0  0  0  0  0  0  0  0  0  0  0
   13.0695    6.3705   20.0375 N   0  0  0  0  0  0  0  0  0  0  0  0
    9.1913    8.0876   21.8361 N   0  0  0  0  0  0  0  0  0  0  0  0
   10.4739    9.4813   20.2889 C   0  0  0  0  0  0  0  0  0  0  0  0
    7.5551    7.1270   23.1200 O   0  0  0  0  0  0  0  0  0  0  0  0
  1 11  4  0
  1 21  4  0
  2  4  1  0
  2  8  1  0
  2 11  1  0
  3 10  4  0
  3 14  4  0
  4  5  1  0
  4 18  2  0
  6 12  1  0
  6 17  4  0
  6 23  4  0
  7  9  1  0
  7 13  4  0
  7 19  4  0
  9 20  1  0
 10 19  4  0
 11 25  4  0
 13 14  4  0
 15 16  4  0
 15 17  4  0
 15 21  4  0
 16 24  1  0
 16 25  4  0
 20 24  1  0
 20 26  2  0
 21 23  4  0
 22 23  1  0
M  END
$$$$

 Created by Python create_sdf_string function

 26 28  0  0  0  0  0  0  0  0999 V2000
   12.4616    8.6700   19.4180 N   0  0  0  0  0  0  0  0  0  0  0  0
   11.8329   10.8148   18.6769 N   0  0  0  0  0  0  0  0  0  0  0  0
    6.1021    2.5564   21.0678 C   0  0  0  0  0  0  0  0  0  0  0  0
   10.9097   11.8051   18.4804 C   0  0  0  0  0  0  0  0  0  0  0  0
   11.2280   12.9135   17.5669 C   0  0  0  0  0  0  0  0  0  0  0  0
   12.3782    5.4231   20.7777 C   0  0  0  0  0  0  0  0  0  0  0  0
    7.7365    4.6508   21.6987 C   0  0  0  0  0  0  0  0  0  0  0  0
   13.0186   11.0102   18.0020 C   0  0  0  0  0  0  0  0  0  0  0  0
    8.6628    5.7088   21.8871 N   0  0  0  0  0  0  0  0  0  0  0  0
    5.6516    3.5258   21.9140 C   0  0  0  0  0  0  0  0  0  0  0  0
   11.5863    9.6815   19.4539 C   0  0  0  0  0  0  0  0  0  0  0  0
   12.9648    4.1543   20.9205 C   0  0  0  0  0  0  0  0  0  0  0  0
    8.2089    3.6265   20.8929 C   0  0  0  0  0  0  0  0  0  0  0  0
    7.3827    2.5724   20.5432 C   0  0  0  0  0  0  0  0  0  0  0  0
   11.1529    7.2750   20.8025 C   0  0  0  0  0  0  0  0  0  0  0  0
   10.2573    8.3215   20.9827 C   0  0  0  0  0  0  0  0  0  0  0  0
   11.1606    5.9378   21.2366 N   0  0  0  0  0  0  0  0  0  0  0  0
    9.8932   11.6736   19.0677 O   0  0  0  0  0  0  0  0  0  0  0  0
    6.4470    4.5850   22.2321 C   0  0  0  0  0  0  0  0  0  0  0  0
    8.4619    6.9895   22.2968 C   0  0  0  0  0  0  0  0  0  0  0  0
   12.2747    7.5102   20.0420 C   0  0  0  0  0  0  0  0  0  0  0  0
   14.2544    6.2142   19.4191 C   0  0  0  0  0  0  0  0  0  0  0  0
   13.0695    6.3705   20.0375 N   0  0  0  0  0  0  0  0  0  0  0  0
    9.1913    8.0876   21.8361 N   0  0  0  0  0  0  0  0  0  0  0  0
   10.4739    9.4813   20.2889 C   0  0  0  0  0  0  0  0  0  0  0  0
    7.5551    7.1270   23.1200 O   0  0  0  0  0  0  0  0  0  0  0  0
  1 11  4  0
  1 21  4  0
  2  4  1  0
  2  8  1  0
  2 11  1  0
  3 10  4  0
  3 14  4  0
  4  5  1  0
  4 18  2  0
  6 12  1  0
  6 17  4  0
  6 23  4  0
  7  9  1  0
  7 13  4  0
  7 19  4  0
  9 20  1  0
 10 19  4  0
 11 25  4  0
 13 14  4  0
 15 16  4  0
 15 17  4  0
 15 21  4  0
 16 24  1  0
 16 25  4  0
 20 24  1  0
 20 26  2  0
 21 23  4  0
 22 23  1  0
M  END
$$$$

 Created by Python create_sdf_string function

 26 28  0  0  0  0  0  0  0  0999 V2000
   12.4616    8.6700   19.4180 N   0  0  0  0  0  0  0  0  0  0  0  0
   11.8329   10.8148   18.6769 N   0  0  0  0  0  0  0  0  0  0  0  0
    6.1021    2.5564   21.0678 C   0  0  0  0  0  0  0  0  0  0  0  0
   10.9097   11.8051   18.4804 C   0  0  0  0  0  0  0  0  0  0  0  0
   11.2280   12.9135   17.5669 C   0  0  0  0  0  0  0  0  0  0  0  0
   12.3782    5.4231   20.7777 C   0  0  0  0  0  0  0  0  0  0  0  0
    7.7365    4.6508   21.6987 C   0  0  0  0  0  0  0  0  0  0  0  0
   13.0186   11.0102   18.0020 C   0  0  0  0  0  0  0  0  0  0  0  0
    8.6628    5.7088   21.8871 N   0  0  0  0  0  0  0  0  0  0  0  0
    5.6516    3.5258   21.9140 C   0  0  0  0  0  0  0  0  0  0  0  0
   11.5863    9.6815   19.4539 C   0  0  0  0  0  0  0  0  0  0  0  0
   12.9648    4.1543   20.9205 C   0  0  0  0  0  0  0  0  0  0  0  0
    8.2089    3.6265   20.8929 C   0  0  0  0  0  0  0  0  0  0  0  0
    7.3827    2.5724   20.5432 C   0  0  0  0  0  0  0  0  0  0  0  0
   11.1529    7.2750   20.8025 C   0  0  0  0  0  0  0  0  0  0  0  0
   10.2573    8.3215   20.9827 C   0  0  0  0  0  0  0  0  0  0  0  0
   11.1606    5.9378   21.2366 N   0  0  0  0  0  0  0  0  0  0  0  0
    9.8932   11.6736   19.0677 O   0  0  0  0  0  0  0  0  0  0  0  0
    6.4470    4.5850   22.2321 C   0  0  0  0  0  0  0  0  0  0  0  0
    8.4619    6.9895   22.2968 C   0  0  0  0  0  0  0  0  0  0  0  0
   12.2747    7.5102   20.0420 C   0  0  0  0  0  0  0  0  0  0  0  0
   14.2544    6.2142   19.4191 C   0  0  0  0  0  0  0  0  0  0  0  0
   13.0695    6.3705   20.0375 N   0  0  0  0  0  0  0  0  0  0  0  0
    9.1913    8.0876   21.8361 N   0  0  0  0  0  0  0  0  0  0  0  0
   10.4739    9.4813   20.2889 C   0  0  0  0  0  0  0  0  0  0  0  0
    7.5551    7.1270   23.1200 O   0  0  0  0  0  0  0  0  0  0  0  0
  1 11  4  0
  1 21  4  0
  2  4  1  0
  2  8  1  0
  2 11  1  0
  3 10  4  0
  3 14  4  0
  4  5  1  0
  4 18  2  0
  6 12  1  0
  6 17  4  0
  6 23  4  0
  7  9  1  0
  7 13  4  0
  7 19  4  0
  9 20  1  0
 10 19  4  0
 11 25  4  0
 13 14  4  0
 15 16  4  0
 15 17  4  0
 15 21  4  0
 16 24  1  0
 16 25  4  0
 20 24  1  0
 20 26  2  0
 21 23  4  0
 22 23  1  0
M  END
$$$$

 Created by Python create_sdf_string function

 26 28  0  0  0  0  0  0  0  0999 V2000
   12.4616    8.6700   19.4180 N   0  0  0  0  0  0  0  0  0  0  0  0
   11.8329   10.8148   18.6769 N   0  0  0  0  0  0  0  0  0  0  0  0
    6.1021    2.5564   21.0678 C   0  0  0  0  0  0  0  0  0  0  0  0
   10.9097   11.8051   18.4804 C   0  0  0  0  0  0  0  0  0  0  0  0
   11.2280   12.9135   17.5669 C   0  0  0  0  0  0  0  0  0  0  0  0
   12.3782    5.4231   20.7777 C   0  0  0  0  0  0  0  0  0  0  0  0
    7.7365    4.6508   21.6987 C   0  0  0  0  0  0  0  0  0  0  0  0
   13.0186   11.0102   18.0020 C   0  0  0  0  0  0  0  0  0  0  0  0
    8.6628    5.7088   21.8871 N   0  0  0  0  0  0  0  0  0  0  0  0
    5.6516    3.5258   21.9140 C   0  0  0  0  0  0  0  0  0  0  0  0
   11.5863    9.6815   19.4539 C   0  0  0  0  0  0  0  0  0  0  0  0
   12.9648    4.1543   20.9205 C   0  0  0  0  0  0  0  0  0  0  0  0
    8.2089    3.6265   20.8929 C   0  0  0  0  0  0  0  0  0  0  0  0
    7.3827    2.5724   20.5432 C   0  0  0  0  0  0  0  0  0  0  0  0
   11.1529    7.2750   20.8025 C   0  0  0  0  0  0  0  0  0  0  0  0
   10.2573    8.3215   20.9827 C   0  0  0  0  0  0  0  0  0  0  0  0
   11.1606    5.9378   21.2366 N   0  0  0  0  0  0  0  0  0  0  0  0
    9.8932   11.6736   19.0677 O   0  0  0  0  0  0  0  0  0  0  0  0
    6.4470    4.5850   22.2321 C   0  0  0  0  0  0  0  0  0  0  0  0
    8.4619    6.9895   22.2968 C   0  0  0  0  0  0  0  0  0  0  0  0
   12.2747    7.5102   20.0420 C   0  0  0  0  0  0  0  0  0  0  0  0
   14.2544    6.2142   19.4191 C   0  0  0  0  0  0  0  0  0  0  0  0
   13.0695    6.3705   20.0375 N   0  0  0  0  0  0  0  0  0  0  0  0
    9.1913    8.0876   21.8361 N   0  0  0  0  0  0  0  0  0  0  0  0
   10.4739    9.4813   20.2889 C   0  0  0  0  0  0  0  0  0  0  0  0
    7.5551    7.1270   23.1200 O   0  0  0  0  0  0  0  0  0  0  0  0
  1 11  4  0
  1 21  4  0
  2  4  1  0
  2  8  1  0
  2 11  1  0
  3 10  4  0
  3 14  4  0
  4  5  1  0
  4 18  2  0
  6 12  1  0
  6 17  4  0
  6 23  4  0
  7  9  1  0
  7 13  4  0
  7 19  4  0
  9 20  1  0
 10 19  4  0
 11 25  4  0
 13 14  4  0
 15 16  4  0
 15 17  4  0
 15 21  4  0
 16 24  1  0
 16 25  4  0
 20 24  1  0
 20 26  2  0
 21 23  4  0
 22 23  1  0
M  END
$$$$

 Created by Python create_sdf_string function

 26 28  0  0  0  0  0  0  0  0999 V2000
   12.4616    8.6700   19.4180 N   0  0  0  0  0  0  0  0  0  0  0  0
   11.8329   10.8148   18.6769 N   0  0  0  0  0  0  0  0  0  0  0  0
    6.1021    2.5564   21.0678 C   0  0  0  0  0  0  0  0  0  0  0  0
   10.9097   11.8051   18.4804 C   0  0  0  0  0  0  0  0  0  0  0  0
   11.2280   12.9135   17.5669 C   0  0  0  0  0  0  0  0  0  0  0  0
   12.3782    5.4231   20.7777 C   0  0  0  0  0  0  0  0  0  0  0  0
    7.7365    4.6508   21.6987 C   0  0  0  0  0  0  0  0  0  0  0  0
   13.0186   11.0102   18.0020 C   0  0  0  0  0  0  0  0  0  0  0  0
    8.6628    5.7088   21.8871 N   0  0  0  0  0  0  0  0  0  0  0  0
    5.6516    3.5258   21.9140 C   0  0  0  0  0  0  0  0  0  0  0  0
   11.5863    9.6815   19.4539 C   0  0  0  0  0  0  0  0  0  0  0  0
   12.9648    4.1543   20.9205 C   0  0  0  0  0  0  0  0  0  0  0  0
    8.2089    3.6265   20.8929 C   0  0  0  0  0  0  0  0  0  0  0  0
    7.3827    2.5724   20.5432 C   0  0  0  0  0  0  0  0  0  0  0  0
   11.1529    7.2750   20.8025 C   0  0  0  0  0  0  0  0  0  0  0  0
   10.2573    8.3215   20.9827 C   0  0  0  0  0  0  0  0  0  0  0  0
   11.1606    5.9378   21.2366 N   0  0  0  0  0  0  0  0  0  0  0  0
    9.8932   11.6736   19.0677 O   0  0  0  0  0  0  0  0  0  0  0  0
    6.4470    4.5850   22.2321 C   0  0  0  0  0  0  0  0  0  0  0  0
    8.4619    6.9895   22.2968 C   0  0  0  0  0  0  0  0  0  0  0  0
   12.2747    7.5102   20.0420 C   0  0  0  0  0  0  0  0  0  0  0  0
   14.2544    6.2142   19.4191 C   0  0  0  0  0  0  0  0  0  0  0  0
   13.0695    6.3705   20.0375 N   0  0  0  0  0  0  0  0  0  0  0  0
    9.1913    8.0876   21.8361 N   0  0  0  0  0  0  0  0  0  0  0  0
   10.4739    9.4813   20.2889 C   0  0  0  0  0  0  0  0  0  0  0  0
    7.5551    7.1270   23.1200 O   0  0  0  0  0  0  0  0  0  0  0  0
  1 11  4  0
  1 21  4  0
  2  4  1  0
  2  8  1  0
  2 11  1  0
  3 10  4  0
  3 14  4  0
  4  5  1  0
  4 18  2  0
  6 12  1  0
  6 17  4  0
  6 23  4  0
  7  9  1  0
  7 13  4  0
  7 19  4  0
  9 20  1  0
 10 19  4  0
 11 25  4  0
 13 14  4  0
 15 16  4  0
 15 17  4  0
 15 21  4  0
 16 24  1  0
 16 25  4  0
 20 24  1  0
 20 26  2  0
 21 23  4  0
 22 23  1  0
M  END
$$$$

 Created by Python create_sdf_string function

 26 28  0  0  0  0  0  0  0  0999 V2000
   12.4616    8.6700   19.4180 N   0  0  0  0  0  0  0  0  0  0  0  0
   11.8329   10.8148   18.6769 N   0  0  0  0  0  0  0  0  0  0  0  0
    6.1021    2.5564   21.0678 C   0  0  0  0  0  0  0  0  0  0  0  0
   10.9097   11.8051   18.4804 C   0  0  0  0  0  0  0  0  0  0  0  0
   11.2280   12.9135   17.5669 C   0  0  0  0  0  0  0  0  0  0  0  0
   12.3782    5.4231   20.7777 C   0  0  0  0  0  0  0  0  0  0  0  0
    7.7365    4.6508   21.6987 C   0  0  0  0  0  0  0  0  0  0  0  0
   13.0186   11.0102   18.0020 C   0  0  0  0  0  0  0  0  0  0  0  0
    8.6628    5.7088   21.8871 N   0  0  0  0  0  0  0  0  0  0  0  0
    5.6516    3.5258   21.9140 C   0  0  0  0  0  0  0  0  0  0  0  0
   11.5863    9.6815   19.4539 C   0  0  0  0  0  0  0  0  0  0  0  0
   12.9648    4.1543   20.9205 C   0  0  0  0  0  0  0  0  0  0  0  0
    8.2089    3.6265   20.8929 C   0  0  0  0  0  0  0  0  0  0  0  0
    7.3827    2.5724   20.5432 C   0  0  0  0  0  0  0  0  0  0  0  0
   11.1529    7.2750   20.8025 C   0  0  0  0  0  0  0  0  0  0  0  0
   10.2573    8.3215   20.9827 C   0  0  0  0  0  0  0  0  0  0  0  0
   11.1606    5.9378   21.2366 N   0  0  0  0  0  0  0  0  0  0  0  0
    9.8932   11.6736   19.0677 O   0  0  0  0  0  0  0  0  0  0  0  0
    6.4470    4.5850   22.2321 C   0  0  0  0  0  0  0  0  0  0  0  0
    8.4619    6.9895   22.2968 C   0  0  0  0  0  0  0  0  0  0  0  0
   12.2747    7.5102   20.0420 C   0  0  0  0  0  0  0  0  0  0  0  0
   14.2544    6.2142   19.4191 C   0  0  0  0  0  0  0  0  0  0  0  0
   13.0695    6.3705   20.0375 N   0  0  0  0  0  0  0  0  0  0  0  0
    9.1913    8.0876   21.8361 N   0  0  0  0  0  0  0  0  0  0  0  0
   10.4739    9.4813   20.2889 C   0  0  0  0  0  0  0  0  0  0  0  0
    7.5551    7.1270   23.1200 O   0  0  0  0  0  0  0  0  0  0  0  0
  1 11  4  0
  1 21  4  0
  2  4  1  0
  2  8  1  0
  2 11  1  0
  3 10  4  0
  3 14  4  0
  4  5  1  0
  4 18  2  0
  6 12  1  0
  6 17  4  0
  6 23  4  0
  7  9  1  0
  7 13  4  0
  7 19  4  0
  9 20  1  0
 10 19  4  0
 11 25  4  0
 13 14  4  0
 15 16  4  0
 15 17  4  0
 15 21  4  0
 16 24  1  0
 16 25  4  0
 20 24  1  0
 20 26  2  0
 21 23  4  0
 22 23  1  0
M  END
$$$$

 Created by Python create_sdf_string function

 26 28  0  0  0  0  0  0  0  0999 V2000
   12.4616    8.6700   19.4180 N   0  0  0  0  0  0  0  0  0  0  0  0
   11.8329   10.8148   18.6769 N   0  0  0  0  0  0  0  0  0  0  0  0
    6.1021    2.5564   21.0678 C   0  0  0  0  0  0  0  0  0  0  0  0
   10.9097   11.8051   18.4804 C   0  0  0  0  0  0  0  0  0  0  0  0
   11.2280   12.9135   17.5669 C   0  0  0  0  0  0  0  0  0  0  0  0
   12.3782    5.4231   20.7777 C   0  0  0  0  0  0  0  0  0  0  0  0
    7.7365    4.6508   21.6987 C   0  0  0  0  0  0  0  0  0  0  0  0
   13.0186   11.0102   18.0020 C   0  0  0  0  0  0  0  0  0  0  0  0
    8.6628    5.7088   21.8871 N   0  0  0  0  0  0  0  0  0  0  0  0
    5.6516    3.5258   21.9140 C   0  0  0  0  0  0  0  0  0  0  0  0
   11.5863    9.6815   19.4539 C   0  0  0  0  0  0  0  0  0  0  0  0
   12.9648    4.1543   20.9205 C   0  0  0  0  0  0  0  0  0  0  0  0
    8.2089    3.6265   20.8929 C   0  0  0  0  0  0  0  0  0  0  0  0
    7.3827    2.5724   20.5432 C   0  0  0  0  0  0  0  0  0  0  0  0
   11.1529    7.2750   20.8025 C   0  0  0  0  0  0  0  0  0  0  0  0
   10.2573    8.3215   20.9827 C   0  0  0  0  0  0  0  0  0  0  0  0
   11.1606    5.9378   21.2366 N   0  0  0  0  0  0  0  0  0  0  0  0
    9.8932   11.6736   19.0677 O   0  0  0  0  0  0  0  0  0  0  0  0
    6.4470    4.5850   22.2321 C   0  0  0  0  0  0  0  0  0  0  0  0
    8.4619    6.9895   22.2968 C   0  0  0  0  0  0  0  0  0  0  0  0
   12.2747    7.5102   20.0420 C   0  0  0  0  0  0  0  0  0  0  0  0
   14.2544    6.2142   19.4191 C   0  0  0  0  0  0  0  0  0  0  0  0
   13.0695    6.3705   20.0375 N   0  0  0  0  0  0  0  0  0  0  0  0
    9.1913    8.0876   21.8361 N   0  0  0  0  0  0  0  0  0  0  0  0
   10.4739    9.4813   20.2889 C   0  0  0  0  0  0  0  0  0  0  0  0
    7.5551    7.1270   23.1200 O   0  0  0  0  0  0  0  0  0  0  0  0
  1 11  4  0
  1 21  4  0
  2  4  1  0
  2  8  1  0
  2 11  1  0
  3 10  4  0
  3 14  4  0
  4  5  1  0
  4 18  2  0
  6 12  1  0
  6 17  4  0
  6 23  4  0
  7  9  1  0
  7 13  4  0
  7 19  4  0
  9 20  1  0
 10 19  4  0
 11 25  4  0
 13 14  4  0
 15 16  4  0
 15 17  4  0
 15 21  4  0
 16 24  1  0
 16 25  4  0
 20 24  1  0
 20 26  2  0
 21 23  4  0
 22 23  1  0
M  END
$$$$

 Created by Python create_sdf_string function

 26 28  0  0  0  0  0  0  0  0999 V2000
   12.4616    8.6700   19.4180 N   0  0  0  0  0  0  0  0  0  0  0  0
   11.8329   10.8148   18.6769 N   0  0  0  0  0  0  0  0  0  0  0  0
    6.1021    2.5564   21.0678 C   0  0  0  0  0  0  0  0  0  0  0  0
   10.9097   11.8051   18.4804 C   0  0  0  0  0  0  0  0  0  0  0  0
   11.2280   12.9135   17.5669 C   0  0  0  0  0  0  0  0  0  0  0  0
   12.3782    5.4231   20.7777 C   0  0  0  0  0  0  0  0  0  0  0  0
    7.7365    4.6508   21.6987 C   0  0  0  0  0  0  0  0  0  0  0  0
   13.0186   11.0102   18.0020 C   0  0  0  0  0  0  0  0  0  0  0  0
    8.6628    5.7088   21.8871 N   0  0  0  0  0  0  0  0  0  0  0  0
    5.6516    3.5258   21.9140 C   0  0  0  0  0  0  0  0  0  0  0  0
   11.5863    9.6815   19.4539 C   0  0  0  0  0  0  0  0  0  0  0  0
   12.9648    4.1543   20.9205 C   0  0  0  0  0  0  0  0  0  0  0  0
    8.2089    3.6265   20.8929 C   0  0  0  0  0  0  0  0  0  0  0  0
    7.3827    2.5724   20.5432 C   0  0  0  0  0  0  0  0  0  0  0  0
   11.1529    7.2750   20.8025 C   0  0  0  0  0  0  0  0  0  0  0  0
   10.2573    8.3215   20.9827 C   0  0  0  0  0  0  0  0  0  0  0  0
   11.1606    5.9378   21.2366 N   0  0  0  0  0  0  0  0  0  0  0  0
    9.8932   11.6736   19.0677 O   0  0  0  0  0  0  0  0  0  0  0  0
    6.4470    4.5850   22.2321 C   0  0  0  0  0  0  0  0  0  0  0  0
    8.4619    6.9895   22.2968 C   0  0  0  0  0  0  0  0  0  0  0  0
   12.2747    7.5102   20.0420 C   0  0  0  0  0  0  0  0  0  0  0  0
   14.2544    6.2142   19.4191 C   0  0  0  0  0  0  0  0  0  0  0  0
   13.0695    6.3705   20.0375 N   0  0  0  0  0  0  0  0  0  0  0  0
    9.1913    8.0876   21.8361 N   0  0  0  0  0  0  0  0  0  0  0  0
   10.4739    9.4813   20.2889 C   0  0  0  0  0  0  0  0  0  0  0  0
    7.5551    7.1270   23.1200 O   0  0  0  0  0  0  0  0  0  0  0  0
  1 11  4  0
  1 21  4  0
  2  4  1  0
  2  8  1  0
  2 11  1  0
  3 10  4  0
  3 14  4  0
  4  5  1  0
  4 18  2  0
  6 12  1  0
  6 17  4  0
  6 23  4  0
  7  9  1  0
  7 13  4  0
  7 19  4  0
  9 20  1  0
 10 19  4  0
 11 25  4  0
 13 14  4  0
 15 16  4  0
 15 17  4  0
 15 21  4  0
 16 24  1  0
 16 25  4  0
 20 24  1  0
 20 26  2  0
 21 23  4  0
 22 23  1  0
M  END
$$$$

 Created by Python create_sdf_string function

 26 28  0  0  0  0  0  0  0  0999 V2000
   12.4616    8.6700   19.4180 N   0  0  0  0  0  0  0  0  0  0  0  0
   11.8329   10.8148   18.6769 N   0  0  0  0  0  0  0  0  0  0  0  0
    6.1021    2.5564   21.0678 C   0  0  0  0  0  0  0  0  0  0  0  0
   10.9097   11.8051   18.4804 C   0  0  0  0  0  0  0  0  0  0  0  0
   11.2280   12.9135   17.5669 C   0  0  0  0  0  0  0  0  0  0  0  0
   12.3782    5.4231   20.7777 C   0  0  0  0  0  0  0  0  0  0  0  0
    7.7365    4.6508   21.6987 C   0  0  0  0  0  0  0  0  0  0  0  0
   13.0186   11.0102   18.0020 C   0  0  0  0  0  0  0  0  0  0  0  0
    8.6628    5.7088   21.8871 N   0  0  0  0  0  0  0  0  0  0  0  0
    5.6516    3.5258   21.9140 C   0  0  0  0  0  0  0  0  0  0  0  0
   11.5863    9.6815   19.4539 C   0  0  0  0  0  0  0  0  0  0  0  0
   12.9648    4.1543   20.9205 C   0  0  0  0  0  0  0  0  0  0  0  0
    8.2089    3.6265   20.8929 C   0  0  0  0  0  0  0  0  0  0  0  0
    7.3827    2.5724   20.5432 C   0  0  0  0  0  0  0  0  0  0  0  0
   11.1529    7.2750   20.8025 C   0  0  0  0  0  0  0  0  0  0  0  0
   10.2573    8.3215   20.9827 C   0  0  0  0  0  0  0  0  0  0  0  0
   11.1606    5.9378   21.2366 N   0  0  0  0  0  0  0  0  0  0  0  0
    9.8932   11.6736   19.0677 O   0  0  0  0  0  0  0  0  0  0  0  0
    6.4470    4.5850   22.2321 C   0  0  0  0  0  0  0  0  0  0  0  0
    8.4619    6.9895   22.2968 C   0  0  0  0  0  0  0  0  0  0  0  0
   12.2747    7.5102   20.0420 C   0  0  0  0  0  0  0  0  0  0  0  0
   14.2544    6.2142   19.4191 C   0  0  0  0  0  0  0  0  0  0  0  0
   13.0695    6.3705   20.0375 N   0  0  0  0  0  0  0  0  0  0  0  0
    9.1913    8.0876   21.8361 N   0  0  0  0  0  0  0  0  0  0  0  0
   10.4739    9.4813   20.2889 C   0  0  0  0  0  0  0  0  0  0  0  0
    7.5551    7.1270   23.1200 O   0  0  0  0  0  0  0  0  0  0  0  0
  1 11  4  0
  1 21  4  0
  2  4  1  0
  2  8  1  0
  2 11  1  0
  3 10  4  0
  3 14  4  0
  4  5  1  0
  4 18  2  0
  6 12  1  0
  6 17  4  0
  6 23  4  0
  7  9  1  0
  7 13  4  0
  7 19  4  0
  9 20  1  0
 10 19  4  0
 11 25  4  0
 13 14  4  0
 15 16  4  0
 15 17  4  0
 15 21  4  0
 16 24  1  0
 16 25  4  0
 20 24  1  0
 20 26  2  0
 21 23  4  0
 22 23  1  0
M  END
$$$$

 Created by Python create_sdf_string function

 26 28  0  0  0  0  0  0  0  0999 V2000
   12.4616    8.6700   19.4180 N   0  0  0  0  0  0  0  0  0  0  0  0
   11.8329   10.8148   18.6769 N   0  0  0  0  0  0  0  0  0  0  0  0
    6.1021    2.5564   21.0678 C   0  0  0  0  0  0  0  0  0  0  0  0
   10.9097   11.8051   18.4804 C   0  0  0  0  0  0  0  0  0  0  0  0
   11.2280   12.9135   17.5669 C   0  0  0  0  0  0  0  0  0  0  0  0
   12.3782    5.4231   20.7777 C   0  0  0  0  0  0  0  0  0  0  0  0
    7.7365    4.6508   21.6987 C   0  0  0  0  0  0  0  0  0  0  0  0
   13.0186   11.0102   18.0020 C   0  0  0  0  0  0  0  0  0  0  0  0
    8.6628    5.7088   21.8871 N   0  0  0  0  0  0  0  0  0  0  0  0
    5.6516    3.5258   21.9140 C   0  0  0  0  0  0  0  0  0  0  0  0
   11.5863    9.6815   19.4539 C   0  0  0  0  0  0  0  0  0  0  0  0
   12.9648    4.1543   20.9205 C   0  0  0  0  0  0  0  0  0  0  0  0
    8.2089    3.6265   20.8929 C   0  0  0  0  0  0  0  0  0  0  0  0
    7.3827    2.5724   20.5432 C   0  0  0  0  0  0  0  0  0  0  0  0
   11.1529    7.2750   20.8025 C   0  0  0  0  0  0  0  0  0  0  0  0
   10.2573    8.3215   20.9827 C   0  0  0  0  0  0  0  0  0  0  0  0
   11.1606    5.9378   21.2366 N   0  0  0  0  0  0  0  0  0  0  0  0
    9.8932   11.6736   19.0677 O   0  0  0  0  0  0  0  0  0  0  0  0
    6.4470    4.5850   22.2321 C   0  0  0  0  0  0  0  0  0  0  0  0
    8.4619    6.9895   22.2968 C   0  0  0  0  0  0  0  0  0  0  0  0
   12.2747    7.5102   20.0420 C   0  0  0  0  0  0  0  0  0  0  0  0
   14.2544    6.2142   19.4191 C   0  0  0  0  0  0  0  0  0  0  0  0
   13.0695    6.3705   20.0375 N   0  0  0  0  0  0  0  0  0  0  0  0
    9.1913    8.0876   21.8361 N   0  0  0  0  0  0  0  0  0  0  0  0
   10.4739    9.4813   20.2889 C   0  0  0  0  0  0  0  0  0  0  0  0
    7.5551    7.1270   23.1200 O   0  0  0  0  0  0  0  0  0  0  0  0
  1 11  4  0
  1 21  4  0
  2  4  1  0
  2  8  1  0
  2 11  1  0
  3 10  4  0
  3 14  4  0
  4  5  1  0
  4 18  2  0
  6 12  1  0
  6 17  4  0
  6 23  4  0
  7  9  1  0
  7 13  4  0
  7 19  4  0
  9 20  1  0
 10 19  4  0
 11 25  4  0
 13 14  4  0
 15 16  4  0
 15 17  4  0
 15 21  4  0
 16 24  1  0
 16 25  4  0
 20 24  1  0
 20 26  2  0
 21 23  4  0
 22 23  1  0
M  END
$$$$

 Created by Python create_sdf_string function

 26 28  0  0  0  0  0  0  0  0999 V2000
   12.4616    8.6700   19.4180 N   0  0  0  0  0  0  0  0  0  0  0  0
   11.8329   10.8148   18.6769 N   0  0  0  0  0  0  0  0  0  0  0  0
    6.1021    2.5564   21.0678 C   0  0  0  0  0  0  0  0  0  0  0  0
   10.9097   11.8051   18.4804 C   0  0  0  0  0  0  0  0  0  0  0  0
   11.2280   12.9135   17.5669 C   0  0  0  0  0  0  0  0  0  0  0  0
   12.3782    5.4231   20.7777 C   0  0  0  0  0  0  0  0  0  0  0  0
    7.7365    4.6508   21.6987 C   0  0  0  0  0  0  0  0  0  0  0  0
   13.0186   11.0102   18.0020 C   0  0  0  0  0  0  0  0  0  0  0  0
    8.6628    5.7088   21.8871 N   0  0  0  0  0  0  0  0  0  0  0  0
    5.6516    3.5258   21.9140 C   0  0  0  0  0  0  0  0  0  0  0  0
   11.5863    9.6815   19.4539 C   0  0  0  0  0  0  0  0  0  0  0  0
   12.9648    4.1543   20.9205 C   0  0  0  0  0  0  0  0  0  0  0  0
    8.2089    3.6265   20.8929 C   0  0  0  0  0  0  0  0  0  0  0  0
    7.3827    2.5724   20.5432 C   0  0  0  0  0  0  0  0  0  0  0  0
   11.1529    7.2750   20.8025 C   0  0  0  0  0  0  0  0  0  0  0  0
   10.2573    8.3215   20.9827 C   0  0  0  0  0  0  0  0  0  0  0  0
   11.1606    5.9378   21.2366 N   0  0  0  0  0  0  0  0  0  0  0  0
    9.8932   11.6736   19.0677 O   0  0  0  0  0  0  0  0  0  0  0  0
    6.4470    4.5850   22.2321 C   0  0  0  0  0  0  0  0  0  0  0  0
    8.4619    6.9895   22.2968 C   0  0  0  0  0  0  0  0  0  0  0  0
   12.2747    7.5102   20.0420 C   0  0  0  0  0  0  0  0  0  0  0  0
   14.2544    6.2142   19.4191 C   0  0  0  0  0  0  0  0  0  0  0  0
   13.0695    6.3705   20.0375 N   0  0  0  0  0  0  0  0  0  0  0  0
    9.1913    8.0876   21.8361 N   0  0  0  0  0  0  0  0  0  0  0  0
   10.4739    9.4813   20.2889 C   0  0  0  0  0  0  0  0  0  0  0  0
    7.5551    7.1270   23.1200 O   0  0  0  0  0  0  0  0  0  0  0  0
  1 11  4  0
  1 21  4  0
  2  4  1  0
  2  8  1  0
  2 11  1  0
  3 10  4  0
  3 14  4  0
  4  5  1  0
  4 18  2  0
  6 12  1  0
  6 17  4  0
  6 23  4  0
  7  9  1  0
  7 13  4  0
  7 19  4  0
  9 20  1  0
 10 19  4  0
 11 25  4  0
 13 14  4  0
 15 16  4  0
 15 17  4  0
 15 21  4  0
 16 24  1  0
 16 25  4  0
 20 24  1  0
 20 26  2  0
 21 23  4  0
 22 23  1  0
M  END
$$$$

 Created by Python create_sdf_string function

 26 28  0  0  0  0  0  0  0  0999 V2000
   12.4616    8.6700   19.4180 N   0  0  0  0  0  0  0  0  0  0  0  0
   11.8329   10.8148   18.6769 N   0  0  0  0  0  0  0  0  0  0  0  0
    6.1021    2.5564   21.0678 C   0  0  0  0  0  0  0  0  0  0  0  0
   10.9097   11.8051   18.4804 C   0  0  0  0  0  0  0  0  0  0  0  0
   11.2280   12.9135   17.5669 C   0  0  0  0  0  0  0  0  0  0  0  0
   12.3782    5.4231   20.7777 C   0  0  0  0  0  0  0  0  0  0  0  0
    7.7365    4.6508   21.6987 C   0  0  0  0  0  0  0  0  0  0  0  0
   13.0186   11.0102   18.0020 C   0  0  0  0  0  0  0  0  0  0  0  0
    8.6628    5.7088   21.8871 N   0  0  0  0  0  0  0  0  0  0  0  0
    5.6516    3.5258   21.9140 C   0  0  0  0  0  0  0  0  0  0  0  0
   11.5863    9.6815   19.4539 C   0  0  0  0  0  0  0  0  0  0  0  0
   12.9648    4.1543   20.9205 C   0  0  0  0  0  0  0  0  0  0  0  0
    8.2089    3.6265   20.8929 C   0  0  0  0  0  0  0  0  0  0  0  0
    7.3827    2.5724   20.5432 C   0  0  0  0  0  0  0  0  0  0  0  0
   11.1529    7.2750   20.8025 C   0  0  0  0  0  0  0  0  0  0  0  0
   10.2573    8.3215   20.9827 C   0  0  0  0  0  0  0  0  0  0  0  0
   11.1606    5.9378   21.2366 N   0  0  0  0  0  0  0  0  0  0  0  0
    9.8932   11.6736   19.0677 O   0  0  0  0  0  0  0  0  0  0  0  0
    6.4470    4.5850   22.2321 C   0  0  0  0  0  0  0  0  0  0  0  0
    8.4619    6.9895   22.2968 C   0  0  0  0  0  0  0  0  0  0  0  0
   12.2747    7.5102   20.0420 C   0  0  0  0  0  0  0  0  0  0  0  0
   14.2544    6.2142   19.4191 C   0  0  0  0  0  0  0  0  0  0  0  0
   13.0695    6.3705   20.0375 N   0  0  0  0  0  0  0  0  0  0  0  0
    9.1913    8.0876   21.8361 N   0  0  0  0  0  0  0  0  0  0  0  0
   10.4739    9.4813   20.2889 C   0  0  0  0  0  0  0  0  0  0  0  0
    7.5551    7.1270   23.1200 O   0  0  0  0  0  0  0  0  0  0  0  0
  1 11  4  0
  1 21  4  0
  2  4  1  0
  2  8  1  0
  2 11  1  0
  3 10  4  0
  3 14  4  0
  4  5  1  0
  4 18  2  0
  6 12  1  0
  6 17  4  0
  6 23  4  0
  7  9  1  0
  7 13  4  0
  7 19  4  0
  9 20  1  0
 10 19  4  0
 11 25  4  0
 13 14  4  0
 15 16  4  0
 15 17  4  0
 15 21  4  0
 16 24  1  0
 16 25  4  0
 20 24  1  0
 20 26  2  0
 21 23  4  0
 22 23  1  0
M  END
$$$$

 Created by Python create_sdf_string function

 26 28  0  0  0  0  0  0  0  0999 V2000
   12.4616    8.6700   19.4180 N   0  0  0  0  0  0  0  0  0  0  0  0
   11.8329   10.8148   18.6769 N   0  0  0  0  0  0  0  0  0  0  0  0
    6.1021    2.5564   21.0678 C   0  0  0  0  0  0  0  0  0  0  0  0
   10.9097   11.8051   18.4804 C   0  0  0  0  0  0  0  0  0  0  0  0
   11.2280   12.9135   17.5669 C   0  0  0  0  0  0  0  0  0  0  0  0
   12.3782    5.4231   20.7777 C   0  0  0  0  0  0  0  0  0  0  0  0
    7.7365    4.6508   21.6987 C   0  0  0  0  0  0  0  0  0  0  0  0
   13.0186   11.0102   18.0020 C   0  0  0  0  0  0  0  0  0  0  0  0
    8.6628    5.7088   21.8871 N   0  0  0  0  0  0  0  0  0  0  0  0
    5.6516    3.5258   21.9140 C   0  0  0  0  0  0  0  0  0  0  0  0
   11.5863    9.6815   19.4539 C   0  0  0  0  0  0  0  0  0  0  0  0
   12.9648    4.1543   20.9205 C   0  0  0  0  0  0  0  0  0  0  0  0
    8.2089    3.6265   20.8929 C   0  0  0  0  0  0  0  0  0  0  0  0
    7.3827    2.5724   20.5432 C   0  0  0  0  0  0  0  0  0  0  0  0
   11.1529    7.2750   20.8025 C   0  0  0  0  0  0  0  0  0  0  0  0
   10.2573    8.3215   20.9827 C   0  0  0  0  0  0  0  0  0  0  0  0
   11.1606    5.9378   21.2366 N   0  0  0  0  0  0  0  0  0  0  0  0
    9.8932   11.6736   19.0677 O   0  0  0  0  0  0  0  0  0  0  0  0
    6.4470    4.5850   22.2321 C   0  0  0  0  0  0  0  0  0  0  0  0
    8.4619    6.9895   22.2968 C   0  0  0  0  0  0  0  0  0  0  0  0
   12.2747    7.5102   20.0420 C   0  0  0  0  0  0  0  0  0  0  0  0
   14.2544    6.2142   19.4191 C   0  0  0  0  0  0  0  0  0  0  0  0
   13.0695    6.3705   20.0375 N   0  0  0  0  0  0  0  0  0  0  0  0
    9.1913    8.0876   21.8361 N   0  0  0  0  0  0  0  0  0  0  0  0
   10.4739    9.4813   20.2889 C   0  0  0  0  0  0  0  0  0  0  0  0
    7.5551    7.1270   23.1200 O   0  0  0  0  0  0  0  0  0  0  0  0
  1 11  4  0
  1 21  4  0
  2  4  1  0
  2  8  1  0
  2 11  1  0
  3 10  4  0
  3 14  4  0
  4  5  1  0
  4 18  2  0
  6 12  1  0
  6 17  4  0
  6 23  4  0
  7  9  1  0
  7 13  4  0
  7 19  4  0
  9 20  1  0
 10 19  4  0
 11 25  4  0
 13 14  4  0
 15 16  4  0
 15 17  4  0
 15 21  4  0
 16 24  1  0
 16 25  4  0
 20 24  1  0
 20 26  2  0
 21 23  4  0
 22 23  1  0
M  END
$$$$

 Created by Python create_sdf_string function

 26 28  0  0  0  0  0  0  0  0999 V2000
   12.4616    8.6700   19.4180 N   0  0  0  0  0  0  0  0  0  0  0  0
   11.8329   10.8148   18.6769 N   0  0  0  0  0  0  0  0  0  0  0  0
    6.1021    2.5564   21.0678 C   0  0  0  0  0  0  0  0  0  0  0  0
   10.9097   11.8051   18.4804 C   0  0  0  0  0  0  0  0  0  0  0  0
   11.2280   12.9135   17.5669 C   0  0  0  0  0  0  0  0  0  0  0  0
   12.3782    5.4231   20.7777 C   0  0  0  0  0  0  0  0  0  0  0  0
    7.7365    4.6508   21.6987 C   0  0  0  0  0  0  0  0  0  0  0  0
   13.0186   11.0102   18.0020 C   0  0  0  0  0  0  0  0  0  0  0  0
    8.6628    5.7088   21.8871 N   0  0  0  0  0  0  0  0  0  0  0  0
    5.6516    3.5258   21.9140 C   0  0  0  0  0  0  0  0  0  0  0  0
   11.5863    9.6815   19.4539 C   0  0  0  0  0  0  0  0  0  0  0  0
   12.9648    4.1543   20.9205 C   0  0  0  0  0  0  0  0  0  0  0  0
    8.2089    3.6265   20.8929 C   0  0  0  0  0  0  0  0  0  0  0  0
    7.3827    2.5724   20.5432 C   0  0  0  0  0  0  0  0  0  0  0  0
   11.1529    7.2750   20.8025 C   0  0  0  0  0  0  0  0  0  0  0  0
   10.2573    8.3215   20.9827 C   0  0  0  0  0  0  0  0  0  0  0  0
   11.1606    5.9378   21.2366 N   0  0  0  0  0  0  0  0  0  0  0  0
    9.8932   11.6736   19.0677 O   0  0  0  0  0  0  0  0  0  0  0  0
    6.4470    4.5850   22.2321 C   0  0  0  0  0  0  0  0  0  0  0  0
    8.4619    6.9895   22.2968 C   0  0  0  0  0  0  0  0  0  0  0  0
   12.2747    7.5102   20.0420 C   0  0  0  0  0  0  0  0  0  0  0  0
   14.2544    6.2142   19.4191 C   0  0  0  0  0  0  0  0  0  0  0  0
   13.0695    6.3705   20.0375 N   0  0  0  0  0  0  0  0  0  0  0  0
    9.1913    8.0876   21.8361 N   0  0  0  0  0  0  0  0  0  0  0  0
   10.4739    9.4813   20.2889 C   0  0  0  0  0  0  0  0  0  0  0  0
    7.5551    7.1270   23.1200 O   0  0  0  0  0  0  0  0  0  0  0  0
  1 11  4  0
  1 21  4  0
  2  4  1  0
  2  8  1  0
  2 11  1  0
  3 10  4  0
  3 14  4  0
  4  5  1  0
  4 18  2  0
  6 12  1  0
  6 17  4  0
  6 23  4  0
  7  9  1  0
  7 13  4  0
  7 19  4  0
  9 20  1  0
 10 19  4  0
 11 25  4  0
 13 14  4  0
 15 16  4  0
 15 17  4  0
 15 21  4  0
 16 24  1  0
 16 25  4  0
 20 24  1  0
 20 26  2  0
 21 23  4  0
 22 23  1  0
M  END
$$$$

 Created by Python create_sdf_string function

 26 28  0  0  0  0  0  0  0  0999 V2000
   12.4616    8.6700   19.4180 N   0  0  0  0  0  0  0  0  0  0  0  0
   11.8329   10.8148   18.6769 N   0  0  0  0  0  0  0  0  0  0  0  0
    6.1021    2.5564   21.0678 C   0  0  0  0  0  0  0  0  0  0  0  0
   10.9097   11.8051   18.4804 C   0  0  0  0  0  0  0  0  0  0  0  0
   11.2280   12.9135   17.5669 C   0  0  0  0  0  0  0  0  0  0  0  0
   12.3782    5.4231   20.7777 C   0  0  0  0  0  0  0  0  0  0  0  0
    7.7365    4.6508   21.6987 C   0  0  0  0  0  0  0  0  0  0  0  0
   13.0186   11.0102   18.0020 C   0  0  0  0  0  0  0  0  0  0  0  0
    8.6628    5.7088   21.8871 N   0  0  0  0  0  0  0  0  0  0  0  0
    5.6516    3.5258   21.9140 C   0  0  0  0  0  0  0  0  0  0  0  0
   11.5863    9.6815   19.4539 C   0  0  0  0  0  0  0  0  0  0  0  0
   12.9648    4.1543   20.9205 C   0  0  0  0  0  0  0  0  0  0  0  0
    8.2089    3.6265   20.8929 C   0  0  0  0  0  0  0  0  0  0  0  0
    7.3827    2.5724   20.5432 C   0  0  0  0  0  0  0  0  0  0  0  0
   11.1529    7.2750   20.8025 C   0  0  0  0  0  0  0  0  0  0  0  0
   10.2573    8.3215   20.9827 C   0  0  0  0  0  0  0  0  0  0  0  0
   11.1606    5.9378   21.2366 N   0  0  0  0  0  0  0  0  0  0  0  0
    9.8932   11.6736   19.0677 O   0  0  0  0  0  0  0  0  0  0  0  0
    6.4470    4.5850   22.2321 C   0  0  0  0  0  0  0  0  0  0  0  0
    8.4619    6.9895   22.2968 C   0  0  0  0  0  0  0  0  0  0  0  0
   12.2747    7.5102   20.0420 C   0  0  0  0  0  0  0  0  0  0  0  0
   14.2544    6.2142   19.4191 C   0  0  0  0  0  0  0  0  0  0  0  0
   13.0695    6.3705   20.0375 N   0  0  0  0  0  0  0  0  0  0  0  0
    9.1913    8.0876   21.8361 N   0  0  0  0  0  0  0  0  0  0  0  0
   10.4739    9.4813   20.2889 C   0  0  0  0  0  0  0  0  0  0  0  0
    7.5551    7.1270   23.1200 O   0  0  0  0  0  0  0  0  0  0  0  0
  1 11  4  0
  1 21  4  0
  2  4  1  0
  2  8  1  0
  2 11  1  0
  3 10  4  0
  3 14  4  0
  4  5  1  0
  4 18  2  0
  6 12  1  0
  6 17  4  0
  6 23  4  0
  7  9  1  0
  7 13  4  0
  7 19  4  0
  9 20  1  0
 10 19  4  0
 11 25  4  0
 13 14  4  0
 15 16  4  0
 15 17  4  0
 15 21  4  0
 16 24  1  0
 16 25  4  0
 20 24  1  0
 20 26  2  0
 21 23  4  0
 22 23  1  0
M  END
$$$$

 Created by Python create_sdf_string function

 26 28  0  0  0  0  0  0  0  0999 V2000
   12.4616    8.6700   19.4180 N   0  0  0  0  0  0  0  0  0  0  0  0
   11.8329   10.8148   18.6769 N   0  0  0  0  0  0  0  0  0  0  0  0
    6.1021    2.5564   21.0678 C   0  0  0  0  0  0  0  0  0  0  0  0
   10.9097   11.8051   18.4804 C   0  0  0  0  0  0  0  0  0  0  0  0
   11.2280   12.9135   17.5669 C   0  0  0  0  0  0  0  0  0  0  0  0
   12.3782    5.4231   20.7777 C   0  0  0  0  0  0  0  0  0  0  0  0
    7.7365    4.6508   21.6987 C   0  0  0  0  0  0  0  0  0  0  0  0
   13.0186   11.0102   18.0020 C   0  0  0  0  0  0  0  0  0  0  0  0
    8.6628    5.7088   21.8871 N   0  0  0  0  0  0  0  0  0  0  0  0
    5.6516    3.5258   21.9140 C   0  0  0  0  0  0  0  0  0  0  0  0
   11.5863    9.6815   19.4539 C   0  0  0  0  0  0  0  0  0  0  0  0
   12.9648    4.1543   20.9205 C   0  0  0  0  0  0  0  0  0  0  0  0
    8.2089    3.6265   20.8929 C   0  0  0  0  0  0  0  0  0  0  0  0
    7.3827    2.5724   20.5432 C   0  0  0  0  0  0  0  0  0  0  0  0
   11.1529    7.2750   20.8025 C   0  0  0  0  0  0  0  0  0  0  0  0
   10.2573    8.3215   20.9827 C   0  0  0  0  0  0  0  0  0  0  0  0
   11.1606    5.9378   21.2366 N   0  0  0  0  0  0  0  0  0  0  0  0
    9.8932   11.6736   19.0677 O   0  0  0  0  0  0  0  0  0  0  0  0
    6.4470    4.5850   22.2321 C   0  0  0  0  0  0  0  0  0  0  0  0
    8.4619    6.9895   22.2968 C   0  0  0  0  0  0  0  0  0  0  0  0
   12.2747    7.5102   20.0420 C   0  0  0  0  0  0  0  0  0  0  0  0
   14.2544    6.2142   19.4191 C   0  0  0  0  0  0  0  0  0  0  0  0
   13.0695    6.3705   20.0375 N   0  0  0  0  0  0  0  0  0  0  0  0
    9.1913    8.0876   21.8361 N   0  0  0  0  0  0  0  0  0  0  0  0
   10.4739    9.4813   20.2889 C   0  0  0  0  0  0  0  0  0  0  0  0
    7.5551    7.1270   23.1200 O   0  0  0  0  0  0  0  0  0  0  0  0
  1 11  4  0
  1 21  4  0
  2  4  1  0
  2  8  1  0
  2 11  1  0
  3 10  4  0
  3 14  4  0
  4  5  1  0
  4 18  2  0
  6 12  1  0
  6 17  4  0
  6 23  4  0
  7  9  1  0
  7 13  4  0
  7 19  4  0
  9 20  1  0
 10 19  4  0
 11 25  4  0
 13 14  4  0
 15 16  4  0
 15 17  4  0
 15 21  4  0
 16 24  1  0
 16 25  4  0
 20 24  1  0
 20 26  2  0
 21 23  4  0
 22 23  1  0
M  END
$$$$

 Created by Python create_sdf_string function

 26 28  0  0  0  0  0  0  0  0999 V2000
   12.4616    8.6700   19.4180 N   0  0  0  0  0  0  0  0  0  0  0  0
   11.8329   10.8148   18.6769 N   0  0  0  0  0  0  0  0  0  0  0  0
    6.1021    2.5564   21.0678 C   0  0  0  0  0  0  0  0  0  0  0  0
   10.9097   11.8051   18.4804 C   0  0  0  0  0  0  0  0  0  0  0  0
   11.2280   12.9135   17.5669 C   0  0  0  0  0  0  0  0  0  0  0  0
   12.3782    5.4231   20.7777 C   0  0  0  0  0  0  0  0  0  0  0  0
    7.7365    4.6508   21.6987 C   0  0  0  0  0  0  0  0  0  0  0  0
   13.0186   11.0102   18.0020 C   0  0  0  0  0  0  0  0  0  0  0  0
    8.6628    5.7088   21.8871 N   0  0  0  0  0  0  0  0  0  0  0  0
    5.6516    3.5258   21.9140 C   0  0  0  0  0  0  0  0  0  0  0  0
   11.5863    9.6815   19.4539 C   0  0  0  0  0  0  0  0  0  0  0  0
   12.9648    4.1543   20.9205 C   0  0  0  0  0  0  0  0  0  0  0  0
    8.2089    3.6265   20.8929 C   0  0  0  0  0  0  0  0  0  0  0  0
    7.3827    2.5724   20.5432 C   0  0  0  0  0  0  0  0  0  0  0  0
   11.1529    7.2750   20.8025 C   0  0  0  0  0  0  0  0  0  0  0  0
   10.2573    8.3215   20.9827 C   0  0  0  0  0  0  0  0  0  0  0  0
   11.1606    5.9378   21.2366 N   0  0  0  0  0  0  0  0  0  0  0  0
    9.8932   11.6736   19.0677 O   0  0  0  0  0  0  0  0  0  0  0  0
    6.4470    4.5850   22.2321 C   0  0  0  0  0  0  0  0  0  0  0  0
    8.4619    6.9895   22.2968 C   0  0  0  0  0  0  0  0  0  0  0  0
   12.2747    7.5102   20.0420 C   0  0  0  0  0  0  0  0  0  0  0  0
   14.2544    6.2142   19.4191 C   0  0  0  0  0  0  0  0  0  0  0  0
   13.0695    6.3705   20.0375 N   0  0  0  0  0  0  0  0  0  0  0  0
    9.1913    8.0876   21.8361 N   0  0  0  0  0  0  0  0  0  0  0  0
   10.4739    9.4813   20.2889 C   0  0  0  0  0  0  0  0  0  0  0  0
    7.5551    7.1270   23.1200 O   0  0  0  0  0  0  0  0  0  0  0  0
  1 11  4  0
  1 21  4  0
  2  4  1  0
  2  8  1  0
  2 11  1  0
  3 10  4  0
  3 14  4  0
  4  5  1  0
  4 18  2  0
  6 12  1  0
  6 17  4  0
  6 23  4  0
  7  9  1  0
  7 13  4  0
  7 19  4  0
  9 20  1  0
 10 19  4  0
 11 25  4  0
 13 14  4  0
 15 16  4  0
 15 17  4  0
 15 21  4  0
 16 24  1  0
 16 25  4  0
 20 24  1  0
 20 26  2  0
 21 23  4  0
 22 23  1  0
M  END
$$$$

 Created by Python create_sdf_string function

 26 28  0  0  0  0  0  0  0  0999 V2000
   12.4616    8.6700   19.4180 N   0  0  0  0  0  0  0  0  0  0  0  0
   11.8329   10.8148   18.6769 N   0  0  0  0  0  0  0  0  0  0  0  0
    6.1021    2.5564   21.0678 C   0  0  0  0  0  0  0  0  0  0  0  0
   10.9097   11.8051   18.4804 C   0  0  0  0  0  0  0  0  0  0  0  0
   11.2280   12.9135   17.5669 C   0  0  0  0  0  0  0  0  0  0  0  0
   12.3782    5.4231   20.7777 C   0  0  0  0  0  0  0  0  0  0  0  0
    7.7365    4.6508   21.6987 C   0  0  0  0  0  0  0  0  0  0  0  0
   13.0186   11.0102   18.0020 C   0  0  0  0  0  0  0  0  0  0  0  0
    8.6628    5.7088   21.8871 N   0  0  0  0  0  0  0  0  0  0  0  0
    5.6516    3.5258   21.9140 C   0  0  0  0  0  0  0  0  0  0  0  0
   11.5863    9.6815   19.4539 C   0  0  0  0  0  0  0  0  0  0  0  0
   12.9648    4.1543   20.9205 C   0  0  0  0  0  0  0  0  0  0  0  0
    8.2089    3.6265   20.8929 C   0  0  0  0  0  0  0  0  0  0  0  0
    7.3827    2.5724   20.5432 C   0  0  0  0  0  0  0  0  0  0  0  0
   11.1529    7.2750   20.8025 C   0  0  0  0  0  0  0  0  0  0  0  0
   10.2573    8.3215   20.9827 C   0  0  0  0  0  0  0  0  0  0  0  0
   11.1606    5.9378   21.2366 N   0  0  0  0  0  0  0  0  0  0  0  0
    9.8932   11.6736   19.0677 O   0  0  0  0  0  0  0  0  0  0  0  0
    6.4470    4.5850   22.2321 C   0  0  0  0  0  0  0  0  0  0  0  0
    8.4619    6.9895   22.2968 C   0  0  0  0  0  0  0  0  0  0  0  0
   12.2747    7.5102   20.0420 C   0  0  0  0  0  0  0  0  0  0  0  0
   14.2544    6.2142   19.4191 C   0  0  0  0  0  0  0  0  0  0  0  0
   13.0695    6.3705   20.0375 N   0  0  0  0  0  0  0  0  0  0  0  0
    9.1913    8.0876   21.8361 N   0  0  0  0  0  0  0  0  0  0  0  0
   10.4739    9.4813   20.2889 C   0  0  0  0  0  0  0  0  0  0  0  0
    7.5551    7.1270   23.1200 O   0  0  0  0  0  0  0  0  0  0  0  0
  1 11  4  0
  1 21  4  0
  2  4  1  0
  2  8  1  0
  2 11  1  0
  3 10  4  0
  3 14  4  0
  4  5  1  0
  4 18  2  0
  6 12  1  0
  6 17  4  0
  6 23  4  0
  7  9  1  0
  7 13  4  0
  7 19  4  0
  9 20  1  0
 10 19  4  0
 11 25  4  0
 13 14  4  0
 15 16  4  0
 15 17  4  0
 15 21  4  0
 16 24  1  0
 16 25  4  0
 20 24  1  0
 20 26  2  0
 21 23  4  0
 22 23  1  0
M  END
$$$$

 Created by Python create_sdf_string function

 26 28  0  0  0  0  0  0  0  0999 V2000
   12.4616    8.6700   19.4180 N   0  0  0  0  0  0  0  0  0  0  0  0
   11.8329   10.8148   18.6769 N   0  0  0  0  0  0  0  0  0  0  0  0
    6.1021    2.5564   21.0678 C   0  0  0  0  0  0  0  0  0  0  0  0
   10.9097   11.8051   18.4804 C   0  0  0  0  0  0  0  0  0  0  0  0
   11.2280   12.9135   17.5669 C   0  0  0  0  0  0  0  0  0  0  0  0
   12.3782    5.4231   20.7777 C   0  0  0  0  0  0  0  0  0  0  0  0
    7.7365    4.6508   21.6987 C   0  0  0  0  0  0  0  0  0  0  0  0
   13.0186   11.0102   18.0020 C   0  0  0  0  0  0  0  0  0  0  0  0
    8.6628    5.7088   21.8871 N   0  0  0  0  0  0  0  0  0  0  0  0
    5.6516    3.5258   21.9140 C   0  0  0  0  0  0  0  0  0  0  0  0
   11.5863    9.6815   19.4539 C   0  0  0  0  0  0  0  0  0  0  0  0
   12.9648    4.1543   20.9205 C   0  0  0  0  0  0  0  0  0  0  0  0
    8.2089    3.6265   20.8929 C   0  0  0  0  0  0  0  0  0  0  0  0
    7.3827    2.5724   20.5432 C   0  0  0  0  0  0  0  0  0  0  0  0
   11.1529    7.2750   20.8025 C   0  0  0  0  0  0  0  0  0  0  0  0
   10.2573    8.3215   20.9827 C   0  0  0  0  0  0  0  0  0  0  0  0
   11.1606    5.9378   21.2366 N   0  0  0  0  0  0  0  0  0  0  0  0
    9.8932   11.6736   19.0677 O   0  0  0  0  0  0  0  0  0  0  0  0
    6.4470    4.5850   22.2321 C   0  0  0  0  0  0  0  0  0  0  0  0
    8.4619    6.9895   22.2968 C   0  0  0  0  0  0  0  0  0  0  0  0
   12.2747    7.5102   20.0420 C   0  0  0  0  0  0  0  0  0  0  0  0
   14.2544    6.2142   19.4191 C   0  0  0  0  0  0  0  0  0  0  0  0
   13.0695    6.3705   20.0375 N   0  0  0  0  0  0  0  0  0  0  0  0
    9.1913    8.0876   21.8361 N   0  0  0  0  0  0  0  0  0  0  0  0
   10.4739    9.4813   20.2889 C   0  0  0  0  0  0  0  0  0  0  0  0
    7.5551    7.1270   23.1200 O   0  0  0  0  0  0  0  0  0  0  0  0
  1 11  4  0
  1 21  4  0
  2  4  1  0
  2  8  1  0
  2 11  1  0
  3 10  4  0
  3 14  4  0
  4  5  1  0
  4 18  2  0
  6 12  1  0
  6 17  4  0
  6 23  4  0
  7  9  1  0
  7 13  4  0
  7 19  4  0
  9 20  1  0
 10 19  4  0
 11 25  4  0
 13 14  4  0
 15 16  4  0
 15 17  4  0
 15 21  4  0
 16 24  1  0
 16 25  4  0
 20 24  1  0
 20 26  2  0
 21 23  4  0
 22 23  1  0
M  END
$$$$

 Created by Python create_sdf_string function

 26 28  0  0  0  0  0  0  0  0999 V2000
   12.4616    8.6700   19.4180 N   0  0  0  0  0  0  0  0  0  0  0  0
   11.8329   10.8148   18.6769 N   0  0  0  0  0  0  0  0  0  0  0  0
    6.1021    2.5564   21.0678 C   0  0  0  0  0  0  0  0  0  0  0  0
   10.9097   11.8051   18.4804 C   0  0  0  0  0  0  0  0  0  0  0  0
   11.2280   12.9135   17.5669 C   0  0  0  0  0  0  0  0  0  0  0  0
   12.3782    5.4231   20.7777 C   0  0  0  0  0  0  0  0  0  0  0  0
    7.7365    4.6508   21.6987 C   0  0  0  0  0  0  0  0  0  0  0  0
   13.0186   11.0102   18.0020 C   0  0  0  0  0  0  0  0  0  0  0  0
    8.6628    5.7088   21.8871 N   0  0  0  0  0  0  0  0  0  0  0  0
    5.6516    3.5258   21.9140 C   0  0  0  0  0  0  0  0  0  0  0  0
   11.5863    9.6815   19.4539 C   0  0  0  0  0  0  0  0  0  0  0  0
   12.9648    4.1543   20.9205 C   0  0  0  0  0  0  0  0  0  0  0  0
    8.2089    3.6265   20.8929 C   0  0  0  0  0  0  0  0  0  0  0  0
    7.3827    2.5724   20.5432 C   0  0  0  0  0  0  0  0  0  0  0  0
   11.1529    7.2750   20.8025 C   0  0  0  0  0  0  0  0  0  0  0  0
   10.2573    8.3215   20.9827 C   0  0  0  0  0  0  0  0  0  0  0  0
   11.1606    5.9378   21.2366 N   0  0  0  0  0  0  0  0  0  0  0  0
    9.8932   11.6736   19.0677 O   0  0  0  0  0  0  0  0  0  0  0  0
    6.4470    4.5850   22.2321 C   0  0  0  0  0  0  0  0  0  0  0  0
    8.4619    6.9895   22.2968 C   0  0  0  0  0  0  0  0  0  0  0  0
   12.2747    7.5102   20.0420 C   0  0  0  0  0  0  0  0  0  0  0  0
   14.2544    6.2142   19.4191 C   0  0  0  0  0  0  0  0  0  0  0  0
   13.0695    6.3705   20.0375 N   0  0  0  0  0  0  0  0  0  0  0  0
    9.1913    8.0876   21.8361 N   0  0  0  0  0  0  0  0  0  0  0  0
   10.4739    9.4813   20.2889 C   0  0  0  0  0  0  0  0  0  0  0  0
    7.5551    7.1270   23.1200 O   0  0  0  0  0  0  0  0  0  0  0  0
  1 11  4  0
  1 21  4  0
  2  4  1  0
  2  8  1  0
  2 11  1  0
  3 10  4  0
  3 14  4  0
  4  5  1  0
  4 18  2  0
  6 12  1  0
  6 17  4  0
  6 23  4  0
  7  9  1  0
  7 13  4  0
  7 19  4  0
  9 20  1  0
 10 19  4  0
 11 25  4  0
 13 14  4  0
 15 16  4  0
 15 17  4  0
 15 21  4  0
 16 24  1  0
 16 25  4  0
 20 24  1  0
 20 26  2  0
 21 23  4  0
 22 23  1  0
M  END
$$$$

 Created by Python create_sdf_string function

 26 28  0  0  0  0  0  0  0  0999 V2000
   12.4616    8.6700   19.4180 N   0  0  0  0  0  0  0  0  0  0  0  0
   11.8329   10.8148   18.6769 N   0  0  0  0  0  0  0  0  0  0  0  0
    6.1021    2.5564   21.0678 C   0  0  0  0  0  0  0  0  0  0  0  0
   10.9097   11.8051   18.4804 C   0  0  0  0  0  0  0  0  0  0  0  0
   11.2280   12.9135   17.5669 C   0  0  0  0  0  0  0  0  0  0  0  0
   12.3782    5.4231   20.7777 C   0  0  0  0  0  0  0  0  0  0  0  0
    7.7365    4.6508   21.6987 C   0  0  0  0  0  0  0  0  0  0  0  0
   13.0186   11.0102   18.0020 C   0  0  0  0  0  0  0  0  0  0  0  0
    8.6628    5.7088   21.8871 N   0  0  0  0  0  0  0  0  0  0  0  0
    5.6516    3.5258   21.9140 C   0  0  0  0  0  0  0  0  0  0  0  0
   11.5863    9.6815   19.4539 C   0  0  0  0  0  0  0  0  0  0  0  0
   12.9648    4.1543   20.9205 C   0  0  0  0  0  0  0  0  0  0  0  0
    8.2089    3.6265   20.8929 C   0  0  0  0  0  0  0  0  0  0  0  0
    7.3827    2.5724   20.5432 C   0  0  0  0  0  0  0  0  0  0  0  0
   11.1529    7.2750   20.8025 C   0  0  0  0  0  0  0  0  0  0  0  0
   10.2573    8.3215   20.9827 C   0  0  0  0  0  0  0  0  0  0  0  0
   11.1606    5.9378   21.2366 N   0  0  0  0  0  0  0  0  0  0  0  0
    9.8932   11.6736   19.0677 O   0  0  0  0  0  0  0  0  0  0  0  0
    6.4470    4.5850   22.2321 C   0  0  0  0  0  0  0  0  0  0  0  0
    8.4619    6.9895   22.2968 C   0  0  0  0  0  0  0  0  0  0  0  0
   12.2747    7.5102   20.0420 C   0  0  0  0  0  0  0  0  0  0  0  0
   14.2544    6.2142   19.4191 C   0  0  0  0  0  0  0  0  0  0  0  0
   13.0695    6.3705   20.0375 N   0  0  0  0  0  0  0  0  0  0  0  0
    9.1913    8.0876   21.8361 N   0  0  0  0  0  0  0  0  0  0  0  0
   10.4739    9.4813   20.2889 C   0  0  0  0  0  0  0  0  0  0  0  0
    7.5551    7.1270   23.1200 O   0  0  0  0  0  0  0  0  0  0  0  0
  1 11  4  0
  1 21  4  0
  2  4  1  0
  2  8  1  0
  2 11  1  0
  3 10  4  0
  3 14  4  0
  4  5  1  0
  4 18  2  0
  6 12  1  0
  6 17  4  0
  6 23  4  0
  7  9  1  0
  7 13  4  0
  7 19  4  0
  9 20  1  0
 10 19  4  0
 11 25  4  0
 13 14  4  0
 15 16  4  0
 15 17  4  0
 15 21  4  0
 16 24  1  0
 16 25  4  0
 20 24  1  0
 20 26  2  0
 21 23  4  0
 22 23  1  0
M  END
$$$$

 Created by Python create_sdf_string function

 26 28  0  0  0  0  0  0  0  0999 V2000
   12.4616    8.6700   19.4180 N   0  0  0  0  0  0  0  0  0  0  0  0
   11.8329   10.8148   18.6769 N   0  0  0  0  0  0  0  0  0  0  0  0
    6.1021    2.5564   21.0678 C   0  0  0  0  0  0  0  0  0  0  0  0
   10.9097   11.8051   18.4804 C   0  0  0  0  0  0  0  0  0  0  0  0
   11.2280   12.9135   17.5669 C   0  0  0  0  0  0  0  0  0  0  0  0
   12.3782    5.4231   20.7777 C   0  0  0  0  0  0  0  0  0  0  0  0
    7.7365    4.6508   21.6987 C   0  0  0  0  0  0  0  0  0  0  0  0
   13.0186   11.0102   18.0020 C   0  0  0  0  0  0  0  0  0  0  0  0
    8.6628    5.7088   21.8871 N   0  0  0  0  0  0  0  0  0  0  0  0
    5.6516    3.5258   21.9140 C   0  0  0  0  0  0  0  0  0  0  0  0
   11.5863    9.6815   19.4539 C   0  0  0  0  0  0  0  0  0  0  0  0
   12.9648    4.1543   20.9205 C   0  0  0  0  0  0  0  0  0  0  0  0
    8.2089    3.6265   20.8929 C   0  0  0  0  0  0  0  0  0  0  0  0
    7.3827    2.5724   20.5432 C   0  0  0  0  0  0  0  0  0  0  0  0
   11.1529    7.2750   20.8025 C   0  0  0  0  0  0  0  0  0  0  0  0
   10.2573    8.3215   20.9827 C   0  0  0  0  0  0  0  0  0  0  0  0
   11.1606    5.9378   21.2366 N   0  0  0  0  0  0  0  0  0  0  0  0
    9.8932   11.6736   19.0677 O   0  0  0  0  0  0  0  0  0  0  0  0
    6.4470    4.5850   22.2321 C   0  0  0  0  0  0  0  0  0  0  0  0
    8.4619    6.9895   22.2968 C   0  0  0  0  0  0  0  0  0  0  0  0
   12.2747    7.5102   20.0420 C   0  0  0  0  0  0  0  0  0  0  0  0
   14.2544    6.2142   19.4191 C   0  0  0  0  0  0  0  0  0  0  0  0
   13.0695    6.3705   20.0375 N   0  0  0  0  0  0  0  0  0  0  0  0
    9.1913    8.0876   21.8361 N   0  0  0  0  0  0  0  0  0  0  0  0
   10.4739    9.4813   20.2889 C   0  0  0  0  0  0  0  0  0  0  0  0
    7.5551    7.1270   23.1200 O   0  0  0  0  0  0  0  0  0  0  0  0
  1 11  4  0
  1 21  4  0
  2  4  1  0
  2  8  1  0
  2 11  1  0
  3 10  4  0
  3 14  4  0
  4  5  1  0
  4 18  2  0
  6 12  1  0
  6 17  4  0
  6 23  4  0
  7  9  1  0
  7 13  4  0
  7 19  4  0
  9 20  1  0
 10 19  4  0
 11 25  4  0
 13 14  4  0
 15 16  4  0
 15 17  4  0
 15 21  4  0
 16 24  1  0
 16 25  4  0
 20 24  1  0
 20 26  2  0
 21 23  4  0
 22 23  1  0
M  END
$$$$

 Created by Python create_sdf_string function

 26 28  0  0  0  0  0  0  0  0999 V2000
   12.4616    8.6700   19.4180 N   0  0  0  0  0  0  0  0  0  0  0  0
   11.8329   10.8148   18.6769 N   0  0  0  0  0  0  0  0  0  0  0  0
    6.1021    2.5564   21.0678 C   0  0  0  0  0  0  0  0  0  0  0  0
   10.9097   11.8051   18.4804 C   0  0  0  0  0  0  0  0  0  0  0  0
   11.2280   12.9135   17.5669 C   0  0  0  0  0  0  0  0  0  0  0  0
   12.3782    5.4231   20.7777 C   0  0  0  0  0  0  0  0  0  0  0  0
    7.7365    4.6508   21.6987 C   0  0  0  0  0  0  0  0  0  0  0  0
   13.0186   11.0102   18.0020 C   0  0  0  0  0  0  0  0  0  0  0  0
    8.6628    5.7088   21.8871 N   0  0  0  0  0  0  0  0  0  0  0  0
    5.6516    3.5258   21.9140 C   0  0  0  0  0  0  0  0  0  0  0  0
   11.5863    9.6815   19.4539 C   0  0  0  0  0  0  0  0  0  0  0  0
   12.9648    4.1543   20.9205 C   0  0  0  0  0  0  0  0  0  0  0  0
    8.2089    3.6265   20.8929 C   0  0  0  0  0  0  0  0  0  0  0  0
    7.3827    2.5724   20.5432 C   0  0  0  0  0  0  0  0  0  0  0  0
   11.1529    7.2750   20.8025 C   0  0  0  0  0  0  0  0  0  0  0  0
   10.2573    8.3215   20.9827 C   0  0  0  0  0  0  0  0  0  0  0  0
   11.1606    5.9378   21.2366 N   0  0  0  0  0  0  0  0  0  0  0  0
    9.8932   11.6736   19.0677 O   0  0  0  0  0  0  0  0  0  0  0  0
    6.4470    4.5850   22.2321 C   0  0  0  0  0  0  0  0  0  0  0  0
    8.4619    6.9895   22.2968 C   0  0  0  0  0  0  0  0  0  0  0  0
   12.2747    7.5102   20.0420 C   0  0  0  0  0  0  0  0  0  0  0  0
   14.2544    6.2142   19.4191 C   0  0  0  0  0  0  0  0  0  0  0  0
   13.0695    6.3705   20.0375 N   0  0  0  0  0  0  0  0  0  0  0  0
    9.1913    8.0876   21.8361 N   0  0  0  0  0  0  0  0  0  0  0  0
   10.4739    9.4813   20.2889 C   0  0  0  0  0  0  0  0  0  0  0  0
    7.5551    7.1270   23.1200 O   0  0  0  0  0  0  0  0  0  0  0  0
  1 11  4  0
  1 21  4  0
  2  4  1  0
  2  8  1  0
  2 11  1  0
  3 10  4  0
  3 14  4  0
  4  5  1  0
  4 18  2  0
  6 12  1  0
  6 17  4  0
  6 23  4  0
  7  9  1  0
  7 13  4  0
  7 19  4  0
  9 20  1  0
 10 19  4  0
 11 25  4  0
 13 14  4  0
 15 16  4  0
 15 17  4  0
 15 21  4  0
 16 24  1  0
 16 25  4  0
 20 24  1  0
 20 26  2  0
 21 23  4  0
 22 23  1  0
M  END
$$$$

 Created by Python create_sdf_string function

 26 28  0  0  0  0  0  0  0  0999 V2000
   12.4616    8.6700   19.4180 N   0  0  0  0  0  0  0  0  0  0  0  0
   11.8329   10.8148   18.6769 N   0  0  0  0  0  0  0  0  0  0  0  0
    6.1021    2.5564   21.0678 C   0  0  0  0  0  0  0  0  0  0  0  0
   10.9097   11.8051   18.4804 C   0  0  0  0  0  0  0  0  0  0  0  0
   11.2280   12.9135   17.5669 C   0  0  0  0  0  0  0  0  0  0  0  0
   12.3782    5.4231   20.7777 C   0  0  0  0  0  0  0  0  0  0  0  0
    7.7365    4.6508   21.6987 C   0  0  0  0  0  0  0  0  0  0  0  0
   13.0186   11.0102   18.0020 C   0  0  0  0  0  0  0  0  0  0  0  0
    8.6628    5.7088   21.8871 N   0  0  0  0  0  0  0  0  0  0  0  0
    5.6516    3.5258   21.9140 C   0  0  0  0  0  0  0  0  0  0  0  0
   11.5863    9.6815   19.4539 C   0  0  0  0  0  0  0  0  0  0  0  0
   12.9648    4.1543   20.9205 C   0  0  0  0  0  0  0  0  0  0  0  0
    8.2089    3.6265   20.8929 C   0  0  0  0  0  0  0  0  0  0  0  0
    7.3827    2.5724   20.5432 C   0  0  0  0  0  0  0  0  0  0  0  0
   11.1529    7.2750   20.8025 C   0  0  0  0  0  0  0  0  0  0  0  0
   10.2573    8.3215   20.9827 C   0  0  0  0  0  0  0  0  0  0  0  0
   11.1606    5.9378   21.2366 N   0  0  0  0  0  0  0  0  0  0  0  0
    9.8932   11.6736   19.0677 O   0  0  0  0  0  0  0  0  0  0  0  0
    6.4470    4.5850   22.2321 C   0  0  0  0  0  0  0  0  0  0  0  0
    8.4619    6.9895   22.2968 C   0  0  0  0  0  0  0  0  0  0  0  0
   12.2747    7.5102   20.0420 C   0  0  0  0  0  0  0  0  0  0  0  0
   14.2544    6.2142   19.4191 C   0  0  0  0  0  0  0  0  0  0  0  0
   13.0695    6.3705   20.0375 N   0  0  0  0  0  0  0  0  0  0  0  0
    9.1913    8.0876   21.8361 N   0  0  0  0  0  0  0  0  0  0  0  0
   10.4739    9.4813   20.2889 C   0  0  0  0  0  0  0  0  0  0  0  0
    7.5551    7.1270   23.1200 O   0  0  0  0  0  0  0  0  0  0  0  0
  1 11  4  0
  1 21  4  0
  2  4  1  0
  2  8  1  0
  2 11  1  0
  3 10  4  0
  3 14  4  0
  4  5  1  0
  4 18  2  0
  6 12  1  0
  6 17  4  0
  6 23  4  0
  7  9  1  0
  7 13  4  0
  7 19  4  0
  9 20  1  0
 10 19  4  0
 11 25  4  0
 13 14  4  0
 15 16  4  0
 15 17  4  0
 15 21  4  0
 16 24  1  0
 16 25  4  0
 20 24  1  0
 20 26  2  0
 21 23  4  0
 22 23  1  0
M  END
$$$$

 Created by Python create_sdf_string function

 26 28  0  0  0  0  0  0  0  0999 V2000
   12.4616    8.6700   19.4180 N   0  0  0  0  0  0  0  0  0  0  0  0
   11.8329   10.8148   18.6769 N   0  0  0  0  0  0  0  0  0  0  0  0
    6.1021    2.5564   21.0678 C   0  0  0  0  0  0  0  0  0  0  0  0
   10.9097   11.8051   18.4804 C   0  0  0  0  0  0  0  0  0  0  0  0
   11.2280   12.9135   17.5669 C   0  0  0  0  0  0  0  0  0  0  0  0
   12.3782    5.4231   20.7777 C   0  0  0  0  0  0  0  0  0  0  0  0
    7.7365    4.6508   21.6987 C   0  0  0  0  0  0  0  0  0  0  0  0
   13.0186   11.0102   18.0020 C   0  0  0  0  0  0  0  0  0  0  0  0
    8.6628    5.7088   21.8871 N   0  0  0  0  0  0  0  0  0  0  0  0
    5.6516    3.5258   21.9140 C   0  0  0  0  0  0  0  0  0  0  0  0
   11.5863    9.6815   19.4539 C   0  0  0  0  0  0  0  0  0  0  0  0
   12.9648    4.1543   20.9205 C   0  0  0  0  0  0  0  0  0  0  0  0
    8.2089    3.6265   20.8929 C   0  0  0  0  0  0  0  0  0  0  0  0
    7.3827    2.5724   20.5432 C   0  0  0  0  0  0  0  0  0  0  0  0
   11.1529    7.2750   20.8025 C   0  0  0  0  0  0  0  0  0  0  0  0
   10.2573    8.3215   20.9827 C   0  0  0  0  0  0  0  0  0  0  0  0
   11.1606    5.9378   21.2366 N   0  0  0  0  0  0  0  0  0  0  0  0
    9.8932   11.6736   19.0677 O   0  0  0  0  0  0  0  0  0  0  0  0
    6.4470    4.5850   22.2321 C   0  0  0  0  0  0  0  0  0  0  0  0
    8.4619    6.9895   22.2968 C   0  0  0  0  0  0  0  0  0  0  0  0
   12.2747    7.5102   20.0420 C   0  0  0  0  0  0  0  0  0  0  0  0
   14.2544    6.2142   19.4191 C   0  0  0  0  0  0  0  0  0  0  0  0
   13.0695    6.3705   20.0375 N   0  0  0  0  0  0  0  0  0  0  0  0
    9.1913    8.0876   21.8361 N   0  0  0  0  0  0  0  0  0  0  0  0
   10.4739    9.4813   20.2889 C   0  0  0  0  0  0  0  0  0  0  0  0
    7.5551    7.1270   23.1200 O   0  0  0  0  0  0  0  0  0  0  0  0
  1 11  4  0
  1 21  4  0
  2  4  1  0
  2  8  1  0
  2 11  1  0
  3 10  4  0
  3 14  4  0
  4  5  1  0
  4 18  2  0
  6 12  1  0
  6 17  4  0
  6 23  4  0
  7  9  1  0
  7 13  4  0
  7 19  4  0
  9 20  1  0
 10 19  4  0
 11 25  4  0
 13 14  4  0
 15 16  4  0
 15 17  4  0
 15 21  4  0
 16 24  1  0
 16 25  4  0
 20 24  1  0
 20 26  2  0
 21 23  4  0
 22 23  1  0
M  END
$$$$

 Created by Python create_sdf_string function

 26 28  0  0  0  0  0  0  0  0999 V2000
   12.4616    8.6700   19.4180 N   0  0  0  0  0  0  0  0  0  0  0  0
   11.8329   10.8148   18.6769 N   0  0  0  0  0  0  0  0  0  0  0  0
    6.1021    2.5564   21.0678 C   0  0  0  0  0  0  0  0  0  0  0  0
   10.9097   11.8051   18.4804 C   0  0  0  0  0  0  0  0  0  0  0  0
   11.2280   12.9135   17.5669 C   0  0  0  0  0  0  0  0  0  0  0  0
   12.3782    5.4231   20.7777 C   0  0  0  0  0  0  0  0  0  0  0  0
    7.7365    4.6508   21.6987 C   0  0  0  0  0  0  0  0  0  0  0  0
   13.0186   11.0102   18.0020 C   0  0  0  0  0  0  0  0  0  0  0  0
    8.6628    5.7088   21.8871 N   0  0  0  0  0  0  0  0  0  0  0  0
    5.6516    3.5258   21.9140 C   0  0  0  0  0  0  0  0  0  0  0  0
   11.5863    9.6815   19.4539 C   0  0  0  0  0  0  0  0  0  0  0  0
   12.9648    4.1543   20.9205 C   0  0  0  0  0  0  0  0  0  0  0  0
    8.2089    3.6265   20.8929 C   0  0  0  0  0  0  0  0  0  0  0  0
    7.3827    2.5724   20.5432 C   0  0  0  0  0  0  0  0  0  0  0  0
   11.1529    7.2750   20.8025 C   0  0  0  0  0  0  0  0  0  0  0  0
   10.2573    8.3215   20.9827 C   0  0  0  0  0  0  0  0  0  0  0  0
   11.1606    5.9378   21.2366 N   0  0  0  0  0  0  0  0  0  0  0  0
    9.8932   11.6736   19.0677 O   0  0  0  0  0  0  0  0  0  0  0  0
    6.4470    4.5850   22.2321 C   0  0  0  0  0  0  0  0  0  0  0  0
    8.4619    6.9895   22.2968 C   0  0  0  0  0  0  0  0  0  0  0  0
   12.2747    7.5102   20.0420 C   0  0  0  0  0  0  0  0  0  0  0  0
   14.2544    6.2142   19.4191 C   0  0  0  0  0  0  0  0  0  0  0  0
   13.0695    6.3705   20.0375 N   0  0  0  0  0  0  0  0  0  0  0  0
    9.1913    8.0876   21.8361 N   0  0  0  0  0  0  0  0  0  0  0  0
   10.4739    9.4813   20.2889 C   0  0  0  0  0  0  0  0  0  0  0  0
    7.5551    7.1270   23.1200 O   0  0  0  0  0  0  0  0  0  0  0  0
  1 11  4  0
  1 21  4  0
  2  4  1  0
  2  8  1  0
  2 11  1  0
  3 10  4  0
  3 14  4  0
  4  5  1  0
  4 18  2  0
  6 12  1  0
  6 17  4  0
  6 23  4  0
  7  9  1  0
  7 13  4  0
  7 19  4  0
  9 20  1  0
 10 19  4  0
 11 25  4  0
 13 14  4  0
 15 16  4  0
 15 17  4  0
 15 21  4  0
 16 24  1  0
 16 25  4  0
 20 24  1  0
 20 26  2  0
 21 23  4  0
 22 23  1  0
M  END
$$$$

 Created by Python create_sdf_string function

 26 28  0  0  0  0  0  0  0  0999 V2000
   12.4616    8.6700   19.4180 N   0  0  0  0  0  0  0  0  0  0  0  0
   11.8329   10.8148   18.6769 N   0  0  0  0  0  0  0  0  0  0  0  0
    6.1021    2.5564   21.0678 C   0  0  0  0  0  0  0  0  0  0  0  0
   10.9097   11.8051   18.4804 C   0  0  0  0  0  0  0  0  0  0  0  0
   11.2280   12.9135   17.5669 C   0  0  0  0  0  0  0  0  0  0  0  0
   12.3782    5.4231   20.7777 C   0  0  0  0  0  0  0  0  0  0  0  0
    7.7365    4.6508   21.6987 C   0  0  0  0  0  0  0  0  0  0  0  0
   13.0186   11.0102   18.0020 C   0  0  0  0  0  0  0  0  0  0  0  0
    8.6628    5.7088   21.8871 N   0  0  0  0  0  0  0  0  0  0  0  0
    5.6516    3.5258   21.9140 C   0  0  0  0  0  0  0  0  0  0  0  0
   11.5863    9.6815   19.4539 C   0  0  0  0  0  0  0  0  0  0  0  0
   12.9648    4.1543   20.9205 C   0  0  0  0  0  0  0  0  0  0  0  0
    8.2089    3.6265   20.8929 C   0  0  0  0  0  0  0  0  0  0  0  0
    7.3827    2.5724   20.5432 C   0  0  0  0  0  0  0  0  0  0  0  0
   11.1529    7.2750   20.8025 C   0  0  0  0  0  0  0  0  0  0  0  0
   10.2573    8.3215   20.9827 C   0  0  0  0  0  0  0  0  0  0  0  0
   11.1606    5.9378   21.2366 N   0  0  0  0  0  0  0  0  0  0  0  0
    9.8932   11.6736   19.0677 O   0  0  0  0  0  0  0  0  0  0  0  0
    6.4470    4.5850   22.2321 C   0  0  0  0  0  0  0  0  0  0  0  0
    8.4619    6.9895   22.2968 C   0  0  0  0  0  0  0  0  0  0  0  0
   12.2747    7.5102   20.0420 C   0  0  0  0  0  0  0  0  0  0  0  0
   14.2544    6.2142   19.4191 C   0  0  0  0  0  0  0  0  0  0  0  0
   13.0695    6.3705   20.0375 N   0  0  0  0  0  0  0  0  0  0  0  0
    9.1913    8.0876   21.8361 N   0  0  0  0  0  0  0  0  0  0  0  0
   10.4739    9.4813   20.2889 C   0  0  0  0  0  0  0  0  0  0  0  0
    7.5551    7.1270   23.1200 O   0  0  0  0  0  0  0  0  0  0  0  0
  1 11  4  0
  1 21  4  0
  2  4  1  0
  2  8  1  0
  2 11  1  0
  3 10  4  0
  3 14  4  0
  4  5  1  0
  4 18  2  0
  6 12  1  0
  6 17  4  0
  6 23  4  0
  7  9  1  0
  7 13  4  0
  7 19  4  0
  9 20  1  0
 10 19  4  0
 11 25  4  0
 13 14  4  0
 15 16  4  0
 15 17  4  0
 15 21  4  0
 16 24  1  0
 16 25  4  0
 20 24  1  0
 20 26  2  0
 21 23  4  0
 22 23  1  0
M  END
$$$$

 Created by Python create_sdf_string function

 26 28  0  0  0  0  0  0  0  0999 V2000
   12.4616    8.6700   19.4180 N   0  0  0  0  0  0  0  0  0  0  0  0
   11.8329   10.8148   18.6769 N   0  0  0  0  0  0  0  0  0  0  0  0
    6.1021    2.5564   21.0678 C   0  0  0  0  0  0  0  0  0  0  0  0
   10.9097   11.8051   18.4804 C   0  0  0  0  0  0  0  0  0  0  0  0
   11.2280   12.9135   17.5669 C   0  0  0  0  0  0  0  0  0  0  0  0
   12.3782    5.4231   20.7777 C   0  0  0  0  0  0  0  0  0  0  0  0
    7.7365    4.6508   21.6987 C   0  0  0  0  0  0  0  0  0  0  0  0
   13.0186   11.0102   18.0020 C   0  0  0  0  0  0  0  0  0  0  0  0
    8.6628    5.7088   21.8871 N   0  0  0  0  0  0  0  0  0  0  0  0
    5.6516    3.5258   21.9140 C   0  0  0  0  0  0  0  0  0  0  0  0
   11.5863    9.6815   19.4539 C   0  0  0  0  0  0  0  0  0  0  0  0
   12.9648    4.1543   20.9205 C   0  0  0  0  0  0  0  0  0  0  0  0
    8.2089    3.6265   20.8929 C   0  0  0  0  0  0  0  0  0  0  0  0
    7.3827    2.5724   20.5432 C   0  0  0  0  0  0  0  0  0  0  0  0
   11.1529    7.2750   20.8025 C   0  0  0  0  0  0  0  0  0  0  0  0
   10.2573    8.3215   20.9827 C   0  0  0  0  0  0  0  0  0  0  0  0
   11.1606    5.9378   21.2366 N   0  0  0  0  0  0  0  0  0  0  0  0
    9.8932   11.6736   19.0677 O   0  0  0  0  0  0  0  0  0  0  0  0
    6.4470    4.5850   22.2321 C   0  0  0  0  0  0  0  0  0  0  0  0
    8.4619    6.9895   22.2968 C   0  0  0  0  0  0  0  0  0  0  0  0
   12.2747    7.5102   20.0420 C   0  0  0  0  0  0  0  0  0  0  0  0
   14.2544    6.2142   19.4191 C   0  0  0  0  0  0  0  0  0  0  0  0
   13.0695    6.3705   20.0375 N   0  0  0  0  0  0  0  0  0  0  0  0
    9.1913    8.0876   21.8361 N   0  0  0  0  0  0  0  0  0  0  0  0
   10.4739    9.4813   20.2889 C   0  0  0  0  0  0  0  0  0  0  0  0
    7.5551    7.1270   23.1200 O   0  0  0  0  0  0  0  0  0  0  0  0
  1 11  4  0
  1 21  4  0
  2  4  1  0
  2  8  1  0
  2 11  1  0
  3 10  4  0
  3 14  4  0
  4  5  1  0
  4 18  2  0
  6 12  1  0
  6 17  4  0
  6 23  4  0
  7  9  1  0
  7 13  4  0
  7 19  4  0
  9 20  1  0
 10 19  4  0
 11 25  4  0
 13 14  4  0
 15 16  4  0
 15 17  4  0
 15 21  4  0
 16 24  1  0
 16 25  4  0
 20 24  1  0
 20 26  2  0
 21 23  4  0
 22 23  1  0
M  END
$$$$

 Created by Python create_sdf_string function

 26 28  0  0  0  0  0  0  0  0999 V2000
   12.4616    8.6700   19.4180 N   0  0  0  0  0  0  0  0  0  0  0  0
   11.8329   10.8148   18.6769 N   0  0  0  0  0  0  0  0  0  0  0  0
    6.1021    2.5564   21.0678 C   0  0  0  0  0  0  0  0  0  0  0  0
   10.9097   11.8051   18.4804 C   0  0  0  0  0  0  0  0  0  0  0  0
   11.2280   12.9135   17.5669 C   0  0  0  0  0  0  0  0  0  0  0  0
   12.3782    5.4231   20.7777 C   0  0  0  0  0  0  0  0  0  0  0  0
    7.7365    4.6508   21.6987 C   0  0  0  0  0  0  0  0  0  0  0  0
   13.0186   11.0102   18.0020 C   0  0  0  0  0  0  0  0  0  0  0  0
    8.6628    5.7088   21.8871 N   0  0  0  0  0  0  0  0  0  0  0  0
    5.6516    3.5258   21.9140 C   0  0  0  0  0  0  0  0  0  0  0  0
   11.5863    9.6815   19.4539 C   0  0  0  0  0  0  0  0  0  0  0  0
   12.9648    4.1543   20.9205 C   0  0  0  0  0  0  0  0  0  0  0  0
    8.2089    3.6265   20.8929 C   0  0  0  0  0  0  0  0  0  0  0  0
    7.3827    2.5724   20.5432 C   0  0  0  0  0  0  0  0  0  0  0  0
   11.1529    7.2750   20.8025 C   0  0  0  0  0  0  0  0  0  0  0  0
   10.2573    8.3215   20.9827 C   0  0  0  0  0  0  0  0  0  0  0  0
   11.1606    5.9378   21.2366 N   0  0  0  0  0  0  0  0  0  0  0  0
    9.8932   11.6736   19.0677 O   0  0  0  0  0  0  0  0  0  0  0  0
    6.4470    4.5850   22.2321 C   0  0  0  0  0  0  0  0  0  0  0  0
    8.4619    6.9895   22.2968 C   0  0  0  0  0  0  0  0  0  0  0  0
   12.2747    7.5102   20.0420 C   0  0  0  0  0  0  0  0  0  0  0  0
   14.2544    6.2142   19.4191 C   0  0  0  0  0  0  0  0  0  0  0  0
   13.0695    6.3705   20.0375 N   0  0  0  0  0  0  0  0  0  0  0  0
    9.1913    8.0876   21.8361 N   0  0  0  0  0  0  0  0  0  0  0  0
   10.4739    9.4813   20.2889 C   0  0  0  0  0  0  0  0  0  0  0  0
    7.5551    7.1270   23.1200 O   0  0  0  0  0  0  0  0  0  0  0  0
  1 11  4  0
  1 21  4  0
  2  4  1  0
  2  8  1  0
  2 11  1  0
  3 10  4  0
  3 14  4  0
  4  5  1  0
  4 18  2  0
  6 12  1  0
  6 17  4  0
  6 23  4  0
  7  9  1  0
  7 13  4  0
  7 19  4  0
  9 20  1  0
 10 19  4  0
 11 25  4  0
 13 14  4  0
 15 16  4  0
 15 17  4  0
 15 21  4  0
 16 24  1  0
 16 25  4  0
 20 24  1  0
 20 26  2  0
 21 23  4  0
 22 23  1  0
M  END
$$$$

 Created by Python create_sdf_string function

 26 28  0  0  0  0  0  0  0  0999 V2000
   12.4616    8.6700   19.4180 N   0  0  0  0  0  0  0  0  0  0  0  0
   11.8329   10.8148   18.6769 N   0  0  0  0  0  0  0  0  0  0  0  0
    6.1021    2.5564   21.0678 C   0  0  0  0  0  0  0  0  0  0  0  0
   10.9097   11.8051   18.4804 C   0  0  0  0  0  0  0  0  0  0  0  0
   11.2280   12.9135   17.5669 C   0  0  0  0  0  0  0  0  0  0  0  0
   12.3782    5.4231   20.7777 C   0  0  0  0  0  0  0  0  0  0  0  0
    7.7365    4.6508   21.6987 C   0  0  0  0  0  0  0  0  0  0  0  0
   13.0186   11.0102   18.0020 C   0  0  0  0  0  0  0  0  0  0  0  0
    8.6628    5.7088   21.8871 N   0  0  0  0  0  0  0  0  0  0  0  0
    5.6516    3.5258   21.9140 C   0  0  0  0  0  0  0  0  0  0  0  0
   11.5863    9.6815   19.4539 C   0  0  0  0  0  0  0  0  0  0  0  0
   12.9648    4.1543   20.9205 C   0  0  0  0  0  0  0  0  0  0  0  0
    8.2089    3.6265   20.8929 C   0  0  0  0  0  0  0  0  0  0  0  0
    7.3827    2.5724   20.5432 C   0  0  0  0  0  0  0  0  0  0  0  0
   11.1529    7.2750   20.8025 C   0  0  0  0  0  0  0  0  0  0  0  0
   10.2573    8.3215   20.9827 C   0  0  0  0  0  0  0  0  0  0  0  0
   11.1606    5.9378   21.2366 N   0  0  0  0  0  0  0  0  0  0  0  0
    9.8932   11.6736   19.0677 O   0  0  0  0  0  0  0  0  0  0  0  0
    6.4470    4.5850   22.2321 C   0  0  0  0  0  0  0  0  0  0  0  0
    8.4619    6.9895   22.2968 C   0  0  0  0  0  0  0  0  0  0  0  0
   12.2747    7.5102   20.0420 C   0  0  0  0  0  0  0  0  0  0  0  0
   14.2544    6.2142   19.4191 C   0  0  0  0  0  0  0  0  0  0  0  0
   13.0695    6.3705   20.0375 N   0  0  0  0  0  0  0  0  0  0  0  0
    9.1913    8.0876   21.8361 N   0  0  0  0  0  0  0  0  0  0  0  0
   10.4739    9.4813   20.2889 C   0  0  0  0  0  0  0  0  0  0  0  0
    7.5551    7.1270   23.1200 O   0  0  0  0  0  0  0  0  0  0  0  0
  1 11  4  0
  1 21  4  0
  2  4  1  0
  2  8  1  0
  2 11  1  0
  3 10  4  0
  3 14  4  0
  4  5  1  0
  4 18  2  0
  6 12  1  0
  6 17  4  0
  6 23  4  0
  7  9  1  0
  7 13  4  0
  7 19  4  0
  9 20  1  0
 10 19  4  0
 11 25  4  0
 13 14  4  0
 15 16  4  0
 15 17  4  0
 15 21  4  0
 16 24  1  0
 16 25  4  0
 20 24  1  0
 20 26  2  0
 21 23  4  0
 22 23  1  0
M  END
$$$$

 Created by Python create_sdf_string function

 26 28  0  0  0  0  0  0  0  0999 V2000
   12.4616    8.6700   19.4180 N   0  0  0  0  0  0  0  0  0  0  0  0
   11.8329   10.8148   18.6769 N   0  0  0  0  0  0  0  0  0  0  0  0
    6.1021    2.5564   21.0678 C   0  0  0  0  0  0  0  0  0  0  0  0
   10.9097   11.8051   18.4804 C   0  0  0  0  0  0  0  0  0  0  0  0
   11.2280   12.9135   17.5669 C   0  0  0  0  0  0  0  0  0  0  0  0
   12.3782    5.4231   20.7777 C   0  0  0  0  0  0  0  0  0  0  0  0
    7.7365    4.6508   21.6987 C   0  0  0  0  0  0  0  0  0  0  0  0
   13.0186   11.0102   18.0020 C   0  0  0  0  0  0  0  0  0  0  0  0
    8.6628    5.7088   21.8871 N   0  0  0  0  0  0  0  0  0  0  0  0
    5.6516    3.5258   21.9140 C   0  0  0  0  0  0  0  0  0  0  0  0
   11.5863    9.6815   19.4539 C   0  0  0  0  0  0  0  0  0  0  0  0
   12.9648    4.1543   20.9205 C   0  0  0  0  0  0  0  0  0  0  0  0
    8.2089    3.6265   20.8929 C   0  0  0  0  0  0  0  0  0  0  0  0
    7.3827    2.5724   20.5432 C   0  0  0  0  0  0  0  0  0  0  0  0
   11.1529    7.2750   20.8025 C   0  0  0  0  0  0  0  0  0  0  0  0
   10.2573    8.3215   20.9827 C   0  0  0  0  0  0  0  0  0  0  0  0
   11.1606    5.9378   21.2366 N   0  0  0  0  0  0  0  0  0  0  0  0
    9.8932   11.6736   19.0677 O   0  0  0  0  0  0  0  0  0  0  0  0
    6.4470    4.5850   22.2321 C   0  0  0  0  0  0  0  0  0  0  0  0
    8.4619    6.9895   22.2968 C   0  0  0  0  0  0  0  0  0  0  0  0
   12.2747    7.5102   20.0420 C   0  0  0  0  0  0  0  0  0  0  0  0
   14.2544    6.2142   19.4191 C   0  0  0  0  0  0  0  0  0  0  0  0
   13.0695    6.3705   20.0375 N   0  0  0  0  0  0  0  0  0  0  0  0
    9.1913    8.0876   21.8361 N   0  0  0  0  0  0  0  0  0  0  0  0
   10.4739    9.4813   20.2889 C   0  0  0  0  0  0  0  0  0  0  0  0
    7.5551    7.1270   23.1200 O   0  0  0  0  0  0  0  0  0  0  0  0
  1 11  4  0
  1 21  4  0
  2  4  1  0
  2  8  1  0
  2 11  1  0
  3 10  4  0
  3 14  4  0
  4  5  1  0
  4 18  2  0
  6 12  1  0
  6 17  4  0
  6 23  4  0
  7  9  1  0
  7 13  4  0
  7 19  4  0
  9 20  1  0
 10 19  4  0
 11 25  4  0
 13 14  4  0
 15 16  4  0
 15 17  4  0
 15 21  4  0
 16 24  1  0
 16 25  4  0
 20 24  1  0
 20 26  2  0
 21 23  4  0
 22 23  1  0
M  END
$$$$

 Created by Python create_sdf_string function

 26 28  0  0  0  0  0  0  0  0999 V2000
   12.4616    8.6700   19.4180 N   0  0  0  0  0  0  0  0  0  0  0  0
   11.8329   10.8148   18.6769 N   0  0  0  0  0  0  0  0  0  0  0  0
    6.1021    2.5564   21.0678 C   0  0  0  0  0  0  0  0  0  0  0  0
   10.9097   11.8051   18.4804 C   0  0  0  0  0  0  0  0  0  0  0  0
   11.2280   12.9135   17.5669 C   0  0  0  0  0  0  0  0  0  0  0  0
   12.3782    5.4231   20.7777 C   0  0  0  0  0  0  0  0  0  0  0  0
    7.7365    4.6508   21.6987 C   0  0  0  0  0  0  0  0  0  0  0  0
   13.0186   11.0102   18.0020 C   0  0  0  0  0  0  0  0  0  0  0  0
    8.6628    5.7088   21.8871 N   0  0  0  0  0  0  0  0  0  0  0  0
    5.6516    3.5258   21.9140 C   0  0  0  0  0  0  0  0  0  0  0  0
   11.5863    9.6815   19.4539 C   0  0  0  0  0  0  0  0  0  0  0  0
   12.9648    4.1543   20.9205 C   0  0  0  0  0  0  0  0  0  0  0  0
    8.2089    3.6265   20.8929 C   0  0  0  0  0  0  0  0  0  0  0  0
    7.3827    2.5724   20.5432 C   0  0  0  0  0  0  0  0  0  0  0  0
   11.1529    7.2750   20.8025 C   0  0  0  0  0  0  0  0  0  0  0  0
   10.2573    8.3215   20.9827 C   0  0  0  0  0  0  0  0  0  0  0  0
   11.1606    5.9378   21.2366 N   0  0  0  0  0  0  0  0  0  0  0  0
    9.8932   11.6736   19.0677 O   0  0  0  0  0  0  0  0  0  0  0  0
    6.4470    4.5850   22.2321 C   0  0  0  0  0  0  0  0  0  0  0  0
    8.4619    6.9895   22.2968 C   0  0  0  0  0  0  0  0  0  0  0  0
   12.2747    7.5102   20.0420 C   0  0  0  0  0  0  0  0  0  0  0  0
   14.2544    6.2142   19.4191 C   0  0  0  0  0  0  0  0  0  0  0  0
   13.0695    6.3705   20.0375 N   0  0  0  0  0  0  0  0  0  0  0  0
    9.1913    8.0876   21.8361 N   0  0  0  0  0  0  0  0  0  0  0  0
   10.4739    9.4813   20.2889 C   0  0  0  0  0  0  0  0  0  0  0  0
    7.5551    7.1270   23.1200 O   0  0  0  0  0  0  0  0  0  0  0  0
  1 11  4  0
  1 21  4  0
  2  4  1  0
  2  8  1  0
  2 11  1  0
  3 10  4  0
  3 14  4  0
  4  5  1  0
  4 18  2  0
  6 12  1  0
  6 17  4  0
  6 23  4  0
  7  9  1  0
  7 13  4  0
  7 19  4  0
  9 20  1  0
 10 19  4  0
 11 25  4  0
 13 14  4  0
 15 16  4  0
 15 17  4  0
 15 21  4  0
 16 24  1  0
 16 25  4  0
 20 24  1  0
 20 26  2  0
 21 23  4  0
 22 23  1  0
M  END
$$$$

 Created by Python create_sdf_string function

 26 28  0  0  0  0  0  0  0  0999 V2000
   12.4616    8.6700   19.4180 N   0  0  0  0  0  0  0  0  0  0  0  0
   11.8329   10.8148   18.6769 N   0  0  0  0  0  0  0  0  0  0  0  0
    6.1021    2.5564   21.0678 C   0  0  0  0  0  0  0  0  0  0  0  0
   10.9097   11.8051   18.4804 C   0  0  0  0  0  0  0  0  0  0  0  0
   11.2280   12.9135   17.5669 C   0  0  0  0  0  0  0  0  0  0  0  0
   12.3782    5.4231   20.7777 C   0  0  0  0  0  0  0  0  0  0  0  0
    7.7365    4.6508   21.6987 C   0  0  0  0  0  0  0  0  0  0  0  0
   13.0186   11.0102   18.0020 C   0  0  0  0  0  0  0  0  0  0  0  0
    8.6628    5.7088   21.8871 N   0  0  0  0  0  0  0  0  0  0  0  0
    5.6516    3.5258   21.9140 C   0  0  0  0  0  0  0  0  0  0  0  0
   11.5863    9.6815   19.4539 C   0  0  0  0  0  0  0  0  0  0  0  0
   12.9648    4.1543   20.9205 C   0  0  0  0  0  0  0  0  0  0  0  0
    8.2089    3.6265   20.8929 C   0  0  0  0  0  0  0  0  0  0  0  0
    7.3827    2.5724   20.5432 C   0  0  0  0  0  0  0  0  0  0  0  0
   11.1529    7.2750   20.8025 C   0  0  0  0  0  0  0  0  0  0  0  0
   10.2573    8.3215   20.9827 C   0  0  0  0  0  0  0  0  0  0  0  0
   11.1606    5.9378   21.2366 N   0  0  0  0  0  0  0  0  0  0  0  0
    9.8932   11.6736   19.0677 O   0  0  0  0  0  0  0  0  0  0  0  0
    6.4470    4.5850   22.2321 C   0  0  0  0  0  0  0  0  0  0  0  0
    8.4619    6.9895   22.2968 C   0  0  0  0  0  0  0  0  0  0  0  0
   12.2747    7.5102   20.0420 C   0  0  0  0  0  0  0  0  0  0  0  0
   14.2544    6.2142   19.4191 C   0  0  0  0  0  0  0  0  0  0  0  0
   13.0695    6.3705   20.0375 N   0  0  0  0  0  0  0  0  0  0  0  0
    9.1913    8.0876   21.8361 N   0  0  0  0  0  0  0  0  0  0  0  0
   10.4739    9.4813   20.2889 C   0  0  0  0  0  0  0  0  0  0  0  0
    7.5551    7.1270   23.1200 O   0  0  0  0  0  0  0  0  0  0  0  0
  1 11  4  0
  1 21  4  0
  2  4  1  0
  2  8  1  0
  2 11  1  0
  3 10  4  0
  3 14  4  0
  4  5  1  0
  4 18  2  0
  6 12  1  0
  6 17  4  0
  6 23  4  0
  7  9  1  0
  7 13  4  0
  7 19  4  0
  9 20  1  0
 10 19  4  0
 11 25  4  0
 13 14  4  0
 15 16  4  0
 15 17  4  0
 15 21  4  0
 16 24  1  0
 16 25  4  0
 20 24  1  0
 20 26  2  0
 21 23  4  0
 22 23  1  0
M  END
$$$$

 Created by Python create_sdf_string function

 26 28  0  0  0  0  0  0  0  0999 V2000
   12.4616    8.6700   19.4180 N   0  0  0  0  0  0  0  0  0  0  0  0
   11.8329   10.8148   18.6769 N   0  0  0  0  0  0  0  0  0  0  0  0
    6.1021    2.5564   21.0678 C   0  0  0  0  0  0  0  0  0  0  0  0
   10.9097   11.8051   18.4804 C   0  0  0  0  0  0  0  0  0  0  0  0
   11.2280   12.9135   17.5669 C   0  0  0  0  0  0  0  0  0  0  0  0
   12.3782    5.4231   20.7777 C   0  0  0  0  0  0  0  0  0  0  0  0
    7.7365    4.6508   21.6987 C   0  0  0  0  0  0  0  0  0  0  0  0
   13.0186   11.0102   18.0020 C   0  0  0  0  0  0  0  0  0  0  0  0
    8.6628    5.7088   21.8871 N   0  0  0  0  0  0  0  0  0  0  0  0
    5.6516    3.5258   21.9140 C   0  0  0  0  0  0  0  0  0  0  0  0
   11.5863    9.6815   19.4539 C   0  0  0  0  0  0  0  0  0  0  0  0
   12.9648    4.1543   20.9205 C   0  0  0  0  0  0  0  0  0  0  0  0
    8.2089    3.6265   20.8929 C   0  0  0  0  0  0  0  0  0  0  0  0
    7.3827    2.5724   20.5432 C   0  0  0  0  0  0  0  0  0  0  0  0
   11.1529    7.2750   20.8025 C   0  0  0  0  0  0  0  0  0  0  0  0
   10.2573    8.3215   20.9827 C   0  0  0  0  0  0  0  0  0  0  0  0
   11.1606    5.9378   21.2366 N   0  0  0  0  0  0  0  0  0  0  0  0
    9.8932   11.6736   19.0677 O   0  0  0  0  0  0  0  0  0  0  0  0
    6.4470    4.5850   22.2321 C   0  0  0  0  0  0  0  0  0  0  0  0
    8.4619    6.9895   22.2968 C   0  0  0  0  0  0  0  0  0  0  0  0
   12.2747    7.5102   20.0420 C   0  0  0  0  0  0  0  0  0  0  0  0
   14.2544    6.2142   19.4191 C   0  0  0  0  0  0  0  0  0  0  0  0
   13.0695    6.3705   20.0375 N   0  0  0  0  0  0  0  0  0  0  0  0
    9.1913    8.0876   21.8361 N   0  0  0  0  0  0  0  0  0  0  0  0
   10.4739    9.4813   20.2889 C   0  0  0  0  0  0  0  0  0  0  0  0
    7.5551    7.1270   23.1200 O   0  0  0  0  0  0  0  0  0  0  0  0
  1 11  4  0
  1 21  4  0
  2  4  1  0
  2  8  1  0
  2 11  1  0
  3 10  4  0
  3 14  4  0
  4  5  1  0
  4 18  2  0
  6 12  1  0
  6 17  4  0
  6 23  4  0
  7  9  1  0
  7 13  4  0
  7 19  4  0
  9 20  1  0
 10 19  4  0
 11 25  4  0
 13 14  4  0
 15 16  4  0
 15 17  4  0
 15 21  4  0
 16 24  1  0
 16 25  4  0
 20 24  1  0
 20 26  2  0
 21 23  4  0
 22 23  1  0
M  END
$$$$

 Created by Python create_sdf_string function

 26 28  0  0  0  0  0  0  0  0999 V2000
   12.4616    8.6700   19.4180 N   0  0  0  0  0  0  0  0  0  0  0  0
   11.8329   10.8148   18.6769 N   0  0  0  0  0  0  0  0  0  0  0  0
    6.1021    2.5564   21.0678 C   0  0  0  0  0  0  0  0  0  0  0  0
   10.9097   11.8051   18.4804 C   0  0  0  0  0  0  0  0  0  0  0  0
   11.2280   12.9135   17.5669 C   0  0  0  0  0  0  0  0  0  0  0  0
   12.3782    5.4231   20.7777 C   0  0  0  0  0  0  0  0  0  0  0  0
    7.7365    4.6508   21.6987 C   0  0  0  0  0  0  0  0  0  0  0  0
   13.0186   11.0102   18.0020 C   0  0  0  0  0  0  0  0  0  0  0  0
    8.6628    5.7088   21.8871 N   0  0  0  0  0  0  0  0  0  0  0  0
    5.6516    3.5258   21.9140 C   0  0  0  0  0  0  0  0  0  0  0  0
   11.5863    9.6815   19.4539 C   0  0  0  0  0  0  0  0  0  0  0  0
   12.9648    4.1543   20.9205 C   0  0  0  0  0  0  0  0  0  0  0  0
    8.2089    3.6265   20.8929 C   0  0  0  0  0  0  0  0  0  0  0  0
    7.3827    2.5724   20.5432 C   0  0  0  0  0  0  0  0  0  0  0  0
   11.1529    7.2750   20.8025 C   0  0  0  0  0  0  0  0  0  0  0  0
   10.2573    8.3215   20.9827 C   0  0  0  0  0  0  0  0  0  0  0  0
   11.1606    5.9378   21.2366 N   0  0  0  0  0  0  0  0  0  0  0  0
    9.8932   11.6736   19.0677 O   0  0  0  0  0  0  0  0  0  0  0  0
    6.4470    4.5850   22.2321 C   0  0  0  0  0  0  0  0  0  0  0  0
    8.4619    6.9895   22.2968 C   0  0  0  0  0  0  0  0  0  0  0  0
   12.2747    7.5102   20.0420 C   0  0  0  0  0  0  0  0  0  0  0  0
   14.2544    6.2142   19.4191 C   0  0  0  0  0  0  0  0  0  0  0  0
   13.0695    6.3705   20.0375 N   0  0  0  0  0  0  0  0  0  0  0  0
    9.1913    8.0876   21.8361 N   0  0  0  0  0  0  0  0  0  0  0  0
   10.4739    9.4813   20.2889 C   0  0  0  0  0  0  0  0  0  0  0  0
    7.5551    7.1270   23.1200 O   0  0  0  0  0  0  0  0  0  0  0  0
  1 11  4  0
  1 21  4  0
  2  4  1  0
  2  8  1  0
  2 11  1  0
  3 10  4  0
  3 14  4  0
  4  5  1  0
  4 18  2  0
  6 12  1  0
  6 17  4  0
  6 23  4  0
  7  9  1  0
  7 13  4  0
  7 19  4  0
  9 20  1  0
 10 19  4  0
 11 25  4  0
 13 14  4  0
 15 16  4  0
 15 17  4  0
 15 21  4  0
 16 24  1  0
 16 25  4  0
 20 24  1  0
 20 26  2  0
 21 23  4  0
 22 23  1  0
M  END
$$$$

 Created by Python create_sdf_string function

 26 28  0  0  0  0  0  0  0  0999 V2000
   12.4616    8.6700   19.4180 N   0  0  0  0  0  0  0  0  0  0  0  0
   11.8329   10.8148   18.6769 N   0  0  0  0  0  0  0  0  0  0  0  0
    6.1021    2.5564   21.0678 C   0  0  0  0  0  0  0  0  0  0  0  0
   10.9097   11.8051   18.4804 C   0  0  0  0  0  0  0  0  0  0  0  0
   11.2280   12.9135   17.5669 C   0  0  0  0  0  0  0  0  0  0  0  0
   12.3782    5.4231   20.7777 C   0  0  0  0  0  0  0  0  0  0  0  0
    7.7365    4.6508   21.6987 C   0  0  0  0  0  0  0  0  0  0  0  0
   13.0186   11.0102   18.0020 C   0  0  0  0  0  0  0  0  0  0  0  0
    8.6628    5.7088   21.8871 N   0  0  0  0  0  0  0  0  0  0  0  0
    5.6516    3.5258   21.9140 C   0  0  0  0  0  0  0  0  0  0  0  0
   11.5863    9.6815   19.4539 C   0  0  0  0  0  0  0  0  0  0  0  0
   12.9648    4.1543   20.9205 C   0  0  0  0  0  0  0  0  0  0  0  0
    8.2089    3.6265   20.8929 C   0  0  0  0  0  0  0  0  0  0  0  0
    7.3827    2.5724   20.5432 C   0  0  0  0  0  0  0  0  0  0  0  0
   11.1529    7.2750   20.8025 C   0  0  0  0  0  0  0  0  0  0  0  0
   10.2573    8.3215   20.9827 C   0  0  0  0  0  0  0  0  0  0  0  0
   11.1606    5.9378   21.2366 N   0  0  0  0  0  0  0  0  0  0  0  0
    9.8932   11.6736   19.0677 O   0  0  0  0  0  0  0  0  0  0  0  0
    6.4470    4.5850   22.2321 C   0  0  0  0  0  0  0  0  0  0  0  0
    8.4619    6.9895   22.2968 C   0  0  0  0  0  0  0  0  0  0  0  0
   12.2747    7.5102   20.0420 C   0  0  0  0  0  0  0  0  0  0  0  0
   14.2544    6.2142   19.4191 C   0  0  0  0  0  0  0  0  0  0  0  0
   13.0695    6.3705   20.0375 N   0  0  0  0  0  0  0  0  0  0  0  0
    9.1913    8.0876   21.8361 N   0  0  0  0  0  0  0  0  0  0  0  0
   10.4739    9.4813   20.2889 C   0  0  0  0  0  0  0  0  0  0  0  0
    7.5551    7.1270   23.1200 O   0  0  0  0  0  0  0  0  0  0  0  0
  1 11  4  0
  1 21  4  0
  2  4  1  0
  2  8  1  0
  2 11  1  0
  3 10  4  0
  3 14  4  0
  4  5  1  0
  4 18  2  0
  6 12  1  0
  6 17  4  0
  6 23  4  0
  7  9  1  0
  7 13  4  0
  7 19  4  0
  9 20  1  0
 10 19  4  0
 11 25  4  0
 13 14  4  0
 15 16  4  0
 15 17  4  0
 15 21  4  0
 16 24  1  0
 16 25  4  0
 20 24  1  0
 20 26  2  0
 21 23  4  0
 22 23  1  0
M  END
$$$$

 Created by Python create_sdf_string function

 26 28  0  0  0  0  0  0  0  0999 V2000
   12.4616    8.6700   19.4180 N   0  0  0  0  0  0  0  0  0  0  0  0
   11.8329   10.8148   18.6769 N   0  0  0  0  0  0  0  0  0  0  0  0
    6.1021    2.5564   21.0678 C   0  0  0  0  0  0  0  0  0  0  0  0
   10.9097   11.8051   18.4804 C   0  0  0  0  0  0  0  0  0  0  0  0
   11.2280   12.9135   17.5669 C   0  0  0  0  0  0  0  0  0  0  0  0
   12.3782    5.4231   20.7777 C   0  0  0  0  0  0  0  0  0  0  0  0
    7.7365    4.6508   21.6987 C   0  0  0  0  0  0  0  0  0  0  0  0
   13.0186   11.0102   18.0020 C   0  0  0  0  0  0  0  0  0  0  0  0
    8.6628    5.7088   21.8871 N   0  0  0  0  0  0  0  0  0  0  0  0
    5.6516    3.5258   21.9140 C   0  0  0  0  0  0  0  0  0  0  0  0
   11.5863    9.6815   19.4539 C   0  0  0  0  0  0  0  0  0  0  0  0
   12.9648    4.1543   20.9205 C   0  0  0  0  0  0  0  0  0  0  0  0
    8.2089    3.6265   20.8929 C   0  0  0  0  0  0  0  0  0  0  0  0
    7.3827    2.5724   20.5432 C   0  0  0  0  0  0  0  0  0  0  0  0
   11.1529    7.2750   20.8025 C   0  0  0  0  0  0  0  0  0  0  0  0
   10.2573    8.3215   20.9827 C   0  0  0  0  0  0  0  0  0  0  0  0
   11.1606    5.9378   21.2366 N   0  0  0  0  0  0  0  0  0  0  0  0
    9.8932   11.6736   19.0677 O   0  0  0  0  0  0  0  0  0  0  0  0
    6.4470    4.5850   22.2321 C   0  0  0  0  0  0  0  0  0  0  0  0
    8.4619    6.9895   22.2968 C   0  0  0  0  0  0  0  0  0  0  0  0
   12.2747    7.5102   20.0420 C   0  0  0  0  0  0  0  0  0  0  0  0
   14.2544    6.2142   19.4191 C   0  0  0  0  0  0  0  0  0  0  0  0
   13.0695    6.3705   20.0375 N   0  0  0  0  0  0  0  0  0  0  0  0
    9.1913    8.0876   21.8361 N   0  0  0  0  0  0  0  0  0  0  0  0
   10.4739    9.4813   20.2889 C   0  0  0  0  0  0  0  0  0  0  0  0
    7.5551    7.1270   23.1200 O   0  0  0  0  0  0  0  0  0  0  0  0
  1 11  4  0
  1 21  4  0
  2  4  1  0
  2  8  1  0
  2 11  1  0
  3 10  4  0
  3 14  4  0
  4  5  1  0
  4 18  2  0
  6 12  1  0
  6 17  4  0
  6 23  4  0
  7  9  1  0
  7 13  4  0
  7 19  4  0
  9 20  1  0
 10 19  4  0
 11 25  4  0
 13 14  4  0
 15 16  4  0
 15 17  4  0
 15 21  4  0
 16 24  1  0
 16 25  4  0
 20 24  1  0
 20 26  2  0
 21 23  4  0
 22 23  1  0
M  END
$$$$

 Created by Python create_sdf_string function

 26 28  0  0  0  0  0  0  0  0999 V2000
   12.4616    8.6700   19.4180 N   0  0  0  0  0  0  0  0  0  0  0  0
   11.8329   10.8148   18.6769 N   0  0  0  0  0  0  0  0  0  0  0  0
    6.1021    2.5564   21.0678 C   0  0  0  0  0  0  0  0  0  0  0  0
   10.9097   11.8051   18.4804 C   0  0  0  0  0  0  0  0  0  0  0  0
   11.2280   12.9135   17.5669 C   0  0  0  0  0  0  0  0  0  0  0  0
   12.3782    5.4231   20.7777 C   0  0  0  0  0  0  0  0  0  0  0  0
    7.7365    4.6508   21.6987 C   0  0  0  0  0  0  0  0  0  0  0  0
   13.0186   11.0102   18.0020 C   0  0  0  0  0  0  0  0  0  0  0  0
    8.6628    5.7088   21.8871 N   0  0  0  0  0  0  0  0  0  0  0  0
    5.6516    3.5258   21.9140 C   0  0  0  0  0  0  0  0  0  0  0  0
   11.5863    9.6815   19.4539 C   0  0  0  0  0  0  0  0  0  0  0  0
   12.9648    4.1543   20.9205 C   0  0  0  0  0  0  0  0  0  0  0  0
    8.2089    3.6265   20.8929 C   0  0  0  0  0  0  0  0  0  0  0  0
    7.3827    2.5724   20.5432 C   0  0  0  0  0  0  0  0  0  0  0  0
   11.1529    7.2750   20.8025 C   0  0  0  0  0  0  0  0  0  0  0  0
   10.2573    8.3215   20.9827 C   0  0  0  0  0  0  0  0  0  0  0  0
   11.1606    5.9378   21.2366 N   0  0  0  0  0  0  0  0  0  0  0  0
    9.8932   11.6736   19.0677 O   0  0  0  0  0  0  0  0  0  0  0  0
    6.4470    4.5850   22.2321 C   0  0  0  0  0  0  0  0  0  0  0  0
    8.4619    6.9895   22.2968 C   0  0  0  0  0  0  0  0  0  0  0  0
   12.2747    7.5102   20.0420 C   0  0  0  0  0  0  0  0  0  0  0  0
   14.2544    6.2142   19.4191 C   0  0  0  0  0  0  0  0  0  0  0  0
   13.0695    6.3705   20.0375 N   0  0  0  0  0  0  0  0  0  0  0  0
    9.1913    8.0876   21.8361 N   0  0  0  0  0  0  0  0  0  0  0  0
   10.4739    9.4813   20.2889 C   0  0  0  0  0  0  0  0  0  0  0  0
    7.5551    7.1270   23.1200 O   0  0  0  0  0  0  0  0  0  0  0  0
  1 11  4  0
  1 21  4  0
  2  4  1  0
  2  8  1  0
  2 11  1  0
  3 10  4  0
  3 14  4  0
  4  5  1  0
  4 18  2  0
  6 12  1  0
  6 17  4  0
  6 23  4  0
  7  9  1  0
  7 13  4  0
  7 19  4  0
  9 20  1  0
 10 19  4  0
 11 25  4  0
 13 14  4  0
 15 16  4  0
 15 17  4  0
 15 21  4  0
 16 24  1  0
 16 25  4  0
 20 24  1  0
 20 26  2  0
 21 23  4  0
 22 23  1  0
M  END
$$$$

 Created by Python create_sdf_string function

 26 28  0  0  0  0  0  0  0  0999 V2000
   12.4616    8.6700   19.4180 N   0  0  0  0  0  0  0  0  0  0  0  0
   11.8329   10.8148   18.6769 N   0  0  0  0  0  0  0  0  0  0  0  0
    6.1021    2.5564   21.0678 C   0  0  0  0  0  0  0  0  0  0  0  0
   10.9097   11.8051   18.4804 C   0  0  0  0  0  0  0  0  0  0  0  0
   11.2280   12.9135   17.5669 C   0  0  0  0  0  0  0  0  0  0  0  0
   12.3782    5.4231   20.7777 C   0  0  0  0  0  0  0  0  0  0  0  0
    7.7365    4.6508   21.6987 C   0  0  0  0  0  0  0  0  0  0  0  0
   13.0186   11.0102   18.0020 C   0  0  0  0  0  0  0  0  0  0  0  0
    8.6628    5.7088   21.8871 N   0  0  0  0  0  0  0  0  0  0  0  0
    5.6516    3.5258   21.9140 C   0  0  0  0  0  0  0  0  0  0  0  0
   11.5863    9.6815   19.4539 C   0  0  0  0  0  0  0  0  0  0  0  0
   12.9648    4.1543   20.9205 C   0  0  0  0  0  0  0  0  0  0  0  0
    8.2089    3.6265   20.8929 C   0  0  0  0  0  0  0  0  0  0  0  0
    7.3827    2.5724   20.5432 C   0  0  0  0  0  0  0  0  0  0  0  0
   11.1529    7.2750   20.8025 C   0  0  0  0  0  0  0  0  0  0  0  0
   10.2573    8.3215   20.9827 C   0  0  0  0  0  0  0  0  0  0  0  0
   11.1606    5.9378   21.2366 N   0  0  0  0  0  0  0  0  0  0  0  0
    9.8932   11.6736   19.0677 O   0  0  0  0  0  0  0  0  0  0  0  0
    6.4470    4.5850   22.2321 C   0  0  0  0  0  0  0  0  0  0  0  0
    8.4619    6.9895   22.2968 C   0  0  0  0  0  0  0  0  0  0  0  0
   12.2747    7.5102   20.0420 C   0  0  0  0  0  0  0  0  0  0  0  0
   14.2544    6.2142   19.4191 C   0  0  0  0  0  0  0  0  0  0  0  0
   13.0695    6.3705   20.0375 N   0  0  0  0  0  0  0  0  0  0  0  0
    9.1913    8.0876   21.8361 N   0  0  0  0  0  0  0  0  0  0  0  0
   10.4739    9.4813   20.2889 C   0  0  0  0  0  0  0  0  0  0  0  0
    7.5551    7.1270   23.1200 O   0  0  0  0  0  0  0  0  0  0  0  0
  1 11  4  0
  1 21  4  0
  2  4  1  0
  2  8  1  0
  2 11  1  0
  3 10  4  0
  3 14  4  0
  4  5  1  0
  4 18  2  0
  6 12  1  0
  6 17  4  0
  6 23  4  0
  7  9  1  0
  7 13  4  0
  7 19  4  0
  9 20  1  0
 10 19  4  0
 11 25  4  0
 13 14  4  0
 15 16  4  0
 15 17  4  0
 15 21  4  0
 16 24  1  0
 16 25  4  0
 20 24  1  0
 20 26  2  0
 21 23  4  0
 22 23  1  0
M  END
$$$$

 Created by Python create_sdf_string function

 26 28  0  0  0  0  0  0  0  0999 V2000
   12.4616    8.6700   19.4180 N   0  0  0  0  0  0  0  0  0  0  0  0
   11.8329   10.8148   18.6769 N   0  0  0  0  0  0  0  0  0  0  0  0
    6.1021    2.5564   21.0678 C   0  0  0  0  0  0  0  0  0  0  0  0
   10.9097   11.8051   18.4804 C   0  0  0  0  0  0  0  0  0  0  0  0
   11.2280   12.9135   17.5669 C   0  0  0  0  0  0  0  0  0  0  0  0
   12.3782    5.4231   20.7777 C   0  0  0  0  0  0  0  0  0  0  0  0
    7.7365    4.6508   21.6987 C   0  0  0  0  0  0  0  0  0  0  0  0
   13.0186   11.0102   18.0020 C   0  0  0  0  0  0  0  0  0  0  0  0
    8.6628    5.7088   21.8871 N   0  0  0  0  0  0  0  0  0  0  0  0
    5.6516    3.5258   21.9140 C   0  0  0  0  0  0  0  0  0  0  0  0
   11.5863    9.6815   19.4539 C   0  0  0  0  0  0  0  0  0  0  0  0
   12.9648    4.1543   20.9205 C   0  0  0  0  0  0  0  0  0  0  0  0
    8.2089    3.6265   20.8929 C   0  0  0  0  0  0  0  0  0  0  0  0
    7.3827    2.5724   20.5432 C   0  0  0  0  0  0  0  0  0  0  0  0
   11.1529    7.2750   20.8025 C   0  0  0  0  0  0  0  0  0  0  0  0
   10.2573    8.3215   20.9827 C   0  0  0  0  0  0  0  0  0  0  0  0
   11.1606    5.9378   21.2366 N   0  0  0  0  0  0  0  0  0  0  0  0
    9.8932   11.6736   19.0677 O   0  0  0  0  0  0  0  0  0  0  0  0
    6.4470    4.5850   22.2321 C   0  0  0  0  0  0  0  0  0  0  0  0
    8.4619    6.9895   22.2968 C   0  0  0  0  0  0  0  0  0  0  0  0
   12.2747    7.5102   20.0420 C   0  0  0  0  0  0  0  0  0  0  0  0
   14.2544    6.2142   19.4191 C   0  0  0  0  0  0  0  0  0  0  0  0
   13.0695    6.3705   20.0375 N   0  0  0  0  0  0  0  0  0  0  0  0
    9.1913    8.0876   21.8361 N   0  0  0  0  0  0  0  0  0  0  0  0
   10.4739    9.4813   20.2889 C   0  0  0  0  0  0  0  0  0  0  0  0
    7.5551    7.1270   23.1200 O   0  0  0  0  0  0  0  0  0  0  0  0
  1 11  4  0
  1 21  4  0
  2  4  1  0
  2  8  1  0
  2 11  1  0
  3 10  4  0
  3 14  4  0
  4  5  1  0
  4 18  2  0
  6 12  1  0
  6 17  4  0
  6 23  4  0
  7  9  1  0
  7 13  4  0
  7 19  4  0
  9 20  1  0
 10 19  4  0
 11 25  4  0
 13 14  4  0
 15 16  4  0
 15 17  4  0
 15 21  4  0
 16 24  1  0
 16 25  4  0
 20 24  1  0
 20 26  2  0
 21 23  4  0
 22 23  1  0
M  END
$$$$

 Created by Python create_sdf_string function

 26 28  0  0  0  0  0  0  0  0999 V2000
   12.4616    8.6700   19.4180 N   0  0  0  0  0  0  0  0  0  0  0  0
   11.8329   10.8148   18.6769 N   0  0  0  0  0  0  0  0  0  0  0  0
    6.1021    2.5564   21.0678 C   0  0  0  0  0  0  0  0  0  0  0  0
   10.9097   11.8051   18.4804 C   0  0  0  0  0  0  0  0  0  0  0  0
   11.2280   12.9135   17.5669 C   0  0  0  0  0  0  0  0  0  0  0  0
   12.3782    5.4231   20.7777 C   0  0  0  0  0  0  0  0  0  0  0  0
    7.7365    4.6508   21.6987 C   0  0  0  0  0  0  0  0  0  0  0  0
   13.0186   11.0102   18.0020 C   0  0  0  0  0  0  0  0  0  0  0  0
    8.6628    5.7088   21.8871 N   0  0  0  0  0  0  0  0  0  0  0  0
    5.6516    3.5258   21.9140 C   0  0  0  0  0  0  0  0  0  0  0  0
   11.5863    9.6815   19.4539 C   0  0  0  0  0  0  0  0  0  0  0  0
   12.9648    4.1543   20.9205 C   0  0  0  0  0  0  0  0  0  0  0  0
    8.2089    3.6265   20.8929 C   0  0  0  0  0  0  0  0  0  0  0  0
    7.3827    2.5724   20.5432 C   0  0  0  0  0  0  0  0  0  0  0  0
   11.1529    7.2750   20.8025 C   0  0  0  0  0  0  0  0  0  0  0  0
   10.2573    8.3215   20.9827 C   0  0  0  0  0  0  0  0  0  0  0  0
   11.1606    5.9378   21.2366 N   0  0  0  0  0  0  0  0  0  0  0  0
    9.8932   11.6736   19.0677 O   0  0  0  0  0  0  0  0  0  0  0  0
    6.4470    4.5850   22.2321 C   0  0  0  0  0  0  0  0  0  0  0  0
    8.4619    6.9895   22.2968 C   0  0  0  0  0  0  0  0  0  0  0  0
   12.2747    7.5102   20.0420 C   0  0  0  0  0  0  0  0  0  0  0  0
   14.2544    6.2142   19.4191 C   0  0  0  0  0  0  0  0  0  0  0  0
   13.0695    6.3705   20.0375 N   0  0  0  0  0  0  0  0  0  0  0  0
    9.1913    8.0876   21.8361 N   0  0  0  0  0  0  0  0  0  0  0  0
   10.4739    9.4813   20.2889 C   0  0  0  0  0  0  0  0  0  0  0  0
    7.5551    7.1270   23.1200 O   0  0  0  0  0  0  0  0  0  0  0  0
  1 11  4  0
  1 21  4  0
  2  4  1  0
  2  8  1  0
  2 11  1  0
  3 10  4  0
  3 14  4  0
  4  5  1  0
  4 18  2  0
  6 12  1  0
  6 17  4  0
  6 23  4  0
  7  9  1  0
  7 13  4  0
  7 19  4  0
  9 20  1  0
 10 19  4  0
 11 25  4  0
 13 14  4  0
 15 16  4  0
 15 17  4  0
 15 21  4  0
 16 24  1  0
 16 25  4  0
 20 24  1  0
 20 26  2  0
 21 23  4  0
 22 23  1  0
M  END
$$$$

 Created by Python create_sdf_string function

 26 28  0  0  0  0  0  0  0  0999 V2000
   12.4616    8.6700   19.4180 N   0  0  0  0  0  0  0  0  0  0  0  0
   11.8329   10.8148   18.6769 N   0  0  0  0  0  0  0  0  0  0  0  0
    6.1021    2.5564   21.0678 C   0  0  0  0  0  0  0  0  0  0  0  0
   10.9097   11.8051   18.4804 C   0  0  0  0  0  0  0  0  0  0  0  0
   11.2280   12.9135   17.5669 C   0  0  0  0  0  0  0  0  0  0  0  0
   12.3782    5.4231   20.7777 C   0  0  0  0  0  0  0  0  0  0  0  0
    7.7365    4.6508   21.6987 C   0  0  0  0  0  0  0  0  0  0  0  0
   13.0186   11.0102   18.0020 C   0  0  0  0  0  0  0  0  0  0  0  0
    8.6628    5.7088   21.8871 N   0  0  0  0  0  0  0  0  0  0  0  0
    5.6516    3.5258   21.9140 C   0  0  0  0  0  0  0  0  0  0  0  0
   11.5863    9.6815   19.4539 C   0  0  0  0  0  0  0  0  0  0  0  0
   12.9648    4.1543   20.9205 C   0  0  0  0  0  0  0  0  0  0  0  0
    8.2089    3.6265   20.8929 C   0  0  0  0  0  0  0  0  0  0  0  0
    7.3827    2.5724   20.5432 C   0  0  0  0  0  0  0  0  0  0  0  0
   11.1529    7.2750   20.8025 C   0  0  0  0  0  0  0  0  0  0  0  0
   10.2573    8.3215   20.9827 C   0  0  0  0  0  0  0  0  0  0  0  0
   11.1606    5.9378   21.2366 N   0  0  0  0  0  0  0  0  0  0  0  0
    9.8932   11.6736   19.0677 O   0  0  0  0  0  0  0  0  0  0  0  0
    6.4470    4.5850   22.2321 C   0  0  0  0  0  0  0  0  0  0  0  0
    8.4619    6.9895   22.2968 C   0  0  0  0  0  0  0  0  0  0  0  0
   12.2747    7.5102   20.0420 C   0  0  0  0  0  0  0  0  0  0  0  0
   14.2544    6.2142   19.4191 C   0  0  0  0  0  0  0  0  0  0  0  0
   13.0695    6.3705   20.0375 N   0  0  0  0  0  0  0  0  0  0  0  0
    9.1913    8.0876   21.8361 N   0  0  0  0  0  0  0  0  0  0  0  0
   10.4739    9.4813   20.2889 C   0  0  0  0  0  0  0  0  0  0  0  0
    7.5551    7.1270   23.1200 O   0  0  0  0  0  0  0  0  0  0  0  0
  1 11  4  0
  1 21  4  0
  2  4  1  0
  2  8  1  0
  2 11  1  0
  3 10  4  0
  3 14  4  0
  4  5  1  0
  4 18  2  0
  6 12  1  0
  6 17  4  0
  6 23  4  0
  7  9  1  0
  7 13  4  0
  7 19  4  0
  9 20  1  0
 10 19  4  0
 11 25  4  0
 13 14  4  0
 15 16  4  0
 15 17  4  0
 15 21  4  0
 16 24  1  0
 16 25  4  0
 20 24  1  0
 20 26  2  0
 21 23  4  0
 22 23  1  0
M  END
$$$$

 Created by Python create_sdf_string function

 26 28  0  0  0  0  0  0  0  0999 V2000
   12.4616    8.6700   19.4180 N   0  0  0  0  0  0  0  0  0  0  0  0
   11.8329   10.8148   18.6769 N   0  0  0  0  0  0  0  0  0  0  0  0
    6.1021    2.5564   21.0678 C   0  0  0  0  0  0  0  0  0  0  0  0
   10.9097   11.8051   18.4804 C   0  0  0  0  0  0  0  0  0  0  0  0
   11.2280   12.9135   17.5669 C   0  0  0  0  0  0  0  0  0  0  0  0
   12.3782    5.4231   20.7777 C   0  0  0  0  0  0  0  0  0  0  0  0
    7.7365    4.6508   21.6987 C   0  0  0  0  0  0  0  0  0  0  0  0
   13.0186   11.0102   18.0020 C   0  0  0  0  0  0  0  0  0  0  0  0
    8.6628    5.7088   21.8871 N   0  0  0  0  0  0  0  0  0  0  0  0
    5.6516    3.5258   21.9140 C   0  0  0  0  0  0  0  0  0  0  0  0
   11.5863    9.6815   19.4539 C   0  0  0  0  0  0  0  0  0  0  0  0
   12.9648    4.1543   20.9205 C   0  0  0  0  0  0  0  0  0  0  0  0
    8.2089    3.6265   20.8929 C   0  0  0  0  0  0  0  0  0  0  0  0
    7.3827    2.5724   20.5432 C   0  0  0  0  0  0  0  0  0  0  0  0
   11.1529    7.2750   20.8025 C   0  0  0  0  0  0  0  0  0  0  0  0
   10.2573    8.3215   20.9827 C   0  0  0  0  0  0  0  0  0  0  0  0
   11.1606    5.9378   21.2366 N   0  0  0  0  0  0  0  0  0  0  0  0
    9.8932   11.6736   19.0677 O   0  0  0  0  0  0  0  0  0  0  0  0
    6.4470    4.5850   22.2321 C   0  0  0  0  0  0  0  0  0  0  0  0
    8.4619    6.9895   22.2968 C   0  0  0  0  0  0  0  0  0  0  0  0
   12.2747    7.5102   20.0420 C   0  0  0  0  0  0  0  0  0  0  0  0
   14.2544    6.2142   19.4191 C   0  0  0  0  0  0  0  0  0  0  0  0
   13.0695    6.3705   20.0375 N   0  0  0  0  0  0  0  0  0  0  0  0
    9.1913    8.0876   21.8361 N   0  0  0  0  0  0  0  0  0  0  0  0
   10.4739    9.4813   20.2889 C   0  0  0  0  0  0  0  0  0  0  0  0
    7.5551    7.1270   23.1200 O   0  0  0  0  0  0  0  0  0  0  0  0
  1 11  4  0
  1 21  4  0
  2  4  1  0
  2  8  1  0
  2 11  1  0
  3 10  4  0
  3 14  4  0
  4  5  1  0
  4 18  2  0
  6 12  1  0
  6 17  4  0
  6 23  4  0
  7  9  1  0
  7 13  4  0
  7 19  4  0
  9 20  1  0
 10 19  4  0
 11 25  4  0
 13 14  4  0
 15 16  4  0
 15 17  4  0
 15 21  4  0
 16 24  1  0
 16 25  4  0
 20 24  1  0
 20 26  2  0
 21 23  4  0
 22 23  1  0
M  END
$$$$

 Created by Python create_sdf_string function

 26 28  0  0  0  0  0  0  0  0999 V2000
   12.4616    8.6700   19.4180 N   0  0  0  0  0  0  0  0  0  0  0  0
   11.8329   10.8148   18.6769 N   0  0  0  0  0  0  0  0  0  0  0  0
    6.1021    2.5564   21.0678 C   0  0  0  0  0  0  0  0  0  0  0  0
   10.9097   11.8051   18.4804 C   0  0  0  0  0  0  0  0  0  0  0  0
   11.2280   12.9135   17.5669 C   0  0  0  0  0  0  0  0  0  0  0  0
   12.3782    5.4231   20.7777 C   0  0  0  0  0  0  0  0  0  0  0  0
    7.7365    4.6508   21.6987 C   0  0  0  0  0  0  0  0  0  0  0  0
   13.0186   11.0102   18.0020 C   0  0  0  0  0  0  0  0  0  0  0  0
    8.6628    5.7088   21.8871 N   0  0  0  0  0  0  0  0  0  0  0  0
    5.6516    3.5258   21.9140 C   0  0  0  0  0  0  0  0  0  0  0  0
   11.5863    9.6815   19.4539 C   0  0  0  0  0  0  0  0  0  0  0  0
   12.9648    4.1543   20.9205 C   0  0  0  0  0  0  0  0  0  0  0  0
    8.2089    3.6265   20.8929 C   0  0  0  0  0  0  0  0  0  0  0  0
    7.3827    2.5724   20.5432 C   0  0  0  0  0  0  0  0  0  0  0  0
   11.1529    7.2750   20.8025 C   0  0  0  0  0  0  0  0  0  0  0  0
   10.2573    8.3215   20.9827 C   0  0  0  0  0  0  0  0  0  0  0  0
   11.1606    5.9378   21.2366 N   0  0  0  0  0  0  0  0  0  0  0  0
    9.8932   11.6736   19.0677 O   0  0  0  0  0  0  0  0  0  0  0  0
    6.4470    4.5850   22.2321 C   0  0  0  0  0  0  0  0  0  0  0  0
    8.4619    6.9895   22.2968 C   0  0  0  0  0  0  0  0  0  0  0  0
   12.2747    7.5102   20.0420 C   0  0  0  0  0  0  0  0  0  0  0  0
   14.2544    6.2142   19.4191 C   0  0  0  0  0  0  0  0  0  0  0  0
   13.0695    6.3705   20.0375 N   0  0  0  0  0  0  0  0  0  0  0  0
    9.1913    8.0876   21.8361 N   0  0  0  0  0  0  0  0  0  0  0  0
   10.4739    9.4813   20.2889 C   0  0  0  0  0  0  0  0  0  0  0  0
    7.5551    7.1270   23.1200 O   0  0  0  0  0  0  0  0  0  0  0  0
  1 11  4  0
  1 21  4  0
  2  4  1  0
  2  8  1  0
  2 11  1  0
  3 10  4  0
  3 14  4  0
  4  5  1  0
  4 18  2  0
  6 12  1  0
  6 17  4  0
  6 23  4  0
  7  9  1  0
  7 13  4  0
  7 19  4  0
  9 20  1  0
 10 19  4  0
 11 25  4  0
 13 14  4  0
 15 16  4  0
 15 17  4  0
 15 21  4  0
 16 24  1  0
 16 25  4  0
 20 24  1  0
 20 26  2  0
 21 23  4  0
 22 23  1  0
M  END
$$$$

 Created by Python create_sdf_string function

 26 28  0  0  0  0  0  0  0  0999 V2000
   12.4616    8.6700   19.4180 N   0  0  0  0  0  0  0  0  0  0  0  0
   11.8329   10.8148   18.6769 N   0  0  0  0  0  0  0  0  0  0  0  0
    6.1021    2.5564   21.0678 C   0  0  0  0  0  0  0  0  0  0  0  0
   10.9097   11.8051   18.4804 C   0  0  0  0  0  0  0  0  0  0  0  0
   11.2280   12.9135   17.5669 C   0  0  0  0  0  0  0  0  0  0  0  0
   12.3782    5.4231   20.7777 C   0  0  0  0  0  0  0  0  0  0  0  0
    7.7365    4.6508   21.6987 C   0  0  0  0  0  0  0  0  0  0  0  0
   13.0186   11.0102   18.0020 C   0  0  0  0  0  0  0  0  0  0  0  0
    8.6628    5.7088   21.8871 N   0  0  0  0  0  0  0  0  0  0  0  0
    5.6516    3.5258   21.9140 C   0  0  0  0  0  0  0  0  0  0  0  0
   11.5863    9.6815   19.4539 C   0  0  0  0  0  0  0  0  0  0  0  0
   12.9648    4.1543   20.9205 C   0  0  0  0  0  0  0  0  0  0  0  0
    8.2089    3.6265   20.8929 C   0  0  0  0  0  0  0  0  0  0  0  0
    7.3827    2.5724   20.5432 C   0  0  0  0  0  0  0  0  0  0  0  0
   11.1529    7.2750   20.8025 C   0  0  0  0  0  0  0  0  0  0  0  0
   10.2573    8.3215   20.9827 C   0  0  0  0  0  0  0  0  0  0  0  0
   11.1606    5.9378   21.2366 N   0  0  0  0  0  0  0  0  0  0  0  0
    9.8932   11.6736   19.0677 O   0  0  0  0  0  0  0  0  0  0  0  0
    6.4470    4.5850   22.2321 C   0  0  0  0  0  0  0  0  0  0  0  0
    8.4619    6.9895   22.2968 C   0  0  0  0  0  0  0  0  0  0  0  0
   12.2747    7.5102   20.0420 C   0  0  0  0  0  0  0  0  0  0  0  0
   14.2544    6.2142   19.4191 C   0  0  0  0  0  0  0  0  0  0  0  0
   13.0695    6.3705   20.0375 N   0  0  0  0  0  0  0  0  0  0  0  0
    9.1913    8.0876   21.8361 N   0  0  0  0  0  0  0  0  0  0  0  0
   10.4739    9.4813   20.2889 C   0  0  0  0  0  0  0  0  0  0  0  0
    7.5551    7.1270   23.1200 O   0  0  0  0  0  0  0  0  0  0  0  0
  1 11  4  0
  1 21  4  0
  2  4  1  0
  2  8  1  0
  2 11  1  0
  3 10  4  0
  3 14  4  0
  4  5  1  0
  4 18  2  0
  6 12  1  0
  6 17  4  0
  6 23  4  0
  7  9  1  0
  7 13  4  0
  7 19  4  0
  9 20  1  0
 10 19  4  0
 11 25  4  0
 13 14  4  0
 15 16  4  0
 15 17  4  0
 15 21  4  0
 16 24  1  0
 16 25  4  0
 20 24  1  0
 20 26  2  0
 21 23  4  0
 22 23  1  0
M  END
$$$$

 Created by Python create_sdf_string function

 26 28  0  0  0  0  0  0  0  0999 V2000
   12.4616    8.6700   19.4180 N   0  0  0  0  0  0  0  0  0  0  0  0
   11.8329   10.8148   18.6769 N   0  0  0  0  0  0  0  0  0  0  0  0
    6.1021    2.5564   21.0678 C   0  0  0  0  0  0  0  0  0  0  0  0
   10.9097   11.8051   18.4804 C   0  0  0  0  0  0  0  0  0  0  0  0
   11.2280   12.9135   17.5669 C   0  0  0  0  0  0  0  0  0  0  0  0
   12.3782    5.4231   20.7777 C   0  0  0  0  0  0  0  0  0  0  0  0
    7.7365    4.6508   21.6987 C   0  0  0  0  0  0  0  0  0  0  0  0
   13.0186   11.0102   18.0020 C   0  0  0  0  0  0  0  0  0  0  0  0
    8.6628    5.7088   21.8871 N   0  0  0  0  0  0  0  0  0  0  0  0
    5.6516    3.5258   21.9140 C   0  0  0  0  0  0  0  0  0  0  0  0
   11.5863    9.6815   19.4539 C   0  0  0  0  0  0  0  0  0  0  0  0
   12.9648    4.1543   20.9205 C   0  0  0  0  0  0  0  0  0  0  0  0
    8.2089    3.6265   20.8929 C   0  0  0  0  0  0  0  0  0  0  0  0
    7.3827    2.5724   20.5432 C   0  0  0  0  0  0  0  0  0  0  0  0
   11.1529    7.2750   20.8025 C   0  0  0  0  0  0  0  0  0  0  0  0
   10.2573    8.3215   20.9827 C   0  0  0  0  0  0  0  0  0  0  0  0
   11.1606    5.9378   21.2366 N   0  0  0  0  0  0  0  0  0  0  0  0
    9.8932   11.6736   19.0677 O   0  0  0  0  0  0  0  0  0  0  0  0
    6.4470    4.5850   22.2321 C   0  0  0  0  0  0  0  0  0  0  0  0
    8.4619    6.9895   22.2968 C   0  0  0  0  0  0  0  0  0  0  0  0
   12.2747    7.5102   20.0420 C   0  0  0  0  0  0  0  0  0  0  0  0
   14.2544    6.2142   19.4191 C   0  0  0  0  0  0  0  0  0  0  0  0
   13.0695    6.3705   20.0375 N   0  0  0  0  0  0  0  0  0  0  0  0
    9.1913    8.0876   21.8361 N   0  0  0  0  0  0  0  0  0  0  0  0
   10.4739    9.4813   20.2889 C   0  0  0  0  0  0  0  0  0  0  0  0
    7.5551    7.1270   23.1200 O   0  0  0  0  0  0  0  0  0  0  0  0
  1 11  4  0
  1 21  4  0
  2  4  1  0
  2  8  1  0
  2 11  1  0
  3 10  4  0
  3 14  4  0
  4  5  1  0
  4 18  2  0
  6 12  1  0
  6 17  4  0
  6 23  4  0
  7  9  1  0
  7 13  4  0
  7 19  4  0
  9 20  1  0
 10 19  4  0
 11 25  4  0
 13 14  4  0
 15 16  4  0
 15 17  4  0
 15 21  4  0
 16 24  1  0
 16 25  4  0
 20 24  1  0
 20 26  2  0
 21 23  4  0
 22 23  1  0
M  END
$$$$

 Created by Python create_sdf_string function

 26 28  0  0  0  0  0  0  0  0999 V2000
   12.4616    8.6700   19.4180 N   0  0  0  0  0  0  0  0  0  0  0  0
   11.8329   10.8148   18.6769 N   0  0  0  0  0  0  0  0  0  0  0  0
    6.1021    2.5564   21.0678 C   0  0  0  0  0  0  0  0  0  0  0  0
   10.9097   11.8051   18.4804 C   0  0  0  0  0  0  0  0  0  0  0  0
   11.2280   12.9135   17.5669 C   0  0  0  0  0  0  0  0  0  0  0  0
   12.3782    5.4231   20.7777 C   0  0  0  0  0  0  0  0  0  0  0  0
    7.7365    4.6508   21.6987 C   0  0  0  0  0  0  0  0  0  0  0  0
   13.0186   11.0102   18.0020 C   0  0  0  0  0  0  0  0  0  0  0  0
    8.6628    5.7088   21.8871 N   0  0  0  0  0  0  0  0  0  0  0  0
    5.6516    3.5258   21.9140 C   0  0  0  0  0  0  0  0  0  0  0  0
   11.5863    9.6815   19.4539 C   0  0  0  0  0  0  0  0  0  0  0  0
   12.9648    4.1543   20.9205 C   0  0  0  0  0  0  0  0  0  0  0  0
    8.2089    3.6265   20.8929 C   0  0  0  0  0  0  0  0  0  0  0  0
    7.3827    2.5724   20.5432 C   0  0  0  0  0  0  0  0  0  0  0  0
   11.1529    7.2750   20.8025 C   0  0  0  0  0  0  0  0  0  0  0  0
   10.2573    8.3215   20.9827 C   0  0  0  0  0  0  0  0  0  0  0  0
   11.1606    5.9378   21.2366 N   0  0  0  0  0  0  0  0  0  0  0  0
    9.8932   11.6736   19.0677 O   0  0  0  0  0  0  0  0  0  0  0  0
    6.4470    4.5850   22.2321 C   0  0  0  0  0  0  0  0  0  0  0  0
    8.4619    6.9895   22.2968 C   0  0  0  0  0  0  0  0  0  0  0  0
   12.2747    7.5102   20.0420 C   0  0  0  0  0  0  0  0  0  0  0  0
   14.2544    6.2142   19.4191 C   0  0  0  0  0  0  0  0  0  0  0  0
   13.0695    6.3705   20.0375 N   0  0  0  0  0  0  0  0  0  0  0  0
    9.1913    8.0876   21.8361 N   0  0  0  0  0  0  0  0  0  0  0  0
   10.4739    9.4813   20.2889 C   0  0  0  0  0  0  0  0  0  0  0  0
    7.5551    7.1270   23.1200 O   0  0  0  0  0  0  0  0  0  0  0  0
  1 11  4  0
  1 21  4  0
  2  4  1  0
  2  8  1  0
  2 11  1  0
  3 10  4  0
  3 14  4  0
  4  5  1  0
  4 18  2  0
  6 12  1  0
  6 17  4  0
  6 23  4  0
  7  9  1  0
  7 13  4  0
  7 19  4  0
  9 20  1  0
 10 19  4  0
 11 25  4  0
 13 14  4  0
 15 16  4  0
 15 17  4  0
 15 21  4  0
 16 24  1  0
 16 25  4  0
 20 24  1  0
 20 26  2  0
 21 23  4  0
 22 23  1  0
M  END
$$$$

 Created by Python create_sdf_string function

 26 28  0  0  0  0  0  0  0  0999 V2000
   12.4616    8.6700   19.4180 N   0  0  0  0  0  0  0  0  0  0  0  0
   11.8329   10.8148   18.6769 N   0  0  0  0  0  0  0  0  0  0  0  0
    6.1021    2.5564   21.0678 C   0  0  0  0  0  0  0  0  0  0  0  0
   10.9097   11.8051   18.4804 C   0  0  0  0  0  0  0  0  0  0  0  0
   11.2280   12.9135   17.5669 C   0  0  0  0  0  0  0  0  0  0  0  0
   12.3782    5.4231   20.7777 C   0  0  0  0  0  0  0  0  0  0  0  0
    7.7365    4.6508   21.6987 C   0  0  0  0  0  0  0  0  0  0  0  0
   13.0186   11.0102   18.0020 C   0  0  0  0  0  0  0  0  0  0  0  0
    8.6628    5.7088   21.8871 N   0  0  0  0  0  0  0  0  0  0  0  0
    5.6516    3.5258   21.9140 C   0  0  0  0  0  0  0  0  0  0  0  0
   11.5863    9.6815   19.4539 C   0  0  0  0  0  0  0  0  0  0  0  0
   12.9648    4.1543   20.9205 C   0  0  0  0  0  0  0  0  0  0  0  0
    8.2089    3.6265   20.8929 C   0  0  0  0  0  0  0  0  0  0  0  0
    7.3827    2.5724   20.5432 C   0  0  0  0  0  0  0  0  0  0  0  0
   11.1529    7.2750   20.8025 C   0  0  0  0  0  0  0  0  0  0  0  0
   10.2573    8.3215   20.9827 C   0  0  0  0  0  0  0  0  0  0  0  0
   11.1606    5.9378   21.2366 N   0  0  0  0  0  0  0  0  0  0  0  0
    9.8932   11.6736   19.0677 O   0  0  0  0  0  0  0  0  0  0  0  0
    6.4470    4.5850   22.2321 C   0  0  0  0  0  0  0  0  0  0  0  0
    8.4619    6.9895   22.2968 C   0  0  0  0  0  0  0  0  0  0  0  0
   12.2747    7.5102   20.0420 C   0  0  0  0  0  0  0  0  0  0  0  0
   14.2544    6.2142   19.4191 C   0  0  0  0  0  0  0  0  0  0  0  0
   13.0695    6.3705   20.0375 N   0  0  0  0  0  0  0  0  0  0  0  0
    9.1913    8.0876   21.8361 N   0  0  0  0  0  0  0  0  0  0  0  0
   10.4739    9.4813   20.2889 C   0  0  0  0  0  0  0  0  0  0  0  0
    7.5551    7.1270   23.1200 O   0  0  0  0  0  0  0  0  0  0  0  0
  1 11  4  0
  1 21  4  0
  2  4  1  0
  2  8  1  0
  2 11  1  0
  3 10  4  0
  3 14  4  0
  4  5  1  0
  4 18  2  0
  6 12  1  0
  6 17  4  0
  6 23  4  0
  7  9  1  0
  7 13  4  0
  7 19  4  0
  9 20  1  0
 10 19  4  0
 11 25  4  0
 13 14  4  0
 15 16  4  0
 15 17  4  0
 15 21  4  0
 16 24  1  0
 16 25  4  0
 20 24  1  0
 20 26  2  0
 21 23  4  0
 22 23  1  0
M  END
$$$$

 Created by Python create_sdf_string function

 26 28  0  0  0  0  0  0  0  0999 V2000
   12.4616    8.6700   19.4180 N   0  0  0  0  0  0  0  0  0  0  0  0
   11.8329   10.8148   18.6769 N   0  0  0  0  0  0  0  0  0  0  0  0
    6.1021    2.5564   21.0678 C   0  0  0  0  0  0  0  0  0  0  0  0
   10.9097   11.8051   18.4804 C   0  0  0  0  0  0  0  0  0  0  0  0
   11.2280   12.9135   17.5669 C   0  0  0  0  0  0  0  0  0  0  0  0
   12.3782    5.4231   20.7777 C   0  0  0  0  0  0  0  0  0  0  0  0
    7.7365    4.6508   21.6987 C   0  0  0  0  0  0  0  0  0  0  0  0
   13.0186   11.0102   18.0020 C   0  0  0  0  0  0  0  0  0  0  0  0
    8.6628    5.7088   21.8871 N   0  0  0  0  0  0  0  0  0  0  0  0
    5.6516    3.5258   21.9140 C   0  0  0  0  0  0  0  0  0  0  0  0
   11.5863    9.6815   19.4539 C   0  0  0  0  0  0  0  0  0  0  0  0
   12.9648    4.1543   20.9205 C   0  0  0  0  0  0  0  0  0  0  0  0
    8.2089    3.6265   20.8929 C   0  0  0  0  0  0  0  0  0  0  0  0
    7.3827    2.5724   20.5432 C   0  0  0  0  0  0  0  0  0  0  0  0
   11.1529    7.2750   20.8025 C   0  0  0  0  0  0  0  0  0  0  0  0
   10.2573    8.3215   20.9827 C   0  0  0  0  0  0  0  0  0  0  0  0
   11.1606    5.9378   21.2366 N   0  0  0  0  0  0  0  0  0  0  0  0
    9.8932   11.6736   19.0677 O   0  0  0  0  0  0  0  0  0  0  0  0
    6.4470    4.5850   22.2321 C   0  0  0  0  0  0  0  0  0  0  0  0
    8.4619    6.9895   22.2968 C   0  0  0  0  0  0  0  0  0  0  0  0
   12.2747    7.5102   20.0420 C   0  0  0  0  0  0  0  0  0  0  0  0
   14.2544    6.2142   19.4191 C   0  0  0  0  0  0  0  0  0  0  0  0
   13.0695    6.3705   20.0375 N   0  0  0  0  0  0  0  0  0  0  0  0
    9.1913    8.0876   21.8361 N   0  0  0  0  0  0  0  0  0  0  0  0
   10.4739    9.4813   20.2889 C   0  0  0  0  0  0  0  0  0  0  0  0
    7.5551    7.1270   23.1200 O   0  0  0  0  0  0  0  0  0  0  0  0
  1 11  4  0
  1 21  4  0
  2  4  1  0
  2  8  1  0
  2 11  1  0
  3 10  4  0
  3 14  4  0
  4  5  1  0
  4 18  2  0
  6 12  1  0
  6 17  4  0
  6 23  4  0
  7  9  1  0
  7 13  4  0
  7 19  4  0
  9 20  1  0
 10 19  4  0
 11 25  4  0
 13 14  4  0
 15 16  4  0
 15 17  4  0
 15 21  4  0
 16 24  1  0
 16 25  4  0
 20 24  1  0
 20 26  2  0
 21 23  4  0
 22 23  1  0
M  END
$$$$

 Created by Python create_sdf_string function

 26 28  0  0  0  0  0  0  0  0999 V2000
   12.4616    8.6700   19.4180 N   0  0  0  0  0  0  0  0  0  0  0  0
   11.8329   10.8148   18.6769 N   0  0  0  0  0  0  0  0  0  0  0  0
    6.1021    2.5564   21.0678 C   0  0  0  0  0  0  0  0  0  0  0  0
   10.9097   11.8051   18.4804 C   0  0  0  0  0  0  0  0  0  0  0  0
   11.2280   12.9135   17.5669 C   0  0  0  0  0  0  0  0  0  0  0  0
   12.3782    5.4231   20.7777 C   0  0  0  0  0  0  0  0  0  0  0  0
    7.7365    4.6508   21.6987 C   0  0  0  0  0  0  0  0  0  0  0  0
   13.0186   11.0102   18.0020 C   0  0  0  0  0  0  0  0  0  0  0  0
    8.6628    5.7088   21.8871 N   0  0  0  0  0  0  0  0  0  0  0  0
    5.6516    3.5258   21.9140 C   0  0  0  0  0  0  0  0  0  0  0  0
   11.5863    9.6815   19.4539 C   0  0  0  0  0  0  0  0  0  0  0  0
   12.9648    4.1543   20.9205 C   0  0  0  0  0  0  0  0  0  0  0  0
    8.2089    3.6265   20.8929 C   0  0  0  0  0  0  0  0  0  0  0  0
    7.3827    2.5724   20.5432 C   0  0  0  0  0  0  0  0  0  0  0  0
   11.1529    7.2750   20.8025 C   0  0  0  0  0  0  0  0  0  0  0  0
   10.2573    8.3215   20.9827 C   0  0  0  0  0  0  0  0  0  0  0  0
   11.1606    5.9378   21.2366 N   0  0  0  0  0  0  0  0  0  0  0  0
    9.8932   11.6736   19.0677 O   0  0  0  0  0  0  0  0  0  0  0  0
    6.4470    4.5850   22.2321 C   0  0  0  0  0  0  0  0  0  0  0  0
    8.4619    6.9895   22.2968 C   0  0  0  0  0  0  0  0  0  0  0  0
   12.2747    7.5102   20.0420 C   0  0  0  0  0  0  0  0  0  0  0  0
   14.2544    6.2142   19.4191 C   0  0  0  0  0  0  0  0  0  0  0  0
   13.0695    6.3705   20.0375 N   0  0  0  0  0  0  0  0  0  0  0  0
    9.1913    8.0876   21.8361 N   0  0  0  0  0  0  0  0  0  0  0  0
   10.4739    9.4813   20.2889 C   0  0  0  0  0  0  0  0  0  0  0  0
    7.5551    7.1270   23.1200 O   0  0  0  0  0  0  0  0  0  0  0  0
  1 11  4  0
  1 21  4  0
  2  4  1  0
  2  8  1  0
  2 11  1  0
  3 10  4  0
  3 14  4  0
  4  5  1  0
  4 18  2  0
  6 12  1  0
  6 17  4  0
  6 23  4  0
  7  9  1  0
  7 13  4  0
  7 19  4  0
  9 20  1  0
 10 19  4  0
 11 25  4  0
 13 14  4  0
 15 16  4  0
 15 17  4  0
 15 21  4  0
 16 24  1  0
 16 25  4  0
 20 24  1  0
 20 26  2  0
 21 23  4  0
 22 23  1  0
M  END
$$$$

 Created by Python create_sdf_string function

 26 28  0  0  0  0  0  0  0  0999 V2000
   12.4616    8.6700   19.4180 N   0  0  0  0  0  0  0  0  0  0  0  0
   11.8329   10.8148   18.6769 N   0  0  0  0  0  0  0  0  0  0  0  0
    6.1021    2.5564   21.0678 C   0  0  0  0  0  0  0  0  0  0  0  0
   10.9097   11.8051   18.4804 C   0  0  0  0  0  0  0  0  0  0  0  0
   11.2280   12.9135   17.5669 C   0  0  0  0  0  0  0  0  0  0  0  0
   12.3782    5.4231   20.7777 C   0  0  0  0  0  0  0  0  0  0  0  0
    7.7365    4.6508   21.6987 C   0  0  0  0  0  0  0  0  0  0  0  0
   13.0186   11.0102   18.0020 C   0  0  0  0  0  0  0  0  0  0  0  0
    8.6628    5.7088   21.8871 N   0  0  0  0  0  0  0  0  0  0  0  0
    5.6516    3.5258   21.9140 C   0  0  0  0  0  0  0  0  0  0  0  0
   11.5863    9.6815   19.4539 C   0  0  0  0  0  0  0  0  0  0  0  0
   12.9648    4.1543   20.9205 C   0  0  0  0  0  0  0  0  0  0  0  0
    8.2089    3.6265   20.8929 C   0  0  0  0  0  0  0  0  0  0  0  0
    7.3827    2.5724   20.5432 C   0  0  0  0  0  0  0  0  0  0  0  0
   11.1529    7.2750   20.8025 C   0  0  0  0  0  0  0  0  0  0  0  0
   10.2573    8.3215   20.9827 C   0  0  0  0  0  0  0  0  0  0  0  0
   11.1606    5.9378   21.2366 N   0  0  0  0  0  0  0  0  0  0  0  0
    9.8932   11.6736   19.0677 O   0  0  0  0  0  0  0  0  0  0  0  0
    6.4470    4.5850   22.2321 C   0  0  0  0  0  0  0  0  0  0  0  0
    8.4619    6.9895   22.2968 C   0  0  0  0  0  0  0  0  0  0  0  0
   12.2747    7.5102   20.0420 C   0  0  0  0  0  0  0  0  0  0  0  0
   14.2544    6.2142   19.4191 C   0  0  0  0  0  0  0  0  0  0  0  0
   13.0695    6.3705   20.0375 N   0  0  0  0  0  0  0  0  0  0  0  0
    9.1913    8.0876   21.8361 N   0  0  0  0  0  0  0  0  0  0  0  0
   10.4739    9.4813   20.2889 C   0  0  0  0  0  0  0  0  0  0  0  0
    7.5551    7.1270   23.1200 O   0  0  0  0  0  0  0  0  0  0  0  0
  1 11  4  0
  1 21  4  0
  2  4  1  0
  2  8  1  0
  2 11  1  0
  3 10  4  0
  3 14  4  0
  4  5  1  0
  4 18  2  0
  6 12  1  0
  6 17  4  0
  6 23  4  0
  7  9  1  0
  7 13  4  0
  7 19  4  0
  9 20  1  0
 10 19  4  0
 11 25  4  0
 13 14  4  0
 15 16  4  0
 15 17  4  0
 15 21  4  0
 16 24  1  0
 16 25  4  0
 20 24  1  0
 20 26  2  0
 21 23  4  0
 22 23  1  0
M  END
$$$$

 Created by Python create_sdf_string function

 26 28  0  0  0  0  0  0  0  0999 V2000
   12.4616    8.6700   19.4180 N   0  0  0  0  0  0  0  0  0  0  0  0
   11.8329   10.8148   18.6769 N   0  0  0  0  0  0  0  0  0  0  0  0
    6.1021    2.5564   21.0678 C   0  0  0  0  0  0  0  0  0  0  0  0
   10.9097   11.8051   18.4804 C   0  0  0  0  0  0  0  0  0  0  0  0
   11.2280   12.9135   17.5669 C   0  0  0  0  0  0  0  0  0  0  0  0
   12.3782    5.4231   20.7777 C   0  0  0  0  0  0  0  0  0  0  0  0
    7.7365    4.6508   21.6987 C   0  0  0  0  0  0  0  0  0  0  0  0
   13.0186   11.0102   18.0020 C   0  0  0  0  0  0  0  0  0  0  0  0
    8.6628    5.7088   21.8871 N   0  0  0  0  0  0  0  0  0  0  0  0
    5.6516    3.5258   21.9140 C   0  0  0  0  0  0  0  0  0  0  0  0
   11.5863    9.6815   19.4539 C   0  0  0  0  0  0  0  0  0  0  0  0
   12.9648    4.1543   20.9205 C   0  0  0  0  0  0  0  0  0  0  0  0
    8.2089    3.6265   20.8929 C   0  0  0  0  0  0  0  0  0  0  0  0
    7.3827    2.5724   20.5432 C   0  0  0  0  0  0  0  0  0  0  0  0
   11.1529    7.2750   20.8025 C   0  0  0  0  0  0  0  0  0  0  0  0
   10.2573    8.3215   20.9827 C   0  0  0  0  0  0  0  0  0  0  0  0
   11.1606    5.9378   21.2366 N   0  0  0  0  0  0  0  0  0  0  0  0
    9.8932   11.6736   19.0677 O   0  0  0  0  0  0  0  0  0  0  0  0
    6.4470    4.5850   22.2321 C   0  0  0  0  0  0  0  0  0  0  0  0
    8.4619    6.9895   22.2968 C   0  0  0  0  0  0  0  0  0  0  0  0
   12.2747    7.5102   20.0420 C   0  0  0  0  0  0  0  0  0  0  0  0
   14.2544    6.2142   19.4191 C   0  0  0  0  0  0  0  0  0  0  0  0
   13.0695    6.3705   20.0375 N   0  0  0  0  0  0  0  0  0  0  0  0
    9.1913    8.0876   21.8361 N   0  0  0  0  0  0  0  0  0  0  0  0
   10.4739    9.4813   20.2889 C   0  0  0  0  0  0  0  0  0  0  0  0
    7.5551    7.1270   23.1200 O   0  0  0  0  0  0  0  0  0  0  0  0
  1 11  4  0
  1 21  4  0
  2  4  1  0
  2  8  1  0
  2 11  1  0
  3 10  4  0
  3 14  4  0
  4  5  1  0
  4 18  2  0
  6 12  1  0
  6 17  4  0
  6 23  4  0
  7  9  1  0
  7 13  4  0
  7 19  4  0
  9 20  1  0
 10 19  4  0
 11 25  4  0
 13 14  4  0
 15 16  4  0
 15 17  4  0
 15 21  4  0
 16 24  1  0
 16 25  4  0
 20 24  1  0
 20 26  2  0
 21 23  4  0
 22 23  1  0
M  END
$$$$

 Created by Python create_sdf_string function

 26 28  0  0  0  0  0  0  0  0999 V2000
   12.4616    8.6700   19.4180 N   0  0  0  0  0  0  0  0  0  0  0  0
   11.8329   10.8148   18.6769 N   0  0  0  0  0  0  0  0  0  0  0  0
    6.1021    2.5564   21.0678 C   0  0  0  0  0  0  0  0  0  0  0  0
   10.9097   11.8051   18.4804 C   0  0  0  0  0  0  0  0  0  0  0  0
   11.2280   12.9135   17.5669 C   0  0  0  0  0  0  0  0  0  0  0  0
   12.3782    5.4231   20.7777 C   0  0  0  0  0  0  0  0  0  0  0  0
    7.7365    4.6508   21.6987 C   0  0  0  0  0  0  0  0  0  0  0  0
   13.0186   11.0102   18.0020 C   0  0  0  0  0  0  0  0  0  0  0  0
    8.6628    5.7088   21.8871 N   0  0  0  0  0  0  0  0  0  0  0  0
    5.6516    3.5258   21.9140 C   0  0  0  0  0  0  0  0  0  0  0  0
   11.5863    9.6815   19.4539 C   0  0  0  0  0  0  0  0  0  0  0  0
   12.9648    4.1543   20.9205 C   0  0  0  0  0  0  0  0  0  0  0  0
    8.2089    3.6265   20.8929 C   0  0  0  0  0  0  0  0  0  0  0  0
    7.3827    2.5724   20.5432 C   0  0  0  0  0  0  0  0  0  0  0  0
   11.1529    7.2750   20.8025 C   0  0  0  0  0  0  0  0  0  0  0  0
   10.2573    8.3215   20.9827 C   0  0  0  0  0  0  0  0  0  0  0  0
   11.1606    5.9378   21.2366 N   0  0  0  0  0  0  0  0  0  0  0  0
    9.8932   11.6736   19.0677 O   0  0  0  0  0  0  0  0  0  0  0  0
    6.4470    4.5850   22.2321 C   0  0  0  0  0  0  0  0  0  0  0  0
    8.4619    6.9895   22.2968 C   0  0  0  0  0  0  0  0  0  0  0  0
   12.2747    7.5102   20.0420 C   0  0  0  0  0  0  0  0  0  0  0  0
   14.2544    6.2142   19.4191 C   0  0  0  0  0  0  0  0  0  0  0  0
   13.0695    6.3705   20.0375 N   0  0  0  0  0  0  0  0  0  0  0  0
    9.1913    8.0876   21.8361 N   0  0  0  0  0  0  0  0  0  0  0  0
   10.4739    9.4813   20.2889 C   0  0  0  0  0  0  0  0  0  0  0  0
    7.5551    7.1270   23.1200 O   0  0  0  0  0  0  0  0  0  0  0  0
  1 11  4  0
  1 21  4  0
  2  4  1  0
  2  8  1  0
  2 11  1  0
  3 10  4  0
  3 14  4  0
  4  5  1  0
  4 18  2  0
  6 12  1  0
  6 17  4  0
  6 23  4  0
  7  9  1  0
  7 13  4  0
  7 19  4  0
  9 20  1  0
 10 19  4  0
 11 25  4  0
 13 14  4  0
 15 16  4  0
 15 17  4  0
 15 21  4  0
 16 24  1  0
 16 25  4  0
 20 24  1  0
 20 26  2  0
 21 23  4  0
 22 23  1  0
M  END
$$$$

 Created by Python create_sdf_string function

 26 28  0  0  0  0  0  0  0  0999 V2000
   12.4616    8.6700   19.4180 N   0  0  0  0  0  0  0  0  0  0  0  0
   11.8329   10.8148   18.6769 N   0  0  0  0  0  0  0  0  0  0  0  0
    6.1021    2.5564   21.0678 C   0  0  0  0  0  0  0  0  0  0  0  0
   10.9097   11.8051   18.4804 C   0  0  0  0  0  0  0  0  0  0  0  0
   11.2280   12.9135   17.5669 C   0  0  0  0  0  0  0  0  0  0  0  0
   12.3782    5.4231   20.7777 C   0  0  0  0  0  0  0  0  0  0  0  0
    7.7365    4.6508   21.6987 C   0  0  0  0  0  0  0  0  0  0  0  0
   13.0186   11.0102   18.0020 C   0  0  0  0  0  0  0  0  0  0  0  0
    8.6628    5.7088   21.8871 N   0  0  0  0  0  0  0  0  0  0  0  0
    5.6516    3.5258   21.9140 C   0  0  0  0  0  0  0  0  0  0  0  0
   11.5863    9.6815   19.4539 C   0  0  0  0  0  0  0  0  0  0  0  0
   12.9648    4.1543   20.9205 C   0  0  0  0  0  0  0  0  0  0  0  0
    8.2089    3.6265   20.8929 C   0  0  0  0  0  0  0  0  0  0  0  0
    7.3827    2.5724   20.5432 C   0  0  0  0  0  0  0  0  0  0  0  0
   11.1529    7.2750   20.8025 C   0  0  0  0  0  0  0  0  0  0  0  0
   10.2573    8.3215   20.9827 C   0  0  0  0  0  0  0  0  0  0  0  0
   11.1606    5.9378   21.2366 N   0  0  0  0  0  0  0  0  0  0  0  0
    9.8932   11.6736   19.0677 O   0  0  0  0  0  0  0  0  0  0  0  0
    6.4470    4.5850   22.2321 C   0  0  0  0  0  0  0  0  0  0  0  0
    8.4619    6.9895   22.2968 C   0  0  0  0  0  0  0  0  0  0  0  0
   12.2747    7.5102   20.0420 C   0  0  0  0  0  0  0  0  0  0  0  0
   14.2544    6.2142   19.4191 C   0  0  0  0  0  0  0  0  0  0  0  0
   13.0695    6.3705   20.0375 N   0  0  0  0  0  0  0  0  0  0  0  0
    9.1913    8.0876   21.8361 N   0  0  0  0  0  0  0  0  0  0  0  0
   10.4739    9.4813   20.2889 C   0  0  0  0  0  0  0  0  0  0  0  0
    7.5551    7.1270   23.1200 O   0  0  0  0  0  0  0  0  0  0  0  0
  1 11  4  0
  1 21  4  0
  2  4  1  0
  2  8  1  0
  2 11  1  0
  3 10  4  0
  3 14  4  0
  4  5  1  0
  4 18  2  0
  6 12  1  0
  6 17  4  0
  6 23  4  0
  7  9  1  0
  7 13  4  0
  7 19  4  0
  9 20  1  0
 10 19  4  0
 11 25  4  0
 13 14  4  0
 15 16  4  0
 15 17  4  0
 15 21  4  0
 16 24  1  0
 16 25  4  0
 20 24  1  0
 20 26  2  0
 21 23  4  0
 22 23  1  0
M  END
$$$$

 Created by Python create_sdf_string function

 26 28  0  0  0  0  0  0  0  0999 V2000
   12.4616    8.6700   19.4180 N   0  0  0  0  0  0  0  0  0  0  0  0
   11.8329   10.8148   18.6769 N   0  0  0  0  0  0  0  0  0  0  0  0
    6.1021    2.5564   21.0678 C   0  0  0  0  0  0  0  0  0  0  0  0
   10.9097   11.8051   18.4804 C   0  0  0  0  0  0  0  0  0  0  0  0
   11.2280   12.9135   17.5669 C   0  0  0  0  0  0  0  0  0  0  0  0
   12.3782    5.4231   20.7777 C   0  0  0  0  0  0  0  0  0  0  0  0
    7.7365    4.6508   21.6987 C   0  0  0  0  0  0  0  0  0  0  0  0
   13.0186   11.0102   18.0020 C   0  0  0  0  0  0  0  0  0  0  0  0
    8.6628    5.7088   21.8871 N   0  0  0  0  0  0  0  0  0  0  0  0
    5.6516    3.5258   21.9140 C   0  0  0  0  0  0  0  0  0  0  0  0
   11.5863    9.6815   19.4539 C   0  0  0  0  0  0  0  0  0  0  0  0
   12.9648    4.1543   20.9205 C   0  0  0  0  0  0  0  0  0  0  0  0
    8.2089    3.6265   20.8929 C   0  0  0  0  0  0  0  0  0  0  0  0
    7.3827    2.5724   20.5432 C   0  0  0  0  0  0  0  0  0  0  0  0
   11.1529    7.2750   20.8025 C   0  0  0  0  0  0  0  0  0  0  0  0
   10.2573    8.3215   20.9827 C   0  0  0  0  0  0  0  0  0  0  0  0
   11.1606    5.9378   21.2366 N   0  0  0  0  0  0  0  0  0  0  0  0
    9.8932   11.6736   19.0677 O   0  0  0  0  0  0  0  0  0  0  0  0
    6.4470    4.5850   22.2321 C   0  0  0  0  0  0  0  0  0  0  0  0
    8.4619    6.9895   22.2968 C   0  0  0  0  0  0  0  0  0  0  0  0
   12.2747    7.5102   20.0420 C   0  0  0  0  0  0  0  0  0  0  0  0
   14.2544    6.2142   19.4191 C   0  0  0  0  0  0  0  0  0  0  0  0
   13.0695    6.3705   20.0375 N   0  0  0  0  0  0  0  0  0  0  0  0
    9.1913    8.0876   21.8361 N   0  0  0  0  0  0  0  0  0  0  0  0
   10.4739    9.4813   20.2889 C   0  0  0  0  0  0  0  0  0  0  0  0
    7.5551    7.1270   23.1200 O   0  0  0  0  0  0  0  0  0  0  0  0
  1 11  4  0
  1 21  4  0
  2  4  1  0
  2  8  1  0
  2 11  1  0
  3 10  4  0
  3 14  4  0
  4  5  1  0
  4 18  2  0
  6 12  1  0
  6 17  4  0
  6 23  4  0
  7  9  1  0
  7 13  4  0
  7 19  4  0
  9 20  1  0
 10 19  4  0
 11 25  4  0
 13 14  4  0
 15 16  4  0
 15 17  4  0
 15 21  4  0
 16 24  1  0
 16 25  4  0
 20 24  1  0
 20 26  2  0
 21 23  4  0
 22 23  1  0
M  END
$$$$

 Created by Python create_sdf_string function

 26 28  0  0  0  0  0  0  0  0999 V2000
   12.4616    8.6700   19.4180 N   0  0  0  0  0  0  0  0  0  0  0  0
   11.8329   10.8148   18.6769 N   0  0  0  0  0  0  0  0  0  0  0  0
    6.1021    2.5564   21.0678 C   0  0  0  0  0  0  0  0  0  0  0  0
   10.9097   11.8051   18.4804 C   0  0  0  0  0  0  0  0  0  0  0  0
   11.2280   12.9135   17.5669 C   0  0  0  0  0  0  0  0  0  0  0  0
   12.3782    5.4231   20.7777 C   0  0  0  0  0  0  0  0  0  0  0  0
    7.7365    4.6508   21.6987 C   0  0  0  0  0  0  0  0  0  0  0  0
   13.0186   11.0102   18.0020 C   0  0  0  0  0  0  0  0  0  0  0  0
    8.6628    5.7088   21.8871 N   0  0  0  0  0  0  0  0  0  0  0  0
    5.6516    3.5258   21.9140 C   0  0  0  0  0  0  0  0  0  0  0  0
   11.5863    9.6815   19.4539 C   0  0  0  0  0  0  0  0  0  0  0  0
   12.9648    4.1543   20.9205 C   0  0  0  0  0  0  0  0  0  0  0  0
    8.2089    3.6265   20.8929 C   0  0  0  0  0  0  0  0  0  0  0  0
    7.3827    2.5724   20.5432 C   0  0  0  0  0  0  0  0  0  0  0  0
   11.1529    7.2750   20.8025 C   0  0  0  0  0  0  0  0  0  0  0  0
   10.2573    8.3215   20.9827 C   0  0  0  0  0  0  0  0  0  0  0  0
   11.1606    5.9378   21.2366 N   0  0  0  0  0  0  0  0  0  0  0  0
    9.8932   11.6736   19.0677 O   0  0  0  0  0  0  0  0  0  0  0  0
    6.4470    4.5850   22.2321 C   0  0  0  0  0  0  0  0  0  0  0  0
    8.4619    6.9895   22.2968 C   0  0  0  0  0  0  0  0  0  0  0  0
   12.2747    7.5102   20.0420 C   0  0  0  0  0  0  0  0  0  0  0  0
   14.2544    6.2142   19.4191 C   0  0  0  0  0  0  0  0  0  0  0  0
   13.0695    6.3705   20.0375 N   0  0  0  0  0  0  0  0  0  0  0  0
    9.1913    8.0876   21.8361 N   0  0  0  0  0  0  0  0  0  0  0  0
   10.4739    9.4813   20.2889 C   0  0  0  0  0  0  0  0  0  0  0  0
    7.5551    7.1270   23.1200 O   0  0  0  0  0  0  0  0  0  0  0  0
  1 11  4  0
  1 21  4  0
  2  4  1  0
  2  8  1  0
  2 11  1  0
  3 10  4  0
  3 14  4  0
  4  5  1  0
  4 18  2  0
  6 12  1  0
  6 17  4  0
  6 23  4  0
  7  9  1  0
  7 13  4  0
  7 19  4  0
  9 20  1  0
 10 19  4  0
 11 25  4  0
 13 14  4  0
 15 16  4  0
 15 17  4  0
 15 21  4  0
 16 24  1  0
 16 25  4  0
 20 24  1  0
 20 26  2  0
 21 23  4  0
 22 23  1  0
M  END
$$$$

 Created by Python create_sdf_string function

 26 28  0  0  0  0  0  0  0  0999 V2000
   12.4616    8.6700   19.4180 N   0  0  0  0  0  0  0  0  0  0  0  0
   11.8329   10.8148   18.6769 N   0  0  0  0  0  0  0  0  0  0  0  0
    6.1021    2.5564   21.0678 C   0  0  0  0  0  0  0  0  0  0  0  0
   10.9097   11.8051   18.4804 C   0  0  0  0  0  0  0  0  0  0  0  0
   11.2280   12.9135   17.5669 C   0  0  0  0  0  0  0  0  0  0  0  0
   12.3782    5.4231   20.7777 C   0  0  0  0  0  0  0  0  0  0  0  0
    7.7365    4.6508   21.6987 C   0  0  0  0  0  0  0  0  0  0  0  0
   13.0186   11.0102   18.0020 C   0  0  0  0  0  0  0  0  0  0  0  0
    8.6628    5.7088   21.8871 N   0  0  0  0  0  0  0  0  0  0  0  0
    5.6516    3.5258   21.9140 C   0  0  0  0  0  0  0  0  0  0  0  0
   11.5863    9.6815   19.4539 C   0  0  0  0  0  0  0  0  0  0  0  0
   12.9648    4.1543   20.9205 C   0  0  0  0  0  0  0  0  0  0  0  0
    8.2089    3.6265   20.8929 C   0  0  0  0  0  0  0  0  0  0  0  0
    7.3827    2.5724   20.5432 C   0  0  0  0  0  0  0  0  0  0  0  0
   11.1529    7.2750   20.8025 C   0  0  0  0  0  0  0  0  0  0  0  0
   10.2573    8.3215   20.9827 C   0  0  0  0  0  0  0  0  0  0  0  0
   11.1606    5.9378   21.2366 N   0  0  0  0  0  0  0  0  0  0  0  0
    9.8932   11.6736   19.0677 O   0  0  0  0  0  0  0  0  0  0  0  0
    6.4470    4.5850   22.2321 C   0  0  0  0  0  0  0  0  0  0  0  0
    8.4619    6.9895   22.2968 C   0  0  0  0  0  0  0  0  0  0  0  0
   12.2747    7.5102   20.0420 C   0  0  0  0  0  0  0  0  0  0  0  0
   14.2544    6.2142   19.4191 C   0  0  0  0  0  0  0  0  0  0  0  0
   13.0695    6.3705   20.0375 N   0  0  0  0  0  0  0  0  0  0  0  0
    9.1913    8.0876   21.8361 N   0  0  0  0  0  0  0  0  0  0  0  0
   10.4739    9.4813   20.2889 C   0  0  0  0  0  0  0  0  0  0  0  0
    7.5551    7.1270   23.1200 O   0  0  0  0  0  0  0  0  0  0  0  0
  1 11  4  0
  1 21  4  0
  2  4  1  0
  2  8  1  0
  2 11  1  0
  3 10  4  0
  3 14  4  0
  4  5  1  0
  4 18  2  0
  6 12  1  0
  6 17  4  0
  6 23  4  0
  7  9  1  0
  7 13  4  0
  7 19  4  0
  9 20  1  0
 10 19  4  0
 11 25  4  0
 13 14  4  0
 15 16  4  0
 15 17  4  0
 15 21  4  0
 16 24  1  0
 16 25  4  0
 20 24  1  0
 20 26  2  0
 21 23  4  0
 22 23  1  0
M  END
$$$$

 Created by Python create_sdf_string function

 26 28  0  0  0  0  0  0  0  0999 V2000
   12.4616    8.6700   19.4180 N   0  0  0  0  0  0  0  0  0  0  0  0
   11.8329   10.8148   18.6769 N   0  0  0  0  0  0  0  0  0  0  0  0
    6.1021    2.5564   21.0678 C   0  0  0  0  0  0  0  0  0  0  0  0
   10.9097   11.8051   18.4804 C   0  0  0  0  0  0  0  0  0  0  0  0
   11.2280   12.9135   17.5669 C   0  0  0  0  0  0  0  0  0  0  0  0
   12.3782    5.4231   20.7777 C   0  0  0  0  0  0  0  0  0  0  0  0
    7.7365    4.6508   21.6987 C   0  0  0  0  0  0  0  0  0  0  0  0
   13.0186   11.0102   18.0020 C   0  0  0  0  0  0  0  0  0  0  0  0
    8.6628    5.7088   21.8871 N   0  0  0  0  0  0  0  0  0  0  0  0
    5.6516    3.5258   21.9140 C   0  0  0  0  0  0  0  0  0  0  0  0
   11.5863    9.6815   19.4539 C   0  0  0  0  0  0  0  0  0  0  0  0
   12.9648    4.1543   20.9205 C   0  0  0  0  0  0  0  0  0  0  0  0
    8.2089    3.6265   20.8929 C   0  0  0  0  0  0  0  0  0  0  0  0
    7.3827    2.5724   20.5432 C   0  0  0  0  0  0  0  0  0  0  0  0
   11.1529    7.2750   20.8025 C   0  0  0  0  0  0  0  0  0  0  0  0
   10.2573    8.3215   20.9827 C   0  0  0  0  0  0  0  0  0  0  0  0
   11.1606    5.9378   21.2366 N   0  0  0  0  0  0  0  0  0  0  0  0
    9.8932   11.6736   19.0677 O   0  0  0  0  0  0  0  0  0  0  0  0
    6.4470    4.5850   22.2321 C   0  0  0  0  0  0  0  0  0  0  0  0
    8.4619    6.9895   22.2968 C   0  0  0  0  0  0  0  0  0  0  0  0
   12.2747    7.5102   20.0420 C   0  0  0  0  0  0  0  0  0  0  0  0
   14.2544    6.2142   19.4191 C   0  0  0  0  0  0  0  0  0  0  0  0
   13.0695    6.3705   20.0375 N   0  0  0  0  0  0  0  0  0  0  0  0
    9.1913    8.0876   21.8361 N   0  0  0  0  0  0  0  0  0  0  0  0
   10.4739    9.4813   20.2889 C   0  0  0  0  0  0  0  0  0  0  0  0
    7.5551    7.1270   23.1200 O   0  0  0  0  0  0  0  0  0  0  0  0
  1 11  4  0
  1 21  4  0
  2  4  1  0
  2  8  1  0
  2 11  1  0
  3 10  4  0
  3 14  4  0
  4  5  1  0
  4 18  2  0
  6 12  1  0
  6 17  4  0
  6 23  4  0
  7  9  1  0
  7 13  4  0
  7 19  4  0
  9 20  1  0
 10 19  4  0
 11 25  4  0
 13 14  4  0
 15 16  4  0
 15 17  4  0
 15 21  4  0
 16 24  1  0
 16 25  4  0
 20 24  1  0
 20 26  2  0
 21 23  4  0
 22 23  1  0
M  END
$$$$

 Created by Python create_sdf_string function

 26 28  0  0  0  0  0  0  0  0999 V2000
   12.4616    8.6700   19.4180 N   0  0  0  0  0  0  0  0  0  0  0  0
   11.8329   10.8148   18.6769 N   0  0  0  0  0  0  0  0  0  0  0  0
    6.1021    2.5564   21.0678 C   0  0  0  0  0  0  0  0  0  0  0  0
   10.9097   11.8051   18.4804 C   0  0  0  0  0  0  0  0  0  0  0  0
   11.2280   12.9135   17.5669 C   0  0  0  0  0  0  0  0  0  0  0  0
   12.3782    5.4231   20.7777 C   0  0  0  0  0  0  0  0  0  0  0  0
    7.7365    4.6508   21.6987 C   0  0  0  0  0  0  0  0  0  0  0  0
   13.0186   11.0102   18.0020 C   0  0  0  0  0  0  0  0  0  0  0  0
    8.6628    5.7088   21.8871 N   0  0  0  0  0  0  0  0  0  0  0  0
    5.6516    3.5258   21.9140 C   0  0  0  0  0  0  0  0  0  0  0  0
   11.5863    9.6815   19.4539 C   0  0  0  0  0  0  0  0  0  0  0  0
   12.9648    4.1543   20.9205 C   0  0  0  0  0  0  0  0  0  0  0  0
    8.2089    3.6265   20.8929 C   0  0  0  0  0  0  0  0  0  0  0  0
    7.3827    2.5724   20.5432 C   0  0  0  0  0  0  0  0  0  0  0  0
   11.1529    7.2750   20.8025 C   0  0  0  0  0  0  0  0  0  0  0  0
   10.2573    8.3215   20.9827 C   0  0  0  0  0  0  0  0  0  0  0  0
   11.1606    5.9378   21.2366 N   0  0  0  0  0  0  0  0  0  0  0  0
    9.8932   11.6736   19.0677 O   0  0  0  0  0  0  0  0  0  0  0  0
    6.4470    4.5850   22.2321 C   0  0  0  0  0  0  0  0  0  0  0  0
    8.4619    6.9895   22.2968 C   0  0  0  0  0  0  0  0  0  0  0  0
   12.2747    7.5102   20.0420 C   0  0  0  0  0  0  0  0  0  0  0  0
   14.2544    6.2142   19.4191 C   0  0  0  0  0  0  0  0  0  0  0  0
   13.0695    6.3705   20.0375 N   0  0  0  0  0  0  0  0  0  0  0  0
    9.1913    8.0876   21.8361 N   0  0  0  0  0  0  0  0  0  0  0  0
   10.4739    9.4813   20.2889 C   0  0  0  0  0  0  0  0  0  0  0  0
    7.5551    7.1270   23.1200 O   0  0  0  0  0  0  0  0  0  0  0  0
  1 11  4  0
  1 21  4  0
  2  4  1  0
  2  8  1  0
  2 11  1  0
  3 10  4  0
  3 14  4  0
  4  5  1  0
  4 18  2  0
  6 12  1  0
  6 17  4  0
  6 23  4  0
  7  9  1  0
  7 13  4  0
  7 19  4  0
  9 20  1  0
 10 19  4  0
 11 25  4  0
 13 14  4  0
 15 16  4  0
 15 17  4  0
 15 21  4  0
 16 24  1  0
 16 25  4  0
 20 24  1  0
 20 26  2  0
 21 23  4  0
 22 23  1  0
M  END
$$$$

 Created by Python create_sdf_string function

 26 28  0  0  0  0  0  0  0  0999 V2000
   12.4616    8.6700   19.4180 N   0  0  0  0  0  0  0  0  0  0  0  0
   11.8329   10.8148   18.6769 N   0  0  0  0  0  0  0  0  0  0  0  0
    6.1021    2.5564   21.0678 C   0  0  0  0  0  0  0  0  0  0  0  0
   10.9097   11.8051   18.4804 C   0  0  0  0  0  0  0  0  0  0  0  0
   11.2280   12.9135   17.5669 C   0  0  0  0  0  0  0  0  0  0  0  0
   12.3782    5.4231   20.7777 C   0  0  0  0  0  0  0  0  0  0  0  0
    7.7365    4.6508   21.6987 C   0  0  0  0  0  0  0  0  0  0  0  0
   13.0186   11.0102   18.0020 C   0  0  0  0  0  0  0  0  0  0  0  0
    8.6628    5.7088   21.8871 N   0  0  0  0  0  0  0  0  0  0  0  0
    5.6516    3.5258   21.9140 C   0  0  0  0  0  0  0  0  0  0  0  0
   11.5863    9.6815   19.4539 C   0  0  0  0  0  0  0  0  0  0  0  0
   12.9648    4.1543   20.9205 C   0  0  0  0  0  0  0  0  0  0  0  0
    8.2089    3.6265   20.8929 C   0  0  0  0  0  0  0  0  0  0  0  0
    7.3827    2.5724   20.5432 C   0  0  0  0  0  0  0  0  0  0  0  0
   11.1529    7.2750   20.8025 C   0  0  0  0  0  0  0  0  0  0  0  0
   10.2573    8.3215   20.9827 C   0  0  0  0  0  0  0  0  0  0  0  0
   11.1606    5.9378   21.2366 N   0  0  0  0  0  0  0  0  0  0  0  0
    9.8932   11.6736   19.0677 O   0  0  0  0  0  0  0  0  0  0  0  0
    6.4470    4.5850   22.2321 C   0  0  0  0  0  0  0  0  0  0  0  0
    8.4619    6.9895   22.2968 C   0  0  0  0  0  0  0  0  0  0  0  0
   12.2747    7.5102   20.0420 C   0  0  0  0  0  0  0  0  0  0  0  0
   14.2544    6.2142   19.4191 C   0  0  0  0  0  0  0  0  0  0  0  0
   13.0695    6.3705   20.0375 N   0  0  0  0  0  0  0  0  0  0  0  0
    9.1913    8.0876   21.8361 N   0  0  0  0  0  0  0  0  0  0  0  0
   10.4739    9.4813   20.2889 C   0  0  0  0  0  0  0  0  0  0  0  0
    7.5551    7.1270   23.1200 O   0  0  0  0  0  0  0  0  0  0  0  0
  1 11  4  0
  1 21  4  0
  2  4  1  0
  2  8  1  0
  2 11  1  0
  3 10  4  0
  3 14  4  0
  4  5  1  0
  4 18  2  0
  6 12  1  0
  6 17  4  0
  6 23  4  0
  7  9  1  0
  7 13  4  0
  7 19  4  0
  9 20  1  0
 10 19  4  0
 11 25  4  0
 13 14  4  0
 15 16  4  0
 15 17  4  0
 15 21  4  0
 16 24  1  0
 16 25  4  0
 20 24  1  0
 20 26  2  0
 21 23  4  0
 22 23  1  0
M  END
$$$$

 Created by Python create_sdf_string function

 26 28  0  0  0  0  0  0  0  0999 V2000
   12.4616    8.6700   19.4180 N   0  0  0  0  0  0  0  0  0  0  0  0
   11.8329   10.8148   18.6769 N   0  0  0  0  0  0  0  0  0  0  0  0
    6.1021    2.5564   21.0678 C   0  0  0  0  0  0  0  0  0  0  0  0
   10.9097   11.8051   18.4804 C   0  0  0  0  0  0  0  0  0  0  0  0
   11.2280   12.9135   17.5669 C   0  0  0  0  0  0  0  0  0  0  0  0
   12.3782    5.4231   20.7777 C   0  0  0  0  0  0  0  0  0  0  0  0
    7.7365    4.6508   21.6987 C   0  0  0  0  0  0  0  0  0  0  0  0
   13.0186   11.0102   18.0020 C   0  0  0  0  0  0  0  0  0  0  0  0
    8.6628    5.7088   21.8871 N   0  0  0  0  0  0  0  0  0  0  0  0
    5.6516    3.5258   21.9140 C   0  0  0  0  0  0  0  0  0  0  0  0
   11.5863    9.6815   19.4539 C   0  0  0  0  0  0  0  0  0  0  0  0
   12.9648    4.1543   20.9205 C   0  0  0  0  0  0  0  0  0  0  0  0
    8.2089    3.6265   20.8929 C   0  0  0  0  0  0  0  0  0  0  0  0
    7.3827    2.5724   20.5432 C   0  0  0  0  0  0  0  0  0  0  0  0
   11.1529    7.2750   20.8025 C   0  0  0  0  0  0  0  0  0  0  0  0
   10.2573    8.3215   20.9827 C   0  0  0  0  0  0  0  0  0  0  0  0
   11.1606    5.9378   21.2366 N   0  0  0  0  0  0  0  0  0  0  0  0
    9.8932   11.6736   19.0677 O   0  0  0  0  0  0  0  0  0  0  0  0
    6.4470    4.5850   22.2321 C   0  0  0  0  0  0  0  0  0  0  0  0
    8.4619    6.9895   22.2968 C   0  0  0  0  0  0  0  0  0  0  0  0
   12.2747    7.5102   20.0420 C   0  0  0  0  0  0  0  0  0  0  0  0
   14.2544    6.2142   19.4191 C   0  0  0  0  0  0  0  0  0  0  0  0
   13.0695    6.3705   20.0375 N   0  0  0  0  0  0  0  0  0  0  0  0
    9.1913    8.0876   21.8361 N   0  0  0  0  0  0  0  0  0  0  0  0
   10.4739    9.4813   20.2889 C   0  0  0  0  0  0  0  0  0  0  0  0
    7.5551    7.1270   23.1200 O   0  0  0  0  0  0  0  0  0  0  0  0
  1 11  4  0
  1 21  4  0
  2  4  1  0
  2  8  1  0
  2 11  1  0
  3 10  4  0
  3 14  4  0
  4  5  1  0
  4 18  2  0
  6 12  1  0
  6 17  4  0
  6 23  4  0
  7  9  1  0
  7 13  4  0
  7 19  4  0
  9 20  1  0
 10 19  4  0
 11 25  4  0
 13 14  4  0
 15 16  4  0
 15 17  4  0
 15 21  4  0
 16 24  1  0
 16 25  4  0
 20 24  1  0
 20 26  2  0
 21 23  4  0
 22 23  1  0
M  END
$$$$

 Created by Python create_sdf_string function

 26 28  0  0  0  0  0  0  0  0999 V2000
   12.4616    8.6700   19.4180 N   0  0  0  0  0  0  0  0  0  0  0  0
   11.8329   10.8148   18.6769 N   0  0  0  0  0  0  0  0  0  0  0  0
    6.1021    2.5564   21.0678 C   0  0  0  0  0  0  0  0  0  0  0  0
   10.9097   11.8051   18.4804 C   0  0  0  0  0  0  0  0  0  0  0  0
   11.2280   12.9135   17.5669 C   0  0  0  0  0  0  0  0  0  0  0  0
   12.3782    5.4231   20.7777 C   0  0  0  0  0  0  0  0  0  0  0  0
    7.7365    4.6508   21.6987 C   0  0  0  0  0  0  0  0  0  0  0  0
   13.0186   11.0102   18.0020 C   0  0  0  0  0  0  0  0  0  0  0  0
    8.6628    5.7088   21.8871 N   0  0  0  0  0  0  0  0  0  0  0  0
    5.6516    3.5258   21.9140 C   0  0  0  0  0  0  0  0  0  0  0  0
   11.5863    9.6815   19.4539 C   0  0  0  0  0  0  0  0  0  0  0  0
   12.9648    4.1543   20.9205 C   0  0  0  0  0  0  0  0  0  0  0  0
    8.2089    3.6265   20.8929 C   0  0  0  0  0  0  0  0  0  0  0  0
    7.3827    2.5724   20.5432 C   0  0  0  0  0  0  0  0  0  0  0  0
   11.1529    7.2750   20.8025 C   0  0  0  0  0  0  0  0  0  0  0  0
   10.2573    8.3215   20.9827 C   0  0  0  0  0  0  0  0  0  0  0  0
   11.1606    5.9378   21.2366 N   0  0  0  0  0  0  0  0  0  0  0  0
    9.8932   11.6736   19.0677 O   0  0  0  0  0  0  0  0  0  0  0  0
    6.4470    4.5850   22.2321 C   0  0  0  0  0  0  0  0  0  0  0  0
    8.4619    6.9895   22.2968 C   0  0  0  0  0  0  0  0  0  0  0  0
   12.2747    7.5102   20.0420 C   0  0  0  0  0  0  0  0  0  0  0  0
   14.2544    6.2142   19.4191 C   0  0  0  0  0  0  0  0  0  0  0  0
   13.0695    6.3705   20.0375 N   0  0  0  0  0  0  0  0  0  0  0  0
    9.1913    8.0876   21.8361 N   0  0  0  0  0  0  0  0  0  0  0  0
   10.4739    9.4813   20.2889 C   0  0  0  0  0  0  0  0  0  0  0  0
    7.5551    7.1270   23.1200 O   0  0  0  0  0  0  0  0  0  0  0  0
  1 11  4  0
  1 21  4  0
  2  4  1  0
  2  8  1  0
  2 11  1  0
  3 10  4  0
  3 14  4  0
  4  5  1  0
  4 18  2  0
  6 12  1  0
  6 17  4  0
  6 23  4  0
  7  9  1  0
  7 13  4  0
  7 19  4  0
  9 20  1  0
 10 19  4  0
 11 25  4  0
 13 14  4  0
 15 16  4  0
 15 17  4  0
 15 21  4  0
 16 24  1  0
 16 25  4  0
 20 24  1  0
 20 26  2  0
 21 23  4  0
 22 23  1  0
M  END
$$$$

 Created by Python create_sdf_string function

 26 28  0  0  0  0  0  0  0  0999 V2000
   12.4616    8.6700   19.4180 N   0  0  0  0  0  0  0  0  0  0  0  0
   11.8329   10.8148   18.6769 N   0  0  0  0  0  0  0  0  0  0  0  0
    6.1021    2.5564   21.0678 C   0  0  0  0  0  0  0  0  0  0  0  0
   10.9097   11.8051   18.4804 C   0  0  0  0  0  0  0  0  0  0  0  0
   11.2280   12.9135   17.5669 C   0  0  0  0  0  0  0  0  0  0  0  0
   12.3782    5.4231   20.7777 C   0  0  0  0  0  0  0  0  0  0  0  0
    7.7365    4.6508   21.6987 C   0  0  0  0  0  0  0  0  0  0  0  0
   13.0186   11.0102   18.0020 C   0  0  0  0  0  0  0  0  0  0  0  0
    8.6628    5.7088   21.8871 N   0  0  0  0  0  0  0  0  0  0  0  0
    5.6516    3.5258   21.9140 C   0  0  0  0  0  0  0  0  0  0  0  0
   11.5863    9.6815   19.4539 C   0  0  0  0  0  0  0  0  0  0  0  0
   12.9648    4.1543   20.9205 C   0  0  0  0  0  0  0  0  0  0  0  0
    8.2089    3.6265   20.8929 C   0  0  0  0  0  0  0  0  0  0  0  0
    7.3827    2.5724   20.5432 C   0  0  0  0  0  0  0  0  0  0  0  0
   11.1529    7.2750   20.8025 C   0  0  0  0  0  0  0  0  0  0  0  0
   10.2573    8.3215   20.9827 C   0  0  0  0  0  0  0  0  0  0  0  0
   11.1606    5.9378   21.2366 N   0  0  0  0  0  0  0  0  0  0  0  0
    9.8932   11.6736   19.0677 O   0  0  0  0  0  0  0  0  0  0  0  0
    6.4470    4.5850   22.2321 C   0  0  0  0  0  0  0  0  0  0  0  0
    8.4619    6.9895   22.2968 C   0  0  0  0  0  0  0  0  0  0  0  0
   12.2747    7.5102   20.0420 C   0  0  0  0  0  0  0  0  0  0  0  0
   14.2544    6.2142   19.4191 C   0  0  0  0  0  0  0  0  0  0  0  0
   13.0695    6.3705   20.0375 N   0  0  0  0  0  0  0  0  0  0  0  0
    9.1913    8.0876   21.8361 N   0  0  0  0  0  0  0  0  0  0  0  0
   10.4739    9.4813   20.2889 C   0  0  0  0  0  0  0  0  0  0  0  0
    7.5551    7.1270   23.1200 O   0  0  0  0  0  0  0  0  0  0  0  0
  1 11  4  0
  1 21  4  0
  2  4  1  0
  2  8  1  0
  2 11  1  0
  3 10  4  0
  3 14  4  0
  4  5  1  0
  4 18  2  0
  6 12  1  0
  6 17  4  0
  6 23  4  0
  7  9  1  0
  7 13  4  0
  7 19  4  0
  9 20  1  0
 10 19  4  0
 11 25  4  0
 13 14  4  0
 15 16  4  0
 15 17  4  0
 15 21  4  0
 16 24  1  0
 16 25  4  0
 20 24  1  0
 20 26  2  0
 21 23  4  0
 22 23  1  0
M  END
$$$$

 Created by Python create_sdf_string function

 26 28  0  0  0  0  0  0  0  0999 V2000
   12.4616    8.6700   19.4180 N   0  0  0  0  0  0  0  0  0  0  0  0
   11.8329   10.8148   18.6769 N   0  0  0  0  0  0  0  0  0  0  0  0
    6.1021    2.5564   21.0678 C   0  0  0  0  0  0  0  0  0  0  0  0
   10.9097   11.8051   18.4804 C   0  0  0  0  0  0  0  0  0  0  0  0
   11.2280   12.9135   17.5669 C   0  0  0  0  0  0  0  0  0  0  0  0
   12.3782    5.4231   20.7777 C   0  0  0  0  0  0  0  0  0  0  0  0
    7.7365    4.6508   21.6987 C   0  0  0  0  0  0  0  0  0  0  0  0
   13.0186   11.0102   18.0020 C   0  0  0  0  0  0  0  0  0  0  0  0
    8.6628    5.7088   21.8871 N   0  0  0  0  0  0  0  0  0  0  0  0
    5.6516    3.5258   21.9140 C   0  0  0  0  0  0  0  0  0  0  0  0
   11.5863    9.6815   19.4539 C   0  0  0  0  0  0  0  0  0  0  0  0
   12.9648    4.1543   20.9205 C   0  0  0  0  0  0  0  0  0  0  0  0
    8.2089    3.6265   20.8929 C   0  0  0  0  0  0  0  0  0  0  0  0
    7.3827    2.5724   20.5432 C   0  0  0  0  0  0  0  0  0  0  0  0
   11.1529    7.2750   20.8025 C   0  0  0  0  0  0  0  0  0  0  0  0
   10.2573    8.3215   20.9827 C   0  0  0  0  0  0  0  0  0  0  0  0
   11.1606    5.9378   21.2366 N   0  0  0  0  0  0  0  0  0  0  0  0
    9.8932   11.6736   19.0677 O   0  0  0  0  0  0  0  0  0  0  0  0
    6.4470    4.5850   22.2321 C   0  0  0  0  0  0  0  0  0  0  0  0
    8.4619    6.9895   22.2968 C   0  0  0  0  0  0  0  0  0  0  0  0
   12.2747    7.5102   20.0420 C   0  0  0  0  0  0  0  0  0  0  0  0
   14.2544    6.2142   19.4191 C   0  0  0  0  0  0  0  0  0  0  0  0
   13.0695    6.3705   20.0375 N   0  0  0  0  0  0  0  0  0  0  0  0
    9.1913    8.0876   21.8361 N   0  0  0  0  0  0  0  0  0  0  0  0
   10.4739    9.4813   20.2889 C   0  0  0  0  0  0  0  0  0  0  0  0
    7.5551    7.1270   23.1200 O   0  0  0  0  0  0  0  0  0  0  0  0
  1 11  4  0
  1 21  4  0
  2  4  1  0
  2  8  1  0
  2 11  1  0
  3 10  4  0
  3 14  4  0
  4  5  1  0
  4 18  2  0
  6 12  1  0
  6 17  4  0
  6 23  4  0
  7  9  1  0
  7 13  4  0
  7 19  4  0
  9 20  1  0
 10 19  4  0
 11 25  4  0
 13 14  4  0
 15 16  4  0
 15 17  4  0
 15 21  4  0
 16 24  1  0
 16 25  4  0
 20 24  1  0
 20 26  2  0
 21 23  4  0
 22 23  1  0
M  END
$$$$

 Created by Python create_sdf_string function

 26 28  0  0  0  0  0  0  0  0999 V2000
   12.4616    8.6700   19.4180 N   0  0  0  0  0  0  0  0  0  0  0  0
   11.8329   10.8148   18.6769 N   0  0  0  0  0  0  0  0  0  0  0  0
    6.1021    2.5564   21.0678 C   0  0  0  0  0  0  0  0  0  0  0  0
   10.9097   11.8051   18.4804 C   0  0  0  0  0  0  0  0  0  0  0  0
   11.2280   12.9135   17.5669 C   0  0  0  0  0  0  0  0  0  0  0  0
   12.3782    5.4231   20.7777 C   0  0  0  0  0  0  0  0  0  0  0  0
    7.7365    4.6508   21.6987 C   0  0  0  0  0  0  0  0  0  0  0  0
   13.0186   11.0102   18.0020 C   0  0  0  0  0  0  0  0  0  0  0  0
    8.6628    5.7088   21.8871 N   0  0  0  0  0  0  0  0  0  0  0  0
    5.6516    3.5258   21.9140 C   0  0  0  0  0  0  0  0  0  0  0  0
   11.5863    9.6815   19.4539 C   0  0  0  0  0  0  0  0  0  0  0  0
   12.9648    4.1543   20.9205 C   0  0  0  0  0  0  0  0  0  0  0  0
    8.2089    3.6265   20.8929 C   0  0  0  0  0  0  0  0  0  0  0  0
    7.3827    2.5724   20.5432 C   0  0  0  0  0  0  0  0  0  0  0  0
   11.1529    7.2750   20.8025 C   0  0  0  0  0  0  0  0  0  0  0  0
   10.2573    8.3215   20.9827 C   0  0  0  0  0  0  0  0  0  0  0  0
   11.1606    5.9378   21.2366 N   0  0  0  0  0  0  0  0  0  0  0  0
    9.8932   11.6736   19.0677 O   0  0  0  0  0  0  0  0  0  0  0  0
    6.4470    4.5850   22.2321 C   0  0  0  0  0  0  0  0  0  0  0  0
    8.4619    6.9895   22.2968 C   0  0  0  0  0  0  0  0  0  0  0  0
   12.2747    7.5102   20.0420 C   0  0  0  0  0  0  0  0  0  0  0  0
   14.2544    6.2142   19.4191 C   0  0  0  0  0  0  0  0  0  0  0  0
   13.0695    6.3705   20.0375 N   0  0  0  0  0  0  0  0  0  0  0  0
    9.1913    8.0876   21.8361 N   0  0  0  0  0  0  0  0  0  0  0  0
   10.4739    9.4813   20.2889 C   0  0  0  0  0  0  0  0  0  0  0  0
    7.5551    7.1270   23.1200 O   0  0  0  0  0  0  0  0  0  0  0  0
  1 11  4  0
  1 21  4  0
  2  4  1  0
  2  8  1  0
  2 11  1  0
  3 10  4  0
  3 14  4  0
  4  5  1  0
  4 18  2  0
  6 12  1  0
  6 17  4  0
  6 23  4  0
  7  9  1  0
  7 13  4  0
  7 19  4  0
  9 20  1  0
 10 19  4  0
 11 25  4  0
 13 14  4  0
 15 16  4  0
 15 17  4  0
 15 21  4  0
 16 24  1  0
 16 25  4  0
 20 24  1  0
 20 26  2  0
 21 23  4  0
 22 23  1  0
M  END
$$$$

 Created by Python create_sdf_string function

 26 28  0  0  0  0  0  0  0  0999 V2000
   12.4616    8.6700   19.4180 N   0  0  0  0  0  0  0  0  0  0  0  0
   11.8329   10.8148   18.6769 N   0  0  0  0  0  0  0  0  0  0  0  0
    6.1021    2.5564   21.0678 C   0  0  0  0  0  0  0  0  0  0  0  0
   10.9097   11.8051   18.4804 C   0  0  0  0  0  0  0  0  0  0  0  0
   11.2280   12.9135   17.5669 C   0  0  0  0  0  0  0  0  0  0  0  0
   12.3782    5.4231   20.7777 C   0  0  0  0  0  0  0  0  0  0  0  0
    7.7365    4.6508   21.6987 C   0  0  0  0  0  0  0  0  0  0  0  0
   13.0186   11.0102   18.0020 C   0  0  0  0  0  0  0  0  0  0  0  0
    8.6628    5.7088   21.8871 N   0  0  0  0  0  0  0  0  0  0  0  0
    5.6516    3.5258   21.9140 C   0  0  0  0  0  0  0  0  0  0  0  0
   11.5863    9.6815   19.4539 C   0  0  0  0  0  0  0  0  0  0  0  0
   12.9648    4.1543   20.9205 C   0  0  0  0  0  0  0  0  0  0  0  0
    8.2089    3.6265   20.8929 C   0  0  0  0  0  0  0  0  0  0  0  0
    7.3827    2.5724   20.5432 C   0  0  0  0  0  0  0  0  0  0  0  0
   11.1529    7.2750   20.8025 C   0  0  0  0  0  0  0  0  0  0  0  0
   10.2573    8.3215   20.9827 C   0  0  0  0  0  0  0  0  0  0  0  0
   11.1606    5.9378   21.2366 N   0  0  0  0  0  0  0  0  0  0  0  0
    9.8932   11.6736   19.0677 O   0  0  0  0  0  0  0  0  0  0  0  0
    6.4470    4.5850   22.2321 C   0  0  0  0  0  0  0  0  0  0  0  0
    8.4619    6.9895   22.2968 C   0  0  0  0  0  0  0  0  0  0  0  0
   12.2747    7.5102   20.0420 C   0  0  0  0  0  0  0  0  0  0  0  0
   14.2544    6.2142   19.4191 C   0  0  0  0  0  0  0  0  0  0  0  0
   13.0695    6.3705   20.0375 N   0  0  0  0  0  0  0  0  0  0  0  0
    9.1913    8.0876   21.8361 N   0  0  0  0  0  0  0  0  0  0  0  0
   10.4739    9.4813   20.2889 C   0  0  0  0  0  0  0  0  0  0  0  0
    7.5551    7.1270   23.1200 O   0  0  0  0  0  0  0  0  0  0  0  0
  1 11  4  0
  1 21  4  0
  2  4  1  0
  2  8  1  0
  2 11  1  0
  3 10  4  0
  3 14  4  0
  4  5  1  0
  4 18  2  0
  6 12  1  0
  6 17  4  0
  6 23  4  0
  7  9  1  0
  7 13  4  0
  7 19  4  0
  9 20  1  0
 10 19  4  0
 11 25  4  0
 13 14  4  0
 15 16  4  0
 15 17  4  0
 15 21  4  0
 16 24  1  0
 16 25  4  0
 20 24  1  0
 20 26  2  0
 21 23  4  0
 22 23  1  0
M  END
$$$$

 Created by Python create_sdf_string function

 26 28  0  0  0  0  0  0  0  0999 V2000
   12.4616    8.6700   19.4180 N   0  0  0  0  0  0  0  0  0  0  0  0
   11.8329   10.8148   18.6769 N   0  0  0  0  0  0  0  0  0  0  0  0
    6.1021    2.5564   21.0678 C   0  0  0  0  0  0  0  0  0  0  0  0
   10.9097   11.8051   18.4804 C   0  0  0  0  0  0  0  0  0  0  0  0
   11.2280   12.9135   17.5669 C   0  0  0  0  0  0  0  0  0  0  0  0
   12.3782    5.4231   20.7777 C   0  0  0  0  0  0  0  0  0  0  0  0
    7.7365    4.6508   21.6987 C   0  0  0  0  0  0  0  0  0  0  0  0
   13.0186   11.0102   18.0020 C   0  0  0  0  0  0  0  0  0  0  0  0
    8.6628    5.7088   21.8871 N   0  0  0  0  0  0  0  0  0  0  0  0
    5.6516    3.5258   21.9140 C   0  0  0  0  0  0  0  0  0  0  0  0
   11.5863    9.6815   19.4539 C   0  0  0  0  0  0  0  0  0  0  0  0
   12.9648    4.1543   20.9205 C   0  0  0  0  0  0  0  0  0  0  0  0
    8.2089    3.6265   20.8929 C   0  0  0  0  0  0  0  0  0  0  0  0
    7.3827    2.5724   20.5432 C   0  0  0  0  0  0  0  0  0  0  0  0
   11.1529    7.2750   20.8025 C   0  0  0  0  0  0  0  0  0  0  0  0
   10.2573    8.3215   20.9827 C   0  0  0  0  0  0  0  0  0  0  0  0
   11.1606    5.9378   21.2366 N   0  0  0  0  0  0  0  0  0  0  0  0
    9.8932   11.6736   19.0677 O   0  0  0  0  0  0  0  0  0  0  0  0
    6.4470    4.5850   22.2321 C   0  0  0  0  0  0  0  0  0  0  0  0
    8.4619    6.9895   22.2968 C   0  0  0  0  0  0  0  0  0  0  0  0
   12.2747    7.5102   20.0420 C   0  0  0  0  0  0  0  0  0  0  0  0
   14.2544    6.2142   19.4191 C   0  0  0  0  0  0  0  0  0  0  0  0
   13.0695    6.3705   20.0375 N   0  0  0  0  0  0  0  0  0  0  0  0
    9.1913    8.0876   21.8361 N   0  0  0  0  0  0  0  0  0  0  0  0
   10.4739    9.4813   20.2889 C   0  0  0  0  0  0  0  0  0  0  0  0
    7.5551    7.1270   23.1200 O   0  0  0  0  0  0  0  0  0  0  0  0
  1 11  4  0
  1 21  4  0
  2  4  1  0
  2  8  1  0
  2 11  1  0
  3 10  4  0
  3 14  4  0
  4  5  1  0
  4 18  2  0
  6 12  1  0
  6 17  4  0
  6 23  4  0
  7  9  1  0
  7 13  4  0
  7 19  4  0
  9 20  1  0
 10 19  4  0
 11 25  4  0
 13 14  4  0
 15 16  4  0
 15 17  4  0
 15 21  4  0
 16 24  1  0
 16 25  4  0
 20 24  1  0
 20 26  2  0
 21 23  4  0
 22 23  1  0
M  END
$$$$

 Created by Python create_sdf_string function

 26 28  0  0  0  0  0  0  0  0999 V2000
   12.4616    8.6700   19.4180 N   0  0  0  0  0  0  0  0  0  0  0  0
   11.8329   10.8148   18.6769 N   0  0  0  0  0  0  0  0  0  0  0  0
    6.1021    2.5564   21.0678 C   0  0  0  0  0  0  0  0  0  0  0  0
   10.9097   11.8051   18.4804 C   0  0  0  0  0  0  0  0  0  0  0  0
   11.2280   12.9135   17.5669 C   0  0  0  0  0  0  0  0  0  0  0  0
   12.3782    5.4231   20.7777 C   0  0  0  0  0  0  0  0  0  0  0  0
    7.7365    4.6508   21.6987 C   0  0  0  0  0  0  0  0  0  0  0  0
   13.0186   11.0102   18.0020 C   0  0  0  0  0  0  0  0  0  0  0  0
    8.6628    5.7088   21.8871 N   0  0  0  0  0  0  0  0  0  0  0  0
    5.6516    3.5258   21.9140 C   0  0  0  0  0  0  0  0  0  0  0  0
   11.5863    9.6815   19.4539 C   0  0  0  0  0  0  0  0  0  0  0  0
   12.9648    4.1543   20.9205 C   0  0  0  0  0  0  0  0  0  0  0  0
    8.2089    3.6265   20.8929 C   0  0  0  0  0  0  0  0  0  0  0  0
    7.3827    2.5724   20.5432 C   0  0  0  0  0  0  0  0  0  0  0  0
   11.1529    7.2750   20.8025 C   0  0  0  0  0  0  0  0  0  0  0  0
   10.2573    8.3215   20.9827 C   0  0  0  0  0  0  0  0  0  0  0  0
   11.1606    5.9378   21.2366 N   0  0  0  0  0  0  0  0  0  0  0  0
    9.8932   11.6736   19.0677 O   0  0  0  0  0  0  0  0  0  0  0  0
    6.4470    4.5850   22.2321 C   0  0  0  0  0  0  0  0  0  0  0  0
    8.4619    6.9895   22.2968 C   0  0  0  0  0  0  0  0  0  0  0  0
   12.2747    7.5102   20.0420 C   0  0  0  0  0  0  0  0  0  0  0  0
   14.2544    6.2142   19.4191 C   0  0  0  0  0  0  0  0  0  0  0  0
   13.0695    6.3705   20.0375 N   0  0  0  0  0  0  0  0  0  0  0  0
    9.1913    8.0876   21.8361 N   0  0  0  0  0  0  0  0  0  0  0  0
   10.4739    9.4813   20.2889 C   0  0  0  0  0  0  0  0  0  0  0  0
    7.5551    7.1270   23.1200 O   0  0  0  0  0  0  0  0  0  0  0  0
  1 11  4  0
  1 21  4  0
  2  4  1  0
  2  8  1  0
  2 11  1  0
  3 10  4  0
  3 14  4  0
  4  5  1  0
  4 18  2  0
  6 12  1  0
  6 17  4  0
  6 23  4  0
  7  9  1  0
  7 13  4  0
  7 19  4  0
  9 20  1  0
 10 19  4  0
 11 25  4  0
 13 14  4  0
 15 16  4  0
 15 17  4  0
 15 21  4  0
 16 24  1  0
 16 25  4  0
 20 24  1  0
 20 26  2  0
 21 23  4  0
 22 23  1  0
M  END
$$$$

 Created by Python create_sdf_string function

 26 28  0  0  0  0  0  0  0  0999 V2000
   12.4616    8.6700   19.4180 N   0  0  0  0  0  0  0  0  0  0  0  0
   11.8329   10.8148   18.6769 N   0  0  0  0  0  0  0  0  0  0  0  0
    6.1021    2.5564   21.0678 C   0  0  0  0  0  0  0  0  0  0  0  0
   10.9097   11.8051   18.4804 C   0  0  0  0  0  0  0  0  0  0  0  0
   11.2280   12.9135   17.5669 C   0  0  0  0  0  0  0  0  0  0  0  0
   12.3782    5.4231   20.7777 C   0  0  0  0  0  0  0  0  0  0  0  0
    7.7365    4.6508   21.6987 C   0  0  0  0  0  0  0  0  0  0  0  0
   13.0186   11.0102   18.0020 C   0  0  0  0  0  0  0  0  0  0  0  0
    8.6628    5.7088   21.8871 N   0  0  0  0  0  0  0  0  0  0  0  0
    5.6516    3.5258   21.9140 C   0  0  0  0  0  0  0  0  0  0  0  0
   11.5863    9.6815   19.4539 C   0  0  0  0  0  0  0  0  0  0  0  0
   12.9648    4.1543   20.9205 C   0  0  0  0  0  0  0  0  0  0  0  0
    8.2089    3.6265   20.8929 C   0  0  0  0  0  0  0  0  0  0  0  0
    7.3827    2.5724   20.5432 C   0  0  0  0  0  0  0  0  0  0  0  0
   11.1529    7.2750   20.8025 C   0  0  0  0  0  0  0  0  0  0  0  0
   10.2573    8.3215   20.9827 C   0  0  0  0  0  0  0  0  0  0  0  0
   11.1606    5.9378   21.2366 N   0  0  0  0  0  0  0  0  0  0  0  0
    9.8932   11.6736   19.0677 O   0  0  0  0  0  0  0  0  0  0  0  0
    6.4470    4.5850   22.2321 C   0  0  0  0  0  0  0  0  0  0  0  0
    8.4619    6.9895   22.2968 C   0  0  0  0  0  0  0  0  0  0  0  0
   12.2747    7.5102   20.0420 C   0  0  0  0  0  0  0  0  0  0  0  0
   14.2544    6.2142   19.4191 C   0  0  0  0  0  0  0  0  0  0  0  0
   13.0695    6.3705   20.0375 N   0  0  0  0  0  0  0  0  0  0  0  0
    9.1913    8.0876   21.8361 N   0  0  0  0  0  0  0  0  0  0  0  0
   10.4739    9.4813   20.2889 C   0  0  0  0  0  0  0  0  0  0  0  0
    7.5551    7.1270   23.1200 O   0  0  0  0  0  0  0  0  0  0  0  0
  1 11  4  0
  1 21  4  0
  2  4  1  0
  2  8  1  0
  2 11  1  0
  3 10  4  0
  3 14  4  0
  4  5  1  0
  4 18  2  0
  6 12  1  0
  6 17  4  0
  6 23  4  0
  7  9  1  0
  7 13  4  0
  7 19  4  0
  9 20  1  0
 10 19  4  0
 11 25  4  0
 13 14  4  0
 15 16  4  0
 15 17  4  0
 15 21  4  0
 16 24  1  0
 16 25  4  0
 20 24  1  0
 20 26  2  0
 21 23  4  0
 22 23  1  0
M  END
$$$$

 Created by Python create_sdf_string function

 26 28  0  0  0  0  0  0  0  0999 V2000
   12.4616    8.6700   19.4180 N   0  0  0  0  0  0  0  0  0  0  0  0
   11.8329   10.8148   18.6769 N   0  0  0  0  0  0  0  0  0  0  0  0
    6.1021    2.5564   21.0678 C   0  0  0  0  0  0  0  0  0  0  0  0
   10.9097   11.8051   18.4804 C   0  0  0  0  0  0  0  0  0  0  0  0
   11.2280   12.9135   17.5669 C   0  0  0  0  0  0  0  0  0  0  0  0
   12.3782    5.4231   20.7777 C   0  0  0  0  0  0  0  0  0  0  0  0
    7.7365    4.6508   21.6987 C   0  0  0  0  0  0  0  0  0  0  0  0
   13.0186   11.0102   18.0020 C   0  0  0  0  0  0  0  0  0  0  0  0
    8.6628    5.7088   21.8871 N   0  0  0  0  0  0  0  0  0  0  0  0
    5.6516    3.5258   21.9140 C   0  0  0  0  0  0  0  0  0  0  0  0
   11.5863    9.6815   19.4539 C   0  0  0  0  0  0  0  0  0  0  0  0
   12.9648    4.1543   20.9205 C   0  0  0  0  0  0  0  0  0  0  0  0
    8.2089    3.6265   20.8929 C   0  0  0  0  0  0  0  0  0  0  0  0
    7.3827    2.5724   20.5432 C   0  0  0  0  0  0  0  0  0  0  0  0
   11.1529    7.2750   20.8025 C   0  0  0  0  0  0  0  0  0  0  0  0
   10.2573    8.3215   20.9827 C   0  0  0  0  0  0  0  0  0  0  0  0
   11.1606    5.9378   21.2366 N   0  0  0  0  0  0  0  0  0  0  0  0
    9.8932   11.6736   19.0677 O   0  0  0  0  0  0  0  0  0  0  0  0
    6.4470    4.5850   22.2321 C   0  0  0  0  0  0  0  0  0  0  0  0
    8.4619    6.9895   22.2968 C   0  0  0  0  0  0  0  0  0  0  0  0
   12.2747    7.5102   20.0420 C   0  0  0  0  0  0  0  0  0  0  0  0
   14.2544    6.2142   19.4191 C   0  0  0  0  0  0  0  0  0  0  0  0
   13.0695    6.3705   20.0375 N   0  0  0  0  0  0  0  0  0  0  0  0
    9.1913    8.0876   21.8361 N   0  0  0  0  0  0  0  0  0  0  0  0
   10.4739    9.4813   20.2889 C   0  0  0  0  0  0  0  0  0  0  0  0
    7.5551    7.1270   23.1200 O   0  0  0  0  0  0  0  0  0  0  0  0
  1 11  4  0
  1 21  4  0
  2  4  1  0
  2  8  1  0
  2 11  1  0
  3 10  4  0
  3 14  4  0
  4  5  1  0
  4 18  2  0
  6 12  1  0
  6 17  4  0
  6 23  4  0
  7  9  1  0
  7 13  4  0
  7 19  4  0
  9 20  1  0
 10 19  4  0
 11 25  4  0
 13 14  4  0
 15 16  4  0
 15 17  4  0
 15 21  4  0
 16 24  1  0
 16 25  4  0
 20 24  1  0
 20 26  2  0
 21 23  4  0
 22 23  1  0
M  END
$$$$

 Created by Python create_sdf_string function

 26 28  0  0  0  0  0  0  0  0999 V2000
   12.4616    8.6700   19.4180 N   0  0  0  0  0  0  0  0  0  0  0  0
   11.8329   10.8148   18.6769 N   0  0  0  0  0  0  0  0  0  0  0  0
    6.1021    2.5564   21.0678 C   0  0  0  0  0  0  0  0  0  0  0  0
   10.9097   11.8051   18.4804 C   0  0  0  0  0  0  0  0  0  0  0  0
   11.2280   12.9135   17.5669 C   0  0  0  0  0  0  0  0  0  0  0  0
   12.3782    5.4231   20.7777 C   0  0  0  0  0  0  0  0  0  0  0  0
    7.7365    4.6508   21.6987 C   0  0  0  0  0  0  0  0  0  0  0  0
   13.0186   11.0102   18.0020 C   0  0  0  0  0  0  0  0  0  0  0  0
    8.6628    5.7088   21.8871 N   0  0  0  0  0  0  0  0  0  0  0  0
    5.6516    3.5258   21.9140 C   0  0  0  0  0  0  0  0  0  0  0  0
   11.5863    9.6815   19.4539 C   0  0  0  0  0  0  0  0  0  0  0  0
   12.9648    4.1543   20.9205 C   0  0  0  0  0  0  0  0  0  0  0  0
    8.2089    3.6265   20.8929 C   0  0  0  0  0  0  0  0  0  0  0  0
    7.3827    2.5724   20.5432 C   0  0  0  0  0  0  0  0  0  0  0  0
   11.1529    7.2750   20.8025 C   0  0  0  0  0  0  0  0  0  0  0  0
   10.2573    8.3215   20.9827 C   0  0  0  0  0  0  0  0  0  0  0  0
   11.1606    5.9378   21.2366 N   0  0  0  0  0  0  0  0  0  0  0  0
    9.8932   11.6736   19.0677 O   0  0  0  0  0  0  0  0  0  0  0  0
    6.4470    4.5850   22.2321 C   0  0  0  0  0  0  0  0  0  0  0  0
    8.4619    6.9895   22.2968 C   0  0  0  0  0  0  0  0  0  0  0  0
   12.2747    7.5102   20.0420 C   0  0  0  0  0  0  0  0  0  0  0  0
   14.2544    6.2142   19.4191 C   0  0  0  0  0  0  0  0  0  0  0  0
   13.0695    6.3705   20.0375 N   0  0  0  0  0  0  0  0  0  0  0  0
    9.1913    8.0876   21.8361 N   0  0  0  0  0  0  0  0  0  0  0  0
   10.4739    9.4813   20.2889 C   0  0  0  0  0  0  0  0  0  0  0  0
    7.5551    7.1270   23.1200 O   0  0  0  0  0  0  0  0  0  0  0  0
  1 11  4  0
  1 21  4  0
  2  4  1  0
  2  8  1  0
  2 11  1  0
  3 10  4  0
  3 14  4  0
  4  5  1  0
  4 18  2  0
  6 12  1  0
  6 17  4  0
  6 23  4  0
  7  9  1  0
  7 13  4  0
  7 19  4  0
  9 20  1  0
 10 19  4  0
 11 25  4  0
 13 14  4  0
 15 16  4  0
 15 17  4  0
 15 21  4  0
 16 24  1  0
 16 25  4  0
 20 24  1  0
 20 26  2  0
 21 23  4  0
 22 23  1  0
M  END
$$$$

 Created by Python create_sdf_string function

 26 28  0  0  0  0  0  0  0  0999 V2000
   12.4616    8.6700   19.4180 N   0  0  0  0  0  0  0  0  0  0  0  0
   11.8329   10.8148   18.6769 N   0  0  0  0  0  0  0  0  0  0  0  0
    6.1021    2.5564   21.0678 C   0  0  0  0  0  0  0  0  0  0  0  0
   10.9097   11.8051   18.4804 C   0  0  0  0  0  0  0  0  0  0  0  0
   11.2280   12.9135   17.5669 C   0  0  0  0  0  0  0  0  0  0  0  0
   12.3782    5.4231   20.7777 C   0  0  0  0  0  0  0  0  0  0  0  0
    7.7365    4.6508   21.6987 C   0  0  0  0  0  0  0  0  0  0  0  0
   13.0186   11.0102   18.0020 C   0  0  0  0  0  0  0  0  0  0  0  0
    8.6628    5.7088   21.8871 N   0  0  0  0  0  0  0  0  0  0  0  0
    5.6516    3.5258   21.9140 C   0  0  0  0  0  0  0  0  0  0  0  0
   11.5863    9.6815   19.4539 C   0  0  0  0  0  0  0  0  0  0  0  0
   12.9648    4.1543   20.9205 C   0  0  0  0  0  0  0  0  0  0  0  0
    8.2089    3.6265   20.8929 C   0  0  0  0  0  0  0  0  0  0  0  0
    7.3827    2.5724   20.5432 C   0  0  0  0  0  0  0  0  0  0  0  0
   11.1529    7.2750   20.8025 C   0  0  0  0  0  0  0  0  0  0  0  0
   10.2573    8.3215   20.9827 C   0  0  0  0  0  0  0  0  0  0  0  0
   11.1606    5.9378   21.2366 N   0  0  0  0  0  0  0  0  0  0  0  0
    9.8932   11.6736   19.0677 O   0  0  0  0  0  0  0  0  0  0  0  0
    6.4470    4.5850   22.2321 C   0  0  0  0  0  0  0  0  0  0  0  0
    8.4619    6.9895   22.2968 C   0  0  0  0  0  0  0  0  0  0  0  0
   12.2747    7.5102   20.0420 C   0  0  0  0  0  0  0  0  0  0  0  0
   14.2544    6.2142   19.4191 C   0  0  0  0  0  0  0  0  0  0  0  0
   13.0695    6.3705   20.0375 N   0  0  0  0  0  0  0  0  0  0  0  0
    9.1913    8.0876   21.8361 N   0  0  0  0  0  0  0  0  0  0  0  0
   10.4739    9.4813   20.2889 C   0  0  0  0  0  0  0  0  0  0  0  0
    7.5551    7.1270   23.1200 O   0  0  0  0  0  0  0  0  0  0  0  0
  1 11  4  0
  1 21  4  0
  2  4  1  0
  2  8  1  0
  2 11  1  0
  3 10  4  0
  3 14  4  0
  4  5  1  0
  4 18  2  0
  6 12  1  0
  6 17  4  0
  6 23  4  0
  7  9  1  0
  7 13  4  0
  7 19  4  0
  9 20  1  0
 10 19  4  0
 11 25  4  0
 13 14  4  0
 15 16  4  0
 15 17  4  0
 15 21  4  0
 16 24  1  0
 16 25  4  0
 20 24  1  0
 20 26  2  0
 21 23  4  0
 22 23  1  0
M  END
$$$$

 Created by Python create_sdf_string function

 26 28  0  0  0  0  0  0  0  0999 V2000
   12.4616    8.6700   19.4180 N   0  0  0  0  0  0  0  0  0  0  0  0
   11.8329   10.8148   18.6769 N   0  0  0  0  0  0  0  0  0  0  0  0
    6.1021    2.5564   21.0678 C   0  0  0  0  0  0  0  0  0  0  0  0
   10.9097   11.8051   18.4804 C   0  0  0  0  0  0  0  0  0  0  0  0
   11.2280   12.9135   17.5669 C   0  0  0  0  0  0  0  0  0  0  0  0
   12.3782    5.4231   20.7777 C   0  0  0  0  0  0  0  0  0  0  0  0
    7.7365    4.6508   21.6987 C   0  0  0  0  0  0  0  0  0  0  0  0
   13.0186   11.0102   18.0020 C   0  0  0  0  0  0  0  0  0  0  0  0
    8.6628    5.7088   21.8871 N   0  0  0  0  0  0  0  0  0  0  0  0
    5.6516    3.5258   21.9140 C   0  0  0  0  0  0  0  0  0  0  0  0
   11.5863    9.6815   19.4539 C   0  0  0  0  0  0  0  0  0  0  0  0
   12.9648    4.1543   20.9205 C   0  0  0  0  0  0  0  0  0  0  0  0
    8.2089    3.6265   20.8929 C   0  0  0  0  0  0  0  0  0  0  0  0
    7.3827    2.5724   20.5432 C   0  0  0  0  0  0  0  0  0  0  0  0
   11.1529    7.2750   20.8025 C   0  0  0  0  0  0  0  0  0  0  0  0
   10.2573    8.3215   20.9827 C   0  0  0  0  0  0  0  0  0  0  0  0
   11.1606    5.9378   21.2366 N   0  0  0  0  0  0  0  0  0  0  0  0
    9.8932   11.6736   19.0677 O   0  0  0  0  0  0  0  0  0  0  0  0
    6.4470    4.5850   22.2321 C   0  0  0  0  0  0  0  0  0  0  0  0
    8.4619    6.9895   22.2968 C   0  0  0  0  0  0  0  0  0  0  0  0
   12.2747    7.5102   20.0420 C   0  0  0  0  0  0  0  0  0  0  0  0
   14.2544    6.2142   19.4191 C   0  0  0  0  0  0  0  0  0  0  0  0
   13.0695    6.3705   20.0375 N   0  0  0  0  0  0  0  0  0  0  0  0
    9.1913    8.0876   21.8361 N   0  0  0  0  0  0  0  0  0  0  0  0
   10.4739    9.4813   20.2889 C   0  0  0  0  0  0  0  0  0  0  0  0
    7.5551    7.1270   23.1200 O   0  0  0  0  0  0  0  0  0  0  0  0
  1 11  4  0
  1 21  4  0
  2  4  1  0
  2  8  1  0
  2 11  1  0
  3 10  4  0
  3 14  4  0
  4  5  1  0
  4 18  2  0
  6 12  1  0
  6 17  4  0
  6 23  4  0
  7  9  1  0
  7 13  4  0
  7 19  4  0
  9 20  1  0
 10 19  4  0
 11 25  4  0
 13 14  4  0
 15 16  4  0
 15 17  4  0
 15 21  4  0
 16 24  1  0
 16 25  4  0
 20 24  1  0
 20 26  2  0
 21 23  4  0
 22 23  1  0
M  END
$$$$

 Created by Python create_sdf_string function

 26 28  0  0  0  0  0  0  0  0999 V2000
   12.4616    8.6700   19.4180 N   0  0  0  0  0  0  0  0  0  0  0  0
   11.8329   10.8148   18.6769 N   0  0  0  0  0  0  0  0  0  0  0  0
    6.1021    2.5564   21.0678 C   0  0  0  0  0  0  0  0  0  0  0  0
   10.9097   11.8051   18.4804 C   0  0  0  0  0  0  0  0  0  0  0  0
   11.2280   12.9135   17.5669 C   0  0  0  0  0  0  0  0  0  0  0  0
   12.3782    5.4231   20.7777 C   0  0  0  0  0  0  0  0  0  0  0  0
    7.7365    4.6508   21.6987 C   0  0  0  0  0  0  0  0  0  0  0  0
   13.0186   11.0102   18.0020 C   0  0  0  0  0  0  0  0  0  0  0  0
    8.6628    5.7088   21.8871 N   0  0  0  0  0  0  0  0  0  0  0  0
    5.6516    3.5258   21.9140 C   0  0  0  0  0  0  0  0  0  0  0  0
   11.5863    9.6815   19.4539 C   0  0  0  0  0  0  0  0  0  0  0  0
   12.9648    4.1543   20.9205 C   0  0  0  0  0  0  0  0  0  0  0  0
    8.2089    3.6265   20.8929 C   0  0  0  0  0  0  0  0  0  0  0  0
    7.3827    2.5724   20.5432 C   0  0  0  0  0  0  0  0  0  0  0  0
   11.1529    7.2750   20.8025 C   0  0  0  0  0  0  0  0  0  0  0  0
   10.2573    8.3215   20.9827 C   0  0  0  0  0  0  0  0  0  0  0  0
   11.1606    5.9378   21.2366 N   0  0  0  0  0  0  0  0  0  0  0  0
    9.8932   11.6736   19.0677 O   0  0  0  0  0  0  0  0  0  0  0  0
    6.4470    4.5850   22.2321 C   0  0  0  0  0  0  0  0  0  0  0  0
    8.4619    6.9895   22.2968 C   0  0  0  0  0  0  0  0  0  0  0  0
   12.2747    7.5102   20.0420 C   0  0  0  0  0  0  0  0  0  0  0  0
   14.2544    6.2142   19.4191 C   0  0  0  0  0  0  0  0  0  0  0  0
   13.0695    6.3705   20.0375 N   0  0  0  0  0  0  0  0  0  0  0  0
    9.1913    8.0876   21.8361 N   0  0  0  0  0  0  0  0  0  0  0  0
   10.4739    9.4813   20.2889 C   0  0  0  0  0  0  0  0  0  0  0  0
    7.5551    7.1270   23.1200 O   0  0  0  0  0  0  0  0  0  0  0  0
  1 11  4  0
  1 21  4  0
  2  4  1  0
  2  8  1  0
  2 11  1  0
  3 10  4  0
  3 14  4  0
  4  5  1  0
  4 18  2  0
  6 12  1  0
  6 17  4  0
  6 23  4  0
  7  9  1  0
  7 13  4  0
  7 19  4  0
  9 20  1  0
 10 19  4  0
 11 25  4  0
 13 14  4  0
 15 16  4  0
 15 17  4  0
 15 21  4  0
 16 24  1  0
 16 25  4  0
 20 24  1  0
 20 26  2  0
 21 23  4  0
 22 23  1  0
M  END
$$$$

 Created by Python create_sdf_string function

 26 28  0  0  0  0  0  0  0  0999 V2000
   12.4616    8.6700   19.4180 N   0  0  0  0  0  0  0  0  0  0  0  0
   11.8329   10.8148   18.6769 N   0  0  0  0  0  0  0  0  0  0  0  0
    6.1021    2.5564   21.0678 C   0  0  0  0  0  0  0  0  0  0  0  0
   10.9097   11.8051   18.4804 C   0  0  0  0  0  0  0  0  0  0  0  0
   11.2280   12.9135   17.5669 C   0  0  0  0  0  0  0  0  0  0  0  0
   12.3782    5.4231   20.7777 C   0  0  0  0  0  0  0  0  0  0  0  0
    7.7365    4.6508   21.6987 C   0  0  0  0  0  0  0  0  0  0  0  0
   13.0186   11.0102   18.0020 C   0  0  0  0  0  0  0  0  0  0  0  0
    8.6628    5.7088   21.8871 N   0  0  0  0  0  0  0  0  0  0  0  0
    5.6516    3.5258   21.9140 C   0  0  0  0  0  0  0  0  0  0  0  0
   11.5863    9.6815   19.4539 C   0  0  0  0  0  0  0  0  0  0  0  0
   12.9648    4.1543   20.9205 C   0  0  0  0  0  0  0  0  0  0  0  0
    8.2089    3.6265   20.8929 C   0  0  0  0  0  0  0  0  0  0  0  0
    7.3827    2.5724   20.5432 C   0  0  0  0  0  0  0  0  0  0  0  0
   11.1529    7.2750   20.8025 C   0  0  0  0  0  0  0  0  0  0  0  0
   10.2573    8.3215   20.9827 C   0  0  0  0  0  0  0  0  0  0  0  0
   11.1606    5.9378   21.2366 N   0  0  0  0  0  0  0  0  0  0  0  0
    9.8932   11.6736   19.0677 O   0  0  0  0  0  0  0  0  0  0  0  0
    6.4470    4.5850   22.2321 C   0  0  0  0  0  0  0  0  0  0  0  0
    8.4619    6.9895   22.2968 C   0  0  0  0  0  0  0  0  0  0  0  0
   12.2747    7.5102   20.0420 C   0  0  0  0  0  0  0  0  0  0  0  0
   14.2544    6.2142   19.4191 C   0  0  0  0  0  0  0  0  0  0  0  0
   13.0695    6.3705   20.0375 N   0  0  0  0  0  0  0  0  0  0  0  0
    9.1913    8.0876   21.8361 N   0  0  0  0  0  0  0  0  0  0  0  0
   10.4739    9.4813   20.2889 C   0  0  0  0  0  0  0  0  0  0  0  0
    7.5551    7.1270   23.1200 O   0  0  0  0  0  0  0  0  0  0  0  0
  1 11  4  0
  1 21  4  0
  2  4  1  0
  2  8  1  0
  2 11  1  0
  3 10  4  0
  3 14  4  0
  4  5  1  0
  4 18  2  0
  6 12  1  0
  6 17  4  0
  6 23  4  0
  7  9  1  0
  7 13  4  0
  7 19  4  0
  9 20  1  0
 10 19  4  0
 11 25  4  0
 13 14  4  0
 15 16  4  0
 15 17  4  0
 15 21  4  0
 16 24  1  0
 16 25  4  0
 20 24  1  0
 20 26  2  0
 21 23  4  0
 22 23  1  0
M  END
$$$$

 Created by Python create_sdf_string function

 26 28  0  0  0  0  0  0  0  0999 V2000
   12.4616    8.6700   19.4180 N   0  0  0  0  0  0  0  0  0  0  0  0
   11.8329   10.8148   18.6769 N   0  0  0  0  0  0  0  0  0  0  0  0
    6.1021    2.5564   21.0678 C   0  0  0  0  0  0  0  0  0  0  0  0
   10.9097   11.8051   18.4804 C   0  0  0  0  0  0  0  0  0  0  0  0
   11.2280   12.9135   17.5669 C   0  0  0  0  0  0  0  0  0  0  0  0
   12.3782    5.4231   20.7777 C   0  0  0  0  0  0  0  0  0  0  0  0
    7.7365    4.6508   21.6987 C   0  0  0  0  0  0  0  0  0  0  0  0
   13.0186   11.0102   18.0020 C   0  0  0  0  0  0  0  0  0  0  0  0
    8.6628    5.7088   21.8871 N   0  0  0  0  0  0  0  0  0  0  0  0
    5.6516    3.5258   21.9140 C   0  0  0  0  0  0  0  0  0  0  0  0
   11.5863    9.6815   19.4539 C   0  0  0  0  0  0  0  0  0  0  0  0
   12.9648    4.1543   20.9205 C   0  0  0  0  0  0  0  0  0  0  0  0
    8.2089    3.6265   20.8929 C   0  0  0  0  0  0  0  0  0  0  0  0
    7.3827    2.5724   20.5432 C   0  0  0  0  0  0  0  0  0  0  0  0
   11.1529    7.2750   20.8025 C   0  0  0  0  0  0  0  0  0  0  0  0
   10.2573    8.3215   20.9827 C   0  0  0  0  0  0  0  0  0  0  0  0
   11.1606    5.9378   21.2366 N   0  0  0  0  0  0  0  0  0  0  0  0
    9.8932   11.6736   19.0677 O   0  0  0  0  0  0  0  0  0  0  0  0
    6.4470    4.5850   22.2321 C   0  0  0  0  0  0  0  0  0  0  0  0
    8.4619    6.9895   22.2968 C   0  0  0  0  0  0  0  0  0  0  0  0
   12.2747    7.5102   20.0420 C   0  0  0  0  0  0  0  0  0  0  0  0
   14.2544    6.2142   19.4191 C   0  0  0  0  0  0  0  0  0  0  0  0
   13.0695    6.3705   20.0375 N   0  0  0  0  0  0  0  0  0  0  0  0
    9.1913    8.0876   21.8361 N   0  0  0  0  0  0  0  0  0  0  0  0
   10.4739    9.4813   20.2889 C   0  0  0  0  0  0  0  0  0  0  0  0
    7.5551    7.1270   23.1200 O   0  0  0  0  0  0  0  0  0  0  0  0
  1 11  4  0
  1 21  4  0
  2  4  1  0
  2  8  1  0
  2 11  1  0
  3 10  4  0
  3 14  4  0
  4  5  1  0
  4 18  2  0
  6 12  1  0
  6 17  4  0
  6 23  4  0
  7  9  1  0
  7 13  4  0
  7 19  4  0
  9 20  1  0
 10 19  4  0
 11 25  4  0
 13 14  4  0
 15 16  4  0
 15 17  4  0
 15 21  4  0
 16 24  1  0
 16 25  4  0
 20 24  1  0
 20 26  2  0
 21 23  4  0
 22 23  1  0
M  END
$$$$

 Created by Python create_sdf_string function

 26 28  0  0  0  0  0  0  0  0999 V2000
   12.4616    8.6700   19.4180 N   0  0  0  0  0  0  0  0  0  0  0  0
   11.8329   10.8148   18.6769 N   0  0  0  0  0  0  0  0  0  0  0  0
    6.1021    2.5564   21.0678 C   0  0  0  0  0  0  0  0  0  0  0  0
   10.9097   11.8051   18.4804 C   0  0  0  0  0  0  0  0  0  0  0  0
   11.2280   12.9135   17.5669 C   0  0  0  0  0  0  0  0  0  0  0  0
   12.3782    5.4231   20.7777 C   0  0  0  0  0  0  0  0  0  0  0  0
    7.7365    4.6508   21.6987 C   0  0  0  0  0  0  0  0  0  0  0  0
   13.0186   11.0102   18.0020 C   0  0  0  0  0  0  0  0  0  0  0  0
    8.6628    5.7088   21.8871 N   0  0  0  0  0  0  0  0  0  0  0  0
    5.6516    3.5258   21.9140 C   0  0  0  0  0  0  0  0  0  0  0  0
   11.5863    9.6815   19.4539 C   0  0  0  0  0  0  0  0  0  0  0  0
   12.9648    4.1543   20.9205 C   0  0  0  0  0  0  0  0  0  0  0  0
    8.2089    3.6265   20.8929 C   0  0  0  0  0  0  0  0  0  0  0  0
    7.3827    2.5724   20.5432 C   0  0  0  0  0  0  0  0  0  0  0  0
   11.1529    7.2750   20.8025 C   0  0  0  0  0  0  0  0  0  0  0  0
   10.2573    8.3215   20.9827 C   0  0  0  0  0  0  0  0  0  0  0  0
   11.1606    5.9378   21.2366 N   0  0  0  0  0  0  0  0  0  0  0  0
    9.8932   11.6736   19.0677 O   0  0  0  0  0  0  0  0  0  0  0  0
    6.4470    4.5850   22.2321 C   0  0  0  0  0  0  0  0  0  0  0  0
    8.4619    6.9895   22.2968 C   0  0  0  0  0  0  0  0  0  0  0  0
   12.2747    7.5102   20.0420 C   0  0  0  0  0  0  0  0  0  0  0  0
   14.2544    6.2142   19.4191 C   0  0  0  0  0  0  0  0  0  0  0  0
   13.0695    6.3705   20.0375 N   0  0  0  0  0  0  0  0  0  0  0  0
    9.1913    8.0876   21.8361 N   0  0  0  0  0  0  0  0  0  0  0  0
   10.4739    9.4813   20.2889 C   0  0  0  0  0  0  0  0  0  0  0  0
    7.5551    7.1270   23.1200 O   0  0  0  0  0  0  0  0  0  0  0  0
  1 11  4  0
  1 21  4  0
  2  4  1  0
  2  8  1  0
  2 11  1  0
  3 10  4  0
  3 14  4  0
  4  5  1  0
  4 18  2  0
  6 12  1  0
  6 17  4  0
  6 23  4  0
  7  9  1  0
  7 13  4  0
  7 19  4  0
  9 20  1  0
 10 19  4  0
 11 25  4  0
 13 14  4  0
 15 16  4  0
 15 17  4  0
 15 21  4  0
 16 24  1  0
 16 25  4  0
 20 24  1  0
 20 26  2  0
 21 23  4  0
 22 23  1  0
M  END
$$$$

 Created by Python create_sdf_string function

 26 28  0  0  0  0  0  0  0  0999 V2000
   12.4616    8.6700   19.4180 N   0  0  0  0  0  0  0  0  0  0  0  0
   11.8329   10.8148   18.6769 N   0  0  0  0  0  0  0  0  0  0  0  0
    6.1021    2.5564   21.0678 C   0  0  0  0  0  0  0  0  0  0  0  0
   10.9097   11.8051   18.4804 C   0  0  0  0  0  0  0  0  0  0  0  0
   11.2280   12.9135   17.5669 C   0  0  0  0  0  0  0  0  0  0  0  0
   12.3782    5.4231   20.7777 C   0  0  0  0  0  0  0  0  0  0  0  0
    7.7365    4.6508   21.6987 C   0  0  0  0  0  0  0  0  0  0  0  0
   13.0186   11.0102   18.0020 C   0  0  0  0  0  0  0  0  0  0  0  0
    8.6628    5.7088   21.8871 N   0  0  0  0  0  0  0  0  0  0  0  0
    5.6516    3.5258   21.9140 C   0  0  0  0  0  0  0  0  0  0  0  0
   11.5863    9.6815   19.4539 C   0  0  0  0  0  0  0  0  0  0  0  0
   12.9648    4.1543   20.9205 C   0  0  0  0  0  0  0  0  0  0  0  0
    8.2089    3.6265   20.8929 C   0  0  0  0  0  0  0  0  0  0  0  0
    7.3827    2.5724   20.5432 C   0  0  0  0  0  0  0  0  0  0  0  0
   11.1529    7.2750   20.8025 C   0  0  0  0  0  0  0  0  0  0  0  0
   10.2573    8.3215   20.9827 C   0  0  0  0  0  0  0  0  0  0  0  0
   11.1606    5.9378   21.2366 N   0  0  0  0  0  0  0  0  0  0  0  0
    9.8932   11.6736   19.0677 O   0  0  0  0  0  0  0  0  0  0  0  0
    6.4470    4.5850   22.2321 C   0  0  0  0  0  0  0  0  0  0  0  0
    8.4619    6.9895   22.2968 C   0  0  0  0  0  0  0  0  0  0  0  0
   12.2747    7.5102   20.0420 C   0  0  0  0  0  0  0  0  0  0  0  0
   14.2544    6.2142   19.4191 C   0  0  0  0  0  0  0  0  0  0  0  0
   13.0695    6.3705   20.0375 N   0  0  0  0  0  0  0  0  0  0  0  0
    9.1913    8.0876   21.8361 N   0  0  0  0  0  0  0  0  0  0  0  0
   10.4739    9.4813   20.2889 C   0  0  0  0  0  0  0  0  0  0  0  0
    7.5551    7.1270   23.1200 O   0  0  0  0  0  0  0  0  0  0  0  0
  1 11  4  0
  1 21  4  0
  2  4  1  0
  2  8  1  0
  2 11  1  0
  3 10  4  0
  3 14  4  0
  4  5  1  0
  4 18  2  0
  6 12  1  0
  6 17  4  0
  6 23  4  0
  7  9  1  0
  7 13  4  0
  7 19  4  0
  9 20  1  0
 10 19  4  0
 11 25  4  0
 13 14  4  0
 15 16  4  0
 15 17  4  0
 15 21  4  0
 16 24  1  0
 16 25  4  0
 20 24  1  0
 20 26  2  0
 21 23  4  0
 22 23  1  0
M  END
$$$$

 Created by Python create_sdf_string function

 26 28  0  0  0  0  0  0  0  0999 V2000
   12.4616    8.6700   19.4180 N   0  0  0  0  0  0  0  0  0  0  0  0
   11.8329   10.8148   18.6769 N   0  0  0  0  0  0  0  0  0  0  0  0
    6.1021    2.5564   21.0678 C   0  0  0  0  0  0  0  0  0  0  0  0
   10.9097   11.8051   18.4804 C   0  0  0  0  0  0  0  0  0  0  0  0
   11.2280   12.9135   17.5669 C   0  0  0  0  0  0  0  0  0  0  0  0
   12.3782    5.4231   20.7777 C   0  0  0  0  0  0  0  0  0  0  0  0
    7.7365    4.6508   21.6987 C   0  0  0  0  0  0  0  0  0  0  0  0
   13.0186   11.0102   18.0020 C   0  0  0  0  0  0  0  0  0  0  0  0
    8.6628    5.7088   21.8871 N   0  0  0  0  0  0  0  0  0  0  0  0
    5.6516    3.5258   21.9140 C   0  0  0  0  0  0  0  0  0  0  0  0
   11.5863    9.6815   19.4539 C   0  0  0  0  0  0  0  0  0  0  0  0
   12.9648    4.1543   20.9205 C   0  0  0  0  0  0  0  0  0  0  0  0
    8.2089    3.6265   20.8929 C   0  0  0  0  0  0  0  0  0  0  0  0
    7.3827    2.5724   20.5432 C   0  0  0  0  0  0  0  0  0  0  0  0
   11.1529    7.2750   20.8025 C   0  0  0  0  0  0  0  0  0  0  0  0
   10.2573    8.3215   20.9827 C   0  0  0  0  0  0  0  0  0  0  0  0
   11.1606    5.9378   21.2366 N   0  0  0  0  0  0  0  0  0  0  0  0
    9.8932   11.6736   19.0677 O   0  0  0  0  0  0  0  0  0  0  0  0
    6.4470    4.5850   22.2321 C   0  0  0  0  0  0  0  0  0  0  0  0
    8.4619    6.9895   22.2968 C   0  0  0  0  0  0  0  0  0  0  0  0
   12.2747    7.5102   20.0420 C   0  0  0  0  0  0  0  0  0  0  0  0
   14.2544    6.2142   19.4191 C   0  0  0  0  0  0  0  0  0  0  0  0
   13.0695    6.3705   20.0375 N   0  0  0  0  0  0  0  0  0  0  0  0
    9.1913    8.0876   21.8361 N   0  0  0  0  0  0  0  0  0  0  0  0
   10.4739    9.4813   20.2889 C   0  0  0  0  0  0  0  0  0  0  0  0
    7.5551    7.1270   23.1200 O   0  0  0  0  0  0  0  0  0  0  0  0
  1 11  4  0
  1 21  4  0
  2  4  1  0
  2  8  1  0
  2 11  1  0
  3 10  4  0
  3 14  4  0
  4  5  1  0
  4 18  2  0
  6 12  1  0
  6 17  4  0
  6 23  4  0
  7  9  1  0
  7 13  4  0
  7 19  4  0
  9 20  1  0
 10 19  4  0
 11 25  4  0
 13 14  4  0
 15 16  4  0
 15 17  4  0
 15 21  4  0
 16 24  1  0
 16 25  4  0
 20 24  1  0
 20 26  2  0
 21 23  4  0
 22 23  1  0
M  END
$$$$

 Created by Python create_sdf_string function

 26 28  0  0  0  0  0  0  0  0999 V2000
   12.4616    8.6700   19.4180 N   0  0  0  0  0  0  0  0  0  0  0  0
   11.8329   10.8148   18.6769 N   0  0  0  0  0  0  0  0  0  0  0  0
    6.1021    2.5564   21.0678 C   0  0  0  0  0  0  0  0  0  0  0  0
   10.9097   11.8051   18.4804 C   0  0  0  0  0  0  0  0  0  0  0  0
   11.2280   12.9135   17.5669 C   0  0  0  0  0  0  0  0  0  0  0  0
   12.3782    5.4231   20.7777 C   0  0  0  0  0  0  0  0  0  0  0  0
    7.7365    4.6508   21.6987 C   0  0  0  0  0  0  0  0  0  0  0  0
   13.0186   11.0102   18.0020 C   0  0  0  0  0  0  0  0  0  0  0  0
    8.6628    5.7088   21.8871 N   0  0  0  0  0  0  0  0  0  0  0  0
    5.6516    3.5258   21.9140 C   0  0  0  0  0  0  0  0  0  0  0  0
   11.5863    9.6815   19.4539 C   0  0  0  0  0  0  0  0  0  0  0  0
   12.9648    4.1543   20.9205 C   0  0  0  0  0  0  0  0  0  0  0  0
    8.2089    3.6265   20.8929 C   0  0  0  0  0  0  0  0  0  0  0  0
    7.3827    2.5724   20.5432 C   0  0  0  0  0  0  0  0  0  0  0  0
   11.1529    7.2750   20.8025 C   0  0  0  0  0  0  0  0  0  0  0  0
   10.2573    8.3215   20.9827 C   0  0  0  0  0  0  0  0  0  0  0  0
   11.1606    5.9378   21.2366 N   0  0  0  0  0  0  0  0  0  0  0  0
    9.8932   11.6736   19.0677 O   0  0  0  0  0  0  0  0  0  0  0  0
    6.4470    4.5850   22.2321 C   0  0  0  0  0  0  0  0  0  0  0  0
    8.4619    6.9895   22.2968 C   0  0  0  0  0  0  0  0  0  0  0  0
   12.2747    7.5102   20.0420 C   0  0  0  0  0  0  0  0  0  0  0  0
   14.2544    6.2142   19.4191 C   0  0  0  0  0  0  0  0  0  0  0  0
   13.0695    6.3705   20.0375 N   0  0  0  0  0  0  0  0  0  0  0  0
    9.1913    8.0876   21.8361 N   0  0  0  0  0  0  0  0  0  0  0  0
   10.4739    9.4813   20.2889 C   0  0  0  0  0  0  0  0  0  0  0  0
    7.5551    7.1270   23.1200 O   0  0  0  0  0  0  0  0  0  0  0  0
  1 11  4  0
  1 21  4  0
  2  4  1  0
  2  8  1  0
  2 11  1  0
  3 10  4  0
  3 14  4  0
  4  5  1  0
  4 18  2  0
  6 12  1  0
  6 17  4  0
  6 23  4  0
  7  9  1  0
  7 13  4  0
  7 19  4  0
  9 20  1  0
 10 19  4  0
 11 25  4  0
 13 14  4  0
 15 16  4  0
 15 17  4  0
 15 21  4  0
 16 24  1  0
 16 25  4  0
 20 24  1  0
 20 26  2  0
 21 23  4  0
 22 23  1  0
M  END
$$$$

 Created by Python create_sdf_string function

 26 28  0  0  0  0  0  0  0  0999 V2000
   12.4616    8.6700   19.4180 N   0  0  0  0  0  0  0  0  0  0  0  0
   11.8329   10.8148   18.6769 N   0  0  0  0  0  0  0  0  0  0  0  0
    6.1021    2.5564   21.0678 C   0  0  0  0  0  0  0  0  0  0  0  0
   10.9097   11.8051   18.4804 C   0  0  0  0  0  0  0  0  0  0  0  0
   11.2280   12.9135   17.5669 C   0  0  0  0  0  0  0  0  0  0  0  0
   12.3782    5.4231   20.7777 C   0  0  0  0  0  0  0  0  0  0  0  0
    7.7365    4.6508   21.6987 C   0  0  0  0  0  0  0  0  0  0  0  0
   13.0186   11.0102   18.0020 C   0  0  0  0  0  0  0  0  0  0  0  0
    8.6628    5.7088   21.8871 N   0  0  0  0  0  0  0  0  0  0  0  0
    5.6516    3.5258   21.9140 C   0  0  0  0  0  0  0  0  0  0  0  0
   11.5863    9.6815   19.4539 C   0  0  0  0  0  0  0  0  0  0  0  0
   12.9648    4.1543   20.9205 C   0  0  0  0  0  0  0  0  0  0  0  0
    8.2089    3.6265   20.8929 C   0  0  0  0  0  0  0  0  0  0  0  0
    7.3827    2.5724   20.5432 C   0  0  0  0  0  0  0  0  0  0  0  0
   11.1529    7.2750   20.8025 C   0  0  0  0  0  0  0  0  0  0  0  0
   10.2573    8.3215   20.9827 C   0  0  0  0  0  0  0  0  0  0  0  0
   11.1606    5.9378   21.2366 N   0  0  0  0  0  0  0  0  0  0  0  0
    9.8932   11.6736   19.0677 O   0  0  0  0  0  0  0  0  0  0  0  0
    6.4470    4.5850   22.2321 C   0  0  0  0  0  0  0  0  0  0  0  0
    8.4619    6.9895   22.2968 C   0  0  0  0  0  0  0  0  0  0  0  0
   12.2747    7.5102   20.0420 C   0  0  0  0  0  0  0  0  0  0  0  0
   14.2544    6.2142   19.4191 C   0  0  0  0  0  0  0  0  0  0  0  0
   13.0695    6.3705   20.0375 N   0  0  0  0  0  0  0  0  0  0  0  0
    9.1913    8.0876   21.8361 N   0  0  0  0  0  0  0  0  0  0  0  0
   10.4739    9.4813   20.2889 C   0  0  0  0  0  0  0  0  0  0  0  0
    7.5551    7.1270   23.1200 O   0  0  0  0  0  0  0  0  0  0  0  0
  1 11  4  0
  1 21  4  0
  2  4  1  0
  2  8  1  0
  2 11  1  0
  3 10  4  0
  3 14  4  0
  4  5  1  0
  4 18  2  0
  6 12  1  0
  6 17  4  0
  6 23  4  0
  7  9  1  0
  7 13  4  0
  7 19  4  0
  9 20  1  0
 10 19  4  0
 11 25  4  0
 13 14  4  0
 15 16  4  0
 15 17  4  0
 15 21  4  0
 16 24  1  0
 16 25  4  0
 20 24  1  0
 20 26  2  0
 21 23  4  0
 22 23  1  0
M  END
$$$$

 Created by Python create_sdf_string function

 26 28  0  0  0  0  0  0  0  0999 V2000
   12.4616    8.6700   19.4180 N   0  0  0  0  0  0  0  0  0  0  0  0
   11.8329   10.8148   18.6769 N   0  0  0  0  0  0  0  0  0  0  0  0
    6.1021    2.5564   21.0678 C   0  0  0  0  0  0  0  0  0  0  0  0
   10.9097   11.8051   18.4804 C   0  0  0  0  0  0  0  0  0  0  0  0
   11.2280   12.9135   17.5669 C   0  0  0  0  0  0  0  0  0  0  0  0
   12.3782    5.4231   20.7777 C   0  0  0  0  0  0  0  0  0  0  0  0
    7.7365    4.6508   21.6987 C   0  0  0  0  0  0  0  0  0  0  0  0
   13.0186   11.0102   18.0020 C   0  0  0  0  0  0  0  0  0  0  0  0
    8.6628    5.7088   21.8871 N   0  0  0  0  0  0  0  0  0  0  0  0
    5.6516    3.5258   21.9140 C   0  0  0  0  0  0  0  0  0  0  0  0
   11.5863    9.6815   19.4539 C   0  0  0  0  0  0  0  0  0  0  0  0
   12.9648    4.1543   20.9205 C   0  0  0  0  0  0  0  0  0  0  0  0
    8.2089    3.6265   20.8929 C   0  0  0  0  0  0  0  0  0  0  0  0
    7.3827    2.5724   20.5432 C   0  0  0  0  0  0  0  0  0  0  0  0
   11.1529    7.2750   20.8025 C   0  0  0  0  0  0  0  0  0  0  0  0
   10.2573    8.3215   20.9827 C   0  0  0  0  0  0  0  0  0  0  0  0
   11.1606    5.9378   21.2366 N   0  0  0  0  0  0  0  0  0  0  0  0
    9.8932   11.6736   19.0677 O   0  0  0  0  0  0  0  0  0  0  0  0
    6.4470    4.5850   22.2321 C   0  0  0  0  0  0  0  0  0  0  0  0
    8.4619    6.9895   22.2968 C   0  0  0  0  0  0  0  0  0  0  0  0
   12.2747    7.5102   20.0420 C   0  0  0  0  0  0  0  0  0  0  0  0
   14.2544    6.2142   19.4191 C   0  0  0  0  0  0  0  0  0  0  0  0
   13.0695    6.3705   20.0375 N   0  0  0  0  0  0  0  0  0  0  0  0
    9.1913    8.0876   21.8361 N   0  0  0  0  0  0  0  0  0  0  0  0
   10.4739    9.4813   20.2889 C   0  0  0  0  0  0  0  0  0  0  0  0
    7.5551    7.1270   23.1200 O   0  0  0  0  0  0  0  0  0  0  0  0
  1 11  4  0
  1 21  4  0
  2  4  1  0
  2  8  1  0
  2 11  1  0
  3 10  4  0
  3 14  4  0
  4  5  1  0
  4 18  2  0
  6 12  1  0
  6 17  4  0
  6 23  4  0
  7  9  1  0
  7 13  4  0
  7 19  4  0
  9 20  1  0
 10 19  4  0
 11 25  4  0
 13 14  4  0
 15 16  4  0
 15 17  4  0
 15 21  4  0
 16 24  1  0
 16 25  4  0
 20 24  1  0
 20 26  2  0
 21 23  4  0
 22 23  1  0
M  END
$$$$

 Created by Python create_sdf_string function

 26 28  0  0  0  0  0  0  0  0999 V2000
   12.4616    8.6700   19.4180 N   0  0  0  0  0  0  0  0  0  0  0  0
   11.8329   10.8148   18.6769 N   0  0  0  0  0  0  0  0  0  0  0  0
    6.1021    2.5564   21.0678 C   0  0  0  0  0  0  0  0  0  0  0  0
   10.9097   11.8051   18.4804 C   0  0  0  0  0  0  0  0  0  0  0  0
   11.2280   12.9135   17.5669 C   0  0  0  0  0  0  0  0  0  0  0  0
   12.3782    5.4231   20.7777 C   0  0  0  0  0  0  0  0  0  0  0  0
    7.7365    4.6508   21.6987 C   0  0  0  0  0  0  0  0  0  0  0  0
   13.0186   11.0102   18.0020 C   0  0  0  0  0  0  0  0  0  0  0  0
    8.6628    5.7088   21.8871 N   0  0  0  0  0  0  0  0  0  0  0  0
    5.6516    3.5258   21.9140 C   0  0  0  0  0  0  0  0  0  0  0  0
   11.5863    9.6815   19.4539 C   0  0  0  0  0  0  0  0  0  0  0  0
   12.9648    4.1543   20.9205 C   0  0  0  0  0  0  0  0  0  0  0  0
    8.2089    3.6265   20.8929 C   0  0  0  0  0  0  0  0  0  0  0  0
    7.3827    2.5724   20.5432 C   0  0  0  0  0  0  0  0  0  0  0  0
   11.1529    7.2750   20.8025 C   0  0  0  0  0  0  0  0  0  0  0  0
   10.2573    8.3215   20.9827 C   0  0  0  0  0  0  0  0  0  0  0  0
   11.1606    5.9378   21.2366 N   0  0  0  0  0  0  0  0  0  0  0  0
    9.8932   11.6736   19.0677 O   0  0  0  0  0  0  0  0  0  0  0  0
    6.4470    4.5850   22.2321 C   0  0  0  0  0  0  0  0  0  0  0  0
    8.4619    6.9895   22.2968 C   0  0  0  0  0  0  0  0  0  0  0  0
   12.2747    7.5102   20.0420 C   0  0  0  0  0  0  0  0  0  0  0  0
   14.2544    6.2142   19.4191 C   0  0  0  0  0  0  0  0  0  0  0  0
   13.0695    6.3705   20.0375 N   0  0  0  0  0  0  0  0  0  0  0  0
    9.1913    8.0876   21.8361 N   0  0  0  0  0  0  0  0  0  0  0  0
   10.4739    9.4813   20.2889 C   0  0  0  0  0  0  0  0  0  0  0  0
    7.5551    7.1270   23.1200 O   0  0  0  0  0  0  0  0  0  0  0  0
  1 11  4  0
  1 21  4  0
  2  4  1  0
  2  8  1  0
  2 11  1  0
  3 10  4  0
  3 14  4  0
  4  5  1  0
  4 18  2  0
  6 12  1  0
  6 17  4  0
  6 23  4  0
  7  9  1  0
  7 13  4  0
  7 19  4  0
  9 20  1  0
 10 19  4  0
 11 25  4  0
 13 14  4  0
 15 16  4  0
 15 17  4  0
 15 21  4  0
 16 24  1  0
 16 25  4  0
 20 24  1  0
 20 26  2  0
 21 23  4  0
 22 23  1  0
M  END
$$$$

 Created by Python create_sdf_string function

 26 28  0  0  0  0  0  0  0  0999 V2000
   12.4616    8.6700   19.4180 N   0  0  0  0  0  0  0  0  0  0  0  0
   11.8329   10.8148   18.6769 N   0  0  0  0  0  0  0  0  0  0  0  0
    6.1021    2.5564   21.0678 C   0  0  0  0  0  0  0  0  0  0  0  0
   10.9097   11.8051   18.4804 C   0  0  0  0  0  0  0  0  0  0  0  0
   11.2280   12.9135   17.5669 C   0  0  0  0  0  0  0  0  0  0  0  0
   12.3782    5.4231   20.7777 C   0  0  0  0  0  0  0  0  0  0  0  0
    7.7365    4.6508   21.6987 C   0  0  0  0  0  0  0  0  0  0  0  0
   13.0186   11.0102   18.0020 C   0  0  0  0  0  0  0  0  0  0  0  0
    8.6628    5.7088   21.8871 N   0  0  0  0  0  0  0  0  0  0  0  0
    5.6516    3.5258   21.9140 C   0  0  0  0  0  0  0  0  0  0  0  0
   11.5863    9.6815   19.4539 C   0  0  0  0  0  0  0  0  0  0  0  0
   12.9648    4.1543   20.9205 C   0  0  0  0  0  0  0  0  0  0  0  0
    8.2089    3.6265   20.8929 C   0  0  0  0  0  0  0  0  0  0  0  0
    7.3827    2.5724   20.5432 C   0  0  0  0  0  0  0  0  0  0  0  0
   11.1529    7.2750   20.8025 C   0  0  0  0  0  0  0  0  0  0  0  0
   10.2573    8.3215   20.9827 C   0  0  0  0  0  0  0  0  0  0  0  0
   11.1606    5.9378   21.2366 N   0  0  0  0  0  0  0  0  0  0  0  0
    9.8932   11.6736   19.0677 O   0  0  0  0  0  0  0  0  0  0  0  0
    6.4470    4.5850   22.2321 C   0  0  0  0  0  0  0  0  0  0  0  0
    8.4619    6.9895   22.2968 C   0  0  0  0  0  0  0  0  0  0  0  0
   12.2747    7.5102   20.0420 C   0  0  0  0  0  0  0  0  0  0  0  0
   14.2544    6.2142   19.4191 C   0  0  0  0  0  0  0  0  0  0  0  0
   13.0695    6.3705   20.0375 N   0  0  0  0  0  0  0  0  0  0  0  0
    9.1913    8.0876   21.8361 N   0  0  0  0  0  0  0  0  0  0  0  0
   10.4739    9.4813   20.2889 C   0  0  0  0  0  0  0  0  0  0  0  0
    7.5551    7.1270   23.1200 O   0  0  0  0  0  0  0  0  0  0  0  0
  1 11  4  0
  1 21  4  0
  2  4  1  0
  2  8  1  0
  2 11  1  0
  3 10  4  0
  3 14  4  0
  4  5  1  0
  4 18  2  0
  6 12  1  0
  6 17  4  0
  6 23  4  0
  7  9  1  0
  7 13  4  0
  7 19  4  0
  9 20  1  0
 10 19  4  0
 11 25  4  0
 13 14  4  0
 15 16  4  0
 15 17  4  0
 15 21  4  0
 16 24  1  0
 16 25  4  0
 20 24  1  0
 20 26  2  0
 21 23  4  0
 22 23  1  0
M  END
$$$$

 Created by Python create_sdf_string function

 26 28  0  0  0  0  0  0  0  0999 V2000
   12.4616    8.6700   19.4180 N   0  0  0  0  0  0  0  0  0  0  0  0
   11.8329   10.8148   18.6769 N   0  0  0  0  0  0  0  0  0  0  0  0
    6.1021    2.5564   21.0678 C   0  0  0  0  0  0  0  0  0  0  0  0
   10.9097   11.8051   18.4804 C   0  0  0  0  0  0  0  0  0  0  0  0
   11.2280   12.9135   17.5669 C   0  0  0  0  0  0  0  0  0  0  0  0
   12.3782    5.4231   20.7777 C   0  0  0  0  0  0  0  0  0  0  0  0
    7.7365    4.6508   21.6987 C   0  0  0  0  0  0  0  0  0  0  0  0
   13.0186   11.0102   18.0020 C   0  0  0  0  0  0  0  0  0  0  0  0
    8.6628    5.7088   21.8871 N   0  0  0  0  0  0  0  0  0  0  0  0
    5.6516    3.5258   21.9140 C   0  0  0  0  0  0  0  0  0  0  0  0
   11.5863    9.6815   19.4539 C   0  0  0  0  0  0  0  0  0  0  0  0
   12.9648    4.1543   20.9205 C   0  0  0  0  0  0  0  0  0  0  0  0
    8.2089    3.6265   20.8929 C   0  0  0  0  0  0  0  0  0  0  0  0
    7.3827    2.5724   20.5432 C   0  0  0  0  0  0  0  0  0  0  0  0
   11.1529    7.2750   20.8025 C   0  0  0  0  0  0  0  0  0  0  0  0
   10.2573    8.3215   20.9827 C   0  0  0  0  0  0  0  0  0  0  0  0
   11.1606    5.9378   21.2366 N   0  0  0  0  0  0  0  0  0  0  0  0
    9.8932   11.6736   19.0677 O   0  0  0  0  0  0  0  0  0  0  0  0
    6.4470    4.5850   22.2321 C   0  0  0  0  0  0  0  0  0  0  0  0
    8.4619    6.9895   22.2968 C   0  0  0  0  0  0  0  0  0  0  0  0
   12.2747    7.5102   20.0420 C   0  0  0  0  0  0  0  0  0  0  0  0
   14.2544    6.2142   19.4191 C   0  0  0  0  0  0  0  0  0  0  0  0
   13.0695    6.3705   20.0375 N   0  0  0  0  0  0  0  0  0  0  0  0
    9.1913    8.0876   21.8361 N   0  0  0  0  0  0  0  0  0  0  0  0
   10.4739    9.4813   20.2889 C   0  0  0  0  0  0  0  0  0  0  0  0
    7.5551    7.1270   23.1200 O   0  0  0  0  0  0  0  0  0  0  0  0
  1 11  4  0
  1 21  4  0
  2  4  1  0
  2  8  1  0
  2 11  1  0
  3 10  4  0
  3 14  4  0
  4  5  1  0
  4 18  2  0
  6 12  1  0
  6 17  4  0
  6 23  4  0
  7  9  1  0
  7 13  4  0
  7 19  4  0
  9 20  1  0
 10 19  4  0
 11 25  4  0
 13 14  4  0
 15 16  4  0
 15 17  4  0
 15 21  4  0
 16 24  1  0
 16 25  4  0
 20 24  1  0
 20 26  2  0
 21 23  4  0
 22 23  1  0
M  END
$$$$

 Created by Python create_sdf_string function

 26 28  0  0  0  0  0  0  0  0999 V2000
   12.4616    8.6700   19.4180 N   0  0  0  0  0  0  0  0  0  0  0  0
   11.8329   10.8148   18.6769 N   0  0  0  0  0  0  0  0  0  0  0  0
    6.1021    2.5564   21.0678 C   0  0  0  0  0  0  0  0  0  0  0  0
   10.9097   11.8051   18.4804 C   0  0  0  0  0  0  0  0  0  0  0  0
   11.2280   12.9135   17.5669 C   0  0  0  0  0  0  0  0  0  0  0  0
   12.3782    5.4231   20.7777 C   0  0  0  0  0  0  0  0  0  0  0  0
    7.7365    4.6508   21.6987 C   0  0  0  0  0  0  0  0  0  0  0  0
   13.0186   11.0102   18.0020 C   0  0  0  0  0  0  0  0  0  0  0  0
    8.6628    5.7088   21.8871 N   0  0  0  0  0  0  0  0  0  0  0  0
    5.6516    3.5258   21.9140 C   0  0  0  0  0  0  0  0  0  0  0  0
   11.5863    9.6815   19.4539 C   0  0  0  0  0  0  0  0  0  0  0  0
   12.9648    4.1543   20.9205 C   0  0  0  0  0  0  0  0  0  0  0  0
    8.2089    3.6265   20.8929 C   0  0  0  0  0  0  0  0  0  0  0  0
    7.3827    2.5724   20.5432 C   0  0  0  0  0  0  0  0  0  0  0  0
   11.1529    7.2750   20.8025 C   0  0  0  0  0  0  0  0  0  0  0  0
   10.2573    8.3215   20.9827 C   0  0  0  0  0  0  0  0  0  0  0  0
   11.1606    5.9378   21.2366 N   0  0  0  0  0  0  0  0  0  0  0  0
    9.8932   11.6736   19.0677 O   0  0  0  0  0  0  0  0  0  0  0  0
    6.4470    4.5850   22.2321 C   0  0  0  0  0  0  0  0  0  0  0  0
    8.4619    6.9895   22.2968 C   0  0  0  0  0  0  0  0  0  0  0  0
   12.2747    7.5102   20.0420 C   0  0  0  0  0  0  0  0  0  0  0  0
   14.2544    6.2142   19.4191 C   0  0  0  0  0  0  0  0  0  0  0  0
   13.0695    6.3705   20.0375 N   0  0  0  0  0  0  0  0  0  0  0  0
    9.1913    8.0876   21.8361 N   0  0  0  0  0  0  0  0  0  0  0  0
   10.4739    9.4813   20.2889 C   0  0  0  0  0  0  0  0  0  0  0  0
    7.5551    7.1270   23.1200 O   0  0  0  0  0  0  0  0  0  0  0  0
  1 11  4  0
  1 21  4  0
  2  4  1  0
  2  8  1  0
  2 11  1  0
  3 10  4  0
  3 14  4  0
  4  5  1  0
  4 18  2  0
  6 12  1  0
  6 17  4  0
  6 23  4  0
  7  9  1  0
  7 13  4  0
  7 19  4  0
  9 20  1  0
 10 19  4  0
 11 25  4  0
 13 14  4  0
 15 16  4  0
 15 17  4  0
 15 21  4  0
 16 24  1  0
 16 25  4  0
 20 24  1  0
 20 26  2  0
 21 23  4  0
 22 23  1  0
M  END
$$$$

 Created by Python create_sdf_string function

 26 28  0  0  0  0  0  0  0  0999 V2000
   12.4616    8.6700   19.4180 N   0  0  0  0  0  0  0  0  0  0  0  0
   11.8329   10.8148   18.6769 N   0  0  0  0  0  0  0  0  0  0  0  0
    6.1021    2.5564   21.0678 C   0  0  0  0  0  0  0  0  0  0  0  0
   10.9097   11.8051   18.4804 C   0  0  0  0  0  0  0  0  0  0  0  0
   11.2280   12.9135   17.5669 C   0  0  0  0  0  0  0  0  0  0  0  0
   12.3782    5.4231   20.7777 C   0  0  0  0  0  0  0  0  0  0  0  0
    7.7365    4.6508   21.6987 C   0  0  0  0  0  0  0  0  0  0  0  0
   13.0186   11.0102   18.0020 C   0  0  0  0  0  0  0  0  0  0  0  0
    8.6628    5.7088   21.8871 N   0  0  0  0  0  0  0  0  0  0  0  0
    5.6516    3.5258   21.9140 C   0  0  0  0  0  0  0  0  0  0  0  0
   11.5863    9.6815   19.4539 C   0  0  0  0  0  0  0  0  0  0  0  0
   12.9648    4.1543   20.9205 C   0  0  0  0  0  0  0  0  0  0  0  0
    8.2089    3.6265   20.8929 C   0  0  0  0  0  0  0  0  0  0  0  0
    7.3827    2.5724   20.5432 C   0  0  0  0  0  0  0  0  0  0  0  0
   11.1529    7.2750   20.8025 C   0  0  0  0  0  0  0  0  0  0  0  0
   10.2573    8.3215   20.9827 C   0  0  0  0  0  0  0  0  0  0  0  0
   11.1606    5.9378   21.2366 N   0  0  0  0  0  0  0  0  0  0  0  0
    9.8932   11.6736   19.0677 O   0  0  0  0  0  0  0  0  0  0  0  0
    6.4470    4.5850   22.2321 C   0  0  0  0  0  0  0  0  0  0  0  0
    8.4619    6.9895   22.2968 C   0  0  0  0  0  0  0  0  0  0  0  0
   12.2747    7.5102   20.0420 C   0  0  0  0  0  0  0  0  0  0  0  0
   14.2544    6.2142   19.4191 C   0  0  0  0  0  0  0  0  0  0  0  0
   13.0695    6.3705   20.0375 N   0  0  0  0  0  0  0  0  0  0  0  0
    9.1913    8.0876   21.8361 N   0  0  0  0  0  0  0  0  0  0  0  0
   10.4739    9.4813   20.2889 C   0  0  0  0  0  0  0  0  0  0  0  0
    7.5551    7.1270   23.1200 O   0  0  0  0  0  0  0  0  0  0  0  0
  1 11  4  0
  1 21  4  0
  2  4  1  0
  2  8  1  0
  2 11  1  0
  3 10  4  0
  3 14  4  0
  4  5  1  0
  4 18  2  0
  6 12  1  0
  6 17  4  0
  6 23  4  0
  7  9  1  0
  7 13  4  0
  7 19  4  0
  9 20  1  0
 10 19  4  0
 11 25  4  0
 13 14  4  0
 15 16  4  0
 15 17  4  0
 15 21  4  0
 16 24  1  0
 16 25  4  0
 20 24  1  0
 20 26  2  0
 21 23  4  0
 22 23  1  0
M  END
$$$$

 Created by Python create_sdf_string function

 26 28  0  0  0  0  0  0  0  0999 V2000
   12.4616    8.6700   19.4180 N   0  0  0  0  0  0  0  0  0  0  0  0
   11.8329   10.8148   18.6769 N   0  0  0  0  0  0  0  0  0  0  0  0
    6.1021    2.5564   21.0678 C   0  0  0  0  0  0  0  0  0  0  0  0
   10.9097   11.8051   18.4804 C   0  0  0  0  0  0  0  0  0  0  0  0
   11.2280   12.9135   17.5669 C   0  0  0  0  0  0  0  0  0  0  0  0
   12.3782    5.4231   20.7777 C   0  0  0  0  0  0  0  0  0  0  0  0
    7.7365    4.6508   21.6987 C   0  0  0  0  0  0  0  0  0  0  0  0
   13.0186   11.0102   18.0020 C   0  0  0  0  0  0  0  0  0  0  0  0
    8.6628    5.7088   21.8871 N   0  0  0  0  0  0  0  0  0  0  0  0
    5.6516    3.5258   21.9140 C   0  0  0  0  0  0  0  0  0  0  0  0
   11.5863    9.6815   19.4539 C   0  0  0  0  0  0  0  0  0  0  0  0
   12.9648    4.1543   20.9205 C   0  0  0  0  0  0  0  0  0  0  0  0
    8.2089    3.6265   20.8929 C   0  0  0  0  0  0  0  0  0  0  0  0
    7.3827    2.5724   20.5432 C   0  0  0  0  0  0  0  0  0  0  0  0
   11.1529    7.2750   20.8025 C   0  0  0  0  0  0  0  0  0  0  0  0
   10.2573    8.3215   20.9827 C   0  0  0  0  0  0  0  0  0  0  0  0
   11.1606    5.9378   21.2366 N   0  0  0  0  0  0  0  0  0  0  0  0
    9.8932   11.6736   19.0677 O   0  0  0  0  0  0  0  0  0  0  0  0
    6.4470    4.5850   22.2321 C   0  0  0  0  0  0  0  0  0  0  0  0
    8.4619    6.9895   22.2968 C   0  0  0  0  0  0  0  0  0  0  0  0
   12.2747    7.5102   20.0420 C   0  0  0  0  0  0  0  0  0  0  0  0
   14.2544    6.2142   19.4191 C   0  0  0  0  0  0  0  0  0  0  0  0
   13.0695    6.3705   20.0375 N   0  0  0  0  0  0  0  0  0  0  0  0
    9.1913    8.0876   21.8361 N   0  0  0  0  0  0  0  0  0  0  0  0
   10.4739    9.4813   20.2889 C   0  0  0  0  0  0  0  0  0  0  0  0
    7.5551    7.1270   23.1200 O   0  0  0  0  0  0  0  0  0  0  0  0
  1 11  4  0
  1 21  4  0
  2  4  1  0
  2  8  1  0
  2 11  1  0
  3 10  4  0
  3 14  4  0
  4  5  1  0
  4 18  2  0
  6 12  1  0
  6 17  4  0
  6 23  4  0
  7  9  1  0
  7 13  4  0
  7 19  4  0
  9 20  1  0
 10 19  4  0
 11 25  4  0
 13 14  4  0
 15 16  4  0
 15 17  4  0
 15 21  4  0
 16 24  1  0
 16 25  4  0
 20 24  1  0
 20 26  2  0
 21 23  4  0
 22 23  1  0
M  END
$$$$

 Created by Python create_sdf_string function

 26 28  0  0  0  0  0  0  0  0999 V2000
   12.4616    8.6700   19.4180 N   0  0  0  0  0  0  0  0  0  0  0  0
   11.8329   10.8148   18.6769 N   0  0  0  0  0  0  0  0  0  0  0  0
    6.1021    2.5564   21.0678 C   0  0  0  0  0  0  0  0  0  0  0  0
   10.9097   11.8051   18.4804 C   0  0  0  0  0  0  0  0  0  0  0  0
   11.2280   12.9135   17.5669 C   0  0  0  0  0  0  0  0  0  0  0  0
   12.3782    5.4231   20.7777 C   0  0  0  0  0  0  0  0  0  0  0  0
    7.7365    4.6508   21.6987 C   0  0  0  0  0  0  0  0  0  0  0  0
   13.0186   11.0102   18.0020 C   0  0  0  0  0  0  0  0  0  0  0  0
    8.6628    5.7088   21.8871 N   0  0  0  0  0  0  0  0  0  0  0  0
    5.6516    3.5258   21.9140 C   0  0  0  0  0  0  0  0  0  0  0  0
   11.5863    9.6815   19.4539 C   0  0  0  0  0  0  0  0  0  0  0  0
   12.9648    4.1543   20.9205 C   0  0  0  0  0  0  0  0  0  0  0  0
    8.2089    3.6265   20.8929 C   0  0  0  0  0  0  0  0  0  0  0  0
    7.3827    2.5724   20.5432 C   0  0  0  0  0  0  0  0  0  0  0  0
   11.1529    7.2750   20.8025 C   0  0  0  0  0  0  0  0  0  0  0  0
   10.2573    8.3215   20.9827 C   0  0  0  0  0  0  0  0  0  0  0  0
   11.1606    5.9378   21.2366 N   0  0  0  0  0  0  0  0  0  0  0  0
    9.8932   11.6736   19.0677 O   0  0  0  0  0  0  0  0  0  0  0  0
    6.4470    4.5850   22.2321 C   0  0  0  0  0  0  0  0  0  0  0  0
    8.4619    6.9895   22.2968 C   0  0  0  0  0  0  0  0  0  0  0  0
   12.2747    7.5102   20.0420 C   0  0  0  0  0  0  0  0  0  0  0  0
   14.2544    6.2142   19.4191 C   0  0  0  0  0  0  0  0  0  0  0  0
   13.0695    6.3705   20.0375 N   0  0  0  0  0  0  0  0  0  0  0  0
    9.1913    8.0876   21.8361 N   0  0  0  0  0  0  0  0  0  0  0  0
   10.4739    9.4813   20.2889 C   0  0  0  0  0  0  0  0  0  0  0  0
    7.5551    7.1270   23.1200 O   0  0  0  0  0  0  0  0  0  0  0  0
  1 11  4  0
  1 21  4  0
  2  4  1  0
  2  8  1  0
  2 11  1  0
  3 10  4  0
  3 14  4  0
  4  5  1  0
  4 18  2  0
  6 12  1  0
  6 17  4  0
  6 23  4  0
  7  9  1  0
  7 13  4  0
  7 19  4  0
  9 20  1  0
 10 19  4  0
 11 25  4  0
 13 14  4  0
 15 16  4  0
 15 17  4  0
 15 21  4  0
 16 24  1  0
 16 25  4  0
 20 24  1  0
 20 26  2  0
 21 23  4  0
 22 23  1  0
M  END
$$$$

 Created by Python create_sdf_string function

 26 28  0  0  0  0  0  0  0  0999 V2000
   12.4616    8.6700   19.4180 N   0  0  0  0  0  0  0  0  0  0  0  0
   11.8329   10.8148   18.6769 N   0  0  0  0  0  0  0  0  0  0  0  0
    6.1021    2.5564   21.0678 C   0  0  0  0  0  0  0  0  0  0  0  0
   10.9097   11.8051   18.4804 C   0  0  0  0  0  0  0  0  0  0  0  0
   11.2280   12.9135   17.5669 C   0  0  0  0  0  0  0  0  0  0  0  0
   12.3782    5.4231   20.7777 C   0  0  0  0  0  0  0  0  0  0  0  0
    7.7365    4.6508   21.6987 C   0  0  0  0  0  0  0  0  0  0  0  0
   13.0186   11.0102   18.0020 C   0  0  0  0  0  0  0  0  0  0  0  0
    8.6628    5.7088   21.8871 N   0  0  0  0  0  0  0  0  0  0  0  0
    5.6516    3.5258   21.9140 C   0  0  0  0  0  0  0  0  0  0  0  0
   11.5863    9.6815   19.4539 C   0  0  0  0  0  0  0  0  0  0  0  0
   12.9648    4.1543   20.9205 C   0  0  0  0  0  0  0  0  0  0  0  0
    8.2089    3.6265   20.8929 C   0  0  0  0  0  0  0  0  0  0  0  0
    7.3827    2.5724   20.5432 C   0  0  0  0  0  0  0  0  0  0  0  0
   11.1529    7.2750   20.8025 C   0  0  0  0  0  0  0  0  0  0  0  0
   10.2573    8.3215   20.9827 C   0  0  0  0  0  0  0  0  0  0  0  0
   11.1606    5.9378   21.2366 N   0  0  0  0  0  0  0  0  0  0  0  0
    9.8932   11.6736   19.0677 O   0  0  0  0  0  0  0  0  0  0  0  0
    6.4470    4.5850   22.2321 C   0  0  0  0  0  0  0  0  0  0  0  0
    8.4619    6.9895   22.2968 C   0  0  0  0  0  0  0  0  0  0  0  0
   12.2747    7.5102   20.0420 C   0  0  0  0  0  0  0  0  0  0  0  0
   14.2544    6.2142   19.4191 C   0  0  0  0  0  0  0  0  0  0  0  0
   13.0695    6.3705   20.0375 N   0  0  0  0  0  0  0  0  0  0  0  0
    9.1913    8.0876   21.8361 N   0  0  0  0  0  0  0  0  0  0  0  0
   10.4739    9.4813   20.2889 C   0  0  0  0  0  0  0  0  0  0  0  0
    7.5551    7.1270   23.1200 O   0  0  0  0  0  0  0  0  0  0  0  0
  1 11  4  0
  1 21  4  0
  2  4  1  0
  2  8  1  0
  2 11  1  0
  3 10  4  0
  3 14  4  0
  4  5  1  0
  4 18  2  0
  6 12  1  0
  6 17  4  0
  6 23  4  0
  7  9  1  0
  7 13  4  0
  7 19  4  0
  9 20  1  0
 10 19  4  0
 11 25  4  0
 13 14  4  0
 15 16  4  0
 15 17  4  0
 15 21  4  0
 16 24  1  0
 16 25  4  0
 20 24  1  0
 20 26  2  0
 21 23  4  0
 22 23  1  0
M  END
$$$$

 Created by Python create_sdf_string function

 26 28  0  0  0  0  0  0  0  0999 V2000
   12.4616    8.6700   19.4180 N   0  0  0  0  0  0  0  0  0  0  0  0
   11.8329   10.8148   18.6769 N   0  0  0  0  0  0  0  0  0  0  0  0
    6.1021    2.5564   21.0678 C   0  0  0  0  0  0  0  0  0  0  0  0
   10.9097   11.8051   18.4804 C   0  0  0  0  0  0  0  0  0  0  0  0
   11.2280   12.9135   17.5669 C   0  0  0  0  0  0  0  0  0  0  0  0
   12.3782    5.4231   20.7777 C   0  0  0  0  0  0  0  0  0  0  0  0
    7.7365    4.6508   21.6987 C   0  0  0  0  0  0  0  0  0  0  0  0
   13.0186   11.0102   18.0020 C   0  0  0  0  0  0  0  0  0  0  0  0
    8.6628    5.7088   21.8871 N   0  0  0  0  0  0  0  0  0  0  0  0
    5.6516    3.5258   21.9140 C   0  0  0  0  0  0  0  0  0  0  0  0
   11.5863    9.6815   19.4539 C   0  0  0  0  0  0  0  0  0  0  0  0
   12.9648    4.1543   20.9205 C   0  0  0  0  0  0  0  0  0  0  0  0
    8.2089    3.6265   20.8929 C   0  0  0  0  0  0  0  0  0  0  0  0
    7.3827    2.5724   20.5432 C   0  0  0  0  0  0  0  0  0  0  0  0
   11.1529    7.2750   20.8025 C   0  0  0  0  0  0  0  0  0  0  0  0
   10.2573    8.3215   20.9827 C   0  0  0  0  0  0  0  0  0  0  0  0
   11.1606    5.9378   21.2366 N   0  0  0  0  0  0  0  0  0  0  0  0
    9.8932   11.6736   19.0677 O   0  0  0  0  0  0  0  0  0  0  0  0
    6.4470    4.5850   22.2321 C   0  0  0  0  0  0  0  0  0  0  0  0
    8.4619    6.9895   22.2968 C   0  0  0  0  0  0  0  0  0  0  0  0
   12.2747    7.5102   20.0420 C   0  0  0  0  0  0  0  0  0  0  0  0
   14.2544    6.2142   19.4191 C   0  0  0  0  0  0  0  0  0  0  0  0
   13.0695    6.3705   20.0375 N   0  0  0  0  0  0  0  0  0  0  0  0
    9.1913    8.0876   21.8361 N   0  0  0  0  0  0  0  0  0  0  0  0
   10.4739    9.4813   20.2889 C   0  0  0  0  0  0  0  0  0  0  0  0
    7.5551    7.1270   23.1200 O   0  0  0  0  0  0  0  0  0  0  0  0
  1 11  4  0
  1 21  4  0
  2  4  1  0
  2  8  1  0
  2 11  1  0
  3 10  4  0
  3 14  4  0
  4  5  1  0
  4 18  2  0
  6 12  1  0
  6 17  4  0
  6 23  4  0
  7  9  1  0
  7 13  4  0
  7 19  4  0
  9 20  1  0
 10 19  4  0
 11 25  4  0
 13 14  4  0
 15 16  4  0
 15 17  4  0
 15 21  4  0
 16 24  1  0
 16 25  4  0
 20 24  1  0
 20 26  2  0
 21 23  4  0
 22 23  1  0
M  END
$$$$

 Created by Python create_sdf_string function

 26 28  0  0  0  0  0  0  0  0999 V2000
   12.4616    8.6700   19.4180 N   0  0  0  0  0  0  0  0  0  0  0  0
   11.8329   10.8148   18.6769 N   0  0  0  0  0  0  0  0  0  0  0  0
    6.1021    2.5564   21.0678 C   0  0  0  0  0  0  0  0  0  0  0  0
   10.9097   11.8051   18.4804 C   0  0  0  0  0  0  0  0  0  0  0  0
   11.2280   12.9135   17.5669 C   0  0  0  0  0  0  0  0  0  0  0  0
   12.3782    5.4231   20.7777 C   0  0  0  0  0  0  0  0  0  0  0  0
    7.7365    4.6508   21.6987 C   0  0  0  0  0  0  0  0  0  0  0  0
   13.0186   11.0102   18.0020 C   0  0  0  0  0  0  0  0  0  0  0  0
    8.6628    5.7088   21.8871 N   0  0  0  0  0  0  0  0  0  0  0  0
    5.6516    3.5258   21.9140 C   0  0  0  0  0  0  0  0  0  0  0  0
   11.5863    9.6815   19.4539 C   0  0  0  0  0  0  0  0  0  0  0  0
   12.9648    4.1543   20.9205 C   0  0  0  0  0  0  0  0  0  0  0  0
    8.2089    3.6265   20.8929 C   0  0  0  0  0  0  0  0  0  0  0  0
    7.3827    2.5724   20.5432 C   0  0  0  0  0  0  0  0  0  0  0  0
   11.1529    7.2750   20.8025 C   0  0  0  0  0  0  0  0  0  0  0  0
   10.2573    8.3215   20.9827 C   0  0  0  0  0  0  0  0  0  0  0  0
   11.1606    5.9378   21.2366 N   0  0  0  0  0  0  0  0  0  0  0  0
    9.8932   11.6736   19.0677 O   0  0  0  0  0  0  0  0  0  0  0  0
    6.4470    4.5850   22.2321 C   0  0  0  0  0  0  0  0  0  0  0  0
    8.4619    6.9895   22.2968 C   0  0  0  0  0  0  0  0  0  0  0  0
   12.2747    7.5102   20.0420 C   0  0  0  0  0  0  0  0  0  0  0  0
   14.2544    6.2142   19.4191 C   0  0  0  0  0  0  0  0  0  0  0  0
   13.0695    6.3705   20.0375 N   0  0  0  0  0  0  0  0  0  0  0  0
    9.1913    8.0876   21.8361 N   0  0  0  0  0  0  0  0  0  0  0  0
   10.4739    9.4813   20.2889 C   0  0  0  0  0  0  0  0  0  0  0  0
    7.5551    7.1270   23.1200 O   0  0  0  0  0  0  0  0  0  0  0  0
  1 11  4  0
  1 21  4  0
  2  4  1  0
  2  8  1  0
  2 11  1  0
  3 10  4  0
  3 14  4  0
  4  5  1  0
  4 18  2  0
  6 12  1  0
  6 17  4  0
  6 23  4  0
  7  9  1  0
  7 13  4  0
  7 19  4  0
  9 20  1  0
 10 19  4  0
 11 25  4  0
 13 14  4  0
 15 16  4  0
 15 17  4  0
 15 21  4  0
 16 24  1  0
 16 25  4  0
 20 24  1  0
 20 26  2  0
 21 23  4  0
 22 23  1  0
M  END
$$$$

 Created by Python create_sdf_string function

 26 28  0  0  0  0  0  0  0  0999 V2000
   12.4616    8.6700   19.4180 N   0  0  0  0  0  0  0  0  0  0  0  0
   11.8329   10.8148   18.6769 N   0  0  0  0  0  0  0  0  0  0  0  0
    6.1021    2.5564   21.0678 C   0  0  0  0  0  0  0  0  0  0  0  0
   10.9097   11.8051   18.4804 C   0  0  0  0  0  0  0  0  0  0  0  0
   11.2280   12.9135   17.5669 C   0  0  0  0  0  0  0  0  0  0  0  0
   12.3782    5.4231   20.7777 C   0  0  0  0  0  0  0  0  0  0  0  0
    7.7365    4.6508   21.6987 C   0  0  0  0  0  0  0  0  0  0  0  0
   13.0186   11.0102   18.0020 C   0  0  0  0  0  0  0  0  0  0  0  0
    8.6628    5.7088   21.8871 N   0  0  0  0  0  0  0  0  0  0  0  0
    5.6516    3.5258   21.9140 C   0  0  0  0  0  0  0  0  0  0  0  0
   11.5863    9.6815   19.4539 C   0  0  0  0  0  0  0  0  0  0  0  0
   12.9648    4.1543   20.9205 C   0  0  0  0  0  0  0  0  0  0  0  0
    8.2089    3.6265   20.8929 C   0  0  0  0  0  0  0  0  0  0  0  0
    7.3827    2.5724   20.5432 C   0  0  0  0  0  0  0  0  0  0  0  0
   11.1529    7.2750   20.8025 C   0  0  0  0  0  0  0  0  0  0  0  0
   10.2573    8.3215   20.9827 C   0  0  0  0  0  0  0  0  0  0  0  0
   11.1606    5.9378   21.2366 N   0  0  0  0  0  0  0  0  0  0  0  0
    9.8932   11.6736   19.0677 O   0  0  0  0  0  0  0  0  0  0  0  0
    6.4470    4.5850   22.2321 C   0  0  0  0  0  0  0  0  0  0  0  0
    8.4619    6.9895   22.2968 C   0  0  0  0  0  0  0  0  0  0  0  0
   12.2747    7.5102   20.0420 C   0  0  0  0  0  0  0  0  0  0  0  0
   14.2544    6.2142   19.4191 C   0  0  0  0  0  0  0  0  0  0  0  0
   13.0695    6.3705   20.0375 N   0  0  0  0  0  0  0  0  0  0  0  0
    9.1913    8.0876   21.8361 N   0  0  0  0  0  0  0  0  0  0  0  0
   10.4739    9.4813   20.2889 C   0  0  0  0  0  0  0  0  0  0  0  0
    7.5551    7.1270   23.1200 O   0  0  0  0  0  0  0  0  0  0  0  0
  1 11  4  0
  1 21  4  0
  2  4  1  0
  2  8  1  0
  2 11  1  0
  3 10  4  0
  3 14  4  0
  4  5  1  0
  4 18  2  0
  6 12  1  0
  6 17  4  0
  6 23  4  0
  7  9  1  0
  7 13  4  0
  7 19  4  0
  9 20  1  0
 10 19  4  0
 11 25  4  0
 13 14  4  0
 15 16  4  0
 15 17  4  0
 15 21  4  0
 16 24  1  0
 16 25  4  0
 20 24  1  0
 20 26  2  0
 21 23  4  0
 22 23  1  0
M  END
$$$$

 Created by Python create_sdf_string function

 26 28  0  0  0  0  0  0  0  0999 V2000
   12.4616    8.6700   19.4180 N   0  0  0  0  0  0  0  0  0  0  0  0
   11.8329   10.8148   18.6769 N   0  0  0  0  0  0  0  0  0  0  0  0
    6.1021    2.5564   21.0678 C   0  0  0  0  0  0  0  0  0  0  0  0
   10.9097   11.8051   18.4804 C   0  0  0  0  0  0  0  0  0  0  0  0
   11.2280   12.9135   17.5669 C   0  0  0  0  0  0  0  0  0  0  0  0
   12.3782    5.4231   20.7777 C   0  0  0  0  0  0  0  0  0  0  0  0
    7.7365    4.6508   21.6987 C   0  0  0  0  0  0  0  0  0  0  0  0
   13.0186   11.0102   18.0020 C   0  0  0  0  0  0  0  0  0  0  0  0
    8.6628    5.7088   21.8871 N   0  0  0  0  0  0  0  0  0  0  0  0
    5.6516    3.5258   21.9140 C   0  0  0  0  0  0  0  0  0  0  0  0
   11.5863    9.6815   19.4539 C   0  0  0  0  0  0  0  0  0  0  0  0
   12.9648    4.1543   20.9205 C   0  0  0  0  0  0  0  0  0  0  0  0
    8.2089    3.6265   20.8929 C   0  0  0  0  0  0  0  0  0  0  0  0
    7.3827    2.5724   20.5432 C   0  0  0  0  0  0  0  0  0  0  0  0
   11.1529    7.2750   20.8025 C   0  0  0  0  0  0  0  0  0  0  0  0
   10.2573    8.3215   20.9827 C   0  0  0  0  0  0  0  0  0  0  0  0
   11.1606    5.9378   21.2366 N   0  0  0  0  0  0  0  0  0  0  0  0
    9.8932   11.6736   19.0677 O   0  0  0  0  0  0  0  0  0  0  0  0
    6.4470    4.5850   22.2321 C   0  0  0  0  0  0  0  0  0  0  0  0
    8.4619    6.9895   22.2968 C   0  0  0  0  0  0  0  0  0  0  0  0
   12.2747    7.5102   20.0420 C   0  0  0  0  0  0  0  0  0  0  0  0
   14.2544    6.2142   19.4191 C   0  0  0  0  0  0  0  0  0  0  0  0
   13.0695    6.3705   20.0375 N   0  0  0  0  0  0  0  0  0  0  0  0
    9.1913    8.0876   21.8361 N   0  0  0  0  0  0  0  0  0  0  0  0
   10.4739    9.4813   20.2889 C   0  0  0  0  0  0  0  0  0  0  0  0
    7.5551    7.1270   23.1200 O   0  0  0  0  0  0  0  0  0  0  0  0
  1 11  4  0
  1 21  4  0
  2  4  1  0
  2  8  1  0
  2 11  1  0
  3 10  4  0
  3 14  4  0
  4  5  1  0
  4 18  2  0
  6 12  1  0
  6 17  4  0
  6 23  4  0
  7  9  1  0
  7 13  4  0
  7 19  4  0
  9 20  1  0
 10 19  4  0
 11 25  4  0
 13 14  4  0
 15 16  4  0
 15 17  4  0
 15 21  4  0
 16 24  1  0
 16 25  4  0
 20 24  1  0
 20 26  2  0
 21 23  4  0
 22 23  1  0
M  END
$$$$

 Created by Python create_sdf_string function

 26 28  0  0  0  0  0  0  0  0999 V2000
   12.4616    8.6700   19.4180 N   0  0  0  0  0  0  0  0  0  0  0  0
   11.8329   10.8148   18.6769 N   0  0  0  0  0  0  0  0  0  0  0  0
    6.1021    2.5564   21.0678 C   0  0  0  0  0  0  0  0  0  0  0  0
   10.9097   11.8051   18.4804 C   0  0  0  0  0  0  0  0  0  0  0  0
   11.2280   12.9135   17.5669 C   0  0  0  0  0  0  0  0  0  0  0  0
   12.3782    5.4231   20.7777 C   0  0  0  0  0  0  0  0  0  0  0  0
    7.7365    4.6508   21.6987 C   0  0  0  0  0  0  0  0  0  0  0  0
   13.0186   11.0102   18.0020 C   0  0  0  0  0  0  0  0  0  0  0  0
    8.6628    5.7088   21.8871 N   0  0  0  0  0  0  0  0  0  0  0  0
    5.6516    3.5258   21.9140 C   0  0  0  0  0  0  0  0  0  0  0  0
   11.5863    9.6815   19.4539 C   0  0  0  0  0  0  0  0  0  0  0  0
   12.9648    4.1543   20.9205 C   0  0  0  0  0  0  0  0  0  0  0  0
    8.2089    3.6265   20.8929 C   0  0  0  0  0  0  0  0  0  0  0  0
    7.3827    2.5724   20.5432 C   0  0  0  0  0  0  0  0  0  0  0  0
   11.1529    7.2750   20.8025 C   0  0  0  0  0  0  0  0  0  0  0  0
   10.2573    8.3215   20.9827 C   0  0  0  0  0  0  0  0  0  0  0  0
   11.1606    5.9378   21.2366 N   0  0  0  0  0  0  0  0  0  0  0  0
    9.8932   11.6736   19.0677 O   0  0  0  0  0  0  0  0  0  0  0  0
    6.4470    4.5850   22.2321 C   0  0  0  0  0  0  0  0  0  0  0  0
    8.4619    6.9895   22.2968 C   0  0  0  0  0  0  0  0  0  0  0  0
   12.2747    7.5102   20.0420 C   0  0  0  0  0  0  0  0  0  0  0  0
   14.2544    6.2142   19.4191 C   0  0  0  0  0  0  0  0  0  0  0  0
   13.0695    6.3705   20.0375 N   0  0  0  0  0  0  0  0  0  0  0  0
    9.1913    8.0876   21.8361 N   0  0  0  0  0  0  0  0  0  0  0  0
   10.4739    9.4813   20.2889 C   0  0  0  0  0  0  0  0  0  0  0  0
    7.5551    7.1270   23.1200 O   0  0  0  0  0  0  0  0  0  0  0  0
  1 11  4  0
  1 21  4  0
  2  4  1  0
  2  8  1  0
  2 11  1  0
  3 10  4  0
  3 14  4  0
  4  5  1  0
  4 18  2  0
  6 12  1  0
  6 17  4  0
  6 23  4  0
  7  9  1  0
  7 13  4  0
  7 19  4  0
  9 20  1  0
 10 19  4  0
 11 25  4  0
 13 14  4  0
 15 16  4  0
 15 17  4  0
 15 21  4  0
 16 24  1  0
 16 25  4  0
 20 24  1  0
 20 26  2  0
 21 23  4  0
 22 23  1  0
M  END
$$$$

 Created by Python create_sdf_string function

 26 28  0  0  0  0  0  0  0  0999 V2000
   12.4616    8.6700   19.4180 N   0  0  0  0  0  0  0  0  0  0  0  0
   11.8329   10.8148   18.6769 N   0  0  0  0  0  0  0  0  0  0  0  0
    6.1021    2.5564   21.0678 C   0  0  0  0  0  0  0  0  0  0  0  0
   10.9097   11.8051   18.4804 C   0  0  0  0  0  0  0  0  0  0  0  0
   11.2280   12.9135   17.5669 C   0  0  0  0  0  0  0  0  0  0  0  0
   12.3782    5.4231   20.7777 C   0  0  0  0  0  0  0  0  0  0  0  0
    7.7365    4.6508   21.6987 C   0  0  0  0  0  0  0  0  0  0  0  0
   13.0186   11.0102   18.0020 C   0  0  0  0  0  0  0  0  0  0  0  0
    8.6628    5.7088   21.8871 N   0  0  0  0  0  0  0  0  0  0  0  0
    5.6516    3.5258   21.9140 C   0  0  0  0  0  0  0  0  0  0  0  0
   11.5863    9.6815   19.4539 C   0  0  0  0  0  0  0  0  0  0  0  0
   12.9648    4.1543   20.9205 C   0  0  0  0  0  0  0  0  0  0  0  0
    8.2089    3.6265   20.8929 C   0  0  0  0  0  0  0  0  0  0  0  0
    7.3827    2.5724   20.5432 C   0  0  0  0  0  0  0  0  0  0  0  0
   11.1529    7.2750   20.8025 C   0  0  0  0  0  0  0  0  0  0  0  0
   10.2573    8.3215   20.9827 C   0  0  0  0  0  0  0  0  0  0  0  0
   11.1606    5.9378   21.2366 N   0  0  0  0  0  0  0  0  0  0  0  0
    9.8932   11.6736   19.0677 O   0  0  0  0  0  0  0  0  0  0  0  0
    6.4470    4.5850   22.2321 C   0  0  0  0  0  0  0  0  0  0  0  0
    8.4619    6.9895   22.2968 C   0  0  0  0  0  0  0  0  0  0  0  0
   12.2747    7.5102   20.0420 C   0  0  0  0  0  0  0  0  0  0  0  0
   14.2544    6.2142   19.4191 C   0  0  0  0  0  0  0  0  0  0  0  0
   13.0695    6.3705   20.0375 N   0  0  0  0  0  0  0  0  0  0  0  0
    9.1913    8.0876   21.8361 N   0  0  0  0  0  0  0  0  0  0  0  0
   10.4739    9.4813   20.2889 C   0  0  0  0  0  0  0  0  0  0  0  0
    7.5551    7.1270   23.1200 O   0  0  0  0  0  0  0  0  0  0  0  0
  1 11  4  0
  1 21  4  0
  2  4  1  0
  2  8  1  0
  2 11  1  0
  3 10  4  0
  3 14  4  0
  4  5  1  0
  4 18  2  0
  6 12  1  0
  6 17  4  0
  6 23  4  0
  7  9  1  0
  7 13  4  0
  7 19  4  0
  9 20  1  0
 10 19  4  0
 11 25  4  0
 13 14  4  0
 15 16  4  0
 15 17  4  0
 15 21  4  0
 16 24  1  0
 16 25  4  0
 20 24  1  0
 20 26  2  0
 21 23  4  0
 22 23  1  0
M  END
$$$$

 Created by Python create_sdf_string function

 26 28  0  0  0  0  0  0  0  0999 V2000
   12.4616    8.6700   19.4180 N   0  0  0  0  0  0  0  0  0  0  0  0
   11.8329   10.8148   18.6769 N   0  0  0  0  0  0  0  0  0  0  0  0
    6.1021    2.5564   21.0678 C   0  0  0  0  0  0  0  0  0  0  0  0
   10.9097   11.8051   18.4804 C   0  0  0  0  0  0  0  0  0  0  0  0
   11.2280   12.9135   17.5669 C   0  0  0  0  0  0  0  0  0  0  0  0
   12.3782    5.4231   20.7777 C   0  0  0  0  0  0  0  0  0  0  0  0
    7.7365    4.6508   21.6987 C   0  0  0  0  0  0  0  0  0  0  0  0
   13.0186   11.0102   18.0020 C   0  0  0  0  0  0  0  0  0  0  0  0
    8.6628    5.7088   21.8871 N   0  0  0  0  0  0  0  0  0  0  0  0
    5.6516    3.5258   21.9140 C   0  0  0  0  0  0  0  0  0  0  0  0
   11.5863    9.6815   19.4539 C   0  0  0  0  0  0  0  0  0  0  0  0
   12.9648    4.1543   20.9205 C   0  0  0  0  0  0  0  0  0  0  0  0
    8.2089    3.6265   20.8929 C   0  0  0  0  0  0  0  0  0  0  0  0
    7.3827    2.5724   20.5432 C   0  0  0  0  0  0  0  0  0  0  0  0
   11.1529    7.2750   20.8025 C   0  0  0  0  0  0  0  0  0  0  0  0
   10.2573    8.3215   20.9827 C   0  0  0  0  0  0  0  0  0  0  0  0
   11.1606    5.9378   21.2366 N   0  0  0  0  0  0  0  0  0  0  0  0
    9.8932   11.6736   19.0677 O   0  0  0  0  0  0  0  0  0  0  0  0
    6.4470    4.5850   22.2321 C   0  0  0  0  0  0  0  0  0  0  0  0
    8.4619    6.9895   22.2968 C   0  0  0  0  0  0  0  0  0  0  0  0
   12.2747    7.5102   20.0420 C   0  0  0  0  0  0  0  0  0  0  0  0
   14.2544    6.2142   19.4191 C   0  0  0  0  0  0  0  0  0  0  0  0
   13.0695    6.3705   20.0375 N   0  0  0  0  0  0  0  0  0  0  0  0
    9.1913    8.0876   21.8361 N   0  0  0  0  0  0  0  0  0  0  0  0
   10.4739    9.4813   20.2889 C   0  0  0  0  0  0  0  0  0  0  0  0
    7.5551    7.1270   23.1200 O   0  0  0  0  0  0  0  0  0  0  0  0
  1 11  4  0
  1 21  4  0
  2  4  1  0
  2  8  1  0
  2 11  1  0
  3 10  4  0
  3 14  4  0
  4  5  1  0
  4 18  2  0
  6 12  1  0
  6 17  4  0
  6 23  4  0
  7  9  1  0
  7 13  4  0
  7 19  4  0
  9 20  1  0
 10 19  4  0
 11 25  4  0
 13 14  4  0
 15 16  4  0
 15 17  4  0
 15 21  4  0
 16 24  1  0
 16 25  4  0
 20 24  1  0
 20 26  2  0
 21 23  4  0
 22 23  1  0
M  END
$$$$

 Created by Python create_sdf_string function

 26 28  0  0  0  0  0  0  0  0999 V2000
   12.4616    8.6700   19.4180 N   0  0  0  0  0  0  0  0  0  0  0  0
   11.8329   10.8148   18.6769 N   0  0  0  0  0  0  0  0  0  0  0  0
    6.1021    2.5564   21.0678 C   0  0  0  0  0  0  0  0  0  0  0  0
   10.9097   11.8051   18.4804 C   0  0  0  0  0  0  0  0  0  0  0  0
   11.2280   12.9135   17.5669 C   0  0  0  0  0  0  0  0  0  0  0  0
   12.3782    5.4231   20.7777 C   0  0  0  0  0  0  0  0  0  0  0  0
    7.7365    4.6508   21.6987 C   0  0  0  0  0  0  0  0  0  0  0  0
   13.0186   11.0102   18.0020 C   0  0  0  0  0  0  0  0  0  0  0  0
    8.6628    5.7088   21.8871 N   0  0  0  0  0  0  0  0  0  0  0  0
    5.6516    3.5258   21.9140 C   0  0  0  0  0  0  0  0  0  0  0  0
   11.5863    9.6815   19.4539 C   0  0  0  0  0  0  0  0  0  0  0  0
   12.9648    4.1543   20.9205 C   0  0  0  0  0  0  0  0  0  0  0  0
    8.2089    3.6265   20.8929 C   0  0  0  0  0  0  0  0  0  0  0  0
    7.3827    2.5724   20.5432 C   0  0  0  0  0  0  0  0  0  0  0  0
   11.1529    7.2750   20.8025 C   0  0  0  0  0  0  0  0  0  0  0  0
   10.2573    8.3215   20.9827 C   0  0  0  0  0  0  0  0  0  0  0  0
   11.1606    5.9378   21.2366 N   0  0  0  0  0  0  0  0  0  0  0  0
    9.8932   11.6736   19.0677 O   0  0  0  0  0  0  0  0  0  0  0  0
    6.4470    4.5850   22.2321 C   0  0  0  0  0  0  0  0  0  0  0  0
    8.4619    6.9895   22.2968 C   0  0  0  0  0  0  0  0  0  0  0  0
   12.2747    7.5102   20.0420 C   0  0  0  0  0  0  0  0  0  0  0  0
   14.2544    6.2142   19.4191 C   0  0  0  0  0  0  0  0  0  0  0  0
   13.0695    6.3705   20.0375 N   0  0  0  0  0  0  0  0  0  0  0  0
    9.1913    8.0876   21.8361 N   0  0  0  0  0  0  0  0  0  0  0  0
   10.4739    9.4813   20.2889 C   0  0  0  0  0  0  0  0  0  0  0  0
    7.5551    7.1270   23.1200 O   0  0  0  0  0  0  0  0  0  0  0  0
  1 11  4  0
  1 21  4  0
  2  4  1  0
  2  8  1  0
  2 11  1  0
  3 10  4  0
  3 14  4  0
  4  5  1  0
  4 18  2  0
  6 12  1  0
  6 17  4  0
  6 23  4  0
  7  9  1  0
  7 13  4  0
  7 19  4  0
  9 20  1  0
 10 19  4  0
 11 25  4  0
 13 14  4  0
 15 16  4  0
 15 17  4  0
 15 21  4  0
 16 24  1  0
 16 25  4  0
 20 24  1  0
 20 26  2  0
 21 23  4  0
 22 23  1  0
M  END
$$$$

 Created by Python create_sdf_string function

 26 28  0  0  0  0  0  0  0  0999 V2000
   12.4616    8.6700   19.4180 N   0  0  0  0  0  0  0  0  0  0  0  0
   11.8329   10.8148   18.6769 N   0  0  0  0  0  0  0  0  0  0  0  0
    6.1021    2.5564   21.0678 C   0  0  0  0  0  0  0  0  0  0  0  0
   10.9097   11.8051   18.4804 C   0  0  0  0  0  0  0  0  0  0  0  0
   11.2280   12.9135   17.5669 C   0  0  0  0  0  0  0  0  0  0  0  0
   12.3782    5.4231   20.7777 C   0  0  0  0  0  0  0  0  0  0  0  0
    7.7365    4.6508   21.6987 C   0  0  0  0  0  0  0  0  0  0  0  0
   13.0186   11.0102   18.0020 C   0  0  0  0  0  0  0  0  0  0  0  0
    8.6628    5.7088   21.8871 N   0  0  0  0  0  0  0  0  0  0  0  0
    5.6516    3.5258   21.9140 C   0  0  0  0  0  0  0  0  0  0  0  0
   11.5863    9.6815   19.4539 C   0  0  0  0  0  0  0  0  0  0  0  0
   12.9648    4.1543   20.9205 C   0  0  0  0  0  0  0  0  0  0  0  0
    8.2089    3.6265   20.8929 C   0  0  0  0  0  0  0  0  0  0  0  0
    7.3827    2.5724   20.5432 C   0  0  0  0  0  0  0  0  0  0  0  0
   11.1529    7.2750   20.8025 C   0  0  0  0  0  0  0  0  0  0  0  0
   10.2573    8.3215   20.9827 C   0  0  0  0  0  0  0  0  0  0  0  0
   11.1606    5.9378   21.2366 N   0  0  0  0  0  0  0  0  0  0  0  0
    9.8932   11.6736   19.0677 O   0  0  0  0  0  0  0  0  0  0  0  0
    6.4470    4.5850   22.2321 C   0  0  0  0  0  0  0  0  0  0  0  0
    8.4619    6.9895   22.2968 C   0  0  0  0  0  0  0  0  0  0  0  0
   12.2747    7.5102   20.0420 C   0  0  0  0  0  0  0  0  0  0  0  0
   14.2544    6.2142   19.4191 C   0  0  0  0  0  0  0  0  0  0  0  0
   13.0695    6.3705   20.0375 N   0  0  0  0  0  0  0  0  0  0  0  0
    9.1913    8.0876   21.8361 N   0  0  0  0  0  0  0  0  0  0  0  0
   10.4739    9.4813   20.2889 C   0  0  0  0  0  0  0  0  0  0  0  0
    7.5551    7.1270   23.1200 O   0  0  0  0  0  0  0  0  0  0  0  0
  1 11  4  0
  1 21  4  0
  2  4  1  0
  2  8  1  0
  2 11  1  0
  3 10  4  0
  3 14  4  0
  4  5  1  0
  4 18  2  0
  6 12  1  0
  6 17  4  0
  6 23  4  0
  7  9  1  0
  7 13  4  0
  7 19  4  0
  9 20  1  0
 10 19  4  0
 11 25  4  0
 13 14  4  0
 15 16  4  0
 15 17  4  0
 15 21  4  0
 16 24  1  0
 16 25  4  0
 20 24  1  0
 20 26  2  0
 21 23  4  0
 22 23  1  0
M  END
$$$$

 Created by Python create_sdf_string function

 26 28  0  0  0  0  0  0  0  0999 V2000
   12.4616    8.6700   19.4180 N   0  0  0  0  0  0  0  0  0  0  0  0
   11.8329   10.8148   18.6769 N   0  0  0  0  0  0  0  0  0  0  0  0
    6.1021    2.5564   21.0678 C   0  0  0  0  0  0  0  0  0  0  0  0
   10.9097   11.8051   18.4804 C   0  0  0  0  0  0  0  0  0  0  0  0
   11.2280   12.9135   17.5669 C   0  0  0  0  0  0  0  0  0  0  0  0
   12.3782    5.4231   20.7777 C   0  0  0  0  0  0  0  0  0  0  0  0
    7.7365    4.6508   21.6987 C   0  0  0  0  0  0  0  0  0  0  0  0
   13.0186   11.0102   18.0020 C   0  0  0  0  0  0  0  0  0  0  0  0
    8.6628    5.7088   21.8871 N   0  0  0  0  0  0  0  0  0  0  0  0
    5.6516    3.5258   21.9140 C   0  0  0  0  0  0  0  0  0  0  0  0
   11.5863    9.6815   19.4539 C   0  0  0  0  0  0  0  0  0  0  0  0
   12.9648    4.1543   20.9205 C   0  0  0  0  0  0  0  0  0  0  0  0
    8.2089    3.6265   20.8929 C   0  0  0  0  0  0  0  0  0  0  0  0
    7.3827    2.5724   20.5432 C   0  0  0  0  0  0  0  0  0  0  0  0
   11.1529    7.2750   20.8025 C   0  0  0  0  0  0  0  0  0  0  0  0
   10.2573    8.3215   20.9827 C   0  0  0  0  0  0  0  0  0  0  0  0
   11.1606    5.9378   21.2366 N   0  0  0  0  0  0  0  0  0  0  0  0
    9.8932   11.6736   19.0677 O   0  0  0  0  0  0  0  0  0  0  0  0
    6.4470    4.5850   22.2321 C   0  0  0  0  0  0  0  0  0  0  0  0
    8.4619    6.9895   22.2968 C   0  0  0  0  0  0  0  0  0  0  0  0
   12.2747    7.5102   20.0420 C   0  0  0  0  0  0  0  0  0  0  0  0
   14.2544    6.2142   19.4191 C   0  0  0  0  0  0  0  0  0  0  0  0
   13.0695    6.3705   20.0375 N   0  0  0  0  0  0  0  0  0  0  0  0
    9.1913    8.0876   21.8361 N   0  0  0  0  0  0  0  0  0  0  0  0
   10.4739    9.4813   20.2889 C   0  0  0  0  0  0  0  0  0  0  0  0
    7.5551    7.1270   23.1200 O   0  0  0  0  0  0  0  0  0  0  0  0
  1 11  4  0
  1 21  4  0
  2  4  1  0
  2  8  1  0
  2 11  1  0
  3 10  4  0
  3 14  4  0
  4  5  1  0
  4 18  2  0
  6 12  1  0
  6 17  4  0
  6 23  4  0
  7  9  1  0
  7 13  4  0
  7 19  4  0
  9 20  1  0
 10 19  4  0
 11 25  4  0
 13 14  4  0
 15 16  4  0
 15 17  4  0
 15 21  4  0
 16 24  1  0
 16 25  4  0
 20 24  1  0
 20 26  2  0
 21 23  4  0
 22 23  1  0
M  END
$$$$

 Created by Python create_sdf_string function

 26 28  0  0  0  0  0  0  0  0999 V2000
   12.4616    8.6700   19.4180 N   0  0  0  0  0  0  0  0  0  0  0  0
   11.8329   10.8148   18.6769 N   0  0  0  0  0  0  0  0  0  0  0  0
    6.1021    2.5564   21.0678 C   0  0  0  0  0  0  0  0  0  0  0  0
   10.9097   11.8051   18.4804 C   0  0  0  0  0  0  0  0  0  0  0  0
   11.2280   12.9135   17.5669 C   0  0  0  0  0  0  0  0  0  0  0  0
   12.3782    5.4231   20.7777 C   0  0  0  0  0  0  0  0  0  0  0  0
    7.7365    4.6508   21.6987 C   0  0  0  0  0  0  0  0  0  0  0  0
   13.0186   11.0102   18.0020 C   0  0  0  0  0  0  0  0  0  0  0  0
    8.6628    5.7088   21.8871 N   0  0  0  0  0  0  0  0  0  0  0  0
    5.6516    3.5258   21.9140 C   0  0  0  0  0  0  0  0  0  0  0  0
   11.5863    9.6815   19.4539 C   0  0  0  0  0  0  0  0  0  0  0  0
   12.9648    4.1543   20.9205 C   0  0  0  0  0  0  0  0  0  0  0  0
    8.2089    3.6265   20.8929 C   0  0  0  0  0  0  0  0  0  0  0  0
    7.3827    2.5724   20.5432 C   0  0  0  0  0  0  0  0  0  0  0  0
   11.1529    7.2750   20.8025 C   0  0  0  0  0  0  0  0  0  0  0  0
   10.2573    8.3215   20.9827 C   0  0  0  0  0  0  0  0  0  0  0  0
   11.1606    5.9378   21.2366 N   0  0  0  0  0  0  0  0  0  0  0  0
    9.8932   11.6736   19.0677 O   0  0  0  0  0  0  0  0  0  0  0  0
    6.4470    4.5850   22.2321 C   0  0  0  0  0  0  0  0  0  0  0  0
    8.4619    6.9895   22.2968 C   0  0  0  0  0  0  0  0  0  0  0  0
   12.2747    7.5102   20.0420 C   0  0  0  0  0  0  0  0  0  0  0  0
   14.2544    6.2142   19.4191 C   0  0  0  0  0  0  0  0  0  0  0  0
   13.0695    6.3705   20.0375 N   0  0  0  0  0  0  0  0  0  0  0  0
    9.1913    8.0876   21.8361 N   0  0  0  0  0  0  0  0  0  0  0  0
   10.4739    9.4813   20.2889 C   0  0  0  0  0  0  0  0  0  0  0  0
    7.5551    7.1270   23.1200 O   0  0  0  0  0  0  0  0  0  0  0  0
  1 11  4  0
  1 21  4  0
  2  4  1  0
  2  8  1  0
  2 11  1  0
  3 10  4  0
  3 14  4  0
  4  5  1  0
  4 18  2  0
  6 12  1  0
  6 17  4  0
  6 23  4  0
  7  9  1  0
  7 13  4  0
  7 19  4  0
  9 20  1  0
 10 19  4  0
 11 25  4  0
 13 14  4  0
 15 16  4  0
 15 17  4  0
 15 21  4  0
 16 24  1  0
 16 25  4  0
 20 24  1  0
 20 26  2  0
 21 23  4  0
 22 23  1  0
M  END
$$$$

 Created by Python create_sdf_string function

 26 28  0  0  0  0  0  0  0  0999 V2000
   12.4616    8.6700   19.4180 N   0  0  0  0  0  0  0  0  0  0  0  0
   11.8329   10.8148   18.6769 N   0  0  0  0  0  0  0  0  0  0  0  0
    6.1021    2.5564   21.0678 C   0  0  0  0  0  0  0  0  0  0  0  0
   10.9097   11.8051   18.4804 C   0  0  0  0  0  0  0  0  0  0  0  0
   11.2280   12.9135   17.5669 C   0  0  0  0  0  0  0  0  0  0  0  0
   12.3782    5.4231   20.7777 C   0  0  0  0  0  0  0  0  0  0  0  0
    7.7365    4.6508   21.6987 C   0  0  0  0  0  0  0  0  0  0  0  0
   13.0186   11.0102   18.0020 C   0  0  0  0  0  0  0  0  0  0  0  0
    8.6628    5.7088   21.8871 N   0  0  0  0  0  0  0  0  0  0  0  0
    5.6516    3.5258   21.9140 C   0  0  0  0  0  0  0  0  0  0  0  0
   11.5863    9.6815   19.4539 C   0  0  0  0  0  0  0  0  0  0  0  0
   12.9648    4.1543   20.9205 C   0  0  0  0  0  0  0  0  0  0  0  0
    8.2089    3.6265   20.8929 C   0  0  0  0  0  0  0  0  0  0  0  0
    7.3827    2.5724   20.5432 C   0  0  0  0  0  0  0  0  0  0  0  0
   11.1529    7.2750   20.8025 C   0  0  0  0  0  0  0  0  0  0  0  0
   10.2573    8.3215   20.9827 C   0  0  0  0  0  0  0  0  0  0  0  0
   11.1606    5.9378   21.2366 N   0  0  0  0  0  0  0  0  0  0  0  0
    9.8932   11.6736   19.0677 O   0  0  0  0  0  0  0  0  0  0  0  0
    6.4470    4.5850   22.2321 C   0  0  0  0  0  0  0  0  0  0  0  0
    8.4619    6.9895   22.2968 C   0  0  0  0  0  0  0  0  0  0  0  0
   12.2747    7.5102   20.0420 C   0  0  0  0  0  0  0  0  0  0  0  0
   14.2544    6.2142   19.4191 C   0  0  0  0  0  0  0  0  0  0  0  0
   13.0695    6.3705   20.0375 N   0  0  0  0  0  0  0  0  0  0  0  0
    9.1913    8.0876   21.8361 N   0  0  0  0  0  0  0  0  0  0  0  0
   10.4739    9.4813   20.2889 C   0  0  0  0  0  0  0  0  0  0  0  0
    7.5551    7.1270   23.1200 O   0  0  0  0  0  0  0  0  0  0  0  0
  1 11  4  0
  1 21  4  0
  2  4  1  0
  2  8  1  0
  2 11  1  0
  3 10  4  0
  3 14  4  0
  4  5  1  0
  4 18  2  0
  6 12  1  0
  6 17  4  0
  6 23  4  0
  7  9  1  0
  7 13  4  0
  7 19  4  0
  9 20  1  0
 10 19  4  0
 11 25  4  0
 13 14  4  0
 15 16  4  0
 15 17  4  0
 15 21  4  0
 16 24  1  0
 16 25  4  0
 20 24  1  0
 20 26  2  0
 21 23  4  0
 22 23  1  0
M  END
$$$$

 Created by Python create_sdf_string function

 26 28  0  0  0  0  0  0  0  0999 V2000
   12.4616    8.6700   19.4180 N   0  0  0  0  0  0  0  0  0  0  0  0
   11.8329   10.8148   18.6769 N   0  0  0  0  0  0  0  0  0  0  0  0
    6.1021    2.5564   21.0678 C   0  0  0  0  0  0  0  0  0  0  0  0
   10.9097   11.8051   18.4804 C   0  0  0  0  0  0  0  0  0  0  0  0
   11.2280   12.9135   17.5669 C   0  0  0  0  0  0  0  0  0  0  0  0
   12.3782    5.4231   20.7777 C   0  0  0  0  0  0  0  0  0  0  0  0
    7.7365    4.6508   21.6987 C   0  0  0  0  0  0  0  0  0  0  0  0
   13.0186   11.0102   18.0020 C   0  0  0  0  0  0  0  0  0  0  0  0
    8.6628    5.7088   21.8871 N   0  0  0  0  0  0  0  0  0  0  0  0
    5.6516    3.5258   21.9140 C   0  0  0  0  0  0  0  0  0  0  0  0
   11.5863    9.6815   19.4539 C   0  0  0  0  0  0  0  0  0  0  0  0
   12.9648    4.1543   20.9205 C   0  0  0  0  0  0  0  0  0  0  0  0
    8.2089    3.6265   20.8929 C   0  0  0  0  0  0  0  0  0  0  0  0
    7.3827    2.5724   20.5432 C   0  0  0  0  0  0  0  0  0  0  0  0
   11.1529    7.2750   20.8025 C   0  0  0  0  0  0  0  0  0  0  0  0
   10.2573    8.3215   20.9827 C   0  0  0  0  0  0  0  0  0  0  0  0
   11.1606    5.9378   21.2366 N   0  0  0  0  0  0  0  0  0  0  0  0
    9.8932   11.6736   19.0677 O   0  0  0  0  0  0  0  0  0  0  0  0
    6.4470    4.5850   22.2321 C   0  0  0  0  0  0  0  0  0  0  0  0
    8.4619    6.9895   22.2968 C   0  0  0  0  0  0  0  0  0  0  0  0
   12.2747    7.5102   20.0420 C   0  0  0  0  0  0  0  0  0  0  0  0
   14.2544    6.2142   19.4191 C   0  0  0  0  0  0  0  0  0  0  0  0
   13.0695    6.3705   20.0375 N   0  0  0  0  0  0  0  0  0  0  0  0
    9.1913    8.0876   21.8361 N   0  0  0  0  0  0  0  0  0  0  0  0
   10.4739    9.4813   20.2889 C   0  0  0  0  0  0  0  0  0  0  0  0
    7.5551    7.1270   23.1200 O   0  0  0  0  0  0  0  0  0  0  0  0
  1 11  4  0
  1 21  4  0
  2  4  1  0
  2  8  1  0
  2 11  1  0
  3 10  4  0
  3 14  4  0
  4  5  1  0
  4 18  2  0
  6 12  1  0
  6 17  4  0
  6 23  4  0
  7  9  1  0
  7 13  4  0
  7 19  4  0
  9 20  1  0
 10 19  4  0
 11 25  4  0
 13 14  4  0
 15 16  4  0
 15 17  4  0
 15 21  4  0
 16 24  1  0
 16 25  4  0
 20 24  1  0
 20 26  2  0
 21 23  4  0
 22 23  1  0
M  END
$$$$

 Created by Python create_sdf_string function

 26 28  0  0  0  0  0  0  0  0999 V2000
   12.4616    8.6700   19.4180 N   0  0  0  0  0  0  0  0  0  0  0  0
   11.8329   10.8148   18.6769 N   0  0  0  0  0  0  0  0  0  0  0  0
    6.1021    2.5564   21.0678 C   0  0  0  0  0  0  0  0  0  0  0  0
   10.9097   11.8051   18.4804 C   0  0  0  0  0  0  0  0  0  0  0  0
   11.2280   12.9135   17.5669 C   0  0  0  0  0  0  0  0  0  0  0  0
   12.3782    5.4231   20.7777 C   0  0  0  0  0  0  0  0  0  0  0  0
    7.7365    4.6508   21.6987 C   0  0  0  0  0  0  0  0  0  0  0  0
   13.0186   11.0102   18.0020 C   0  0  0  0  0  0  0  0  0  0  0  0
    8.6628    5.7088   21.8871 N   0  0  0  0  0  0  0  0  0  0  0  0
    5.6516    3.5258   21.9140 C   0  0  0  0  0  0  0  0  0  0  0  0
   11.5863    9.6815   19.4539 C   0  0  0  0  0  0  0  0  0  0  0  0
   12.9648    4.1543   20.9205 C   0  0  0  0  0  0  0  0  0  0  0  0
    8.2089    3.6265   20.8929 C   0  0  0  0  0  0  0  0  0  0  0  0
    7.3827    2.5724   20.5432 C   0  0  0  0  0  0  0  0  0  0  0  0
   11.1529    7.2750   20.8025 C   0  0  0  0  0  0  0  0  0  0  0  0
   10.2573    8.3215   20.9827 C   0  0  0  0  0  0  0  0  0  0  0  0
   11.1606    5.9378   21.2366 N   0  0  0  0  0  0  0  0  0  0  0  0
    9.8932   11.6736   19.0677 O   0  0  0  0  0  0  0  0  0  0  0  0
    6.4470    4.5850   22.2321 C   0  0  0  0  0  0  0  0  0  0  0  0
    8.4619    6.9895   22.2968 C   0  0  0  0  0  0  0  0  0  0  0  0
   12.2747    7.5102   20.0420 C   0  0  0  0  0  0  0  0  0  0  0  0
   14.2544    6.2142   19.4191 C   0  0  0  0  0  0  0  0  0  0  0  0
   13.0695    6.3705   20.0375 N   0  0  0  0  0  0  0  0  0  0  0  0
    9.1913    8.0876   21.8361 N   0  0  0  0  0  0  0  0  0  0  0  0
   10.4739    9.4813   20.2889 C   0  0  0  0  0  0  0  0  0  0  0  0
    7.5551    7.1270   23.1200 O   0  0  0  0  0  0  0  0  0  0  0  0
  1 11  4  0
  1 21  4  0
  2  4  1  0
  2  8  1  0
  2 11  1  0
  3 10  4  0
  3 14  4  0
  4  5  1  0
  4 18  2  0
  6 12  1  0
  6 17  4  0
  6 23  4  0
  7  9  1  0
  7 13  4  0
  7 19  4  0
  9 20  1  0
 10 19  4  0
 11 25  4  0
 13 14  4  0
 15 16  4  0
 15 17  4  0
 15 21  4  0
 16 24  1  0
 16 25  4  0
 20 24  1  0
 20 26  2  0
 21 23  4  0
 22 23  1  0
M  END
$$$$

 Created by Python create_sdf_string function

 26 28  0  0  0  0  0  0  0  0999 V2000
   12.4616    8.6700   19.4180 N   0  0  0  0  0  0  0  0  0  0  0  0
   11.8329   10.8148   18.6769 N   0  0  0  0  0  0  0  0  0  0  0  0
    6.1021    2.5564   21.0678 C   0  0  0  0  0  0  0  0  0  0  0  0
   10.9097   11.8051   18.4804 C   0  0  0  0  0  0  0  0  0  0  0  0
   11.2280   12.9135   17.5669 C   0  0  0  0  0  0  0  0  0  0  0  0
   12.3782    5.4231   20.7777 C   0  0  0  0  0  0  0  0  0  0  0  0
    7.7365    4.6508   21.6987 C   0  0  0  0  0  0  0  0  0  0  0  0
   13.0186   11.0102   18.0020 C   0  0  0  0  0  0  0  0  0  0  0  0
    8.6628    5.7088   21.8871 N   0  0  0  0  0  0  0  0  0  0  0  0
    5.6516    3.5258   21.9140 C   0  0  0  0  0  0  0  0  0  0  0  0
   11.5863    9.6815   19.4539 C   0  0  0  0  0  0  0  0  0  0  0  0
   12.9648    4.1543   20.9205 C   0  0  0  0  0  0  0  0  0  0  0  0
    8.2089    3.6265   20.8929 C   0  0  0  0  0  0  0  0  0  0  0  0
    7.3827    2.5724   20.5432 C   0  0  0  0  0  0  0  0  0  0  0  0
   11.1529    7.2750   20.8025 C   0  0  0  0  0  0  0  0  0  0  0  0
   10.2573    8.3215   20.9827 C   0  0  0  0  0  0  0  0  0  0  0  0
   11.1606    5.9378   21.2366 N   0  0  0  0  0  0  0  0  0  0  0  0
    9.8932   11.6736   19.0677 O   0  0  0  0  0  0  0  0  0  0  0  0
    6.4470    4.5850   22.2321 C   0  0  0  0  0  0  0  0  0  0  0  0
    8.4619    6.9895   22.2968 C   0  0  0  0  0  0  0  0  0  0  0  0
   12.2747    7.5102   20.0420 C   0  0  0  0  0  0  0  0  0  0  0  0
   14.2544    6.2142   19.4191 C   0  0  0  0  0  0  0  0  0  0  0  0
   13.0695    6.3705   20.0375 N   0  0  0  0  0  0  0  0  0  0  0  0
    9.1913    8.0876   21.8361 N   0  0  0  0  0  0  0  0  0  0  0  0
   10.4739    9.4813   20.2889 C   0  0  0  0  0  0  0  0  0  0  0  0
    7.5551    7.1270   23.1200 O   0  0  0  0  0  0  0  0  0  0  0  0
  1 11  4  0
  1 21  4  0
  2  4  1  0
  2  8  1  0
  2 11  1  0
  3 10  4  0
  3 14  4  0
  4  5  1  0
  4 18  2  0
  6 12  1  0
  6 17  4  0
  6 23  4  0
  7  9  1  0
  7 13  4  0
  7 19  4  0
  9 20  1  0
 10 19  4  0
 11 25  4  0
 13 14  4  0
 15 16  4  0
 15 17  4  0
 15 21  4  0
 16 24  1  0
 16 25  4  0
 20 24  1  0
 20 26  2  0
 21 23  4  0
 22 23  1  0
M  END
$$$$

 Created by Python create_sdf_string function

 26 28  0  0  0  0  0  0  0  0999 V2000
   12.4616    8.6700   19.4180 N   0  0  0  0  0  0  0  0  0  0  0  0
   11.8329   10.8148   18.6769 N   0  0  0  0  0  0  0  0  0  0  0  0
    6.1021    2.5564   21.0678 C   0  0  0  0  0  0  0  0  0  0  0  0
   10.9097   11.8051   18.4804 C   0  0  0  0  0  0  0  0  0  0  0  0
   11.2280   12.9135   17.5669 C   0  0  0  0  0  0  0  0  0  0  0  0
   12.3782    5.4231   20.7777 C   0  0  0  0  0  0  0  0  0  0  0  0
    7.7365    4.6508   21.6987 C   0  0  0  0  0  0  0  0  0  0  0  0
   13.0186   11.0102   18.0020 C   0  0  0  0  0  0  0  0  0  0  0  0
    8.6628    5.7088   21.8871 N   0  0  0  0  0  0  0  0  0  0  0  0
    5.6516    3.5258   21.9140 C   0  0  0  0  0  0  0  0  0  0  0  0
   11.5863    9.6815   19.4539 C   0  0  0  0  0  0  0  0  0  0  0  0
   12.9648    4.1543   20.9205 C   0  0  0  0  0  0  0  0  0  0  0  0
    8.2089    3.6265   20.8929 C   0  0  0  0  0  0  0  0  0  0  0  0
    7.3827    2.5724   20.5432 C   0  0  0  0  0  0  0  0  0  0  0  0
   11.1529    7.2750   20.8025 C   0  0  0  0  0  0  0  0  0  0  0  0
   10.2573    8.3215   20.9827 C   0  0  0  0  0  0  0  0  0  0  0  0
   11.1606    5.9378   21.2366 N   0  0  0  0  0  0  0  0  0  0  0  0
    9.8932   11.6736   19.0677 O   0  0  0  0  0  0  0  0  0  0  0  0
    6.4470    4.5850   22.2321 C   0  0  0  0  0  0  0  0  0  0  0  0
    8.4619    6.9895   22.2968 C   0  0  0  0  0  0  0  0  0  0  0  0
   12.2747    7.5102   20.0420 C   0  0  0  0  0  0  0  0  0  0  0  0
   14.2544    6.2142   19.4191 C   0  0  0  0  0  0  0  0  0  0  0  0
   13.0695    6.3705   20.0375 N   0  0  0  0  0  0  0  0  0  0  0  0
    9.1913    8.0876   21.8361 N   0  0  0  0  0  0  0  0  0  0  0  0
   10.4739    9.4813   20.2889 C   0  0  0  0  0  0  0  0  0  0  0  0
    7.5551    7.1270   23.1200 O   0  0  0  0  0  0  0  0  0  0  0  0
  1 11  4  0
  1 21  4  0
  2  4  1  0
  2  8  1  0
  2 11  1  0
  3 10  4  0
  3 14  4  0
  4  5  1  0
  4 18  2  0
  6 12  1  0
  6 17  4  0
  6 23  4  0
  7  9  1  0
  7 13  4  0
  7 19  4  0
  9 20  1  0
 10 19  4  0
 11 25  4  0
 13 14  4  0
 15 16  4  0
 15 17  4  0
 15 21  4  0
 16 24  1  0
 16 25  4  0
 20 24  1  0
 20 26  2  0
 21 23  4  0
 22 23  1  0
M  END
$$$$

 Created by Python create_sdf_string function

 26 28  0  0  0  0  0  0  0  0999 V2000
   12.4616    8.6700   19.4180 N   0  0  0  0  0  0  0  0  0  0  0  0
   11.8329   10.8148   18.6769 N   0  0  0  0  0  0  0  0  0  0  0  0
    6.1021    2.5564   21.0678 C   0  0  0  0  0  0  0  0  0  0  0  0
   10.9097   11.8051   18.4804 C   0  0  0  0  0  0  0  0  0  0  0  0
   11.2280   12.9135   17.5669 C   0  0  0  0  0  0  0  0  0  0  0  0
   12.3782    5.4231   20.7777 C   0  0  0  0  0  0  0  0  0  0  0  0
    7.7365    4.6508   21.6987 C   0  0  0  0  0  0  0  0  0  0  0  0
   13.0186   11.0102   18.0020 C   0  0  0  0  0  0  0  0  0  0  0  0
    8.6628    5.7088   21.8871 N   0  0  0  0  0  0  0  0  0  0  0  0
    5.6516    3.5258   21.9140 C   0  0  0  0  0  0  0  0  0  0  0  0
   11.5863    9.6815   19.4539 C   0  0  0  0  0  0  0  0  0  0  0  0
   12.9648    4.1543   20.9205 C   0  0  0  0  0  0  0  0  0  0  0  0
    8.2089    3.6265   20.8929 C   0  0  0  0  0  0  0  0  0  0  0  0
    7.3827    2.5724   20.5432 C   0  0  0  0  0  0  0  0  0  0  0  0
   11.1529    7.2750   20.8025 C   0  0  0  0  0  0  0  0  0  0  0  0
   10.2573    8.3215   20.9827 C   0  0  0  0  0  0  0  0  0  0  0  0
   11.1606    5.9378   21.2366 N   0  0  0  0  0  0  0  0  0  0  0  0
    9.8932   11.6736   19.0677 O   0  0  0  0  0  0  0  0  0  0  0  0
    6.4470    4.5850   22.2321 C   0  0  0  0  0  0  0  0  0  0  0  0
    8.4619    6.9895   22.2968 C   0  0  0  0  0  0  0  0  0  0  0  0
   12.2747    7.5102   20.0420 C   0  0  0  0  0  0  0  0  0  0  0  0
   14.2544    6.2142   19.4191 C   0  0  0  0  0  0  0  0  0  0  0  0
   13.0695    6.3705   20.0375 N   0  0  0  0  0  0  0  0  0  0  0  0
    9.1913    8.0876   21.8361 N   0  0  0  0  0  0  0  0  0  0  0  0
   10.4739    9.4813   20.2889 C   0  0  0  0  0  0  0  0  0  0  0  0
    7.5551    7.1270   23.1200 O   0  0  0  0  0  0  0  0  0  0  0  0
  1 11  4  0
  1 21  4  0
  2  4  1  0
  2  8  1  0
  2 11  1  0
  3 10  4  0
  3 14  4  0
  4  5  1  0
  4 18  2  0
  6 12  1  0
  6 17  4  0
  6 23  4  0
  7  9  1  0
  7 13  4  0
  7 19  4  0
  9 20  1  0
 10 19  4  0
 11 25  4  0
 13 14  4  0
 15 16  4  0
 15 17  4  0
 15 21  4  0
 16 24  1  0
 16 25  4  0
 20 24  1  0
 20 26  2  0
 21 23  4  0
 22 23  1  0
M  END
$$$$

 Created by Python create_sdf_string function

 26 28  0  0  0  0  0  0  0  0999 V2000
   12.4616    8.6700   19.4180 N   0  0  0  0  0  0  0  0  0  0  0  0
   11.8329   10.8148   18.6769 N   0  0  0  0  0  0  0  0  0  0  0  0
    6.1021    2.5564   21.0678 C   0  0  0  0  0  0  0  0  0  0  0  0
   10.9097   11.8051   18.4804 C   0  0  0  0  0  0  0  0  0  0  0  0
   11.2280   12.9135   17.5669 C   0  0  0  0  0  0  0  0  0  0  0  0
   12.3782    5.4231   20.7777 C   0  0  0  0  0  0  0  0  0  0  0  0
    7.7365    4.6508   21.6987 C   0  0  0  0  0  0  0  0  0  0  0  0
   13.0186   11.0102   18.0020 C   0  0  0  0  0  0  0  0  0  0  0  0
    8.6628    5.7088   21.8871 N   0  0  0  0  0  0  0  0  0  0  0  0
    5.6516    3.5258   21.9140 C   0  0  0  0  0  0  0  0  0  0  0  0
   11.5863    9.6815   19.4539 C   0  0  0  0  0  0  0  0  0  0  0  0
   12.9648    4.1543   20.9205 C   0  0  0  0  0  0  0  0  0  0  0  0
    8.2089    3.6265   20.8929 C   0  0  0  0  0  0  0  0  0  0  0  0
    7.3827    2.5724   20.5432 C   0  0  0  0  0  0  0  0  0  0  0  0
   11.1529    7.2750   20.8025 C   0  0  0  0  0  0  0  0  0  0  0  0
   10.2573    8.3215   20.9827 C   0  0  0  0  0  0  0  0  0  0  0  0
   11.1606    5.9378   21.2366 N   0  0  0  0  0  0  0  0  0  0  0  0
    9.8932   11.6736   19.0677 O   0  0  0  0  0  0  0  0  0  0  0  0
    6.4470    4.5850   22.2321 C   0  0  0  0  0  0  0  0  0  0  0  0
    8.4619    6.9895   22.2968 C   0  0  0  0  0  0  0  0  0  0  0  0
   12.2747    7.5102   20.0420 C   0  0  0  0  0  0  0  0  0  0  0  0
   14.2544    6.2142   19.4191 C   0  0  0  0  0  0  0  0  0  0  0  0
   13.0695    6.3705   20.0375 N   0  0  0  0  0  0  0  0  0  0  0  0
    9.1913    8.0876   21.8361 N   0  0  0  0  0  0  0  0  0  0  0  0
   10.4739    9.4813   20.2889 C   0  0  0  0  0  0  0  0  0  0  0  0
    7.5551    7.1270   23.1200 O   0  0  0  0  0  0  0  0  0  0  0  0
  1 11  4  0
  1 21  4  0
  2  4  1  0
  2  8  1  0
  2 11  1  0
  3 10  4  0
  3 14  4  0
  4  5  1  0
  4 18  2  0
  6 12  1  0
  6 17  4  0
  6 23  4  0
  7  9  1  0
  7 13  4  0
  7 19  4  0
  9 20  1  0
 10 19  4  0
 11 25  4  0
 13 14  4  0
 15 16  4  0
 15 17  4  0
 15 21  4  0
 16 24  1  0
 16 25  4  0
 20 24  1  0
 20 26  2  0
 21 23  4  0
 22 23  1  0
M  END
$$$$

 Created by Python create_sdf_string function

 26 28  0  0  0  0  0  0  0  0999 V2000
   12.4616    8.6700   19.4180 N   0  0  0  0  0  0  0  0  0  0  0  0
   11.8329   10.8148   18.6769 N   0  0  0  0  0  0  0  0  0  0  0  0
    6.1021    2.5564   21.0678 C   0  0  0  0  0  0  0  0  0  0  0  0
   10.9097   11.8051   18.4804 C   0  0  0  0  0  0  0  0  0  0  0  0
   11.2280   12.9135   17.5669 C   0  0  0  0  0  0  0  0  0  0  0  0
   12.3782    5.4231   20.7777 C   0  0  0  0  0  0  0  0  0  0  0  0
    7.7365    4.6508   21.6987 C   0  0  0  0  0  0  0  0  0  0  0  0
   13.0186   11.0102   18.0020 C   0  0  0  0  0  0  0  0  0  0  0  0
    8.6628    5.7088   21.8871 N   0  0  0  0  0  0  0  0  0  0  0  0
    5.6516    3.5258   21.9140 C   0  0  0  0  0  0  0  0  0  0  0  0
   11.5863    9.6815   19.4539 C   0  0  0  0  0  0  0  0  0  0  0  0
   12.9648    4.1543   20.9205 C   0  0  0  0  0  0  0  0  0  0  0  0
    8.2089    3.6265   20.8929 C   0  0  0  0  0  0  0  0  0  0  0  0
    7.3827    2.5724   20.5432 C   0  0  0  0  0  0  0  0  0  0  0  0
   11.1529    7.2750   20.8025 C   0  0  0  0  0  0  0  0  0  0  0  0
   10.2573    8.3215   20.9827 C   0  0  0  0  0  0  0  0  0  0  0  0
   11.1606    5.9378   21.2366 N   0  0  0  0  0  0  0  0  0  0  0  0
    9.8932   11.6736   19.0677 O   0  0  0  0  0  0  0  0  0  0  0  0
    6.4470    4.5850   22.2321 C   0  0  0  0  0  0  0  0  0  0  0  0
    8.4619    6.9895   22.2968 C   0  0  0  0  0  0  0  0  0  0  0  0
   12.2747    7.5102   20.0420 C   0  0  0  0  0  0  0  0  0  0  0  0
   14.2544    6.2142   19.4191 C   0  0  0  0  0  0  0  0  0  0  0  0
   13.0695    6.3705   20.0375 N   0  0  0  0  0  0  0  0  0  0  0  0
    9.1913    8.0876   21.8361 N   0  0  0  0  0  0  0  0  0  0  0  0
   10.4739    9.4813   20.2889 C   0  0  0  0  0  0  0  0  0  0  0  0
    7.5551    7.1270   23.1200 O   0  0  0  0  0  0  0  0  0  0  0  0
  1 11  4  0
  1 21  4  0
  2  4  1  0
  2  8  1  0
  2 11  1  0
  3 10  4  0
  3 14  4  0
  4  5  1  0
  4 18  2  0
  6 12  1  0
  6 17  4  0
  6 23  4  0
  7  9  1  0
  7 13  4  0
  7 19  4  0
  9 20  1  0
 10 19  4  0
 11 25  4  0
 13 14  4  0
 15 16  4  0
 15 17  4  0
 15 21  4  0
 16 24  1  0
 16 25  4  0
 20 24  1  0
 20 26  2  0
 21 23  4  0
 22 23  1  0
M  END
$$$$

 Created by Python create_sdf_string function

 26 28  0  0  0  0  0  0  0  0999 V2000
   12.4616    8.6700   19.4180 N   0  0  0  0  0  0  0  0  0  0  0  0
   11.8329   10.8148   18.6769 N   0  0  0  0  0  0  0  0  0  0  0  0
    6.1021    2.5564   21.0678 C   0  0  0  0  0  0  0  0  0  0  0  0
   10.9097   11.8051   18.4804 C   0  0  0  0  0  0  0  0  0  0  0  0
   11.2280   12.9135   17.5669 C   0  0  0  0  0  0  0  0  0  0  0  0
   12.3782    5.4231   20.7777 C   0  0  0  0  0  0  0  0  0  0  0  0
    7.7365    4.6508   21.6987 C   0  0  0  0  0  0  0  0  0  0  0  0
   13.0186   11.0102   18.0020 C   0  0  0  0  0  0  0  0  0  0  0  0
    8.6628    5.7088   21.8871 N   0  0  0  0  0  0  0  0  0  0  0  0
    5.6516    3.5258   21.9140 C   0  0  0  0  0  0  0  0  0  0  0  0
   11.5863    9.6815   19.4539 C   0  0  0  0  0  0  0  0  0  0  0  0
   12.9648    4.1543   20.9205 C   0  0  0  0  0  0  0  0  0  0  0  0
    8.2089    3.6265   20.8929 C   0  0  0  0  0  0  0  0  0  0  0  0
    7.3827    2.5724   20.5432 C   0  0  0  0  0  0  0  0  0  0  0  0
   11.1529    7.2750   20.8025 C   0  0  0  0  0  0  0  0  0  0  0  0
   10.2573    8.3215   20.9827 C   0  0  0  0  0  0  0  0  0  0  0  0
   11.1606    5.9378   21.2366 N   0  0  0  0  0  0  0  0  0  0  0  0
    9.8932   11.6736   19.0677 O   0  0  0  0  0  0  0  0  0  0  0  0
    6.4470    4.5850   22.2321 C   0  0  0  0  0  0  0  0  0  0  0  0
    8.4619    6.9895   22.2968 C   0  0  0  0  0  0  0  0  0  0  0  0
   12.2747    7.5102   20.0420 C   0  0  0  0  0  0  0  0  0  0  0  0
   14.2544    6.2142   19.4191 C   0  0  0  0  0  0  0  0  0  0  0  0
   13.0695    6.3705   20.0375 N   0  0  0  0  0  0  0  0  0  0  0  0
    9.1913    8.0876   21.8361 N   0  0  0  0  0  0  0  0  0  0  0  0
   10.4739    9.4813   20.2889 C   0  0  0  0  0  0  0  0  0  0  0  0
    7.5551    7.1270   23.1200 O   0  0  0  0  0  0  0  0  0  0  0  0
  1 11  4  0
  1 21  4  0
  2  4  1  0
  2  8  1  0
  2 11  1  0
  3 10  4  0
  3 14  4  0
  4  5  1  0
  4 18  2  0
  6 12  1  0
  6 17  4  0
  6 23  4  0
  7  9  1  0
  7 13  4  0
  7 19  4  0
  9 20  1  0
 10 19  4  0
 11 25  4  0
 13 14  4  0
 15 16  4  0
 15 17  4  0
 15 21  4  0
 16 24  1  0
 16 25  4  0
 20 24  1  0
 20 26  2  0
 21 23  4  0
 22 23  1  0
M  END
$$$$

 Created by Python create_sdf_string function

 26 28  0  0  0  0  0  0  0  0999 V2000
   12.4616    8.6700   19.4180 N   0  0  0  0  0  0  0  0  0  0  0  0
   11.8329   10.8148   18.6769 N   0  0  0  0  0  0  0  0  0  0  0  0
    6.1021    2.5564   21.0678 C   0  0  0  0  0  0  0  0  0  0  0  0
   10.9097   11.8051   18.4804 C   0  0  0  0  0  0  0  0  0  0  0  0
   11.2280   12.9135   17.5669 C   0  0  0  0  0  0  0  0  0  0  0  0
   12.3782    5.4231   20.7777 C   0  0  0  0  0  0  0  0  0  0  0  0
    7.7365    4.6508   21.6987 C   0  0  0  0  0  0  0  0  0  0  0  0
   13.0186   11.0102   18.0020 C   0  0  0  0  0  0  0  0  0  0  0  0
    8.6628    5.7088   21.8871 N   0  0  0  0  0  0  0  0  0  0  0  0
    5.6516    3.5258   21.9140 C   0  0  0  0  0  0  0  0  0  0  0  0
   11.5863    9.6815   19.4539 C   0  0  0  0  0  0  0  0  0  0  0  0
   12.9648    4.1543   20.9205 C   0  0  0  0  0  0  0  0  0  0  0  0
    8.2089    3.6265   20.8929 C   0  0  0  0  0  0  0  0  0  0  0  0
    7.3827    2.5724   20.5432 C   0  0  0  0  0  0  0  0  0  0  0  0
   11.1529    7.2750   20.8025 C   0  0  0  0  0  0  0  0  0  0  0  0
   10.2573    8.3215   20.9827 C   0  0  0  0  0  0  0  0  0  0  0  0
   11.1606    5.9378   21.2366 N   0  0  0  0  0  0  0  0  0  0  0  0
    9.8932   11.6736   19.0677 O   0  0  0  0  0  0  0  0  0  0  0  0
    6.4470    4.5850   22.2321 C   0  0  0  0  0  0  0  0  0  0  0  0
    8.4619    6.9895   22.2968 C   0  0  0  0  0  0  0  0  0  0  0  0
   12.2747    7.5102   20.0420 C   0  0  0  0  0  0  0  0  0  0  0  0
   14.2544    6.2142   19.4191 C   0  0  0  0  0  0  0  0  0  0  0  0
   13.0695    6.3705   20.0375 N   0  0  0  0  0  0  0  0  0  0  0  0
    9.1913    8.0876   21.8361 N   0  0  0  0  0  0  0  0  0  0  0  0
   10.4739    9.4813   20.2889 C   0  0  0  0  0  0  0  0  0  0  0  0
    7.5551    7.1270   23.1200 O   0  0  0  0  0  0  0  0  0  0  0  0
  1 11  4  0
  1 21  4  0
  2  4  1  0
  2  8  1  0
  2 11  1  0
  3 10  4  0
  3 14  4  0
  4  5  1  0
  4 18  2  0
  6 12  1  0
  6 17  4  0
  6 23  4  0
  7  9  1  0
  7 13  4  0
  7 19  4  0
  9 20  1  0
 10 19  4  0
 11 25  4  0
 13 14  4  0
 15 16  4  0
 15 17  4  0
 15 21  4  0
 16 24  1  0
 16 25  4  0
 20 24  1  0
 20 26  2  0
 21 23  4  0
 22 23  1  0
M  END
$$$$

 Created by Python create_sdf_string function

 26 28  0  0  0  0  0  0  0  0999 V2000
   12.4616    8.6700   19.4180 N   0  0  0  0  0  0  0  0  0  0  0  0
   11.8329   10.8148   18.6769 N   0  0  0  0  0  0  0  0  0  0  0  0
    6.1021    2.5564   21.0678 C   0  0  0  0  0  0  0  0  0  0  0  0
   10.9097   11.8051   18.4804 C   0  0  0  0  0  0  0  0  0  0  0  0
   11.2280   12.9135   17.5669 C   0  0  0  0  0  0  0  0  0  0  0  0
   12.3782    5.4231   20.7777 C   0  0  0  0  0  0  0  0  0  0  0  0
    7.7365    4.6508   21.6987 C   0  0  0  0  0  0  0  0  0  0  0  0
   13.0186   11.0102   18.0020 C   0  0  0  0  0  0  0  0  0  0  0  0
    8.6628    5.7088   21.8871 N   0  0  0  0  0  0  0  0  0  0  0  0
    5.6516    3.5258   21.9140 C   0  0  0  0  0  0  0  0  0  0  0  0
   11.5863    9.6815   19.4539 C   0  0  0  0  0  0  0  0  0  0  0  0
   12.9648    4.1543   20.9205 C   0  0  0  0  0  0  0  0  0  0  0  0
    8.2089    3.6265   20.8929 C   0  0  0  0  0  0  0  0  0  0  0  0
    7.3827    2.5724   20.5432 C   0  0  0  0  0  0  0  0  0  0  0  0
   11.1529    7.2750   20.8025 C   0  0  0  0  0  0  0  0  0  0  0  0
   10.2573    8.3215   20.9827 C   0  0  0  0  0  0  0  0  0  0  0  0
   11.1606    5.9378   21.2366 N   0  0  0  0  0  0  0  0  0  0  0  0
    9.8932   11.6736   19.0677 O   0  0  0  0  0  0  0  0  0  0  0  0
    6.4470    4.5850   22.2321 C   0  0  0  0  0  0  0  0  0  0  0  0
    8.4619    6.9895   22.2968 C   0  0  0  0  0  0  0  0  0  0  0  0
   12.2747    7.5102   20.0420 C   0  0  0  0  0  0  0  0  0  0  0  0
   14.2544    6.2142   19.4191 C   0  0  0  0  0  0  0  0  0  0  0  0
   13.0695    6.3705   20.0375 N   0  0  0  0  0  0  0  0  0  0  0  0
    9.1913    8.0876   21.8361 N   0  0  0  0  0  0  0  0  0  0  0  0
   10.4739    9.4813   20.2889 C   0  0  0  0  0  0  0  0  0  0  0  0
    7.5551    7.1270   23.1200 O   0  0  0  0  0  0  0  0  0  0  0  0
  1 11  4  0
  1 21  4  0
  2  4  1  0
  2  8  1  0
  2 11  1  0
  3 10  4  0
  3 14  4  0
  4  5  1  0
  4 18  2  0
  6 12  1  0
  6 17  4  0
  6 23  4  0
  7  9  1  0
  7 13  4  0
  7 19  4  0
  9 20  1  0
 10 19  4  0
 11 25  4  0
 13 14  4  0
 15 16  4  0
 15 17  4  0
 15 21  4  0
 16 24  1  0
 16 25  4  0
 20 24  1  0
 20 26  2  0
 21 23  4  0
 22 23  1  0
M  END
$$$$

 Created by Python create_sdf_string function

 26 28  0  0  0  0  0  0  0  0999 V2000
   12.4616    8.6700   19.4180 N   0  0  0  0  0  0  0  0  0  0  0  0
   11.8329   10.8148   18.6769 N   0  0  0  0  0  0  0  0  0  0  0  0
    6.1021    2.5564   21.0678 C   0  0  0  0  0  0  0  0  0  0  0  0
   10.9097   11.8051   18.4804 C   0  0  0  0  0  0  0  0  0  0  0  0
   11.2280   12.9135   17.5669 C   0  0  0  0  0  0  0  0  0  0  0  0
   12.3782    5.4231   20.7777 C   0  0  0  0  0  0  0  0  0  0  0  0
    7.7365    4.6508   21.6987 C   0  0  0  0  0  0  0  0  0  0  0  0
   13.0186   11.0102   18.0020 C   0  0  0  0  0  0  0  0  0  0  0  0
    8.6628    5.7088   21.8871 N   0  0  0  0  0  0  0  0  0  0  0  0
    5.6516    3.5258   21.9140 C   0  0  0  0  0  0  0  0  0  0  0  0
   11.5863    9.6815   19.4539 C   0  0  0  0  0  0  0  0  0  0  0  0
   12.9648    4.1543   20.9205 C   0  0  0  0  0  0  0  0  0  0  0  0
    8.2089    3.6265   20.8929 C   0  0  0  0  0  0  0  0  0  0  0  0
    7.3827    2.5724   20.5432 C   0  0  0  0  0  0  0  0  0  0  0  0
   11.1529    7.2750   20.8025 C   0  0  0  0  0  0  0  0  0  0  0  0
   10.2573    8.3215   20.9827 C   0  0  0  0  0  0  0  0  0  0  0  0
   11.1606    5.9378   21.2366 N   0  0  0  0  0  0  0  0  0  0  0  0
    9.8932   11.6736   19.0677 O   0  0  0  0  0  0  0  0  0  0  0  0
    6.4470    4.5850   22.2321 C   0  0  0  0  0  0  0  0  0  0  0  0
    8.4619    6.9895   22.2968 C   0  0  0  0  0  0  0  0  0  0  0  0
   12.2747    7.5102   20.0420 C   0  0  0  0  0  0  0  0  0  0  0  0
   14.2544    6.2142   19.4191 C   0  0  0  0  0  0  0  0  0  0  0  0
   13.0695    6.3705   20.0375 N   0  0  0  0  0  0  0  0  0  0  0  0
    9.1913    8.0876   21.8361 N   0  0  0  0  0  0  0  0  0  0  0  0
   10.4739    9.4813   20.2889 C   0  0  0  0  0  0  0  0  0  0  0  0
    7.5551    7.1270   23.1200 O   0  0  0  0  0  0  0  0  0  0  0  0
  1 11  4  0
  1 21  4  0
  2  4  1  0
  2  8  1  0
  2 11  1  0
  3 10  4  0
  3 14  4  0
  4  5  1  0
  4 18  2  0
  6 12  1  0
  6 17  4  0
  6 23  4  0
  7  9  1  0
  7 13  4  0
  7 19  4  0
  9 20  1  0
 10 19  4  0
 11 25  4  0
 13 14  4  0
 15 16  4  0
 15 17  4  0
 15 21  4  0
 16 24  1  0
 16 25  4  0
 20 24  1  0
 20 26  2  0
 21 23  4  0
 22 23  1  0
M  END
$$$$

 Created by Python create_sdf_string function

 26 28  0  0  0  0  0  0  0  0999 V2000
   12.4616    8.6700   19.4180 N   0  0  0  0  0  0  0  0  0  0  0  0
   11.8329   10.8148   18.6769 N   0  0  0  0  0  0  0  0  0  0  0  0
    6.1021    2.5564   21.0678 C   0  0  0  0  0  0  0  0  0  0  0  0
   10.9097   11.8051   18.4804 C   0  0  0  0  0  0  0  0  0  0  0  0
   11.2280   12.9135   17.5669 C   0  0  0  0  0  0  0  0  0  0  0  0
   12.3782    5.4231   20.7777 C   0  0  0  0  0  0  0  0  0  0  0  0
    7.7365    4.6508   21.6987 C   0  0  0  0  0  0  0  0  0  0  0  0
   13.0186   11.0102   18.0020 C   0  0  0  0  0  0  0  0  0  0  0  0
    8.6628    5.7088   21.8871 N   0  0  0  0  0  0  0  0  0  0  0  0
    5.6516    3.5258   21.9140 C   0  0  0  0  0  0  0  0  0  0  0  0
   11.5863    9.6815   19.4539 C   0  0  0  0  0  0  0  0  0  0  0  0
   12.9648    4.1543   20.9205 C   0  0  0  0  0  0  0  0  0  0  0  0
    8.2089    3.6265   20.8929 C   0  0  0  0  0  0  0  0  0  0  0  0
    7.3827    2.5724   20.5432 C   0  0  0  0  0  0  0  0  0  0  0  0
   11.1529    7.2750   20.8025 C   0  0  0  0  0  0  0  0  0  0  0  0
   10.2573    8.3215   20.9827 C   0  0  0  0  0  0  0  0  0  0  0  0
   11.1606    5.9378   21.2366 N   0  0  0  0  0  0  0  0  0  0  0  0
    9.8932   11.6736   19.0677 O   0  0  0  0  0  0  0  0  0  0  0  0
    6.4470    4.5850   22.2321 C   0  0  0  0  0  0  0  0  0  0  0  0
    8.4619    6.9895   22.2968 C   0  0  0  0  0  0  0  0  0  0  0  0
   12.2747    7.5102   20.0420 C   0  0  0  0  0  0  0  0  0  0  0  0
   14.2544    6.2142   19.4191 C   0  0  0  0  0  0  0  0  0  0  0  0
   13.0695    6.3705   20.0375 N   0  0  0  0  0  0  0  0  0  0  0  0
    9.1913    8.0876   21.8361 N   0  0  0  0  0  0  0  0  0  0  0  0
   10.4739    9.4813   20.2889 C   0  0  0  0  0  0  0  0  0  0  0  0
    7.5551    7.1270   23.1200 O   0  0  0  0  0  0  0  0  0  0  0  0
  1 11  4  0
  1 21  4  0
  2  4  1  0
  2  8  1  0
  2 11  1  0
  3 10  4  0
  3 14  4  0
  4  5  1  0
  4 18  2  0
  6 12  1  0
  6 17  4  0
  6 23  4  0
  7  9  1  0
  7 13  4  0
  7 19  4  0
  9 20  1  0
 10 19  4  0
 11 25  4  0
 13 14  4  0
 15 16  4  0
 15 17  4  0
 15 21  4  0
 16 24  1  0
 16 25  4  0
 20 24  1  0
 20 26  2  0
 21 23  4  0
 22 23  1  0
M  END
$$$$

 Created by Python create_sdf_string function

 26 28  0  0  0  0  0  0  0  0999 V2000
   12.4616    8.6700   19.4180 N   0  0  0  0  0  0  0  0  0  0  0  0
   11.8329   10.8148   18.6769 N   0  0  0  0  0  0  0  0  0  0  0  0
    6.1021    2.5564   21.0678 C   0  0  0  0  0  0  0  0  0  0  0  0
   10.9097   11.8051   18.4804 C   0  0  0  0  0  0  0  0  0  0  0  0
   11.2280   12.9135   17.5669 C   0  0  0  0  0  0  0  0  0  0  0  0
   12.3782    5.4231   20.7777 C   0  0  0  0  0  0  0  0  0  0  0  0
    7.7365    4.6508   21.6987 C   0  0  0  0  0  0  0  0  0  0  0  0
   13.0186   11.0102   18.0020 C   0  0  0  0  0  0  0  0  0  0  0  0
    8.6628    5.7088   21.8871 N   0  0  0  0  0  0  0  0  0  0  0  0
    5.6516    3.5258   21.9140 C   0  0  0  0  0  0  0  0  0  0  0  0
   11.5863    9.6815   19.4539 C   0  0  0  0  0  0  0  0  0  0  0  0
   12.9648    4.1543   20.9205 C   0  0  0  0  0  0  0  0  0  0  0  0
    8.2089    3.6265   20.8929 C   0  0  0  0  0  0  0  0  0  0  0  0
    7.3827    2.5724   20.5432 C   0  0  0  0  0  0  0  0  0  0  0  0
   11.1529    7.2750   20.8025 C   0  0  0  0  0  0  0  0  0  0  0  0
   10.2573    8.3215   20.9827 C   0  0  0  0  0  0  0  0  0  0  0  0
   11.1606    5.9378   21.2366 N   0  0  0  0  0  0  0  0  0  0  0  0
    9.8932   11.6736   19.0677 O   0  0  0  0  0  0  0  0  0  0  0  0
    6.4470    4.5850   22.2321 C   0  0  0  0  0  0  0  0  0  0  0  0
    8.4619    6.9895   22.2968 C   0  0  0  0  0  0  0  0  0  0  0  0
   12.2747    7.5102   20.0420 C   0  0  0  0  0  0  0  0  0  0  0  0
   14.2544    6.2142   19.4191 C   0  0  0  0  0  0  0  0  0  0  0  0
   13.0695    6.3705   20.0375 N   0  0  0  0  0  0  0  0  0  0  0  0
    9.1913    8.0876   21.8361 N   0  0  0  0  0  0  0  0  0  0  0  0
   10.4739    9.4813   20.2889 C   0  0  0  0  0  0  0  0  0  0  0  0
    7.5551    7.1270   23.1200 O   0  0  0  0  0  0  0  0  0  0  0  0
  1 11  4  0
  1 21  4  0
  2  4  1  0
  2  8  1  0
  2 11  1  0
  3 10  4  0
  3 14  4  0
  4  5  1  0
  4 18  2  0
  6 12  1  0
  6 17  4  0
  6 23  4  0
  7  9  1  0
  7 13  4  0
  7 19  4  0
  9 20  1  0
 10 19  4  0
 11 25  4  0
 13 14  4  0
 15 16  4  0
 15 17  4  0
 15 21  4  0
 16 24  1  0
 16 25  4  0
 20 24  1  0
 20 26  2  0
 21 23  4  0
 22 23  1  0
M  END
$$$$

 Created by Python create_sdf_string function

 26 28  0  0  0  0  0  0  0  0999 V2000
   12.4616    8.6700   19.4180 N   0  0  0  0  0  0  0  0  0  0  0  0
   11.8329   10.8148   18.6769 N   0  0  0  0  0  0  0  0  0  0  0  0
    6.1021    2.5564   21.0678 C   0  0  0  0  0  0  0  0  0  0  0  0
   10.9097   11.8051   18.4804 C   0  0  0  0  0  0  0  0  0  0  0  0
   11.2280   12.9135   17.5669 C   0  0  0  0  0  0  0  0  0  0  0  0
   12.3782    5.4231   20.7777 C   0  0  0  0  0  0  0  0  0  0  0  0
    7.7365    4.6508   21.6987 C   0  0  0  0  0  0  0  0  0  0  0  0
   13.0186   11.0102   18.0020 C   0  0  0  0  0  0  0  0  0  0  0  0
    8.6628    5.7088   21.8871 N   0  0  0  0  0  0  0  0  0  0  0  0
    5.6516    3.5258   21.9140 C   0  0  0  0  0  0  0  0  0  0  0  0
   11.5863    9.6815   19.4539 C   0  0  0  0  0  0  0  0  0  0  0  0
   12.9648    4.1543   20.9205 C   0  0  0  0  0  0  0  0  0  0  0  0
    8.2089    3.6265   20.8929 C   0  0  0  0  0  0  0  0  0  0  0  0
    7.3827    2.5724   20.5432 C   0  0  0  0  0  0  0  0  0  0  0  0
   11.1529    7.2750   20.8025 C   0  0  0  0  0  0  0  0  0  0  0  0
   10.2573    8.3215   20.9827 C   0  0  0  0  0  0  0  0  0  0  0  0
   11.1606    5.9378   21.2366 N   0  0  0  0  0  0  0  0  0  0  0  0
    9.8932   11.6736   19.0677 O   0  0  0  0  0  0  0  0  0  0  0  0
    6.4470    4.5850   22.2321 C   0  0  0  0  0  0  0  0  0  0  0  0
    8.4619    6.9895   22.2968 C   0  0  0  0  0  0  0  0  0  0  0  0
   12.2747    7.5102   20.0420 C   0  0  0  0  0  0  0  0  0  0  0  0
   14.2544    6.2142   19.4191 C   0  0  0  0  0  0  0  0  0  0  0  0
   13.0695    6.3705   20.0375 N   0  0  0  0  0  0  0  0  0  0  0  0
    9.1913    8.0876   21.8361 N   0  0  0  0  0  0  0  0  0  0  0  0
   10.4739    9.4813   20.2889 C   0  0  0  0  0  0  0  0  0  0  0  0
    7.5551    7.1270   23.1200 O   0  0  0  0  0  0  0  0  0  0  0  0
  1 11  4  0
  1 21  4  0
  2  4  1  0
  2  8  1  0
  2 11  1  0
  3 10  4  0
  3 14  4  0
  4  5  1  0
  4 18  2  0
  6 12  1  0
  6 17  4  0
  6 23  4  0
  7  9  1  0
  7 13  4  0
  7 19  4  0
  9 20  1  0
 10 19  4  0
 11 25  4  0
 13 14  4  0
 15 16  4  0
 15 17  4  0
 15 21  4  0
 16 24  1  0
 16 25  4  0
 20 24  1  0
 20 26  2  0
 21 23  4  0
 22 23  1  0
M  END
$$$$

 Created by Python create_sdf_string function

 26 28  0  0  0  0  0  0  0  0999 V2000
   12.4616    8.6700   19.4180 N   0  0  0  0  0  0  0  0  0  0  0  0
   11.8329   10.8148   18.6769 N   0  0  0  0  0  0  0  0  0  0  0  0
    6.1021    2.5564   21.0678 C   0  0  0  0  0  0  0  0  0  0  0  0
   10.9097   11.8051   18.4804 C   0  0  0  0  0  0  0  0  0  0  0  0
   11.2280   12.9135   17.5669 C   0  0  0  0  0  0  0  0  0  0  0  0
   12.3782    5.4231   20.7777 C   0  0  0  0  0  0  0  0  0  0  0  0
    7.7365    4.6508   21.6987 C   0  0  0  0  0  0  0  0  0  0  0  0
   13.0186   11.0102   18.0020 C   0  0  0  0  0  0  0  0  0  0  0  0
    8.6628    5.7088   21.8871 N   0  0  0  0  0  0  0  0  0  0  0  0
    5.6516    3.5258   21.9140 C   0  0  0  0  0  0  0  0  0  0  0  0
   11.5863    9.6815   19.4539 C   0  0  0  0  0  0  0  0  0  0  0  0
   12.9648    4.1543   20.9205 C   0  0  0  0  0  0  0  0  0  0  0  0
    8.2089    3.6265   20.8929 C   0  0  0  0  0  0  0  0  0  0  0  0
    7.3827    2.5724   20.5432 C   0  0  0  0  0  0  0  0  0  0  0  0
   11.1529    7.2750   20.8025 C   0  0  0  0  0  0  0  0  0  0  0  0
   10.2573    8.3215   20.9827 C   0  0  0  0  0  0  0  0  0  0  0  0
   11.1606    5.9378   21.2366 N   0  0  0  0  0  0  0  0  0  0  0  0
    9.8932   11.6736   19.0677 O   0  0  0  0  0  0  0  0  0  0  0  0
    6.4470    4.5850   22.2321 C   0  0  0  0  0  0  0  0  0  0  0  0
    8.4619    6.9895   22.2968 C   0  0  0  0  0  0  0  0  0  0  0  0
   12.2747    7.5102   20.0420 C   0  0  0  0  0  0  0  0  0  0  0  0
   14.2544    6.2142   19.4191 C   0  0  0  0  0  0  0  0  0  0  0  0
   13.0695    6.3705   20.0375 N   0  0  0  0  0  0  0  0  0  0  0  0
    9.1913    8.0876   21.8361 N   0  0  0  0  0  0  0  0  0  0  0  0
   10.4739    9.4813   20.2889 C   0  0  0  0  0  0  0  0  0  0  0  0
    7.5551    7.1270   23.1200 O   0  0  0  0  0  0  0  0  0  0  0  0
  1 11  4  0
  1 21  4  0
  2  4  1  0
  2  8  1  0
  2 11  1  0
  3 10  4  0
  3 14  4  0
  4  5  1  0
  4 18  2  0
  6 12  1  0
  6 17  4  0
  6 23  4  0
  7  9  1  0
  7 13  4  0
  7 19  4  0
  9 20  1  0
 10 19  4  0
 11 25  4  0
 13 14  4  0
 15 16  4  0
 15 17  4  0
 15 21  4  0
 16 24  1  0
 16 25  4  0
 20 24  1  0
 20 26  2  0
 21 23  4  0
 22 23  1  0
M  END
$$$$

 Created by Python create_sdf_string function

 26 28  0  0  0  0  0  0  0  0999 V2000
   12.4616    8.6700   19.4180 N   0  0  0  0  0  0  0  0  0  0  0  0
   11.8329   10.8148   18.6769 N   0  0  0  0  0  0  0  0  0  0  0  0
    6.1021    2.5564   21.0678 C   0  0  0  0  0  0  0  0  0  0  0  0
   10.9097   11.8051   18.4804 C   0  0  0  0  0  0  0  0  0  0  0  0
   11.2280   12.9135   17.5669 C   0  0  0  0  0  0  0  0  0  0  0  0
   12.3782    5.4231   20.7777 C   0  0  0  0  0  0  0  0  0  0  0  0
    7.7365    4.6508   21.6987 C   0  0  0  0  0  0  0  0  0  0  0  0
   13.0186   11.0102   18.0020 C   0  0  0  0  0  0  0  0  0  0  0  0
    8.6628    5.7088   21.8871 N   0  0  0  0  0  0  0  0  0  0  0  0
    5.6516    3.5258   21.9140 C   0  0  0  0  0  0  0  0  0  0  0  0
   11.5863    9.6815   19.4539 C   0  0  0  0  0  0  0  0  0  0  0  0
   12.9648    4.1543   20.9205 C   0  0  0  0  0  0  0  0  0  0  0  0
    8.2089    3.6265   20.8929 C   0  0  0  0  0  0  0  0  0  0  0  0
    7.3827    2.5724   20.5432 C   0  0  0  0  0  0  0  0  0  0  0  0
   11.1529    7.2750   20.8025 C   0  0  0  0  0  0  0  0  0  0  0  0
   10.2573    8.3215   20.9827 C   0  0  0  0  0  0  0  0  0  0  0  0
   11.1606    5.9378   21.2366 N   0  0  0  0  0  0  0  0  0  0  0  0
    9.8932   11.6736   19.0677 O   0  0  0  0  0  0  0  0  0  0  0  0
    6.4470    4.5850   22.2321 C   0  0  0  0  0  0  0  0  0  0  0  0
    8.4619    6.9895   22.2968 C   0  0  0  0  0  0  0  0  0  0  0  0
   12.2747    7.5102   20.0420 C   0  0  0  0  0  0  0  0  0  0  0  0
   14.2544    6.2142   19.4191 C   0  0  0  0  0  0  0  0  0  0  0  0
   13.0695    6.3705   20.0375 N   0  0  0  0  0  0  0  0  0  0  0  0
    9.1913    8.0876   21.8361 N   0  0  0  0  0  0  0  0  0  0  0  0
   10.4739    9.4813   20.2889 C   0  0  0  0  0  0  0  0  0  0  0  0
    7.5551    7.1270   23.1200 O   0  0  0  0  0  0  0  0  0  0  0  0
  1 11  4  0
  1 21  4  0
  2  4  1  0
  2  8  1  0
  2 11  1  0
  3 10  4  0
  3 14  4  0
  4  5  1  0
  4 18  2  0
  6 12  1  0
  6 17  4  0
  6 23  4  0
  7  9  1  0
  7 13  4  0
  7 19  4  0
  9 20  1  0
 10 19  4  0
 11 25  4  0
 13 14  4  0
 15 16  4  0
 15 17  4  0
 15 21  4  0
 16 24  1  0
 16 25  4  0
 20 24  1  0
 20 26  2  0
 21 23  4  0
 22 23  1  0
M  END
$$$$

 Created by Python create_sdf_string function

 26 28  0  0  0  0  0  0  0  0999 V2000
   12.4616    8.6700   19.4180 N   0  0  0  0  0  0  0  0  0  0  0  0
   11.8329   10.8148   18.6769 N   0  0  0  0  0  0  0  0  0  0  0  0
    6.1021    2.5564   21.0678 C   0  0  0  0  0  0  0  0  0  0  0  0
   10.9097   11.8051   18.4804 C   0  0  0  0  0  0  0  0  0  0  0  0
   11.2280   12.9135   17.5669 C   0  0  0  0  0  0  0  0  0  0  0  0
   12.3782    5.4231   20.7777 C   0  0  0  0  0  0  0  0  0  0  0  0
    7.7365    4.6508   21.6987 C   0  0  0  0  0  0  0  0  0  0  0  0
   13.0186   11.0102   18.0020 C   0  0  0  0  0  0  0  0  0  0  0  0
    8.6628    5.7088   21.8871 N   0  0  0  0  0  0  0  0  0  0  0  0
    5.6516    3.5258   21.9140 C   0  0  0  0  0  0  0  0  0  0  0  0
   11.5863    9.6815   19.4539 C   0  0  0  0  0  0  0  0  0  0  0  0
   12.9648    4.1543   20.9205 C   0  0  0  0  0  0  0  0  0  0  0  0
    8.2089    3.6265   20.8929 C   0  0  0  0  0  0  0  0  0  0  0  0
    7.3827    2.5724   20.5432 C   0  0  0  0  0  0  0  0  0  0  0  0
   11.1529    7.2750   20.8025 C   0  0  0  0  0  0  0  0  0  0  0  0
   10.2573    8.3215   20.9827 C   0  0  0  0  0  0  0  0  0  0  0  0
   11.1606    5.9378   21.2366 N   0  0  0  0  0  0  0  0  0  0  0  0
    9.8932   11.6736   19.0677 O   0  0  0  0  0  0  0  0  0  0  0  0
    6.4470    4.5850   22.2321 C   0  0  0  0  0  0  0  0  0  0  0  0
    8.4619    6.9895   22.2968 C   0  0  0  0  0  0  0  0  0  0  0  0
   12.2747    7.5102   20.0420 C   0  0  0  0  0  0  0  0  0  0  0  0
   14.2544    6.2142   19.4191 C   0  0  0  0  0  0  0  0  0  0  0  0
   13.0695    6.3705   20.0375 N   0  0  0  0  0  0  0  0  0  0  0  0
    9.1913    8.0876   21.8361 N   0  0  0  0  0  0  0  0  0  0  0  0
   10.4739    9.4813   20.2889 C   0  0  0  0  0  0  0  0  0  0  0  0
    7.5551    7.1270   23.1200 O   0  0  0  0  0  0  0  0  0  0  0  0
  1 11  4  0
  1 21  4  0
  2  4  1  0
  2  8  1  0
  2 11  1  0
  3 10  4  0
  3 14  4  0
  4  5  1  0
  4 18  2  0
  6 12  1  0
  6 17  4  0
  6 23  4  0
  7  9  1  0
  7 13  4  0
  7 19  4  0
  9 20  1  0
 10 19  4  0
 11 25  4  0
 13 14  4  0
 15 16  4  0
 15 17  4  0
 15 21  4  0
 16 24  1  0
 16 25  4  0
 20 24  1  0
 20 26  2  0
 21 23  4  0
 22 23  1  0
M  END
$$$$

 Created by Python create_sdf_string function

 26 28  0  0  0  0  0  0  0  0999 V2000
   12.4616    8.6700   19.4180 N   0  0  0  0  0  0  0  0  0  0  0  0
   11.8329   10.8148   18.6769 N   0  0  0  0  0  0  0  0  0  0  0  0
    6.1021    2.5564   21.0678 C   0  0  0  0  0  0  0  0  0  0  0  0
   10.9097   11.8051   18.4804 C   0  0  0  0  0  0  0  0  0  0  0  0
   11.2280   12.9135   17.5669 C   0  0  0  0  0  0  0  0  0  0  0  0
   12.3782    5.4231   20.7777 C   0  0  0  0  0  0  0  0  0  0  0  0
    7.7365    4.6508   21.6987 C   0  0  0  0  0  0  0  0  0  0  0  0
   13.0186   11.0102   18.0020 C   0  0  0  0  0  0  0  0  0  0  0  0
    8.6628    5.7088   21.8871 N   0  0  0  0  0  0  0  0  0  0  0  0
    5.6516    3.5258   21.9140 C   0  0  0  0  0  0  0  0  0  0  0  0
   11.5863    9.6815   19.4539 C   0  0  0  0  0  0  0  0  0  0  0  0
   12.9648    4.1543   20.9205 C   0  0  0  0  0  0  0  0  0  0  0  0
    8.2089    3.6265   20.8929 C   0  0  0  0  0  0  0  0  0  0  0  0
    7.3827    2.5724   20.5432 C   0  0  0  0  0  0  0  0  0  0  0  0
   11.1529    7.2750   20.8025 C   0  0  0  0  0  0  0  0  0  0  0  0
   10.2573    8.3215   20.9827 C   0  0  0  0  0  0  0  0  0  0  0  0
   11.1606    5.9378   21.2366 N   0  0  0  0  0  0  0  0  0  0  0  0
    9.8932   11.6736   19.0677 O   0  0  0  0  0  0  0  0  0  0  0  0
    6.4470    4.5850   22.2321 C   0  0  0  0  0  0  0  0  0  0  0  0
    8.4619    6.9895   22.2968 C   0  0  0  0  0  0  0  0  0  0  0  0
   12.2747    7.5102   20.0420 C   0  0  0  0  0  0  0  0  0  0  0  0
   14.2544    6.2142   19.4191 C   0  0  0  0  0  0  0  0  0  0  0  0
   13.0695    6.3705   20.0375 N   0  0  0  0  0  0  0  0  0  0  0  0
    9.1913    8.0876   21.8361 N   0  0  0  0  0  0  0  0  0  0  0  0
   10.4739    9.4813   20.2889 C   0  0  0  0  0  0  0  0  0  0  0  0
    7.5551    7.1270   23.1200 O   0  0  0  0  0  0  0  0  0  0  0  0
  1 11  4  0
  1 21  4  0
  2  4  1  0
  2  8  1  0
  2 11  1  0
  3 10  4  0
  3 14  4  0
  4  5  1  0
  4 18  2  0
  6 12  1  0
  6 17  4  0
  6 23  4  0
  7  9  1  0
  7 13  4  0
  7 19  4  0
  9 20  1  0
 10 19  4  0
 11 25  4  0
 13 14  4  0
 15 16  4  0
 15 17  4  0
 15 21  4  0
 16 24  1  0
 16 25  4  0
 20 24  1  0
 20 26  2  0
 21 23  4  0
 22 23  1  0
M  END
$$$$

 Created by Python create_sdf_string function

 26 28  0  0  0  0  0  0  0  0999 V2000
   12.4616    8.6700   19.4180 N   0  0  0  0  0  0  0  0  0  0  0  0
   11.8329   10.8148   18.6769 N   0  0  0  0  0  0  0  0  0  0  0  0
    6.1021    2.5564   21.0678 C   0  0  0  0  0  0  0  0  0  0  0  0
   10.9097   11.8051   18.4804 C   0  0  0  0  0  0  0  0  0  0  0  0
   11.2280   12.9135   17.5669 C   0  0  0  0  0  0  0  0  0  0  0  0
   12.3782    5.4231   20.7777 C   0  0  0  0  0  0  0  0  0  0  0  0
    7.7365    4.6508   21.6987 C   0  0  0  0  0  0  0  0  0  0  0  0
   13.0186   11.0102   18.0020 C   0  0  0  0  0  0  0  0  0  0  0  0
    8.6628    5.7088   21.8871 N   0  0  0  0  0  0  0  0  0  0  0  0
    5.6516    3.5258   21.9140 C   0  0  0  0  0  0  0  0  0  0  0  0
   11.5863    9.6815   19.4539 C   0  0  0  0  0  0  0  0  0  0  0  0
   12.9648    4.1543   20.9205 C   0  0  0  0  0  0  0  0  0  0  0  0
    8.2089    3.6265   20.8929 C   0  0  0  0  0  0  0  0  0  0  0  0
    7.3827    2.5724   20.5432 C   0  0  0  0  0  0  0  0  0  0  0  0
   11.1529    7.2750   20.8025 C   0  0  0  0  0  0  0  0  0  0  0  0
   10.2573    8.3215   20.9827 C   0  0  0  0  0  0  0  0  0  0  0  0
   11.1606    5.9378   21.2366 N   0  0  0  0  0  0  0  0  0  0  0  0
    9.8932   11.6736   19.0677 O   0  0  0  0  0  0  0  0  0  0  0  0
    6.4470    4.5850   22.2321 C   0  0  0  0  0  0  0  0  0  0  0  0
    8.4619    6.9895   22.2968 C   0  0  0  0  0  0  0  0  0  0  0  0
   12.2747    7.5102   20.0420 C   0  0  0  0  0  0  0  0  0  0  0  0
   14.2544    6.2142   19.4191 C   0  0  0  0  0  0  0  0  0  0  0  0
   13.0695    6.3705   20.0375 N   0  0  0  0  0  0  0  0  0  0  0  0
    9.1913    8.0876   21.8361 N   0  0  0  0  0  0  0  0  0  0  0  0
   10.4739    9.4813   20.2889 C   0  0  0  0  0  0  0  0  0  0  0  0
    7.5551    7.1270   23.1200 O   0  0  0  0  0  0  0  0  0  0  0  0
  1 11  4  0
  1 21  4  0
  2  4  1  0
  2  8  1  0
  2 11  1  0
  3 10  4  0
  3 14  4  0
  4  5  1  0
  4 18  2  0
  6 12  1  0
  6 17  4  0
  6 23  4  0
  7  9  1  0
  7 13  4  0
  7 19  4  0
  9 20  1  0
 10 19  4  0
 11 25  4  0
 13 14  4  0
 15 16  4  0
 15 17  4  0
 15 21  4  0
 16 24  1  0
 16 25  4  0
 20 24  1  0
 20 26  2  0
 21 23  4  0
 22 23  1  0
M  END
$$$$

 Created by Python create_sdf_string function

 26 28  0  0  0  0  0  0  0  0999 V2000
   12.4616    8.6700   19.4180 N   0  0  0  0  0  0  0  0  0  0  0  0
   11.8329   10.8148   18.6769 N   0  0  0  0  0  0  0  0  0  0  0  0
    6.1021    2.5564   21.0678 C   0  0  0  0  0  0  0  0  0  0  0  0
   10.9097   11.8051   18.4804 C   0  0  0  0  0  0  0  0  0  0  0  0
   11.2280   12.9135   17.5669 C   0  0  0  0  0  0  0  0  0  0  0  0
   12.3782    5.4231   20.7777 C   0  0  0  0  0  0  0  0  0  0  0  0
    7.7365    4.6508   21.6987 C   0  0  0  0  0  0  0  0  0  0  0  0
   13.0186   11.0102   18.0020 C   0  0  0  0  0  0  0  0  0  0  0  0
    8.6628    5.7088   21.8871 N   0  0  0  0  0  0  0  0  0  0  0  0
    5.6516    3.5258   21.9140 C   0  0  0  0  0  0  0  0  0  0  0  0
   11.5863    9.6815   19.4539 C   0  0  0  0  0  0  0  0  0  0  0  0
   12.9648    4.1543   20.9205 C   0  0  0  0  0  0  0  0  0  0  0  0
    8.2089    3.6265   20.8929 C   0  0  0  0  0  0  0  0  0  0  0  0
    7.3827    2.5724   20.5432 C   0  0  0  0  0  0  0  0  0  0  0  0
   11.1529    7.2750   20.8025 C   0  0  0  0  0  0  0  0  0  0  0  0
   10.2573    8.3215   20.9827 C   0  0  0  0  0  0  0  0  0  0  0  0
   11.1606    5.9378   21.2366 N   0  0  0  0  0  0  0  0  0  0  0  0
    9.8932   11.6736   19.0677 O   0  0  0  0  0  0  0  0  0  0  0  0
    6.4470    4.5850   22.2321 C   0  0  0  0  0  0  0  0  0  0  0  0
    8.4619    6.9895   22.2968 C   0  0  0  0  0  0  0  0  0  0  0  0
   12.2747    7.5102   20.0420 C   0  0  0  0  0  0  0  0  0  0  0  0
   14.2544    6.2142   19.4191 C   0  0  0  0  0  0  0  0  0  0  0  0
   13.0695    6.3705   20.0375 N   0  0  0  0  0  0  0  0  0  0  0  0
    9.1913    8.0876   21.8361 N   0  0  0  0  0  0  0  0  0  0  0  0
   10.4739    9.4813   20.2889 C   0  0  0  0  0  0  0  0  0  0  0  0
    7.5551    7.1270   23.1200 O   0  0  0  0  0  0  0  0  0  0  0  0
  1 11  4  0
  1 21  4  0
  2  4  1  0
  2  8  1  0
  2 11  1  0
  3 10  4  0
  3 14  4  0
  4  5  1  0
  4 18  2  0
  6 12  1  0
  6 17  4  0
  6 23  4  0
  7  9  1  0
  7 13  4  0
  7 19  4  0
  9 20  1  0
 10 19  4  0
 11 25  4  0
 13 14  4  0
 15 16  4  0
 15 17  4  0
 15 21  4  0
 16 24  1  0
 16 25  4  0
 20 24  1  0
 20 26  2  0
 21 23  4  0
 22 23  1  0
M  END
$$$$

 Created by Python create_sdf_string function

 26 28  0  0  0  0  0  0  0  0999 V2000
   12.4616    8.6700   19.4180 N   0  0  0  0  0  0  0  0  0  0  0  0
   11.8329   10.8148   18.6769 N   0  0  0  0  0  0  0  0  0  0  0  0
    6.1021    2.5564   21.0678 C   0  0  0  0  0  0  0  0  0  0  0  0
   10.9097   11.8051   18.4804 C   0  0  0  0  0  0  0  0  0  0  0  0
   11.2280   12.9135   17.5669 C   0  0  0  0  0  0  0  0  0  0  0  0
   12.3782    5.4231   20.7777 C   0  0  0  0  0  0  0  0  0  0  0  0
    7.7365    4.6508   21.6987 C   0  0  0  0  0  0  0  0  0  0  0  0
   13.0186   11.0102   18.0020 C   0  0  0  0  0  0  0  0  0  0  0  0
    8.6628    5.7088   21.8871 N   0  0  0  0  0  0  0  0  0  0  0  0
    5.6516    3.5258   21.9140 C   0  0  0  0  0  0  0  0  0  0  0  0
   11.5863    9.6815   19.4539 C   0  0  0  0  0  0  0  0  0  0  0  0
   12.9648    4.1543   20.9205 C   0  0  0  0  0  0  0  0  0  0  0  0
    8.2089    3.6265   20.8929 C   0  0  0  0  0  0  0  0  0  0  0  0
    7.3827    2.5724   20.5432 C   0  0  0  0  0  0  0  0  0  0  0  0
   11.1529    7.2750   20.8025 C   0  0  0  0  0  0  0  0  0  0  0  0
   10.2573    8.3215   20.9827 C   0  0  0  0  0  0  0  0  0  0  0  0
   11.1606    5.9378   21.2366 N   0  0  0  0  0  0  0  0  0  0  0  0
    9.8932   11.6736   19.0677 O   0  0  0  0  0  0  0  0  0  0  0  0
    6.4470    4.5850   22.2321 C   0  0  0  0  0  0  0  0  0  0  0  0
    8.4619    6.9895   22.2968 C   0  0  0  0  0  0  0  0  0  0  0  0
   12.2747    7.5102   20.0420 C   0  0  0  0  0  0  0  0  0  0  0  0
   14.2544    6.2142   19.4191 C   0  0  0  0  0  0  0  0  0  0  0  0
   13.0695    6.3705   20.0375 N   0  0  0  0  0  0  0  0  0  0  0  0
    9.1913    8.0876   21.8361 N   0  0  0  0  0  0  0  0  0  0  0  0
   10.4739    9.4813   20.2889 C   0  0  0  0  0  0  0  0  0  0  0  0
    7.5551    7.1270   23.1200 O   0  0  0  0  0  0  0  0  0  0  0  0
  1 11  4  0
  1 21  4  0
  2  4  1  0
  2  8  1  0
  2 11  1  0
  3 10  4  0
  3 14  4  0
  4  5  1  0
  4 18  2  0
  6 12  1  0
  6 17  4  0
  6 23  4  0
  7  9  1  0
  7 13  4  0
  7 19  4  0
  9 20  1  0
 10 19  4  0
 11 25  4  0
 13 14  4  0
 15 16  4  0
 15 17  4  0
 15 21  4  0
 16 24  1  0
 16 25  4  0
 20 24  1  0
 20 26  2  0
 21 23  4  0
 22 23  1  0
M  END
$$$$

 Created by Python create_sdf_string function

 26 28  0  0  0  0  0  0  0  0999 V2000
   12.4616    8.6700   19.4180 N   0  0  0  0  0  0  0  0  0  0  0  0
   11.8329   10.8148   18.6769 N   0  0  0  0  0  0  0  0  0  0  0  0
    6.1021    2.5564   21.0678 C   0  0  0  0  0  0  0  0  0  0  0  0
   10.9097   11.8051   18.4804 C   0  0  0  0  0  0  0  0  0  0  0  0
   11.2280   12.9135   17.5669 C   0  0  0  0  0  0  0  0  0  0  0  0
   12.3782    5.4231   20.7777 C   0  0  0  0  0  0  0  0  0  0  0  0
    7.7365    4.6508   21.6987 C   0  0  0  0  0  0  0  0  0  0  0  0
   13.0186   11.0102   18.0020 C   0  0  0  0  0  0  0  0  0  0  0  0
    8.6628    5.7088   21.8871 N   0  0  0  0  0  0  0  0  0  0  0  0
    5.6516    3.5258   21.9140 C   0  0  0  0  0  0  0  0  0  0  0  0
   11.5863    9.6815   19.4539 C   0  0  0  0  0  0  0  0  0  0  0  0
   12.9648    4.1543   20.9205 C   0  0  0  0  0  0  0  0  0  0  0  0
    8.2089    3.6265   20.8929 C   0  0  0  0  0  0  0  0  0  0  0  0
    7.3827    2.5724   20.5432 C   0  0  0  0  0  0  0  0  0  0  0  0
   11.1529    7.2750   20.8025 C   0  0  0  0  0  0  0  0  0  0  0  0
   10.2573    8.3215   20.9827 C   0  0  0  0  0  0  0  0  0  0  0  0
   11.1606    5.9378   21.2366 N   0  0  0  0  0  0  0  0  0  0  0  0
    9.8932   11.6736   19.0677 O   0  0  0  0  0  0  0  0  0  0  0  0
    6.4470    4.5850   22.2321 C   0  0  0  0  0  0  0  0  0  0  0  0
    8.4619    6.9895   22.2968 C   0  0  0  0  0  0  0  0  0  0  0  0
   12.2747    7.5102   20.0420 C   0  0  0  0  0  0  0  0  0  0  0  0
   14.2544    6.2142   19.4191 C   0  0  0  0  0  0  0  0  0  0  0  0
   13.0695    6.3705   20.0375 N   0  0  0  0  0  0  0  0  0  0  0  0
    9.1913    8.0876   21.8361 N   0  0  0  0  0  0  0  0  0  0  0  0
   10.4739    9.4813   20.2889 C   0  0  0  0  0  0  0  0  0  0  0  0
    7.5551    7.1270   23.1200 O   0  0  0  0  0  0  0  0  0  0  0  0
  1 11  4  0
  1 21  4  0
  2  4  1  0
  2  8  1  0
  2 11  1  0
  3 10  4  0
  3 14  4  0
  4  5  1  0
  4 18  2  0
  6 12  1  0
  6 17  4  0
  6 23  4  0
  7  9  1  0
  7 13  4  0
  7 19  4  0
  9 20  1  0
 10 19  4  0
 11 25  4  0
 13 14  4  0
 15 16  4  0
 15 17  4  0
 15 21  4  0
 16 24  1  0
 16 25  4  0
 20 24  1  0
 20 26  2  0
 21 23  4  0
 22 23  1  0
M  END
$$$$

 Created by Python create_sdf_string function

 26 28  0  0  0  0  0  0  0  0999 V2000
   12.4616    8.6700   19.4180 N   0  0  0  0  0  0  0  0  0  0  0  0
   11.8329   10.8148   18.6769 N   0  0  0  0  0  0  0  0  0  0  0  0
    6.1021    2.5564   21.0678 C   0  0  0  0  0  0  0  0  0  0  0  0
   10.9097   11.8051   18.4804 C   0  0  0  0  0  0  0  0  0  0  0  0
   11.2280   12.9135   17.5669 C   0  0  0  0  0  0  0  0  0  0  0  0
   12.3782    5.4231   20.7777 C   0  0  0  0  0  0  0  0  0  0  0  0
    7.7365    4.6508   21.6987 C   0  0  0  0  0  0  0  0  0  0  0  0
   13.0186   11.0102   18.0020 C   0  0  0  0  0  0  0  0  0  0  0  0
    8.6628    5.7088   21.8871 N   0  0  0  0  0  0  0  0  0  0  0  0
    5.6516    3.5258   21.9140 C   0  0  0  0  0  0  0  0  0  0  0  0
   11.5863    9.6815   19.4539 C   0  0  0  0  0  0  0  0  0  0  0  0
   12.9648    4.1543   20.9205 C   0  0  0  0  0  0  0  0  0  0  0  0
    8.2089    3.6265   20.8929 C   0  0  0  0  0  0  0  0  0  0  0  0
    7.3827    2.5724   20.5432 C   0  0  0  0  0  0  0  0  0  0  0  0
   11.1529    7.2750   20.8025 C   0  0  0  0  0  0  0  0  0  0  0  0
   10.2573    8.3215   20.9827 C   0  0  0  0  0  0  0  0  0  0  0  0
   11.1606    5.9378   21.2366 N   0  0  0  0  0  0  0  0  0  0  0  0
    9.8932   11.6736   19.0677 O   0  0  0  0  0  0  0  0  0  0  0  0
    6.4470    4.5850   22.2321 C   0  0  0  0  0  0  0  0  0  0  0  0
    8.4619    6.9895   22.2968 C   0  0  0  0  0  0  0  0  0  0  0  0
   12.2747    7.5102   20.0420 C   0  0  0  0  0  0  0  0  0  0  0  0
   14.2544    6.2142   19.4191 C   0  0  0  0  0  0  0  0  0  0  0  0
   13.0695    6.3705   20.0375 N   0  0  0  0  0  0  0  0  0  0  0  0
    9.1913    8.0876   21.8361 N   0  0  0  0  0  0  0  0  0  0  0  0
   10.4739    9.4813   20.2889 C   0  0  0  0  0  0  0  0  0  0  0  0
    7.5551    7.1270   23.1200 O   0  0  0  0  0  0  0  0  0  0  0  0
  1 11  4  0
  1 21  4  0
  2  4  1  0
  2  8  1  0
  2 11  1  0
  3 10  4  0
  3 14  4  0
  4  5  1  0
  4 18  2  0
  6 12  1  0
  6 17  4  0
  6 23  4  0
  7  9  1  0
  7 13  4  0
  7 19  4  0
  9 20  1  0
 10 19  4  0
 11 25  4  0
 13 14  4  0
 15 16  4  0
 15 17  4  0
 15 21  4  0
 16 24  1  0
 16 25  4  0
 20 24  1  0
 20 26  2  0
 21 23  4  0
 22 23  1  0
M  END
$$$$

 Created by Python create_sdf_string function

 26 28  0  0  0  0  0  0  0  0999 V2000
   12.4616    8.6700   19.4180 N   0  0  0  0  0  0  0  0  0  0  0  0
   11.8329   10.8148   18.6769 N   0  0  0  0  0  0  0  0  0  0  0  0
    6.1021    2.5564   21.0678 C   0  0  0  0  0  0  0  0  0  0  0  0
   10.9097   11.8051   18.4804 C   0  0  0  0  0  0  0  0  0  0  0  0
   11.2280   12.9135   17.5669 C   0  0  0  0  0  0  0  0  0  0  0  0
   12.3782    5.4231   20.7777 C   0  0  0  0  0  0  0  0  0  0  0  0
    7.7365    4.6508   21.6987 C   0  0  0  0  0  0  0  0  0  0  0  0
   13.0186   11.0102   18.0020 C   0  0  0  0  0  0  0  0  0  0  0  0
    8.6628    5.7088   21.8871 N   0  0  0  0  0  0  0  0  0  0  0  0
    5.6516    3.5258   21.9140 C   0  0  0  0  0  0  0  0  0  0  0  0
   11.5863    9.6815   19.4539 C   0  0  0  0  0  0  0  0  0  0  0  0
   12.9648    4.1543   20.9205 C   0  0  0  0  0  0  0  0  0  0  0  0
    8.2089    3.6265   20.8929 C   0  0  0  0  0  0  0  0  0  0  0  0
    7.3827    2.5724   20.5432 C   0  0  0  0  0  0  0  0  0  0  0  0
   11.1529    7.2750   20.8025 C   0  0  0  0  0  0  0  0  0  0  0  0
   10.2573    8.3215   20.9827 C   0  0  0  0  0  0  0  0  0  0  0  0
   11.1606    5.9378   21.2366 N   0  0  0  0  0  0  0  0  0  0  0  0
    9.8932   11.6736   19.0677 O   0  0  0  0  0  0  0  0  0  0  0  0
    6.4470    4.5850   22.2321 C   0  0  0  0  0  0  0  0  0  0  0  0
    8.4619    6.9895   22.2968 C   0  0  0  0  0  0  0  0  0  0  0  0
   12.2747    7.5102   20.0420 C   0  0  0  0  0  0  0  0  0  0  0  0
   14.2544    6.2142   19.4191 C   0  0  0  0  0  0  0  0  0  0  0  0
   13.0695    6.3705   20.0375 N   0  0  0  0  0  0  0  0  0  0  0  0
    9.1913    8.0876   21.8361 N   0  0  0  0  0  0  0  0  0  0  0  0
   10.4739    9.4813   20.2889 C   0  0  0  0  0  0  0  0  0  0  0  0
    7.5551    7.1270   23.1200 O   0  0  0  0  0  0  0  0  0  0  0  0
  1 11  4  0
  1 21  4  0
  2  4  1  0
  2  8  1  0
  2 11  1  0
  3 10  4  0
  3 14  4  0
  4  5  1  0
  4 18  2  0
  6 12  1  0
  6 17  4  0
  6 23  4  0
  7  9  1  0
  7 13  4  0
  7 19  4  0
  9 20  1  0
 10 19  4  0
 11 25  4  0
 13 14  4  0
 15 16  4  0
 15 17  4  0
 15 21  4  0
 16 24  1  0
 16 25  4  0
 20 24  1  0
 20 26  2  0
 21 23  4  0
 22 23  1  0
M  END
$$$$

 Created by Python create_sdf_string function

 26 28  0  0  0  0  0  0  0  0999 V2000
   12.4616    8.6700   19.4180 N   0  0  0  0  0  0  0  0  0  0  0  0
   11.8329   10.8148   18.6769 N   0  0  0  0  0  0  0  0  0  0  0  0
    6.1021    2.5564   21.0678 C   0  0  0  0  0  0  0  0  0  0  0  0
   10.9097   11.8051   18.4804 C   0  0  0  0  0  0  0  0  0  0  0  0
   11.2280   12.9135   17.5669 C   0  0  0  0  0  0  0  0  0  0  0  0
   12.3782    5.4231   20.7777 C   0  0  0  0  0  0  0  0  0  0  0  0
    7.7365    4.6508   21.6987 C   0  0  0  0  0  0  0  0  0  0  0  0
   13.0186   11.0102   18.0020 C   0  0  0  0  0  0  0  0  0  0  0  0
    8.6628    5.7088   21.8871 N   0  0  0  0  0  0  0  0  0  0  0  0
    5.6516    3.5258   21.9140 C   0  0  0  0  0  0  0  0  0  0  0  0
   11.5863    9.6815   19.4539 C   0  0  0  0  0  0  0  0  0  0  0  0
   12.9648    4.1543   20.9205 C   0  0  0  0  0  0  0  0  0  0  0  0
    8.2089    3.6265   20.8929 C   0  0  0  0  0  0  0  0  0  0  0  0
    7.3827    2.5724   20.5432 C   0  0  0  0  0  0  0  0  0  0  0  0
   11.1529    7.2750   20.8025 C   0  0  0  0  0  0  0  0  0  0  0  0
   10.2573    8.3215   20.9827 C   0  0  0  0  0  0  0  0  0  0  0  0
   11.1606    5.9378   21.2366 N   0  0  0  0  0  0  0  0  0  0  0  0
    9.8932   11.6736   19.0677 O   0  0  0  0  0  0  0  0  0  0  0  0
    6.4470    4.5850   22.2321 C   0  0  0  0  0  0  0  0  0  0  0  0
    8.4619    6.9895   22.2968 C   0  0  0  0  0  0  0  0  0  0  0  0
   12.2747    7.5102   20.0420 C   0  0  0  0  0  0  0  0  0  0  0  0
   14.2544    6.2142   19.4191 C   0  0  0  0  0  0  0  0  0  0  0  0
   13.0695    6.3705   20.0375 N   0  0  0  0  0  0  0  0  0  0  0  0
    9.1913    8.0876   21.8361 N   0  0  0  0  0  0  0  0  0  0  0  0
   10.4739    9.4813   20.2889 C   0  0  0  0  0  0  0  0  0  0  0  0
    7.5551    7.1270   23.1200 O   0  0  0  0  0  0  0  0  0  0  0  0
  1 11  4  0
  1 21  4  0
  2  4  1  0
  2  8  1  0
  2 11  1  0
  3 10  4  0
  3 14  4  0
  4  5  1  0
  4 18  2  0
  6 12  1  0
  6 17  4  0
  6 23  4  0
  7  9  1  0
  7 13  4  0
  7 19  4  0
  9 20  1  0
 10 19  4  0
 11 25  4  0
 13 14  4  0
 15 16  4  0
 15 17  4  0
 15 21  4  0
 16 24  1  0
 16 25  4  0
 20 24  1  0
 20 26  2  0
 21 23  4  0
 22 23  1  0
M  END
$$$$

 Created by Python create_sdf_string function

 26 28  0  0  0  0  0  0  0  0999 V2000
   12.4616    8.6700   19.4180 N   0  0  0  0  0  0  0  0  0  0  0  0
   11.8329   10.8148   18.6769 N   0  0  0  0  0  0  0  0  0  0  0  0
    6.1021    2.5564   21.0678 C   0  0  0  0  0  0  0  0  0  0  0  0
   10.9097   11.8051   18.4804 C   0  0  0  0  0  0  0  0  0  0  0  0
   11.2280   12.9135   17.5669 C   0  0  0  0  0  0  0  0  0  0  0  0
   12.3782    5.4231   20.7777 C   0  0  0  0  0  0  0  0  0  0  0  0
    7.7365    4.6508   21.6987 C   0  0  0  0  0  0  0  0  0  0  0  0
   13.0186   11.0102   18.0020 C   0  0  0  0  0  0  0  0  0  0  0  0
    8.6628    5.7088   21.8871 N   0  0  0  0  0  0  0  0  0  0  0  0
    5.6516    3.5258   21.9140 C   0  0  0  0  0  0  0  0  0  0  0  0
   11.5863    9.6815   19.4539 C   0  0  0  0  0  0  0  0  0  0  0  0
   12.9648    4.1543   20.9205 C   0  0  0  0  0  0  0  0  0  0  0  0
    8.2089    3.6265   20.8929 C   0  0  0  0  0  0  0  0  0  0  0  0
    7.3827    2.5724   20.5432 C   0  0  0  0  0  0  0  0  0  0  0  0
   11.1529    7.2750   20.8025 C   0  0  0  0  0  0  0  0  0  0  0  0
   10.2573    8.3215   20.9827 C   0  0  0  0  0  0  0  0  0  0  0  0
   11.1606    5.9378   21.2366 N   0  0  0  0  0  0  0  0  0  0  0  0
    9.8932   11.6736   19.0677 O   0  0  0  0  0  0  0  0  0  0  0  0
    6.4470    4.5850   22.2321 C   0  0  0  0  0  0  0  0  0  0  0  0
    8.4619    6.9895   22.2968 C   0  0  0  0  0  0  0  0  0  0  0  0
   12.2747    7.5102   20.0420 C   0  0  0  0  0  0  0  0  0  0  0  0
   14.2544    6.2142   19.4191 C   0  0  0  0  0  0  0  0  0  0  0  0
   13.0695    6.3705   20.0375 N   0  0  0  0  0  0  0  0  0  0  0  0
    9.1913    8.0876   21.8361 N   0  0  0  0  0  0  0  0  0  0  0  0
   10.4739    9.4813   20.2889 C   0  0  0  0  0  0  0  0  0  0  0  0
    7.5551    7.1270   23.1200 O   0  0  0  0  0  0  0  0  0  0  0  0
  1 11  4  0
  1 21  4  0
  2  4  1  0
  2  8  1  0
  2 11  1  0
  3 10  4  0
  3 14  4  0
  4  5  1  0
  4 18  2  0
  6 12  1  0
  6 17  4  0
  6 23  4  0
  7  9  1  0
  7 13  4  0
  7 19  4  0
  9 20  1  0
 10 19  4  0
 11 25  4  0
 13 14  4  0
 15 16  4  0
 15 17  4  0
 15 21  4  0
 16 24  1  0
 16 25  4  0
 20 24  1  0
 20 26  2  0
 21 23  4  0
 22 23  1  0
M  END
$$$$

 Created by Python create_sdf_string function

 26 28  0  0  0  0  0  0  0  0999 V2000
   12.4616    8.6700   19.4180 N   0  0  0  0  0  0  0  0  0  0  0  0
   11.8329   10.8148   18.6769 N   0  0  0  0  0  0  0  0  0  0  0  0
    6.1021    2.5564   21.0678 C   0  0  0  0  0  0  0  0  0  0  0  0
   10.9097   11.8051   18.4804 C   0  0  0  0  0  0  0  0  0  0  0  0
   11.2280   12.9135   17.5669 C   0  0  0  0  0  0  0  0  0  0  0  0
   12.3782    5.4231   20.7777 C   0  0  0  0  0  0  0  0  0  0  0  0
    7.7365    4.6508   21.6987 C   0  0  0  0  0  0  0  0  0  0  0  0
   13.0186   11.0102   18.0020 C   0  0  0  0  0  0  0  0  0  0  0  0
    8.6628    5.7088   21.8871 N   0  0  0  0  0  0  0  0  0  0  0  0
    5.6516    3.5258   21.9140 C   0  0  0  0  0  0  0  0  0  0  0  0
   11.5863    9.6815   19.4539 C   0  0  0  0  0  0  0  0  0  0  0  0
   12.9648    4.1543   20.9205 C   0  0  0  0  0  0  0  0  0  0  0  0
    8.2089    3.6265   20.8929 C   0  0  0  0  0  0  0  0  0  0  0  0
    7.3827    2.5724   20.5432 C   0  0  0  0  0  0  0  0  0  0  0  0
   11.1529    7.2750   20.8025 C   0  0  0  0  0  0  0  0  0  0  0  0
   10.2573    8.3215   20.9827 C   0  0  0  0  0  0  0  0  0  0  0  0
   11.1606    5.9378   21.2366 N   0  0  0  0  0  0  0  0  0  0  0  0
    9.8932   11.6736   19.0677 O   0  0  0  0  0  0  0  0  0  0  0  0
    6.4470    4.5850   22.2321 C   0  0  0  0  0  0  0  0  0  0  0  0
    8.4619    6.9895   22.2968 C   0  0  0  0  0  0  0  0  0  0  0  0
   12.2747    7.5102   20.0420 C   0  0  0  0  0  0  0  0  0  0  0  0
   14.2544    6.2142   19.4191 C   0  0  0  0  0  0  0  0  0  0  0  0
   13.0695    6.3705   20.0375 N   0  0  0  0  0  0  0  0  0  0  0  0
    9.1913    8.0876   21.8361 N   0  0  0  0  0  0  0  0  0  0  0  0
   10.4739    9.4813   20.2889 C   0  0  0  0  0  0  0  0  0  0  0  0
    7.5551    7.1270   23.1200 O   0  0  0  0  0  0  0  0  0  0  0  0
  1 11  4  0
  1 21  4  0
  2  4  1  0
  2  8  1  0
  2 11  1  0
  3 10  4  0
  3 14  4  0
  4  5  1  0
  4 18  2  0
  6 12  1  0
  6 17  4  0
  6 23  4  0
  7  9  1  0
  7 13  4  0
  7 19  4  0
  9 20  1  0
 10 19  4  0
 11 25  4  0
 13 14  4  0
 15 16  4  0
 15 17  4  0
 15 21  4  0
 16 24  1  0
 16 25  4  0
 20 24  1  0
 20 26  2  0
 21 23  4  0
 22 23  1  0
M  END
$$$$

 Created by Python create_sdf_string function

 26 28  0  0  0  0  0  0  0  0999 V2000
   12.4616    8.6700   19.4180 N   0  0  0  0  0  0  0  0  0  0  0  0
   11.8329   10.8148   18.6769 N   0  0  0  0  0  0  0  0  0  0  0  0
    6.1021    2.5564   21.0678 C   0  0  0  0  0  0  0  0  0  0  0  0
   10.9097   11.8051   18.4804 C   0  0  0  0  0  0  0  0  0  0  0  0
   11.2280   12.9135   17.5669 C   0  0  0  0  0  0  0  0  0  0  0  0
   12.3782    5.4231   20.7777 C   0  0  0  0  0  0  0  0  0  0  0  0
    7.7365    4.6508   21.6987 C   0  0  0  0  0  0  0  0  0  0  0  0
   13.0186   11.0102   18.0020 C   0  0  0  0  0  0  0  0  0  0  0  0
    8.6628    5.7088   21.8871 N   0  0  0  0  0  0  0  0  0  0  0  0
    5.6516    3.5258   21.9140 C   0  0  0  0  0  0  0  0  0  0  0  0
   11.5863    9.6815   19.4539 C   0  0  0  0  0  0  0  0  0  0  0  0
   12.9648    4.1543   20.9205 C   0  0  0  0  0  0  0  0  0  0  0  0
    8.2089    3.6265   20.8929 C   0  0  0  0  0  0  0  0  0  0  0  0
    7.3827    2.5724   20.5432 C   0  0  0  0  0  0  0  0  0  0  0  0
   11.1529    7.2750   20.8025 C   0  0  0  0  0  0  0  0  0  0  0  0
   10.2573    8.3215   20.9827 C   0  0  0  0  0  0  0  0  0  0  0  0
   11.1606    5.9378   21.2366 N   0  0  0  0  0  0  0  0  0  0  0  0
    9.8932   11.6736   19.0677 O   0  0  0  0  0  0  0  0  0  0  0  0
    6.4470    4.5850   22.2321 C   0  0  0  0  0  0  0  0  0  0  0  0
    8.4619    6.9895   22.2968 C   0  0  0  0  0  0  0  0  0  0  0  0
   12.2747    7.5102   20.0420 C   0  0  0  0  0  0  0  0  0  0  0  0
   14.2544    6.2142   19.4191 C   0  0  0  0  0  0  0  0  0  0  0  0
   13.0695    6.3705   20.0375 N   0  0  0  0  0  0  0  0  0  0  0  0
    9.1913    8.0876   21.8361 N   0  0  0  0  0  0  0  0  0  0  0  0
   10.4739    9.4813   20.2889 C   0  0  0  0  0  0  0  0  0  0  0  0
    7.5551    7.1270   23.1200 O   0  0  0  0  0  0  0  0  0  0  0  0
  1 11  4  0
  1 21  4  0
  2  4  1  0
  2  8  1  0
  2 11  1  0
  3 10  4  0
  3 14  4  0
  4  5  1  0
  4 18  2  0
  6 12  1  0
  6 17  4  0
  6 23  4  0
  7  9  1  0
  7 13  4  0
  7 19  4  0
  9 20  1  0
 10 19  4  0
 11 25  4  0
 13 14  4  0
 15 16  4  0
 15 17  4  0
 15 21  4  0
 16 24  1  0
 16 25  4  0
 20 24  1  0
 20 26  2  0
 21 23  4  0
 22 23  1  0
M  END
$$$$

 Created by Python create_sdf_string function

 26 28  0  0  0  0  0  0  0  0999 V2000
   12.4616    8.6700   19.4180 N   0  0  0  0  0  0  0  0  0  0  0  0
   11.8329   10.8148   18.6769 N   0  0  0  0  0  0  0  0  0  0  0  0
    6.1021    2.5564   21.0678 C   0  0  0  0  0  0  0  0  0  0  0  0
   10.9097   11.8051   18.4804 C   0  0  0  0  0  0  0  0  0  0  0  0
   11.2280   12.9135   17.5669 C   0  0  0  0  0  0  0  0  0  0  0  0
   12.3782    5.4231   20.7777 C   0  0  0  0  0  0  0  0  0  0  0  0
    7.7365    4.6508   21.6987 C   0  0  0  0  0  0  0  0  0  0  0  0
   13.0186   11.0102   18.0020 C   0  0  0  0  0  0  0  0  0  0  0  0
    8.6628    5.7088   21.8871 N   0  0  0  0  0  0  0  0  0  0  0  0
    5.6516    3.5258   21.9140 C   0  0  0  0  0  0  0  0  0  0  0  0
   11.5863    9.6815   19.4539 C   0  0  0  0  0  0  0  0  0  0  0  0
   12.9648    4.1543   20.9205 C   0  0  0  0  0  0  0  0  0  0  0  0
    8.2089    3.6265   20.8929 C   0  0  0  0  0  0  0  0  0  0  0  0
    7.3827    2.5724   20.5432 C   0  0  0  0  0  0  0  0  0  0  0  0
   11.1529    7.2750   20.8025 C   0  0  0  0  0  0  0  0  0  0  0  0
   10.2573    8.3215   20.9827 C   0  0  0  0  0  0  0  0  0  0  0  0
   11.1606    5.9378   21.2366 N   0  0  0  0  0  0  0  0  0  0  0  0
    9.8932   11.6736   19.0677 O   0  0  0  0  0  0  0  0  0  0  0  0
    6.4470    4.5850   22.2321 C   0  0  0  0  0  0  0  0  0  0  0  0
    8.4619    6.9895   22.2968 C   0  0  0  0  0  0  0  0  0  0  0  0
   12.2747    7.5102   20.0420 C   0  0  0  0  0  0  0  0  0  0  0  0
   14.2544    6.2142   19.4191 C   0  0  0  0  0  0  0  0  0  0  0  0
   13.0695    6.3705   20.0375 N   0  0  0  0  0  0  0  0  0  0  0  0
    9.1913    8.0876   21.8361 N   0  0  0  0  0  0  0  0  0  0  0  0
   10.4739    9.4813   20.2889 C   0  0  0  0  0  0  0  0  0  0  0  0
    7.5551    7.1270   23.1200 O   0  0  0  0  0  0  0  0  0  0  0  0
  1 11  4  0
  1 21  4  0
  2  4  1  0
  2  8  1  0
  2 11  1  0
  3 10  4  0
  3 14  4  0
  4  5  1  0
  4 18  2  0
  6 12  1  0
  6 17  4  0
  6 23  4  0
  7  9  1  0
  7 13  4  0
  7 19  4  0
  9 20  1  0
 10 19  4  0
 11 25  4  0
 13 14  4  0
 15 16  4  0
 15 17  4  0
 15 21  4  0
 16 24  1  0
 16 25  4  0
 20 24  1  0
 20 26  2  0
 21 23  4  0
 22 23  1  0
M  END
$$$$

 Created by Python create_sdf_string function

 26 28  0  0  0  0  0  0  0  0999 V2000
   12.4616    8.6700   19.4180 N   0  0  0  0  0  0  0  0  0  0  0  0
   11.8329   10.8148   18.6769 N   0  0  0  0  0  0  0  0  0  0  0  0
    6.1021    2.5564   21.0678 C   0  0  0  0  0  0  0  0  0  0  0  0
   10.9097   11.8051   18.4804 C   0  0  0  0  0  0  0  0  0  0  0  0
   11.2280   12.9135   17.5669 C   0  0  0  0  0  0  0  0  0  0  0  0
   12.3782    5.4231   20.7777 C   0  0  0  0  0  0  0  0  0  0  0  0
    7.7365    4.6508   21.6987 C   0  0  0  0  0  0  0  0  0  0  0  0
   13.0186   11.0102   18.0020 C   0  0  0  0  0  0  0  0  0  0  0  0
    8.6628    5.7088   21.8871 N   0  0  0  0  0  0  0  0  0  0  0  0
    5.6516    3.5258   21.9140 C   0  0  0  0  0  0  0  0  0  0  0  0
   11.5863    9.6815   19.4539 C   0  0  0  0  0  0  0  0  0  0  0  0
   12.9648    4.1543   20.9205 C   0  0  0  0  0  0  0  0  0  0  0  0
    8.2089    3.6265   20.8929 C   0  0  0  0  0  0  0  0  0  0  0  0
    7.3827    2.5724   20.5432 C   0  0  0  0  0  0  0  0  0  0  0  0
   11.1529    7.2750   20.8025 C   0  0  0  0  0  0  0  0  0  0  0  0
   10.2573    8.3215   20.9827 C   0  0  0  0  0  0  0  0  0  0  0  0
   11.1606    5.9378   21.2366 N   0  0  0  0  0  0  0  0  0  0  0  0
    9.8932   11.6736   19.0677 O   0  0  0  0  0  0  0  0  0  0  0  0
    6.4470    4.5850   22.2321 C   0  0  0  0  0  0  0  0  0  0  0  0
    8.4619    6.9895   22.2968 C   0  0  0  0  0  0  0  0  0  0  0  0
   12.2747    7.5102   20.0420 C   0  0  0  0  0  0  0  0  0  0  0  0
   14.2544    6.2142   19.4191 C   0  0  0  0  0  0  0  0  0  0  0  0
   13.0695    6.3705   20.0375 N   0  0  0  0  0  0  0  0  0  0  0  0
    9.1913    8.0876   21.8361 N   0  0  0  0  0  0  0  0  0  0  0  0
   10.4739    9.4813   20.2889 C   0  0  0  0  0  0  0  0  0  0  0  0
    7.5551    7.1270   23.1200 O   0  0  0  0  0  0  0  0  0  0  0  0
  1 11  4  0
  1 21  4  0
  2  4  1  0
  2  8  1  0
  2 11  1  0
  3 10  4  0
  3 14  4  0
  4  5  1  0
  4 18  2  0
  6 12  1  0
  6 17  4  0
  6 23  4  0
  7  9  1  0
  7 13  4  0
  7 19  4  0
  9 20  1  0
 10 19  4  0
 11 25  4  0
 13 14  4  0
 15 16  4  0
 15 17  4  0
 15 21  4  0
 16 24  1  0
 16 25  4  0
 20 24  1  0
 20 26  2  0
 21 23  4  0
 22 23  1  0
M  END
$$$$

 Created by Python create_sdf_string function

 26 28  0  0  0  0  0  0  0  0999 V2000
   12.4616    8.6700   19.4180 N   0  0  0  0  0  0  0  0  0  0  0  0
   11.8329   10.8148   18.6769 N   0  0  0  0  0  0  0  0  0  0  0  0
    6.1021    2.5564   21.0678 C   0  0  0  0  0  0  0  0  0  0  0  0
   10.9097   11.8051   18.4804 C   0  0  0  0  0  0  0  0  0  0  0  0
   11.2280   12.9135   17.5669 C   0  0  0  0  0  0  0  0  0  0  0  0
   12.3782    5.4231   20.7777 C   0  0  0  0  0  0  0  0  0  0  0  0
    7.7365    4.6508   21.6987 C   0  0  0  0  0  0  0  0  0  0  0  0
   13.0186   11.0102   18.0020 C   0  0  0  0  0  0  0  0  0  0  0  0
    8.6628    5.7088   21.8871 N   0  0  0  0  0  0  0  0  0  0  0  0
    5.6516    3.5258   21.9140 C   0  0  0  0  0  0  0  0  0  0  0  0
   11.5863    9.6815   19.4539 C   0  0  0  0  0  0  0  0  0  0  0  0
   12.9648    4.1543   20.9205 C   0  0  0  0  0  0  0  0  0  0  0  0
    8.2089    3.6265   20.8929 C   0  0  0  0  0  0  0  0  0  0  0  0
    7.3827    2.5724   20.5432 C   0  0  0  0  0  0  0  0  0  0  0  0
   11.1529    7.2750   20.8025 C   0  0  0  0  0  0  0  0  0  0  0  0
   10.2573    8.3215   20.9827 C   0  0  0  0  0  0  0  0  0  0  0  0
   11.1606    5.9378   21.2366 N   0  0  0  0  0  0  0  0  0  0  0  0
    9.8932   11.6736   19.0677 O   0  0  0  0  0  0  0  0  0  0  0  0
    6.4470    4.5850   22.2321 C   0  0  0  0  0  0  0  0  0  0  0  0
    8.4619    6.9895   22.2968 C   0  0  0  0  0  0  0  0  0  0  0  0
   12.2747    7.5102   20.0420 C   0  0  0  0  0  0  0  0  0  0  0  0
   14.2544    6.2142   19.4191 C   0  0  0  0  0  0  0  0  0  0  0  0
   13.0695    6.3705   20.0375 N   0  0  0  0  0  0  0  0  0  0  0  0
    9.1913    8.0876   21.8361 N   0  0  0  0  0  0  0  0  0  0  0  0
   10.4739    9.4813   20.2889 C   0  0  0  0  0  0  0  0  0  0  0  0
    7.5551    7.1270   23.1200 O   0  0  0  0  0  0  0  0  0  0  0  0
  1 11  4  0
  1 21  4  0
  2  4  1  0
  2  8  1  0
  2 11  1  0
  3 10  4  0
  3 14  4  0
  4  5  1  0
  4 18  2  0
  6 12  1  0
  6 17  4  0
  6 23  4  0
  7  9  1  0
  7 13  4  0
  7 19  4  0
  9 20  1  0
 10 19  4  0
 11 25  4  0
 13 14  4  0
 15 16  4  0
 15 17  4  0
 15 21  4  0
 16 24  1  0
 16 25  4  0
 20 24  1  0
 20 26  2  0
 21 23  4  0
 22 23  1  0
M  END
$$$$

 Created by Python create_sdf_string function

 26 28  0  0  0  0  0  0  0  0999 V2000
   12.4616    8.6700   19.4180 N   0  0  0  0  0  0  0  0  0  0  0  0
   11.8329   10.8148   18.6769 N   0  0  0  0  0  0  0  0  0  0  0  0
    6.1021    2.5564   21.0678 C   0  0  0  0  0  0  0  0  0  0  0  0
   10.9097   11.8051   18.4804 C   0  0  0  0  0  0  0  0  0  0  0  0
   11.2280   12.9135   17.5669 C   0  0  0  0  0  0  0  0  0  0  0  0
   12.3782    5.4231   20.7777 C   0  0  0  0  0  0  0  0  0  0  0  0
    7.7365    4.6508   21.6987 C   0  0  0  0  0  0  0  0  0  0  0  0
   13.0186   11.0102   18.0020 C   0  0  0  0  0  0  0  0  0  0  0  0
    8.6628    5.7088   21.8871 N   0  0  0  0  0  0  0  0  0  0  0  0
    5.6516    3.5258   21.9140 C   0  0  0  0  0  0  0  0  0  0  0  0
   11.5863    9.6815   19.4539 C   0  0  0  0  0  0  0  0  0  0  0  0
   12.9648    4.1543   20.9205 C   0  0  0  0  0  0  0  0  0  0  0  0
    8.2089    3.6265   20.8929 C   0  0  0  0  0  0  0  0  0  0  0  0
    7.3827    2.5724   20.5432 C   0  0  0  0  0  0  0  0  0  0  0  0
   11.1529    7.2750   20.8025 C   0  0  0  0  0  0  0  0  0  0  0  0
   10.2573    8.3215   20.9827 C   0  0  0  0  0  0  0  0  0  0  0  0
   11.1606    5.9378   21.2366 N   0  0  0  0  0  0  0  0  0  0  0  0
    9.8932   11.6736   19.0677 O   0  0  0  0  0  0  0  0  0  0  0  0
    6.4470    4.5850   22.2321 C   0  0  0  0  0  0  0  0  0  0  0  0
    8.4619    6.9895   22.2968 C   0  0  0  0  0  0  0  0  0  0  0  0
   12.2747    7.5102   20.0420 C   0  0  0  0  0  0  0  0  0  0  0  0
   14.2544    6.2142   19.4191 C   0  0  0  0  0  0  0  0  0  0  0  0
   13.0695    6.3705   20.0375 N   0  0  0  0  0  0  0  0  0  0  0  0
    9.1913    8.0876   21.8361 N   0  0  0  0  0  0  0  0  0  0  0  0
   10.4739    9.4813   20.2889 C   0  0  0  0  0  0  0  0  0  0  0  0
    7.5551    7.1270   23.1200 O   0  0  0  0  0  0  0  0  0  0  0  0
  1 11  4  0
  1 21  4  0
  2  4  1  0
  2  8  1  0
  2 11  1  0
  3 10  4  0
  3 14  4  0
  4  5  1  0
  4 18  2  0
  6 12  1  0
  6 17  4  0
  6 23  4  0
  7  9  1  0
  7 13  4  0
  7 19  4  0
  9 20  1  0
 10 19  4  0
 11 25  4  0
 13 14  4  0
 15 16  4  0
 15 17  4  0
 15 21  4  0
 16 24  1  0
 16 25  4  0
 20 24  1  0
 20 26  2  0
 21 23  4  0
 22 23  1  0
M  END
$$$$

 Created by Python create_sdf_string function

 26 28  0  0  0  0  0  0  0  0999 V2000
   12.4616    8.6700   19.4180 N   0  0  0  0  0  0  0  0  0  0  0  0
   11.8329   10.8148   18.6769 N   0  0  0  0  0  0  0  0  0  0  0  0
    6.1021    2.5564   21.0678 C   0  0  0  0  0  0  0  0  0  0  0  0
   10.9097   11.8051   18.4804 C   0  0  0  0  0  0  0  0  0  0  0  0
   11.2280   12.9135   17.5669 C   0  0  0  0  0  0  0  0  0  0  0  0
   12.3782    5.4231   20.7777 C   0  0  0  0  0  0  0  0  0  0  0  0
    7.7365    4.6508   21.6987 C   0  0  0  0  0  0  0  0  0  0  0  0
   13.0186   11.0102   18.0020 C   0  0  0  0  0  0  0  0  0  0  0  0
    8.6628    5.7088   21.8871 N   0  0  0  0  0  0  0  0  0  0  0  0
    5.6516    3.5258   21.9140 C   0  0  0  0  0  0  0  0  0  0  0  0
   11.5863    9.6815   19.4539 C   0  0  0  0  0  0  0  0  0  0  0  0
   12.9648    4.1543   20.9205 C   0  0  0  0  0  0  0  0  0  0  0  0
    8.2089    3.6265   20.8929 C   0  0  0  0  0  0  0  0  0  0  0  0
    7.3827    2.5724   20.5432 C   0  0  0  0  0  0  0  0  0  0  0  0
   11.1529    7.2750   20.8025 C   0  0  0  0  0  0  0  0  0  0  0  0
   10.2573    8.3215   20.9827 C   0  0  0  0  0  0  0  0  0  0  0  0
   11.1606    5.9378   21.2366 N   0  0  0  0  0  0  0  0  0  0  0  0
    9.8932   11.6736   19.0677 O   0  0  0  0  0  0  0  0  0  0  0  0
    6.4470    4.5850   22.2321 C   0  0  0  0  0  0  0  0  0  0  0  0
    8.4619    6.9895   22.2968 C   0  0  0  0  0  0  0  0  0  0  0  0
   12.2747    7.5102   20.0420 C   0  0  0  0  0  0  0  0  0  0  0  0
   14.2544    6.2142   19.4191 C   0  0  0  0  0  0  0  0  0  0  0  0
   13.0695    6.3705   20.0375 N   0  0  0  0  0  0  0  0  0  0  0  0
    9.1913    8.0876   21.8361 N   0  0  0  0  0  0  0  0  0  0  0  0
   10.4739    9.4813   20.2889 C   0  0  0  0  0  0  0  0  0  0  0  0
    7.5551    7.1270   23.1200 O   0  0  0  0  0  0  0  0  0  0  0  0
  1 11  4  0
  1 21  4  0
  2  4  1  0
  2  8  1  0
  2 11  1  0
  3 10  4  0
  3 14  4  0
  4  5  1  0
  4 18  2  0
  6 12  1  0
  6 17  4  0
  6 23  4  0
  7  9  1  0
  7 13  4  0
  7 19  4  0
  9 20  1  0
 10 19  4  0
 11 25  4  0
 13 14  4  0
 15 16  4  0
 15 17  4  0
 15 21  4  0
 16 24  1  0
 16 25  4  0
 20 24  1  0
 20 26  2  0
 21 23  4  0
 22 23  1  0
M  END
$$$$

 Created by Python create_sdf_string function

 26 28  0  0  0  0  0  0  0  0999 V2000
   12.4616    8.6700   19.4180 N   0  0  0  0  0  0  0  0  0  0  0  0
   11.8329   10.8148   18.6769 N   0  0  0  0  0  0  0  0  0  0  0  0
    6.1021    2.5564   21.0678 C   0  0  0  0  0  0  0  0  0  0  0  0
   10.9097   11.8051   18.4804 C   0  0  0  0  0  0  0  0  0  0  0  0
   11.2280   12.9135   17.5669 C   0  0  0  0  0  0  0  0  0  0  0  0
   12.3782    5.4231   20.7777 C   0  0  0  0  0  0  0  0  0  0  0  0
    7.7365    4.6508   21.6987 C   0  0  0  0  0  0  0  0  0  0  0  0
   13.0186   11.0102   18.0020 C   0  0  0  0  0  0  0  0  0  0  0  0
    8.6628    5.7088   21.8871 N   0  0  0  0  0  0  0  0  0  0  0  0
    5.6516    3.5258   21.9140 C   0  0  0  0  0  0  0  0  0  0  0  0
   11.5863    9.6815   19.4539 C   0  0  0  0  0  0  0  0  0  0  0  0
   12.9648    4.1543   20.9205 C   0  0  0  0  0  0  0  0  0  0  0  0
    8.2089    3.6265   20.8929 C   0  0  0  0  0  0  0  0  0  0  0  0
    7.3827    2.5724   20.5432 C   0  0  0  0  0  0  0  0  0  0  0  0
   11.1529    7.2750   20.8025 C   0  0  0  0  0  0  0  0  0  0  0  0
   10.2573    8.3215   20.9827 C   0  0  0  0  0  0  0  0  0  0  0  0
   11.1606    5.9378   21.2366 N   0  0  0  0  0  0  0  0  0  0  0  0
    9.8932   11.6736   19.0677 O   0  0  0  0  0  0  0  0  0  0  0  0
    6.4470    4.5850   22.2321 C   0  0  0  0  0  0  0  0  0  0  0  0
    8.4619    6.9895   22.2968 C   0  0  0  0  0  0  0  0  0  0  0  0
   12.2747    7.5102   20.0420 C   0  0  0  0  0  0  0  0  0  0  0  0
   14.2544    6.2142   19.4191 C   0  0  0  0  0  0  0  0  0  0  0  0
   13.0695    6.3705   20.0375 N   0  0  0  0  0  0  0  0  0  0  0  0
    9.1913    8.0876   21.8361 N   0  0  0  0  0  0  0  0  0  0  0  0
   10.4739    9.4813   20.2889 C   0  0  0  0  0  0  0  0  0  0  0  0
    7.5551    7.1270   23.1200 O   0  0  0  0  0  0  0  0  0  0  0  0
  1 11  4  0
  1 21  4  0
  2  4  1  0
  2  8  1  0
  2 11  1  0
  3 10  4  0
  3 14  4  0
  4  5  1  0
  4 18  2  0
  6 12  1  0
  6 17  4  0
  6 23  4  0
  7  9  1  0
  7 13  4  0
  7 19  4  0
  9 20  1  0
 10 19  4  0
 11 25  4  0
 13 14  4  0
 15 16  4  0
 15 17  4  0
 15 21  4  0
 16 24  1  0
 16 25  4  0
 20 24  1  0
 20 26  2  0
 21 23  4  0
 22 23  1  0
M  END
$$$$

 Created by Python create_sdf_string function

 26 28  0  0  0  0  0  0  0  0999 V2000
   12.4616    8.6700   19.4180 N   0  0  0  0  0  0  0  0  0  0  0  0
   11.8329   10.8148   18.6769 N   0  0  0  0  0  0  0  0  0  0  0  0
    6.1021    2.5564   21.0678 C   0  0  0  0  0  0  0  0  0  0  0  0
   10.9097   11.8051   18.4804 C   0  0  0  0  0  0  0  0  0  0  0  0
   11.2280   12.9135   17.5669 C   0  0  0  0  0  0  0  0  0  0  0  0
   12.3782    5.4231   20.7777 C   0  0  0  0  0  0  0  0  0  0  0  0
    7.7365    4.6508   21.6987 C   0  0  0  0  0  0  0  0  0  0  0  0
   13.0186   11.0102   18.0020 C   0  0  0  0  0  0  0  0  0  0  0  0
    8.6628    5.7088   21.8871 N   0  0  0  0  0  0  0  0  0  0  0  0
    5.6516    3.5258   21.9140 C   0  0  0  0  0  0  0  0  0  0  0  0
   11.5863    9.6815   19.4539 C   0  0  0  0  0  0  0  0  0  0  0  0
   12.9648    4.1543   20.9205 C   0  0  0  0  0  0  0  0  0  0  0  0
    8.2089    3.6265   20.8929 C   0  0  0  0  0  0  0  0  0  0  0  0
    7.3827    2.5724   20.5432 C   0  0  0  0  0  0  0  0  0  0  0  0
   11.1529    7.2750   20.8025 C   0  0  0  0  0  0  0  0  0  0  0  0
   10.2573    8.3215   20.9827 C   0  0  0  0  0  0  0  0  0  0  0  0
   11.1606    5.9378   21.2366 N   0  0  0  0  0  0  0  0  0  0  0  0
    9.8932   11.6736   19.0677 O   0  0  0  0  0  0  0  0  0  0  0  0
    6.4470    4.5850   22.2321 C   0  0  0  0  0  0  0  0  0  0  0  0
    8.4619    6.9895   22.2968 C   0  0  0  0  0  0  0  0  0  0  0  0
   12.2747    7.5102   20.0420 C   0  0  0  0  0  0  0  0  0  0  0  0
   14.2544    6.2142   19.4191 C   0  0  0  0  0  0  0  0  0  0  0  0
   13.0695    6.3705   20.0375 N   0  0  0  0  0  0  0  0  0  0  0  0
    9.1913    8.0876   21.8361 N   0  0  0  0  0  0  0  0  0  0  0  0
   10.4739    9.4813   20.2889 C   0  0  0  0  0  0  0  0  0  0  0  0
    7.5551    7.1270   23.1200 O   0  0  0  0  0  0  0  0  0  0  0  0
  1 11  4  0
  1 21  4  0
  2  4  1  0
  2  8  1  0
  2 11  1  0
  3 10  4  0
  3 14  4  0
  4  5  1  0
  4 18  2  0
  6 12  1  0
  6 17  4  0
  6 23  4  0
  7  9  1  0
  7 13  4  0
  7 19  4  0
  9 20  1  0
 10 19  4  0
 11 25  4  0
 13 14  4  0
 15 16  4  0
 15 17  4  0
 15 21  4  0
 16 24  1  0
 16 25  4  0
 20 24  1  0
 20 26  2  0
 21 23  4  0
 22 23  1  0
M  END
$$$$

 Created by Python create_sdf_string function

 26 28  0  0  0  0  0  0  0  0999 V2000
   12.4616    8.6700   19.4180 N   0  0  0  0  0  0  0  0  0  0  0  0
   11.8329   10.8148   18.6769 N   0  0  0  0  0  0  0  0  0  0  0  0
    6.1021    2.5564   21.0678 C   0  0  0  0  0  0  0  0  0  0  0  0
   10.9097   11.8051   18.4804 C   0  0  0  0  0  0  0  0  0  0  0  0
   11.2280   12.9135   17.5669 C   0  0  0  0  0  0  0  0  0  0  0  0
   12.3782    5.4231   20.7777 C   0  0  0  0  0  0  0  0  0  0  0  0
    7.7365    4.6508   21.6987 C   0  0  0  0  0  0  0  0  0  0  0  0
   13.0186   11.0102   18.0020 C   0  0  0  0  0  0  0  0  0  0  0  0
    8.6628    5.7088   21.8871 N   0  0  0  0  0  0  0  0  0  0  0  0
    5.6516    3.5258   21.9140 C   0  0  0  0  0  0  0  0  0  0  0  0
   11.5863    9.6815   19.4539 C   0  0  0  0  0  0  0  0  0  0  0  0
   12.9648    4.1543   20.9205 C   0  0  0  0  0  0  0  0  0  0  0  0
    8.2089    3.6265   20.8929 C   0  0  0  0  0  0  0  0  0  0  0  0
    7.3827    2.5724   20.5432 C   0  0  0  0  0  0  0  0  0  0  0  0
   11.1529    7.2750   20.8025 C   0  0  0  0  0  0  0  0  0  0  0  0
   10.2573    8.3215   20.9827 C   0  0  0  0  0  0  0  0  0  0  0  0
   11.1606    5.9378   21.2366 N   0  0  0  0  0  0  0  0  0  0  0  0
    9.8932   11.6736   19.0677 O   0  0  0  0  0  0  0  0  0  0  0  0
    6.4470    4.5850   22.2321 C   0  0  0  0  0  0  0  0  0  0  0  0
    8.4619    6.9895   22.2968 C   0  0  0  0  0  0  0  0  0  0  0  0
   12.2747    7.5102   20.0420 C   0  0  0  0  0  0  0  0  0  0  0  0
   14.2544    6.2142   19.4191 C   0  0  0  0  0  0  0  0  0  0  0  0
   13.0695    6.3705   20.0375 N   0  0  0  0  0  0  0  0  0  0  0  0
    9.1913    8.0876   21.8361 N   0  0  0  0  0  0  0  0  0  0  0  0
   10.4739    9.4813   20.2889 C   0  0  0  0  0  0  0  0  0  0  0  0
    7.5551    7.1270   23.1200 O   0  0  0  0  0  0  0  0  0  0  0  0
  1 11  4  0
  1 21  4  0
  2  4  1  0
  2  8  1  0
  2 11  1  0
  3 10  4  0
  3 14  4  0
  4  5  1  0
  4 18  2  0
  6 12  1  0
  6 17  4  0
  6 23  4  0
  7  9  1  0
  7 13  4  0
  7 19  4  0
  9 20  1  0
 10 19  4  0
 11 25  4  0
 13 14  4  0
 15 16  4  0
 15 17  4  0
 15 21  4  0
 16 24  1  0
 16 25  4  0
 20 24  1  0
 20 26  2  0
 21 23  4  0
 22 23  1  0
M  END
$$$$

 Created by Python create_sdf_string function

 26 28  0  0  0  0  0  0  0  0999 V2000
   12.4616    8.6700   19.4180 N   0  0  0  0  0  0  0  0  0  0  0  0
   11.8329   10.8148   18.6769 N   0  0  0  0  0  0  0  0  0  0  0  0
    6.1021    2.5564   21.0678 C   0  0  0  0  0  0  0  0  0  0  0  0
   10.9097   11.8051   18.4804 C   0  0  0  0  0  0  0  0  0  0  0  0
   11.2280   12.9135   17.5669 C   0  0  0  0  0  0  0  0  0  0  0  0
   12.3782    5.4231   20.7777 C   0  0  0  0  0  0  0  0  0  0  0  0
    7.7365    4.6508   21.6987 C   0  0  0  0  0  0  0  0  0  0  0  0
   13.0186   11.0102   18.0020 C   0  0  0  0  0  0  0  0  0  0  0  0
    8.6628    5.7088   21.8871 N   0  0  0  0  0  0  0  0  0  0  0  0
    5.6516    3.5258   21.9140 C   0  0  0  0  0  0  0  0  0  0  0  0
   11.5863    9.6815   19.4539 C   0  0  0  0  0  0  0  0  0  0  0  0
   12.9648    4.1543   20.9205 C   0  0  0  0  0  0  0  0  0  0  0  0
    8.2089    3.6265   20.8929 C   0  0  0  0  0  0  0  0  0  0  0  0
    7.3827    2.5724   20.5432 C   0  0  0  0  0  0  0  0  0  0  0  0
   11.1529    7.2750   20.8025 C   0  0  0  0  0  0  0  0  0  0  0  0
   10.2573    8.3215   20.9827 C   0  0  0  0  0  0  0  0  0  0  0  0
   11.1606    5.9378   21.2366 N   0  0  0  0  0  0  0  0  0  0  0  0
    9.8932   11.6736   19.0677 O   0  0  0  0  0  0  0  0  0  0  0  0
    6.4470    4.5850   22.2321 C   0  0  0  0  0  0  0  0  0  0  0  0
    8.4619    6.9895   22.2968 C   0  0  0  0  0  0  0  0  0  0  0  0
   12.2747    7.5102   20.0420 C   0  0  0  0  0  0  0  0  0  0  0  0
   14.2544    6.2142   19.4191 C   0  0  0  0  0  0  0  0  0  0  0  0
   13.0695    6.3705   20.0375 N   0  0  0  0  0  0  0  0  0  0  0  0
    9.1913    8.0876   21.8361 N   0  0  0  0  0  0  0  0  0  0  0  0
   10.4739    9.4813   20.2889 C   0  0  0  0  0  0  0  0  0  0  0  0
    7.5551    7.1270   23.1200 O   0  0  0  0  0  0  0  0  0  0  0  0
  1 11  4  0
  1 21  4  0
  2  4  1  0
  2  8  1  0
  2 11  1  0
  3 10  4  0
  3 14  4  0
  4  5  1  0
  4 18  2  0
  6 12  1  0
  6 17  4  0
  6 23  4  0
  7  9  1  0
  7 13  4  0
  7 19  4  0
  9 20  1  0
 10 19  4  0
 11 25  4  0
 13 14  4  0
 15 16  4  0
 15 17  4  0
 15 21  4  0
 16 24  1  0
 16 25  4  0
 20 24  1  0
 20 26  2  0
 21 23  4  0
 22 23  1  0
M  END
$$$$

 Created by Python create_sdf_string function

 26 28  0  0  0  0  0  0  0  0999 V2000
   12.4616    8.6700   19.4180 N   0  0  0  0  0  0  0  0  0  0  0  0
   11.8329   10.8148   18.6769 N   0  0  0  0  0  0  0  0  0  0  0  0
    6.1021    2.5564   21.0678 C   0  0  0  0  0  0  0  0  0  0  0  0
   10.9097   11.8051   18.4804 C   0  0  0  0  0  0  0  0  0  0  0  0
   11.2280   12.9135   17.5669 C   0  0  0  0  0  0  0  0  0  0  0  0
   12.3782    5.4231   20.7777 C   0  0  0  0  0  0  0  0  0  0  0  0
    7.7365    4.6508   21.6987 C   0  0  0  0  0  0  0  0  0  0  0  0
   13.0186   11.0102   18.0020 C   0  0  0  0  0  0  0  0  0  0  0  0
    8.6628    5.7088   21.8871 N   0  0  0  0  0  0  0  0  0  0  0  0
    5.6516    3.5258   21.9140 C   0  0  0  0  0  0  0  0  0  0  0  0
   11.5863    9.6815   19.4539 C   0  0  0  0  0  0  0  0  0  0  0  0
   12.9648    4.1543   20.9205 C   0  0  0  0  0  0  0  0  0  0  0  0
    8.2089    3.6265   20.8929 C   0  0  0  0  0  0  0  0  0  0  0  0
    7.3827    2.5724   20.5432 C   0  0  0  0  0  0  0  0  0  0  0  0
   11.1529    7.2750   20.8025 C   0  0  0  0  0  0  0  0  0  0  0  0
   10.2573    8.3215   20.9827 C   0  0  0  0  0  0  0  0  0  0  0  0
   11.1606    5.9378   21.2366 N   0  0  0  0  0  0  0  0  0  0  0  0
    9.8932   11.6736   19.0677 O   0  0  0  0  0  0  0  0  0  0  0  0
    6.4470    4.5850   22.2321 C   0  0  0  0  0  0  0  0  0  0  0  0
    8.4619    6.9895   22.2968 C   0  0  0  0  0  0  0  0  0  0  0  0
   12.2747    7.5102   20.0420 C   0  0  0  0  0  0  0  0  0  0  0  0
   14.2544    6.2142   19.4191 C   0  0  0  0  0  0  0  0  0  0  0  0
   13.0695    6.3705   20.0375 N   0  0  0  0  0  0  0  0  0  0  0  0
    9.1913    8.0876   21.8361 N   0  0  0  0  0  0  0  0  0  0  0  0
   10.4739    9.4813   20.2889 C   0  0  0  0  0  0  0  0  0  0  0  0
    7.5551    7.1270   23.1200 O   0  0  0  0  0  0  0  0  0  0  0  0
  1 11  4  0
  1 21  4  0
  2  4  1  0
  2  8  1  0
  2 11  1  0
  3 10  4  0
  3 14  4  0
  4  5  1  0
  4 18  2  0
  6 12  1  0
  6 17  4  0
  6 23  4  0
  7  9  1  0
  7 13  4  0
  7 19  4  0
  9 20  1  0
 10 19  4  0
 11 25  4  0
 13 14  4  0
 15 16  4  0
 15 17  4  0
 15 21  4  0
 16 24  1  0
 16 25  4  0
 20 24  1  0
 20 26  2  0
 21 23  4  0
 22 23  1  0
M  END
$$$$

 Created by Python create_sdf_string function

 26 28  0  0  0  0  0  0  0  0999 V2000
   12.4616    8.6700   19.4180 N   0  0  0  0  0  0  0  0  0  0  0  0
   11.8329   10.8148   18.6769 N   0  0  0  0  0  0  0  0  0  0  0  0
    6.1021    2.5564   21.0678 C   0  0  0  0  0  0  0  0  0  0  0  0
   10.9097   11.8051   18.4804 C   0  0  0  0  0  0  0  0  0  0  0  0
   11.2280   12.9135   17.5669 C   0  0  0  0  0  0  0  0  0  0  0  0
   12.3782    5.4231   20.7777 C   0  0  0  0  0  0  0  0  0  0  0  0
    7.7365    4.6508   21.6987 C   0  0  0  0  0  0  0  0  0  0  0  0
   13.0186   11.0102   18.0020 C   0  0  0  0  0  0  0  0  0  0  0  0
    8.6628    5.7088   21.8871 N   0  0  0  0  0  0  0  0  0  0  0  0
    5.6516    3.5258   21.9140 C   0  0  0  0  0  0  0  0  0  0  0  0
   11.5863    9.6815   19.4539 C   0  0  0  0  0  0  0  0  0  0  0  0
   12.9648    4.1543   20.9205 C   0  0  0  0  0  0  0  0  0  0  0  0
    8.2089    3.6265   20.8929 C   0  0  0  0  0  0  0  0  0  0  0  0
    7.3827    2.5724   20.5432 C   0  0  0  0  0  0  0  0  0  0  0  0
   11.1529    7.2750   20.8025 C   0  0  0  0  0  0  0  0  0  0  0  0
   10.2573    8.3215   20.9827 C   0  0  0  0  0  0  0  0  0  0  0  0
   11.1606    5.9378   21.2366 N   0  0  0  0  0  0  0  0  0  0  0  0
    9.8932   11.6736   19.0677 O   0  0  0  0  0  0  0  0  0  0  0  0
    6.4470    4.5850   22.2321 C   0  0  0  0  0  0  0  0  0  0  0  0
    8.4619    6.9895   22.2968 C   0  0  0  0  0  0  0  0  0  0  0  0
   12.2747    7.5102   20.0420 C   0  0  0  0  0  0  0  0  0  0  0  0
   14.2544    6.2142   19.4191 C   0  0  0  0  0  0  0  0  0  0  0  0
   13.0695    6.3705   20.0375 N   0  0  0  0  0  0  0  0  0  0  0  0
    9.1913    8.0876   21.8361 N   0  0  0  0  0  0  0  0  0  0  0  0
   10.4739    9.4813   20.2889 C   0  0  0  0  0  0  0  0  0  0  0  0
    7.5551    7.1270   23.1200 O   0  0  0  0  0  0  0  0  0  0  0  0
  1 11  4  0
  1 21  4  0
  2  4  1  0
  2  8  1  0
  2 11  1  0
  3 10  4  0
  3 14  4  0
  4  5  1  0
  4 18  2  0
  6 12  1  0
  6 17  4  0
  6 23  4  0
  7  9  1  0
  7 13  4  0
  7 19  4  0
  9 20  1  0
 10 19  4  0
 11 25  4  0
 13 14  4  0
 15 16  4  0
 15 17  4  0
 15 21  4  0
 16 24  1  0
 16 25  4  0
 20 24  1  0
 20 26  2  0
 21 23  4  0
 22 23  1  0
M  END
$$$$

 Created by Python create_sdf_string function

 26 28  0  0  0  0  0  0  0  0999 V2000
   12.4616    8.6700   19.4180 N   0  0  0  0  0  0  0  0  0  0  0  0
   11.8329   10.8148   18.6769 N   0  0  0  0  0  0  0  0  0  0  0  0
    6.1021    2.5564   21.0678 C   0  0  0  0  0  0  0  0  0  0  0  0
   10.9097   11.8051   18.4804 C   0  0  0  0  0  0  0  0  0  0  0  0
   11.2280   12.9135   17.5669 C   0  0  0  0  0  0  0  0  0  0  0  0
   12.3782    5.4231   20.7777 C   0  0  0  0  0  0  0  0  0  0  0  0
    7.7365    4.6508   21.6987 C   0  0  0  0  0  0  0  0  0  0  0  0
   13.0186   11.0102   18.0020 C   0  0  0  0  0  0  0  0  0  0  0  0
    8.6628    5.7088   21.8871 N   0  0  0  0  0  0  0  0  0  0  0  0
    5.6516    3.5258   21.9140 C   0  0  0  0  0  0  0  0  0  0  0  0
   11.5863    9.6815   19.4539 C   0  0  0  0  0  0  0  0  0  0  0  0
   12.9648    4.1543   20.9205 C   0  0  0  0  0  0  0  0  0  0  0  0
    8.2089    3.6265   20.8929 C   0  0  0  0  0  0  0  0  0  0  0  0
    7.3827    2.5724   20.5432 C   0  0  0  0  0  0  0  0  0  0  0  0
   11.1529    7.2750   20.8025 C   0  0  0  0  0  0  0  0  0  0  0  0
   10.2573    8.3215   20.9827 C   0  0  0  0  0  0  0  0  0  0  0  0
   11.1606    5.9378   21.2366 N   0  0  0  0  0  0  0  0  0  0  0  0
    9.8932   11.6736   19.0677 O   0  0  0  0  0  0  0  0  0  0  0  0
    6.4470    4.5850   22.2321 C   0  0  0  0  0  0  0  0  0  0  0  0
    8.4619    6.9895   22.2968 C   0  0  0  0  0  0  0  0  0  0  0  0
   12.2747    7.5102   20.0420 C   0  0  0  0  0  0  0  0  0  0  0  0
   14.2544    6.2142   19.4191 C   0  0  0  0  0  0  0  0  0  0  0  0
   13.0695    6.3705   20.0375 N   0  0  0  0  0  0  0  0  0  0  0  0
    9.1913    8.0876   21.8361 N   0  0  0  0  0  0  0  0  0  0  0  0
   10.4739    9.4813   20.2889 C   0  0  0  0  0  0  0  0  0  0  0  0
    7.5551    7.1270   23.1200 O   0  0  0  0  0  0  0  0  0  0  0  0
  1 11  4  0
  1 21  4  0
  2  4  1  0
  2  8  1  0
  2 11  1  0
  3 10  4  0
  3 14  4  0
  4  5  1  0
  4 18  2  0
  6 12  1  0
  6 17  4  0
  6 23  4  0
  7  9  1  0
  7 13  4  0
  7 19  4  0
  9 20  1  0
 10 19  4  0
 11 25  4  0
 13 14  4  0
 15 16  4  0
 15 17  4  0
 15 21  4  0
 16 24  1  0
 16 25  4  0
 20 24  1  0
 20 26  2  0
 21 23  4  0
 22 23  1  0
M  END
$$$$

 Created by Python create_sdf_string function

 26 28  0  0  0  0  0  0  0  0999 V2000
   12.4616    8.6700   19.4180 N   0  0  0  0  0  0  0  0  0  0  0  0
   11.8329   10.8148   18.6769 N   0  0  0  0  0  0  0  0  0  0  0  0
    6.1021    2.5564   21.0678 C   0  0  0  0  0  0  0  0  0  0  0  0
   10.9097   11.8051   18.4804 C   0  0  0  0  0  0  0  0  0  0  0  0
   11.2280   12.9135   17.5669 C   0  0  0  0  0  0  0  0  0  0  0  0
   12.3782    5.4231   20.7777 C   0  0  0  0  0  0  0  0  0  0  0  0
    7.7365    4.6508   21.6987 C   0  0  0  0  0  0  0  0  0  0  0  0
   13.0186   11.0102   18.0020 C   0  0  0  0  0  0  0  0  0  0  0  0
    8.6628    5.7088   21.8871 N   0  0  0  0  0  0  0  0  0  0  0  0
    5.6516    3.5258   21.9140 C   0  0  0  0  0  0  0  0  0  0  0  0
   11.5863    9.6815   19.4539 C   0  0  0  0  0  0  0  0  0  0  0  0
   12.9648    4.1543   20.9205 C   0  0  0  0  0  0  0  0  0  0  0  0
    8.2089    3.6265   20.8929 C   0  0  0  0  0  0  0  0  0  0  0  0
    7.3827    2.5724   20.5432 C   0  0  0  0  0  0  0  0  0  0  0  0
   11.1529    7.2750   20.8025 C   0  0  0  0  0  0  0  0  0  0  0  0
   10.2573    8.3215   20.9827 C   0  0  0  0  0  0  0  0  0  0  0  0
   11.1606    5.9378   21.2366 N   0  0  0  0  0  0  0  0  0  0  0  0
    9.8932   11.6736   19.0677 O   0  0  0  0  0  0  0  0  0  0  0  0
    6.4470    4.5850   22.2321 C   0  0  0  0  0  0  0  0  0  0  0  0
    8.4619    6.9895   22.2968 C   0  0  0  0  0  0  0  0  0  0  0  0
   12.2747    7.5102   20.0420 C   0  0  0  0  0  0  0  0  0  0  0  0
   14.2544    6.2142   19.4191 C   0  0  0  0  0  0  0  0  0  0  0  0
   13.0695    6.3705   20.0375 N   0  0  0  0  0  0  0  0  0  0  0  0
    9.1913    8.0876   21.8361 N   0  0  0  0  0  0  0  0  0  0  0  0
   10.4739    9.4813   20.2889 C   0  0  0  0  0  0  0  0  0  0  0  0
    7.5551    7.1270   23.1200 O   0  0  0  0  0  0  0  0  0  0  0  0
  1 11  4  0
  1 21  4  0
  2  4  1  0
  2  8  1  0
  2 11  1  0
  3 10  4  0
  3 14  4  0
  4  5  1  0
  4 18  2  0
  6 12  1  0
  6 17  4  0
  6 23  4  0
  7  9  1  0
  7 13  4  0
  7 19  4  0
  9 20  1  0
 10 19  4  0
 11 25  4  0
 13 14  4  0
 15 16  4  0
 15 17  4  0
 15 21  4  0
 16 24  1  0
 16 25  4  0
 20 24  1  0
 20 26  2  0
 21 23  4  0
 22 23  1  0
M  END
$$$$

 Created by Python create_sdf_string function

 26 28  0  0  0  0  0  0  0  0999 V2000
   12.4616    8.6700   19.4180 N   0  0  0  0  0  0  0  0  0  0  0  0
   11.8329   10.8148   18.6769 N   0  0  0  0  0  0  0  0  0  0  0  0
    6.1021    2.5564   21.0678 C   0  0  0  0  0  0  0  0  0  0  0  0
   10.9097   11.8051   18.4804 C   0  0  0  0  0  0  0  0  0  0  0  0
   11.2280   12.9135   17.5669 C   0  0  0  0  0  0  0  0  0  0  0  0
   12.3782    5.4231   20.7777 C   0  0  0  0  0  0  0  0  0  0  0  0
    7.7365    4.6508   21.6987 C   0  0  0  0  0  0  0  0  0  0  0  0
   13.0186   11.0102   18.0020 C   0  0  0  0  0  0  0  0  0  0  0  0
    8.6628    5.7088   21.8871 N   0  0  0  0  0  0  0  0  0  0  0  0
    5.6516    3.5258   21.9140 C   0  0  0  0  0  0  0  0  0  0  0  0
   11.5863    9.6815   19.4539 C   0  0  0  0  0  0  0  0  0  0  0  0
   12.9648    4.1543   20.9205 C   0  0  0  0  0  0  0  0  0  0  0  0
    8.2089    3.6265   20.8929 C   0  0  0  0  0  0  0  0  0  0  0  0
    7.3827    2.5724   20.5432 C   0  0  0  0  0  0  0  0  0  0  0  0
   11.1529    7.2750   20.8025 C   0  0  0  0  0  0  0  0  0  0  0  0
   10.2573    8.3215   20.9827 C   0  0  0  0  0  0  0  0  0  0  0  0
   11.1606    5.9378   21.2366 N   0  0  0  0  0  0  0  0  0  0  0  0
    9.8932   11.6736   19.0677 O   0  0  0  0  0  0  0  0  0  0  0  0
    6.4470    4.5850   22.2321 C   0  0  0  0  0  0  0  0  0  0  0  0
    8.4619    6.9895   22.2968 C   0  0  0  0  0  0  0  0  0  0  0  0
   12.2747    7.5102   20.0420 C   0  0  0  0  0  0  0  0  0  0  0  0
   14.2544    6.2142   19.4191 C   0  0  0  0  0  0  0  0  0  0  0  0
   13.0695    6.3705   20.0375 N   0  0  0  0  0  0  0  0  0  0  0  0
    9.1913    8.0876   21.8361 N   0  0  0  0  0  0  0  0  0  0  0  0
   10.4739    9.4813   20.2889 C   0  0  0  0  0  0  0  0  0  0  0  0
    7.5551    7.1270   23.1200 O   0  0  0  0  0  0  0  0  0  0  0  0
  1 11  4  0
  1 21  4  0
  2  4  1  0
  2  8  1  0
  2 11  1  0
  3 10  4  0
  3 14  4  0
  4  5  1  0
  4 18  2  0
  6 12  1  0
  6 17  4  0
  6 23  4  0
  7  9  1  0
  7 13  4  0
  7 19  4  0
  9 20  1  0
 10 19  4  0
 11 25  4  0
 13 14  4  0
 15 16  4  0
 15 17  4  0
 15 21  4  0
 16 24  1  0
 16 25  4  0
 20 24  1  0
 20 26  2  0
 21 23  4  0
 22 23  1  0
M  END
$$$$

 Created by Python create_sdf_string function

 26 28  0  0  0  0  0  0  0  0999 V2000
   12.4616    8.6700   19.4180 N   0  0  0  0  0  0  0  0  0  0  0  0
   11.8329   10.8148   18.6769 N   0  0  0  0  0  0  0  0  0  0  0  0
    6.1021    2.5564   21.0678 C   0  0  0  0  0  0  0  0  0  0  0  0
   10.9097   11.8051   18.4804 C   0  0  0  0  0  0  0  0  0  0  0  0
   11.2280   12.9135   17.5669 C   0  0  0  0  0  0  0  0  0  0  0  0
   12.3782    5.4231   20.7777 C   0  0  0  0  0  0  0  0  0  0  0  0
    7.7365    4.6508   21.6987 C   0  0  0  0  0  0  0  0  0  0  0  0
   13.0186   11.0102   18.0020 C   0  0  0  0  0  0  0  0  0  0  0  0
    8.6628    5.7088   21.8871 N   0  0  0  0  0  0  0  0  0  0  0  0
    5.6516    3.5258   21.9140 C   0  0  0  0  0  0  0  0  0  0  0  0
   11.5863    9.6815   19.4539 C   0  0  0  0  0  0  0  0  0  0  0  0
   12.9648    4.1543   20.9205 C   0  0  0  0  0  0  0  0  0  0  0  0
    8.2089    3.6265   20.8929 C   0  0  0  0  0  0  0  0  0  0  0  0
    7.3827    2.5724   20.5432 C   0  0  0  0  0  0  0  0  0  0  0  0
   11.1529    7.2750   20.8025 C   0  0  0  0  0  0  0  0  0  0  0  0
   10.2573    8.3215   20.9827 C   0  0  0  0  0  0  0  0  0  0  0  0
   11.1606    5.9378   21.2366 N   0  0  0  0  0  0  0  0  0  0  0  0
    9.8932   11.6736   19.0677 O   0  0  0  0  0  0  0  0  0  0  0  0
    6.4470    4.5850   22.2321 C   0  0  0  0  0  0  0  0  0  0  0  0
    8.4619    6.9895   22.2968 C   0  0  0  0  0  0  0  0  0  0  0  0
   12.2747    7.5102   20.0420 C   0  0  0  0  0  0  0  0  0  0  0  0
   14.2544    6.2142   19.4191 C   0  0  0  0  0  0  0  0  0  0  0  0
   13.0695    6.3705   20.0375 N   0  0  0  0  0  0  0  0  0  0  0  0
    9.1913    8.0876   21.8361 N   0  0  0  0  0  0  0  0  0  0  0  0
   10.4739    9.4813   20.2889 C   0  0  0  0  0  0  0  0  0  0  0  0
    7.5551    7.1270   23.1200 O   0  0  0  0  0  0  0  0  0  0  0  0
  1 11  4  0
  1 21  4  0
  2  4  1  0
  2  8  1  0
  2 11  1  0
  3 10  4  0
  3 14  4  0
  4  5  1  0
  4 18  2  0
  6 12  1  0
  6 17  4  0
  6 23  4  0
  7  9  1  0
  7 13  4  0
  7 19  4  0
  9 20  1  0
 10 19  4  0
 11 25  4  0
 13 14  4  0
 15 16  4  0
 15 17  4  0
 15 21  4  0
 16 24  1  0
 16 25  4  0
 20 24  1  0
 20 26  2  0
 21 23  4  0
 22 23  1  0
M  END
$$$$

 Created by Python create_sdf_string function

 26 28  0  0  0  0  0  0  0  0999 V2000
   12.4616    8.6700   19.4180 N   0  0  0  0  0  0  0  0  0  0  0  0
   11.8329   10.8148   18.6769 N   0  0  0  0  0  0  0  0  0  0  0  0
    6.1021    2.5564   21.0678 C   0  0  0  0  0  0  0  0  0  0  0  0
   10.9097   11.8051   18.4804 C   0  0  0  0  0  0  0  0  0  0  0  0
   11.2280   12.9135   17.5669 C   0  0  0  0  0  0  0  0  0  0  0  0
   12.3782    5.4231   20.7777 C   0  0  0  0  0  0  0  0  0  0  0  0
    7.7365    4.6508   21.6987 C   0  0  0  0  0  0  0  0  0  0  0  0
   13.0186   11.0102   18.0020 C   0  0  0  0  0  0  0  0  0  0  0  0
    8.6628    5.7088   21.8871 N   0  0  0  0  0  0  0  0  0  0  0  0
    5.6516    3.5258   21.9140 C   0  0  0  0  0  0  0  0  0  0  0  0
   11.5863    9.6815   19.4539 C   0  0  0  0  0  0  0  0  0  0  0  0
   12.9648    4.1543   20.9205 C   0  0  0  0  0  0  0  0  0  0  0  0
    8.2089    3.6265   20.8929 C   0  0  0  0  0  0  0  0  0  0  0  0
    7.3827    2.5724   20.5432 C   0  0  0  0  0  0  0  0  0  0  0  0
   11.1529    7.2750   20.8025 C   0  0  0  0  0  0  0  0  0  0  0  0
   10.2573    8.3215   20.9827 C   0  0  0  0  0  0  0  0  0  0  0  0
   11.1606    5.9378   21.2366 N   0  0  0  0  0  0  0  0  0  0  0  0
    9.8932   11.6736   19.0677 O   0  0  0  0  0  0  0  0  0  0  0  0
    6.4470    4.5850   22.2321 C   0  0  0  0  0  0  0  0  0  0  0  0
    8.4619    6.9895   22.2968 C   0  0  0  0  0  0  0  0  0  0  0  0
   12.2747    7.5102   20.0420 C   0  0  0  0  0  0  0  0  0  0  0  0
   14.2544    6.2142   19.4191 C   0  0  0  0  0  0  0  0  0  0  0  0
   13.0695    6.3705   20.0375 N   0  0  0  0  0  0  0  0  0  0  0  0
    9.1913    8.0876   21.8361 N   0  0  0  0  0  0  0  0  0  0  0  0
   10.4739    9.4813   20.2889 C   0  0  0  0  0  0  0  0  0  0  0  0
    7.5551    7.1270   23.1200 O   0  0  0  0  0  0  0  0  0  0  0  0
  1 11  4  0
  1 21  4  0
  2  4  1  0
  2  8  1  0
  2 11  1  0
  3 10  4  0
  3 14  4  0
  4  5  1  0
  4 18  2  0
  6 12  1  0
  6 17  4  0
  6 23  4  0
  7  9  1  0
  7 13  4  0
  7 19  4  0
  9 20  1  0
 10 19  4  0
 11 25  4  0
 13 14  4  0
 15 16  4  0
 15 17  4  0
 15 21  4  0
 16 24  1  0
 16 25  4  0
 20 24  1  0
 20 26  2  0
 21 23  4  0
 22 23  1  0
M  END
$$$$

 Created by Python create_sdf_string function

 26 28  0  0  0  0  0  0  0  0999 V2000
   12.4616    8.6700   19.4180 N   0  0  0  0  0  0  0  0  0  0  0  0
   11.8329   10.8148   18.6769 N   0  0  0  0  0  0  0  0  0  0  0  0
    6.1021    2.5564   21.0678 C   0  0  0  0  0  0  0  0  0  0  0  0
   10.9097   11.8051   18.4804 C   0  0  0  0  0  0  0  0  0  0  0  0
   11.2280   12.9135   17.5669 C   0  0  0  0  0  0  0  0  0  0  0  0
   12.3782    5.4231   20.7777 C   0  0  0  0  0  0  0  0  0  0  0  0
    7.7365    4.6508   21.6987 C   0  0  0  0  0  0  0  0  0  0  0  0
   13.0186   11.0102   18.0020 C   0  0  0  0  0  0  0  0  0  0  0  0
    8.6628    5.7088   21.8871 N   0  0  0  0  0  0  0  0  0  0  0  0
    5.6516    3.5258   21.9140 C   0  0  0  0  0  0  0  0  0  0  0  0
   11.5863    9.6815   19.4539 C   0  0  0  0  0  0  0  0  0  0  0  0
   12.9648    4.1543   20.9205 C   0  0  0  0  0  0  0  0  0  0  0  0
    8.2089    3.6265   20.8929 C   0  0  0  0  0  0  0  0  0  0  0  0
    7.3827    2.5724   20.5432 C   0  0  0  0  0  0  0  0  0  0  0  0
   11.1529    7.2750   20.8025 C   0  0  0  0  0  0  0  0  0  0  0  0
   10.2573    8.3215   20.9827 C   0  0  0  0  0  0  0  0  0  0  0  0
   11.1606    5.9378   21.2366 N   0  0  0  0  0  0  0  0  0  0  0  0
    9.8932   11.6736   19.0677 O   0  0  0  0  0  0  0  0  0  0  0  0
    6.4470    4.5850   22.2321 C   0  0  0  0  0  0  0  0  0  0  0  0
    8.4619    6.9895   22.2968 C   0  0  0  0  0  0  0  0  0  0  0  0
   12.2747    7.5102   20.0420 C   0  0  0  0  0  0  0  0  0  0  0  0
   14.2544    6.2142   19.4191 C   0  0  0  0  0  0  0  0  0  0  0  0
   13.0695    6.3705   20.0375 N   0  0  0  0  0  0  0  0  0  0  0  0
    9.1913    8.0876   21.8361 N   0  0  0  0  0  0  0  0  0  0  0  0
   10.4739    9.4813   20.2889 C   0  0  0  0  0  0  0  0  0  0  0  0
    7.5551    7.1270   23.1200 O   0  0  0  0  0  0  0  0  0  0  0  0
  1 11  4  0
  1 21  4  0
  2  4  1  0
  2  8  1  0
  2 11  1  0
  3 10  4  0
  3 14  4  0
  4  5  1  0
  4 18  2  0
  6 12  1  0
  6 17  4  0
  6 23  4  0
  7  9  1  0
  7 13  4  0
  7 19  4  0
  9 20  1  0
 10 19  4  0
 11 25  4  0
 13 14  4  0
 15 16  4  0
 15 17  4  0
 15 21  4  0
 16 24  1  0
 16 25  4  0
 20 24  1  0
 20 26  2  0
 21 23  4  0
 22 23  1  0
M  END
$$$$

 Created by Python create_sdf_string function

 26 28  0  0  0  0  0  0  0  0999 V2000
   12.4616    8.6700   19.4180 N   0  0  0  0  0  0  0  0  0  0  0  0
   11.8329   10.8148   18.6769 N   0  0  0  0  0  0  0  0  0  0  0  0
    6.1021    2.5564   21.0678 C   0  0  0  0  0  0  0  0  0  0  0  0
   10.9097   11.8051   18.4804 C   0  0  0  0  0  0  0  0  0  0  0  0
   11.2280   12.9135   17.5669 C   0  0  0  0  0  0  0  0  0  0  0  0
   12.3782    5.4231   20.7777 C   0  0  0  0  0  0  0  0  0  0  0  0
    7.7365    4.6508   21.6987 C   0  0  0  0  0  0  0  0  0  0  0  0
   13.0186   11.0102   18.0020 C   0  0  0  0  0  0  0  0  0  0  0  0
    8.6628    5.7088   21.8871 N   0  0  0  0  0  0  0  0  0  0  0  0
    5.6516    3.5258   21.9140 C   0  0  0  0  0  0  0  0  0  0  0  0
   11.5863    9.6815   19.4539 C   0  0  0  0  0  0  0  0  0  0  0  0
   12.9648    4.1543   20.9205 C   0  0  0  0  0  0  0  0  0  0  0  0
    8.2089    3.6265   20.8929 C   0  0  0  0  0  0  0  0  0  0  0  0
    7.3827    2.5724   20.5432 C   0  0  0  0  0  0  0  0  0  0  0  0
   11.1529    7.2750   20.8025 C   0  0  0  0  0  0  0  0  0  0  0  0
   10.2573    8.3215   20.9827 C   0  0  0  0  0  0  0  0  0  0  0  0
   11.1606    5.9378   21.2366 N   0  0  0  0  0  0  0  0  0  0  0  0
    9.8932   11.6736   19.0677 O   0  0  0  0  0  0  0  0  0  0  0  0
    6.4470    4.5850   22.2321 C   0  0  0  0  0  0  0  0  0  0  0  0
    8.4619    6.9895   22.2968 C   0  0  0  0  0  0  0  0  0  0  0  0
   12.2747    7.5102   20.0420 C   0  0  0  0  0  0  0  0  0  0  0  0
   14.2544    6.2142   19.4191 C   0  0  0  0  0  0  0  0  0  0  0  0
   13.0695    6.3705   20.0375 N   0  0  0  0  0  0  0  0  0  0  0  0
    9.1913    8.0876   21.8361 N   0  0  0  0  0  0  0  0  0  0  0  0
   10.4739    9.4813   20.2889 C   0  0  0  0  0  0  0  0  0  0  0  0
    7.5551    7.1270   23.1200 O   0  0  0  0  0  0  0  0  0  0  0  0
  1 11  4  0
  1 21  4  0
  2  4  1  0
  2  8  1  0
  2 11  1  0
  3 10  4  0
  3 14  4  0
  4  5  1  0
  4 18  2  0
  6 12  1  0
  6 17  4  0
  6 23  4  0
  7  9  1  0
  7 13  4  0
  7 19  4  0
  9 20  1  0
 10 19  4  0
 11 25  4  0
 13 14  4  0
 15 16  4  0
 15 17  4  0
 15 21  4  0
 16 24  1  0
 16 25  4  0
 20 24  1  0
 20 26  2  0
 21 23  4  0
 22 23  1  0
M  END
$$$$

 Created by Python create_sdf_string function

 26 28  0  0  0  0  0  0  0  0999 V2000
   12.4616    8.6700   19.4180 N   0  0  0  0  0  0  0  0  0  0  0  0
   11.8329   10.8148   18.6769 N   0  0  0  0  0  0  0  0  0  0  0  0
    6.1021    2.5564   21.0678 C   0  0  0  0  0  0  0  0  0  0  0  0
   10.9097   11.8051   18.4804 C   0  0  0  0  0  0  0  0  0  0  0  0
   11.2280   12.9135   17.5669 C   0  0  0  0  0  0  0  0  0  0  0  0
   12.3782    5.4231   20.7777 C   0  0  0  0  0  0  0  0  0  0  0  0
    7.7365    4.6508   21.6987 C   0  0  0  0  0  0  0  0  0  0  0  0
   13.0186   11.0102   18.0020 C   0  0  0  0  0  0  0  0  0  0  0  0
    8.6628    5.7088   21.8871 N   0  0  0  0  0  0  0  0  0  0  0  0
    5.6516    3.5258   21.9140 C   0  0  0  0  0  0  0  0  0  0  0  0
   11.5863    9.6815   19.4539 C   0  0  0  0  0  0  0  0  0  0  0  0
   12.9648    4.1543   20.9205 C   0  0  0  0  0  0  0  0  0  0  0  0
    8.2089    3.6265   20.8929 C   0  0  0  0  0  0  0  0  0  0  0  0
    7.3827    2.5724   20.5432 C   0  0  0  0  0  0  0  0  0  0  0  0
   11.1529    7.2750   20.8025 C   0  0  0  0  0  0  0  0  0  0  0  0
   10.2573    8.3215   20.9827 C   0  0  0  0  0  0  0  0  0  0  0  0
   11.1606    5.9378   21.2366 N   0  0  0  0  0  0  0  0  0  0  0  0
    9.8932   11.6736   19.0677 O   0  0  0  0  0  0  0  0  0  0  0  0
    6.4470    4.5850   22.2321 C   0  0  0  0  0  0  0  0  0  0  0  0
    8.4619    6.9895   22.2968 C   0  0  0  0  0  0  0  0  0  0  0  0
   12.2747    7.5102   20.0420 C   0  0  0  0  0  0  0  0  0  0  0  0
   14.2544    6.2142   19.4191 C   0  0  0  0  0  0  0  0  0  0  0  0
   13.0695    6.3705   20.0375 N   0  0  0  0  0  0  0  0  0  0  0  0
    9.1913    8.0876   21.8361 N   0  0  0  0  0  0  0  0  0  0  0  0
   10.4739    9.4813   20.2889 C   0  0  0  0  0  0  0  0  0  0  0  0
    7.5551    7.1270   23.1200 O   0  0  0  0  0  0  0  0  0  0  0  0
  1 11  4  0
  1 21  4  0
  2  4  1  0
  2  8  1  0
  2 11  1  0
  3 10  4  0
  3 14  4  0
  4  5  1  0
  4 18  2  0
  6 12  1  0
  6 17  4  0
  6 23  4  0
  7  9  1  0
  7 13  4  0
  7 19  4  0
  9 20  1  0
 10 19  4  0
 11 25  4  0
 13 14  4  0
 15 16  4  0
 15 17  4  0
 15 21  4  0
 16 24  1  0
 16 25  4  0
 20 24  1  0
 20 26  2  0
 21 23  4  0
 22 23  1  0
M  END
$$$$

 Created by Python create_sdf_string function

 26 28  0  0  0  0  0  0  0  0999 V2000
   12.4616    8.6700   19.4180 N   0  0  0  0  0  0  0  0  0  0  0  0
   11.8329   10.8148   18.6769 N   0  0  0  0  0  0  0  0  0  0  0  0
    6.1021    2.5564   21.0678 C   0  0  0  0  0  0  0  0  0  0  0  0
   10.9097   11.8051   18.4804 C   0  0  0  0  0  0  0  0  0  0  0  0
   11.2280   12.9135   17.5669 C   0  0  0  0  0  0  0  0  0  0  0  0
   12.3782    5.4231   20.7777 C   0  0  0  0  0  0  0  0  0  0  0  0
    7.7365    4.6508   21.6987 C   0  0  0  0  0  0  0  0  0  0  0  0
   13.0186   11.0102   18.0020 C   0  0  0  0  0  0  0  0  0  0  0  0
    8.6628    5.7088   21.8871 N   0  0  0  0  0  0  0  0  0  0  0  0
    5.6516    3.5258   21.9140 C   0  0  0  0  0  0  0  0  0  0  0  0
   11.5863    9.6815   19.4539 C   0  0  0  0  0  0  0  0  0  0  0  0
   12.9648    4.1543   20.9205 C   0  0  0  0  0  0  0  0  0  0  0  0
    8.2089    3.6265   20.8929 C   0  0  0  0  0  0  0  0  0  0  0  0
    7.3827    2.5724   20.5432 C   0  0  0  0  0  0  0  0  0  0  0  0
   11.1529    7.2750   20.8025 C   0  0  0  0  0  0  0  0  0  0  0  0
   10.2573    8.3215   20.9827 C   0  0  0  0  0  0  0  0  0  0  0  0
   11.1606    5.9378   21.2366 N   0  0  0  0  0  0  0  0  0  0  0  0
    9.8932   11.6736   19.0677 O   0  0  0  0  0  0  0  0  0  0  0  0
    6.4470    4.5850   22.2321 C   0  0  0  0  0  0  0  0  0  0  0  0
    8.4619    6.9895   22.2968 C   0  0  0  0  0  0  0  0  0  0  0  0
   12.2747    7.5102   20.0420 C   0  0  0  0  0  0  0  0  0  0  0  0
   14.2544    6.2142   19.4191 C   0  0  0  0  0  0  0  0  0  0  0  0
   13.0695    6.3705   20.0375 N   0  0  0  0  0  0  0  0  0  0  0  0
    9.1913    8.0876   21.8361 N   0  0  0  0  0  0  0  0  0  0  0  0
   10.4739    9.4813   20.2889 C   0  0  0  0  0  0  0  0  0  0  0  0
    7.5551    7.1270   23.1200 O   0  0  0  0  0  0  0  0  0  0  0  0
  1 11  4  0
  1 21  4  0
  2  4  1  0
  2  8  1  0
  2 11  1  0
  3 10  4  0
  3 14  4  0
  4  5  1  0
  4 18  2  0
  6 12  1  0
  6 17  4  0
  6 23  4  0
  7  9  1  0
  7 13  4  0
  7 19  4  0
  9 20  1  0
 10 19  4  0
 11 25  4  0
 13 14  4  0
 15 16  4  0
 15 17  4  0
 15 21  4  0
 16 24  1  0
 16 25  4  0
 20 24  1  0
 20 26  2  0
 21 23  4  0
 22 23  1  0
M  END
$$$$

 Created by Python create_sdf_string function

 26 28  0  0  0  0  0  0  0  0999 V2000
   12.4616    8.6700   19.4180 N   0  0  0  0  0  0  0  0  0  0  0  0
   11.8329   10.8148   18.6769 N   0  0  0  0  0  0  0  0  0  0  0  0
    6.1021    2.5564   21.0678 C   0  0  0  0  0  0  0  0  0  0  0  0
   10.9097   11.8051   18.4804 C   0  0  0  0  0  0  0  0  0  0  0  0
   11.2280   12.9135   17.5669 C   0  0  0  0  0  0  0  0  0  0  0  0
   12.3782    5.4231   20.7777 C   0  0  0  0  0  0  0  0  0  0  0  0
    7.7365    4.6508   21.6987 C   0  0  0  0  0  0  0  0  0  0  0  0
   13.0186   11.0102   18.0020 C   0  0  0  0  0  0  0  0  0  0  0  0
    8.6628    5.7088   21.8871 N   0  0  0  0  0  0  0  0  0  0  0  0
    5.6516    3.5258   21.9140 C   0  0  0  0  0  0  0  0  0  0  0  0
   11.5863    9.6815   19.4539 C   0  0  0  0  0  0  0  0  0  0  0  0
   12.9648    4.1543   20.9205 C   0  0  0  0  0  0  0  0  0  0  0  0
    8.2089    3.6265   20.8929 C   0  0  0  0  0  0  0  0  0  0  0  0
    7.3827    2.5724   20.5432 C   0  0  0  0  0  0  0  0  0  0  0  0
   11.1529    7.2750   20.8025 C   0  0  0  0  0  0  0  0  0  0  0  0
   10.2573    8.3215   20.9827 C   0  0  0  0  0  0  0  0  0  0  0  0
   11.1606    5.9378   21.2366 N   0  0  0  0  0  0  0  0  0  0  0  0
    9.8932   11.6736   19.0677 O   0  0  0  0  0  0  0  0  0  0  0  0
    6.4470    4.5850   22.2321 C   0  0  0  0  0  0  0  0  0  0  0  0
    8.4619    6.9895   22.2968 C   0  0  0  0  0  0  0  0  0  0  0  0
   12.2747    7.5102   20.0420 C   0  0  0  0  0  0  0  0  0  0  0  0
   14.2544    6.2142   19.4191 C   0  0  0  0  0  0  0  0  0  0  0  0
   13.0695    6.3705   20.0375 N   0  0  0  0  0  0  0  0  0  0  0  0
    9.1913    8.0876   21.8361 N   0  0  0  0  0  0  0  0  0  0  0  0
   10.4739    9.4813   20.2889 C   0  0  0  0  0  0  0  0  0  0  0  0
    7.5551    7.1270   23.1200 O   0  0  0  0  0  0  0  0  0  0  0  0
  1 11  4  0
  1 21  4  0
  2  4  1  0
  2  8  1  0
  2 11  1  0
  3 10  4  0
  3 14  4  0
  4  5  1  0
  4 18  2  0
  6 12  1  0
  6 17  4  0
  6 23  4  0
  7  9  1  0
  7 13  4  0
  7 19  4  0
  9 20  1  0
 10 19  4  0
 11 25  4  0
 13 14  4  0
 15 16  4  0
 15 17  4  0
 15 21  4  0
 16 24  1  0
 16 25  4  0
 20 24  1  0
 20 26  2  0
 21 23  4  0
 22 23  1  0
M  END
$$$$

 Created by Python create_sdf_string function

 26 28  0  0  0  0  0  0  0  0999 V2000
   12.4616    8.6700   19.4180 N   0  0  0  0  0  0  0  0  0  0  0  0
   11.8329   10.8148   18.6769 N   0  0  0  0  0  0  0  0  0  0  0  0
    6.1021    2.5564   21.0678 C   0  0  0  0  0  0  0  0  0  0  0  0
   10.9097   11.8051   18.4804 C   0  0  0  0  0  0  0  0  0  0  0  0
   11.2280   12.9135   17.5669 C   0  0  0  0  0  0  0  0  0  0  0  0
   12.3782    5.4231   20.7777 C   0  0  0  0  0  0  0  0  0  0  0  0
    7.7365    4.6508   21.6987 C   0  0  0  0  0  0  0  0  0  0  0  0
   13.0186   11.0102   18.0020 C   0  0  0  0  0  0  0  0  0  0  0  0
    8.6628    5.7088   21.8871 N   0  0  0  0  0  0  0  0  0  0  0  0
    5.6516    3.5258   21.9140 C   0  0  0  0  0  0  0  0  0  0  0  0
   11.5863    9.6815   19.4539 C   0  0  0  0  0  0  0  0  0  0  0  0
   12.9648    4.1543   20.9205 C   0  0  0  0  0  0  0  0  0  0  0  0
    8.2089    3.6265   20.8929 C   0  0  0  0  0  0  0  0  0  0  0  0
    7.3827    2.5724   20.5432 C   0  0  0  0  0  0  0  0  0  0  0  0
   11.1529    7.2750   20.8025 C   0  0  0  0  0  0  0  0  0  0  0  0
   10.2573    8.3215   20.9827 C   0  0  0  0  0  0  0  0  0  0  0  0
   11.1606    5.9378   21.2366 N   0  0  0  0  0  0  0  0  0  0  0  0
    9.8932   11.6736   19.0677 O   0  0  0  0  0  0  0  0  0  0  0  0
    6.4470    4.5850   22.2321 C   0  0  0  0  0  0  0  0  0  0  0  0
    8.4619    6.9895   22.2968 C   0  0  0  0  0  0  0  0  0  0  0  0
   12.2747    7.5102   20.0420 C   0  0  0  0  0  0  0  0  0  0  0  0
   14.2544    6.2142   19.4191 C   0  0  0  0  0  0  0  0  0  0  0  0
   13.0695    6.3705   20.0375 N   0  0  0  0  0  0  0  0  0  0  0  0
    9.1913    8.0876   21.8361 N   0  0  0  0  0  0  0  0  0  0  0  0
   10.4739    9.4813   20.2889 C   0  0  0  0  0  0  0  0  0  0  0  0
    7.5551    7.1270   23.1200 O   0  0  0  0  0  0  0  0  0  0  0  0
  1 11  4  0
  1 21  4  0
  2  4  1  0
  2  8  1  0
  2 11  1  0
  3 10  4  0
  3 14  4  0
  4  5  1  0
  4 18  2  0
  6 12  1  0
  6 17  4  0
  6 23  4  0
  7  9  1  0
  7 13  4  0
  7 19  4  0
  9 20  1  0
 10 19  4  0
 11 25  4  0
 13 14  4  0
 15 16  4  0
 15 17  4  0
 15 21  4  0
 16 24  1  0
 16 25  4  0
 20 24  1  0
 20 26  2  0
 21 23  4  0
 22 23  1  0
M  END
$$$$

 Created by Python create_sdf_string function

 26 28  0  0  0  0  0  0  0  0999 V2000
   12.4616    8.6700   19.4180 N   0  0  0  0  0  0  0  0  0  0  0  0
   11.8329   10.8148   18.6769 N   0  0  0  0  0  0  0  0  0  0  0  0
    6.1021    2.5564   21.0678 C   0  0  0  0  0  0  0  0  0  0  0  0
   10.9097   11.8051   18.4804 C   0  0  0  0  0  0  0  0  0  0  0  0
   11.2280   12.9135   17.5669 C   0  0  0  0  0  0  0  0  0  0  0  0
   12.3782    5.4231   20.7777 C   0  0  0  0  0  0  0  0  0  0  0  0
    7.7365    4.6508   21.6987 C   0  0  0  0  0  0  0  0  0  0  0  0
   13.0186   11.0102   18.0020 C   0  0  0  0  0  0  0  0  0  0  0  0
    8.6628    5.7088   21.8871 N   0  0  0  0  0  0  0  0  0  0  0  0
    5.6516    3.5258   21.9140 C   0  0  0  0  0  0  0  0  0  0  0  0
   11.5863    9.6815   19.4539 C   0  0  0  0  0  0  0  0  0  0  0  0
   12.9648    4.1543   20.9205 C   0  0  0  0  0  0  0  0  0  0  0  0
    8.2089    3.6265   20.8929 C   0  0  0  0  0  0  0  0  0  0  0  0
    7.3827    2.5724   20.5432 C   0  0  0  0  0  0  0  0  0  0  0  0
   11.1529    7.2750   20.8025 C   0  0  0  0  0  0  0  0  0  0  0  0
   10.2573    8.3215   20.9827 C   0  0  0  0  0  0  0  0  0  0  0  0
   11.1606    5.9378   21.2366 N   0  0  0  0  0  0  0  0  0  0  0  0
    9.8932   11.6736   19.0677 O   0  0  0  0  0  0  0  0  0  0  0  0
    6.4470    4.5850   22.2321 C   0  0  0  0  0  0  0  0  0  0  0  0
    8.4619    6.9895   22.2968 C   0  0  0  0  0  0  0  0  0  0  0  0
   12.2747    7.5102   20.0420 C   0  0  0  0  0  0  0  0  0  0  0  0
   14.2544    6.2142   19.4191 C   0  0  0  0  0  0  0  0  0  0  0  0
   13.0695    6.3705   20.0375 N   0  0  0  0  0  0  0  0  0  0  0  0
    9.1913    8.0876   21.8361 N   0  0  0  0  0  0  0  0  0  0  0  0
   10.4739    9.4813   20.2889 C   0  0  0  0  0  0  0  0  0  0  0  0
    7.5551    7.1270   23.1200 O   0  0  0  0  0  0  0  0  0  0  0  0
  1 11  4  0
  1 21  4  0
  2  4  1  0
  2  8  1  0
  2 11  1  0
  3 10  4  0
  3 14  4  0
  4  5  1  0
  4 18  2  0
  6 12  1  0
  6 17  4  0
  6 23  4  0
  7  9  1  0
  7 13  4  0
  7 19  4  0
  9 20  1  0
 10 19  4  0
 11 25  4  0
 13 14  4  0
 15 16  4  0
 15 17  4  0
 15 21  4  0
 16 24  1  0
 16 25  4  0
 20 24  1  0
 20 26  2  0
 21 23  4  0
 22 23  1  0
M  END
$$$$

 Created by Python create_sdf_string function

 26 28  0  0  0  0  0  0  0  0999 V2000
   12.4616    8.6700   19.4180 N   0  0  0  0  0  0  0  0  0  0  0  0
   11.8329   10.8148   18.6769 N   0  0  0  0  0  0  0  0  0  0  0  0
    6.1021    2.5564   21.0678 C   0  0  0  0  0  0  0  0  0  0  0  0
   10.9097   11.8051   18.4804 C   0  0  0  0  0  0  0  0  0  0  0  0
   11.2280   12.9135   17.5669 C   0  0  0  0  0  0  0  0  0  0  0  0
   12.3782    5.4231   20.7777 C   0  0  0  0  0  0  0  0  0  0  0  0
    7.7365    4.6508   21.6987 C   0  0  0  0  0  0  0  0  0  0  0  0
   13.0186   11.0102   18.0020 C   0  0  0  0  0  0  0  0  0  0  0  0
    8.6628    5.7088   21.8871 N   0  0  0  0  0  0  0  0  0  0  0  0
    5.6516    3.5258   21.9140 C   0  0  0  0  0  0  0  0  0  0  0  0
   11.5863    9.6815   19.4539 C   0  0  0  0  0  0  0  0  0  0  0  0
   12.9648    4.1543   20.9205 C   0  0  0  0  0  0  0  0  0  0  0  0
    8.2089    3.6265   20.8929 C   0  0  0  0  0  0  0  0  0  0  0  0
    7.3827    2.5724   20.5432 C   0  0  0  0  0  0  0  0  0  0  0  0
   11.1529    7.2750   20.8025 C   0  0  0  0  0  0  0  0  0  0  0  0
   10.2573    8.3215   20.9827 C   0  0  0  0  0  0  0  0  0  0  0  0
   11.1606    5.9378   21.2366 N   0  0  0  0  0  0  0  0  0  0  0  0
    9.8932   11.6736   19.0677 O   0  0  0  0  0  0  0  0  0  0  0  0
    6.4470    4.5850   22.2321 C   0  0  0  0  0  0  0  0  0  0  0  0
    8.4619    6.9895   22.2968 C   0  0  0  0  0  0  0  0  0  0  0  0
   12.2747    7.5102   20.0420 C   0  0  0  0  0  0  0  0  0  0  0  0
   14.2544    6.2142   19.4191 C   0  0  0  0  0  0  0  0  0  0  0  0
   13.0695    6.3705   20.0375 N   0  0  0  0  0  0  0  0  0  0  0  0
    9.1913    8.0876   21.8361 N   0  0  0  0  0  0  0  0  0  0  0  0
   10.4739    9.4813   20.2889 C   0  0  0  0  0  0  0  0  0  0  0  0
    7.5551    7.1270   23.1200 O   0  0  0  0  0  0  0  0  0  0  0  0
  1 11  4  0
  1 21  4  0
  2  4  1  0
  2  8  1  0
  2 11  1  0
  3 10  4  0
  3 14  4  0
  4  5  1  0
  4 18  2  0
  6 12  1  0
  6 17  4  0
  6 23  4  0
  7  9  1  0
  7 13  4  0
  7 19  4  0
  9 20  1  0
 10 19  4  0
 11 25  4  0
 13 14  4  0
 15 16  4  0
 15 17  4  0
 15 21  4  0
 16 24  1  0
 16 25  4  0
 20 24  1  0
 20 26  2  0
 21 23  4  0
 22 23  1  0
M  END
$$$$

 Created by Python create_sdf_string function

 26 28  0  0  0  0  0  0  0  0999 V2000
   12.4616    8.6700   19.4180 N   0  0  0  0  0  0  0  0  0  0  0  0
   11.8329   10.8148   18.6769 N   0  0  0  0  0  0  0  0  0  0  0  0
    6.1021    2.5564   21.0678 C   0  0  0  0  0  0  0  0  0  0  0  0
   10.9097   11.8051   18.4804 C   0  0  0  0  0  0  0  0  0  0  0  0
   11.2280   12.9135   17.5669 C   0  0  0  0  0  0  0  0  0  0  0  0
   12.3782    5.4231   20.7777 C   0  0  0  0  0  0  0  0  0  0  0  0
    7.7365    4.6508   21.6987 C   0  0  0  0  0  0  0  0  0  0  0  0
   13.0186   11.0102   18.0020 C   0  0  0  0  0  0  0  0  0  0  0  0
    8.6628    5.7088   21.8871 N   0  0  0  0  0  0  0  0  0  0  0  0
    5.6516    3.5258   21.9140 C   0  0  0  0  0  0  0  0  0  0  0  0
   11.5863    9.6815   19.4539 C   0  0  0  0  0  0  0  0  0  0  0  0
   12.9648    4.1543   20.9205 C   0  0  0  0  0  0  0  0  0  0  0  0
    8.2089    3.6265   20.8929 C   0  0  0  0  0  0  0  0  0  0  0  0
    7.3827    2.5724   20.5432 C   0  0  0  0  0  0  0  0  0  0  0  0
   11.1529    7.2750   20.8025 C   0  0  0  0  0  0  0  0  0  0  0  0
   10.2573    8.3215   20.9827 C   0  0  0  0  0  0  0  0  0  0  0  0
   11.1606    5.9378   21.2366 N   0  0  0  0  0  0  0  0  0  0  0  0
    9.8932   11.6736   19.0677 O   0  0  0  0  0  0  0  0  0  0  0  0
    6.4470    4.5850   22.2321 C   0  0  0  0  0  0  0  0  0  0  0  0
    8.4619    6.9895   22.2968 C   0  0  0  0  0  0  0  0  0  0  0  0
   12.2747    7.5102   20.0420 C   0  0  0  0  0  0  0  0  0  0  0  0
   14.2544    6.2142   19.4191 C   0  0  0  0  0  0  0  0  0  0  0  0
   13.0695    6.3705   20.0375 N   0  0  0  0  0  0  0  0  0  0  0  0
    9.1913    8.0876   21.8361 N   0  0  0  0  0  0  0  0  0  0  0  0
   10.4739    9.4813   20.2889 C   0  0  0  0  0  0  0  0  0  0  0  0
    7.5551    7.1270   23.1200 O   0  0  0  0  0  0  0  0  0  0  0  0
  1 11  4  0
  1 21  4  0
  2  4  1  0
  2  8  1  0
  2 11  1  0
  3 10  4  0
  3 14  4  0
  4  5  1  0
  4 18  2  0
  6 12  1  0
  6 17  4  0
  6 23  4  0
  7  9  1  0
  7 13  4  0
  7 19  4  0
  9 20  1  0
 10 19  4  0
 11 25  4  0
 13 14  4  0
 15 16  4  0
 15 17  4  0
 15 21  4  0
 16 24  1  0
 16 25  4  0
 20 24  1  0
 20 26  2  0
 21 23  4  0
 22 23  1  0
M  END
$$$$

 Created by Python create_sdf_string function

 26 28  0  0  0  0  0  0  0  0999 V2000
   12.4616    8.6700   19.4180 N   0  0  0  0  0  0  0  0  0  0  0  0
   11.8329   10.8148   18.6769 N   0  0  0  0  0  0  0  0  0  0  0  0
    6.1021    2.5564   21.0678 C   0  0  0  0  0  0  0  0  0  0  0  0
   10.9097   11.8051   18.4804 C   0  0  0  0  0  0  0  0  0  0  0  0
   11.2280   12.9135   17.5669 C   0  0  0  0  0  0  0  0  0  0  0  0
   12.3782    5.4231   20.7777 C   0  0  0  0  0  0  0  0  0  0  0  0
    7.7365    4.6508   21.6987 C   0  0  0  0  0  0  0  0  0  0  0  0
   13.0186   11.0102   18.0020 C   0  0  0  0  0  0  0  0  0  0  0  0
    8.6628    5.7088   21.8871 N   0  0  0  0  0  0  0  0  0  0  0  0
    5.6516    3.5258   21.9140 C   0  0  0  0  0  0  0  0  0  0  0  0
   11.5863    9.6815   19.4539 C   0  0  0  0  0  0  0  0  0  0  0  0
   12.9648    4.1543   20.9205 C   0  0  0  0  0  0  0  0  0  0  0  0
    8.2089    3.6265   20.8929 C   0  0  0  0  0  0  0  0  0  0  0  0
    7.3827    2.5724   20.5432 C   0  0  0  0  0  0  0  0  0  0  0  0
   11.1529    7.2750   20.8025 C   0  0  0  0  0  0  0  0  0  0  0  0
   10.2573    8.3215   20.9827 C   0  0  0  0  0  0  0  0  0  0  0  0
   11.1606    5.9378   21.2366 N   0  0  0  0  0  0  0  0  0  0  0  0
    9.8932   11.6736   19.0677 O   0  0  0  0  0  0  0  0  0  0  0  0
    6.4470    4.5850   22.2321 C   0  0  0  0  0  0  0  0  0  0  0  0
    8.4619    6.9895   22.2968 C   0  0  0  0  0  0  0  0  0  0  0  0
   12.2747    7.5102   20.0420 C   0  0  0  0  0  0  0  0  0  0  0  0
   14.2544    6.2142   19.4191 C   0  0  0  0  0  0  0  0  0  0  0  0
   13.0695    6.3705   20.0375 N   0  0  0  0  0  0  0  0  0  0  0  0
    9.1913    8.0876   21.8361 N   0  0  0  0  0  0  0  0  0  0  0  0
   10.4739    9.4813   20.2889 C   0  0  0  0  0  0  0  0  0  0  0  0
    7.5551    7.1270   23.1200 O   0  0  0  0  0  0  0  0  0  0  0  0
  1 11  4  0
  1 21  4  0
  2  4  1  0
  2  8  1  0
  2 11  1  0
  3 10  4  0
  3 14  4  0
  4  5  1  0
  4 18  2  0
  6 12  1  0
  6 17  4  0
  6 23  4  0
  7  9  1  0
  7 13  4  0
  7 19  4  0
  9 20  1  0
 10 19  4  0
 11 25  4  0
 13 14  4  0
 15 16  4  0
 15 17  4  0
 15 21  4  0
 16 24  1  0
 16 25  4  0
 20 24  1  0
 20 26  2  0
 21 23  4  0
 22 23  1  0
M  END
$$$$

 Created by Python create_sdf_string function

 26 28  0  0  0  0  0  0  0  0999 V2000
   12.4616    8.6700   19.4180 N   0  0  0  0  0  0  0  0  0  0  0  0
   11.8329   10.8148   18.6769 N   0  0  0  0  0  0  0  0  0  0  0  0
    6.1021    2.5564   21.0678 C   0  0  0  0  0  0  0  0  0  0  0  0
   10.9097   11.8051   18.4804 C   0  0  0  0  0  0  0  0  0  0  0  0
   11.2280   12.9135   17.5669 C   0  0  0  0  0  0  0  0  0  0  0  0
   12.3782    5.4231   20.7777 C   0  0  0  0  0  0  0  0  0  0  0  0
    7.7365    4.6508   21.6987 C   0  0  0  0  0  0  0  0  0  0  0  0
   13.0186   11.0102   18.0020 C   0  0  0  0  0  0  0  0  0  0  0  0
    8.6628    5.7088   21.8871 N   0  0  0  0  0  0  0  0  0  0  0  0
    5.6516    3.5258   21.9140 C   0  0  0  0  0  0  0  0  0  0  0  0
   11.5863    9.6815   19.4539 C   0  0  0  0  0  0  0  0  0  0  0  0
   12.9648    4.1543   20.9205 C   0  0  0  0  0  0  0  0  0  0  0  0
    8.2089    3.6265   20.8929 C   0  0  0  0  0  0  0  0  0  0  0  0
    7.3827    2.5724   20.5432 C   0  0  0  0  0  0  0  0  0  0  0  0
   11.1529    7.2750   20.8025 C   0  0  0  0  0  0  0  0  0  0  0  0
   10.2573    8.3215   20.9827 C   0  0  0  0  0  0  0  0  0  0  0  0
   11.1606    5.9378   21.2366 N   0  0  0  0  0  0  0  0  0  0  0  0
    9.8932   11.6736   19.0677 O   0  0  0  0  0  0  0  0  0  0  0  0
    6.4470    4.5850   22.2321 C   0  0  0  0  0  0  0  0  0  0  0  0
    8.4619    6.9895   22.2968 C   0  0  0  0  0  0  0  0  0  0  0  0
   12.2747    7.5102   20.0420 C   0  0  0  0  0  0  0  0  0  0  0  0
   14.2544    6.2142   19.4191 C   0  0  0  0  0  0  0  0  0  0  0  0
   13.0695    6.3705   20.0375 N   0  0  0  0  0  0  0  0  0  0  0  0
    9.1913    8.0876   21.8361 N   0  0  0  0  0  0  0  0  0  0  0  0
   10.4739    9.4813   20.2889 C   0  0  0  0  0  0  0  0  0  0  0  0
    7.5551    7.1270   23.1200 O   0  0  0  0  0  0  0  0  0  0  0  0
  1 11  4  0
  1 21  4  0
  2  4  1  0
  2  8  1  0
  2 11  1  0
  3 10  4  0
  3 14  4  0
  4  5  1  0
  4 18  2  0
  6 12  1  0
  6 17  4  0
  6 23  4  0
  7  9  1  0
  7 13  4  0
  7 19  4  0
  9 20  1  0
 10 19  4  0
 11 25  4  0
 13 14  4  0
 15 16  4  0
 15 17  4  0
 15 21  4  0
 16 24  1  0
 16 25  4  0
 20 24  1  0
 20 26  2  0
 21 23  4  0
 22 23  1  0
M  END
$$$$

 Created by Python create_sdf_string function

 26 28  0  0  0  0  0  0  0  0999 V2000
   12.4616    8.6700   19.4180 N   0  0  0  0  0  0  0  0  0  0  0  0
   11.8329   10.8148   18.6769 N   0  0  0  0  0  0  0  0  0  0  0  0
    6.1021    2.5564   21.0678 C   0  0  0  0  0  0  0  0  0  0  0  0
   10.9097   11.8051   18.4804 C   0  0  0  0  0  0  0  0  0  0  0  0
   11.2280   12.9135   17.5669 C   0  0  0  0  0  0  0  0  0  0  0  0
   12.3782    5.4231   20.7777 C   0  0  0  0  0  0  0  0  0  0  0  0
    7.7365    4.6508   21.6987 C   0  0  0  0  0  0  0  0  0  0  0  0
   13.0186   11.0102   18.0020 C   0  0  0  0  0  0  0  0  0  0  0  0
    8.6628    5.7088   21.8871 N   0  0  0  0  0  0  0  0  0  0  0  0
    5.6516    3.5258   21.9140 C   0  0  0  0  0  0  0  0  0  0  0  0
   11.5863    9.6815   19.4539 C   0  0  0  0  0  0  0  0  0  0  0  0
   12.9648    4.1543   20.9205 C   0  0  0  0  0  0  0  0  0  0  0  0
    8.2089    3.6265   20.8929 C   0  0  0  0  0  0  0  0  0  0  0  0
    7.3827    2.5724   20.5432 C   0  0  0  0  0  0  0  0  0  0  0  0
   11.1529    7.2750   20.8025 C   0  0  0  0  0  0  0  0  0  0  0  0
   10.2573    8.3215   20.9827 C   0  0  0  0  0  0  0  0  0  0  0  0
   11.1606    5.9378   21.2366 N   0  0  0  0  0  0  0  0  0  0  0  0
    9.8932   11.6736   19.0677 O   0  0  0  0  0  0  0  0  0  0  0  0
    6.4470    4.5850   22.2321 C   0  0  0  0  0  0  0  0  0  0  0  0
    8.4619    6.9895   22.2968 C   0  0  0  0  0  0  0  0  0  0  0  0
   12.2747    7.5102   20.0420 C   0  0  0  0  0  0  0  0  0  0  0  0
   14.2544    6.2142   19.4191 C   0  0  0  0  0  0  0  0  0  0  0  0
   13.0695    6.3705   20.0375 N   0  0  0  0  0  0  0  0  0  0  0  0
    9.1913    8.0876   21.8361 N   0  0  0  0  0  0  0  0  0  0  0  0
   10.4739    9.4813   20.2889 C   0  0  0  0  0  0  0  0  0  0  0  0
    7.5551    7.1270   23.1200 O   0  0  0  0  0  0  0  0  0  0  0  0
  1 11  4  0
  1 21  4  0
  2  4  1  0
  2  8  1  0
  2 11  1  0
  3 10  4  0
  3 14  4  0
  4  5  1  0
  4 18  2  0
  6 12  1  0
  6 17  4  0
  6 23  4  0
  7  9  1  0
  7 13  4  0
  7 19  4  0
  9 20  1  0
 10 19  4  0
 11 25  4  0
 13 14  4  0
 15 16  4  0
 15 17  4  0
 15 21  4  0
 16 24  1  0
 16 25  4  0
 20 24  1  0
 20 26  2  0
 21 23  4  0
 22 23  1  0
M  END
$$$$

 Created by Python create_sdf_string function

 26 28  0  0  0  0  0  0  0  0999 V2000
   12.4616    8.6700   19.4180 N   0  0  0  0  0  0  0  0  0  0  0  0
   11.8329   10.8148   18.6769 N   0  0  0  0  0  0  0  0  0  0  0  0
    6.1021    2.5564   21.0678 C   0  0  0  0  0  0  0  0  0  0  0  0
   10.9097   11.8051   18.4804 C   0  0  0  0  0  0  0  0  0  0  0  0
   11.2280   12.9135   17.5669 C   0  0  0  0  0  0  0  0  0  0  0  0
   12.3782    5.4231   20.7777 C   0  0  0  0  0  0  0  0  0  0  0  0
    7.7365    4.6508   21.6987 C   0  0  0  0  0  0  0  0  0  0  0  0
   13.0186   11.0102   18.0020 C   0  0  0  0  0  0  0  0  0  0  0  0
    8.6628    5.7088   21.8871 N   0  0  0  0  0  0  0  0  0  0  0  0
    5.6516    3.5258   21.9140 C   0  0  0  0  0  0  0  0  0  0  0  0
   11.5863    9.6815   19.4539 C   0  0  0  0  0  0  0  0  0  0  0  0
   12.9648    4.1543   20.9205 C   0  0  0  0  0  0  0  0  0  0  0  0
    8.2089    3.6265   20.8929 C   0  0  0  0  0  0  0  0  0  0  0  0
    7.3827    2.5724   20.5432 C   0  0  0  0  0  0  0  0  0  0  0  0
   11.1529    7.2750   20.8025 C   0  0  0  0  0  0  0  0  0  0  0  0
   10.2573    8.3215   20.9827 C   0  0  0  0  0  0  0  0  0  0  0  0
   11.1606    5.9378   21.2366 N   0  0  0  0  0  0  0  0  0  0  0  0
    9.8932   11.6736   19.0677 O   0  0  0  0  0  0  0  0  0  0  0  0
    6.4470    4.5850   22.2321 C   0  0  0  0  0  0  0  0  0  0  0  0
    8.4619    6.9895   22.2968 C   0  0  0  0  0  0  0  0  0  0  0  0
   12.2747    7.5102   20.0420 C   0  0  0  0  0  0  0  0  0  0  0  0
   14.2544    6.2142   19.4191 C   0  0  0  0  0  0  0  0  0  0  0  0
   13.0695    6.3705   20.0375 N   0  0  0  0  0  0  0  0  0  0  0  0
    9.1913    8.0876   21.8361 N   0  0  0  0  0  0  0  0  0  0  0  0
   10.4739    9.4813   20.2889 C   0  0  0  0  0  0  0  0  0  0  0  0
    7.5551    7.1270   23.1200 O   0  0  0  0  0  0  0  0  0  0  0  0
  1 11  4  0
  1 21  4  0
  2  4  1  0
  2  8  1  0
  2 11  1  0
  3 10  4  0
  3 14  4  0
  4  5  1  0
  4 18  2  0
  6 12  1  0
  6 17  4  0
  6 23  4  0
  7  9  1  0
  7 13  4  0
  7 19  4  0
  9 20  1  0
 10 19  4  0
 11 25  4  0
 13 14  4  0
 15 16  4  0
 15 17  4  0
 15 21  4  0
 16 24  1  0
 16 25  4  0
 20 24  1  0
 20 26  2  0
 21 23  4  0
 22 23  1  0
M  END
$$$$

 Created by Python create_sdf_string function

 26 28  0  0  0  0  0  0  0  0999 V2000
   12.4616    8.6700   19.4180 N   0  0  0  0  0  0  0  0  0  0  0  0
   11.8329   10.8148   18.6769 N   0  0  0  0  0  0  0  0  0  0  0  0
    6.1021    2.5564   21.0678 C   0  0  0  0  0  0  0  0  0  0  0  0
   10.9097   11.8051   18.4804 C   0  0  0  0  0  0  0  0  0  0  0  0
   11.2280   12.9135   17.5669 C   0  0  0  0  0  0  0  0  0  0  0  0
   12.3782    5.4231   20.7777 C   0  0  0  0  0  0  0  0  0  0  0  0
    7.7365    4.6508   21.6987 C   0  0  0  0  0  0  0  0  0  0  0  0
   13.0186   11.0102   18.0020 C   0  0  0  0  0  0  0  0  0  0  0  0
    8.6628    5.7088   21.8871 N   0  0  0  0  0  0  0  0  0  0  0  0
    5.6516    3.5258   21.9140 C   0  0  0  0  0  0  0  0  0  0  0  0
   11.5863    9.6815   19.4539 C   0  0  0  0  0  0  0  0  0  0  0  0
   12.9648    4.1543   20.9205 C   0  0  0  0  0  0  0  0  0  0  0  0
    8.2089    3.6265   20.8929 C   0  0  0  0  0  0  0  0  0  0  0  0
    7.3827    2.5724   20.5432 C   0  0  0  0  0  0  0  0  0  0  0  0
   11.1529    7.2750   20.8025 C   0  0  0  0  0  0  0  0  0  0  0  0
   10.2573    8.3215   20.9827 C   0  0  0  0  0  0  0  0  0  0  0  0
   11.1606    5.9378   21.2366 N   0  0  0  0  0  0  0  0  0  0  0  0
    9.8932   11.6736   19.0677 O   0  0  0  0  0  0  0  0  0  0  0  0
    6.4470    4.5850   22.2321 C   0  0  0  0  0  0  0  0  0  0  0  0
    8.4619    6.9895   22.2968 C   0  0  0  0  0  0  0  0  0  0  0  0
   12.2747    7.5102   20.0420 C   0  0  0  0  0  0  0  0  0  0  0  0
   14.2544    6.2142   19.4191 C   0  0  0  0  0  0  0  0  0  0  0  0
   13.0695    6.3705   20.0375 N   0  0  0  0  0  0  0  0  0  0  0  0
    9.1913    8.0876   21.8361 N   0  0  0  0  0  0  0  0  0  0  0  0
   10.4739    9.4813   20.2889 C   0  0  0  0  0  0  0  0  0  0  0  0
    7.5551    7.1270   23.1200 O   0  0  0  0  0  0  0  0  0  0  0  0
  1 11  4  0
  1 21  4  0
  2  4  1  0
  2  8  1  0
  2 11  1  0
  3 10  4  0
  3 14  4  0
  4  5  1  0
  4 18  2  0
  6 12  1  0
  6 17  4  0
  6 23  4  0
  7  9  1  0
  7 13  4  0
  7 19  4  0
  9 20  1  0
 10 19  4  0
 11 25  4  0
 13 14  4  0
 15 16  4  0
 15 17  4  0
 15 21  4  0
 16 24  1  0
 16 25  4  0
 20 24  1  0
 20 26  2  0
 21 23  4  0
 22 23  1  0
M  END
$$$$

 Created by Python create_sdf_string function

 26 28  0  0  0  0  0  0  0  0999 V2000
   12.4616    8.6700   19.4180 N   0  0  0  0  0  0  0  0  0  0  0  0
   11.8329   10.8148   18.6769 N   0  0  0  0  0  0  0  0  0  0  0  0
    6.1021    2.5564   21.0678 C   0  0  0  0  0  0  0  0  0  0  0  0
   10.9097   11.8051   18.4804 C   0  0  0  0  0  0  0  0  0  0  0  0
   11.2280   12.9135   17.5669 C   0  0  0  0  0  0  0  0  0  0  0  0
   12.3782    5.4231   20.7777 C   0  0  0  0  0  0  0  0  0  0  0  0
    7.7365    4.6508   21.6987 C   0  0  0  0  0  0  0  0  0  0  0  0
   13.0186   11.0102   18.0020 C   0  0  0  0  0  0  0  0  0  0  0  0
    8.6628    5.7088   21.8871 N   0  0  0  0  0  0  0  0  0  0  0  0
    5.6516    3.5258   21.9140 C   0  0  0  0  0  0  0  0  0  0  0  0
   11.5863    9.6815   19.4539 C   0  0  0  0  0  0  0  0  0  0  0  0
   12.9648    4.1543   20.9205 C   0  0  0  0  0  0  0  0  0  0  0  0
    8.2089    3.6265   20.8929 C   0  0  0  0  0  0  0  0  0  0  0  0
    7.3827    2.5724   20.5432 C   0  0  0  0  0  0  0  0  0  0  0  0
   11.1529    7.2750   20.8025 C   0  0  0  0  0  0  0  0  0  0  0  0
   10.2573    8.3215   20.9827 C   0  0  0  0  0  0  0  0  0  0  0  0
   11.1606    5.9378   21.2366 N   0  0  0  0  0  0  0  0  0  0  0  0
    9.8932   11.6736   19.0677 O   0  0  0  0  0  0  0  0  0  0  0  0
    6.4470    4.5850   22.2321 C   0  0  0  0  0  0  0  0  0  0  0  0
    8.4619    6.9895   22.2968 C   0  0  0  0  0  0  0  0  0  0  0  0
   12.2747    7.5102   20.0420 C   0  0  0  0  0  0  0  0  0  0  0  0
   14.2544    6.2142   19.4191 C   0  0  0  0  0  0  0  0  0  0  0  0
   13.0695    6.3705   20.0375 N   0  0  0  0  0  0  0  0  0  0  0  0
    9.1913    8.0876   21.8361 N   0  0  0  0  0  0  0  0  0  0  0  0
   10.4739    9.4813   20.2889 C   0  0  0  0  0  0  0  0  0  0  0  0
    7.5551    7.1270   23.1200 O   0  0  0  0  0  0  0  0  0  0  0  0
  1 11  4  0
  1 21  4  0
  2  4  1  0
  2  8  1  0
  2 11  1  0
  3 10  4  0
  3 14  4  0
  4  5  1  0
  4 18  2  0
  6 12  1  0
  6 17  4  0
  6 23  4  0
  7  9  1  0
  7 13  4  0
  7 19  4  0
  9 20  1  0
 10 19  4  0
 11 25  4  0
 13 14  4  0
 15 16  4  0
 15 17  4  0
 15 21  4  0
 16 24  1  0
 16 25  4  0
 20 24  1  0
 20 26  2  0
 21 23  4  0
 22 23  1  0
M  END
$$$$

 Created by Python create_sdf_string function

 26 28  0  0  0  0  0  0  0  0999 V2000
   12.4616    8.6700   19.4180 N   0  0  0  0  0  0  0  0  0  0  0  0
   11.8329   10.8148   18.6769 N   0  0  0  0  0  0  0  0  0  0  0  0
    6.1021    2.5564   21.0678 C   0  0  0  0  0  0  0  0  0  0  0  0
   10.9097   11.8051   18.4804 C   0  0  0  0  0  0  0  0  0  0  0  0
   11.2280   12.9135   17.5669 C   0  0  0  0  0  0  0  0  0  0  0  0
   12.3782    5.4231   20.7777 C   0  0  0  0  0  0  0  0  0  0  0  0
    7.7365    4.6508   21.6987 C   0  0  0  0  0  0  0  0  0  0  0  0
   13.0186   11.0102   18.0020 C   0  0  0  0  0  0  0  0  0  0  0  0
    8.6628    5.7088   21.8871 N   0  0  0  0  0  0  0  0  0  0  0  0
    5.6516    3.5258   21.9140 C   0  0  0  0  0  0  0  0  0  0  0  0
   11.5863    9.6815   19.4539 C   0  0  0  0  0  0  0  0  0  0  0  0
   12.9648    4.1543   20.9205 C   0  0  0  0  0  0  0  0  0  0  0  0
    8.2089    3.6265   20.8929 C   0  0  0  0  0  0  0  0  0  0  0  0
    7.3827    2.5724   20.5432 C   0  0  0  0  0  0  0  0  0  0  0  0
   11.1529    7.2750   20.8025 C   0  0  0  0  0  0  0  0  0  0  0  0
   10.2573    8.3215   20.9827 C   0  0  0  0  0  0  0  0  0  0  0  0
   11.1606    5.9378   21.2366 N   0  0  0  0  0  0  0  0  0  0  0  0
    9.8932   11.6736   19.0677 O   0  0  0  0  0  0  0  0  0  0  0  0
    6.4470    4.5850   22.2321 C   0  0  0  0  0  0  0  0  0  0  0  0
    8.4619    6.9895   22.2968 C   0  0  0  0  0  0  0  0  0  0  0  0
   12.2747    7.5102   20.0420 C   0  0  0  0  0  0  0  0  0  0  0  0
   14.2544    6.2142   19.4191 C   0  0  0  0  0  0  0  0  0  0  0  0
   13.0695    6.3705   20.0375 N   0  0  0  0  0  0  0  0  0  0  0  0
    9.1913    8.0876   21.8361 N   0  0  0  0  0  0  0  0  0  0  0  0
   10.4739    9.4813   20.2889 C   0  0  0  0  0  0  0  0  0  0  0  0
    7.5551    7.1270   23.1200 O   0  0  0  0  0  0  0  0  0  0  0  0
  1 11  4  0
  1 21  4  0
  2  4  1  0
  2  8  1  0
  2 11  1  0
  3 10  4  0
  3 14  4  0
  4  5  1  0
  4 18  2  0
  6 12  1  0
  6 17  4  0
  6 23  4  0
  7  9  1  0
  7 13  4  0
  7 19  4  0
  9 20  1  0
 10 19  4  0
 11 25  4  0
 13 14  4  0
 15 16  4  0
 15 17  4  0
 15 21  4  0
 16 24  1  0
 16 25  4  0
 20 24  1  0
 20 26  2  0
 21 23  4  0
 22 23  1  0
M  END
$$$$

 Created by Python create_sdf_string function

 26 28  0  0  0  0  0  0  0  0999 V2000
   12.4616    8.6700   19.4180 N   0  0  0  0  0  0  0  0  0  0  0  0
   11.8329   10.8148   18.6769 N   0  0  0  0  0  0  0  0  0  0  0  0
    6.1021    2.5564   21.0678 C   0  0  0  0  0  0  0  0  0  0  0  0
   10.9097   11.8051   18.4804 C   0  0  0  0  0  0  0  0  0  0  0  0
   11.2280   12.9135   17.5669 C   0  0  0  0  0  0  0  0  0  0  0  0
   12.3782    5.4231   20.7777 C   0  0  0  0  0  0  0  0  0  0  0  0
    7.7365    4.6508   21.6987 C   0  0  0  0  0  0  0  0  0  0  0  0
   13.0186   11.0102   18.0020 C   0  0  0  0  0  0  0  0  0  0  0  0
    8.6628    5.7088   21.8871 N   0  0  0  0  0  0  0  0  0  0  0  0
    5.6516    3.5258   21.9140 C   0  0  0  0  0  0  0  0  0  0  0  0
   11.5863    9.6815   19.4539 C   0  0  0  0  0  0  0  0  0  0  0  0
   12.9648    4.1543   20.9205 C   0  0  0  0  0  0  0  0  0  0  0  0
    8.2089    3.6265   20.8929 C   0  0  0  0  0  0  0  0  0  0  0  0
    7.3827    2.5724   20.5432 C   0  0  0  0  0  0  0  0  0  0  0  0
   11.1529    7.2750   20.8025 C   0  0  0  0  0  0  0  0  0  0  0  0
   10.2573    8.3215   20.9827 C   0  0  0  0  0  0  0  0  0  0  0  0
   11.1606    5.9378   21.2366 N   0  0  0  0  0  0  0  0  0  0  0  0
    9.8932   11.6736   19.0677 O   0  0  0  0  0  0  0  0  0  0  0  0
    6.4470    4.5850   22.2321 C   0  0  0  0  0  0  0  0  0  0  0  0
    8.4619    6.9895   22.2968 C   0  0  0  0  0  0  0  0  0  0  0  0
   12.2747    7.5102   20.0420 C   0  0  0  0  0  0  0  0  0  0  0  0
   14.2544    6.2142   19.4191 C   0  0  0  0  0  0  0  0  0  0  0  0
   13.0695    6.3705   20.0375 N   0  0  0  0  0  0  0  0  0  0  0  0
    9.1913    8.0876   21.8361 N   0  0  0  0  0  0  0  0  0  0  0  0
   10.4739    9.4813   20.2889 C   0  0  0  0  0  0  0  0  0  0  0  0
    7.5551    7.1270   23.1200 O   0  0  0  0  0  0  0  0  0  0  0  0
  1 11  4  0
  1 21  4  0
  2  4  1  0
  2  8  1  0
  2 11  1  0
  3 10  4  0
  3 14  4  0
  4  5  1  0
  4 18  2  0
  6 12  1  0
  6 17  4  0
  6 23  4  0
  7  9  1  0
  7 13  4  0
  7 19  4  0
  9 20  1  0
 10 19  4  0
 11 25  4  0
 13 14  4  0
 15 16  4  0
 15 17  4  0
 15 21  4  0
 16 24  1  0
 16 25  4  0
 20 24  1  0
 20 26  2  0
 21 23  4  0
 22 23  1  0
M  END
$$$$

 Created by Python create_sdf_string function

 26 28  0  0  0  0  0  0  0  0999 V2000
   12.4616    8.6700   19.4180 N   0  0  0  0  0  0  0  0  0  0  0  0
   11.8329   10.8148   18.6769 N   0  0  0  0  0  0  0  0  0  0  0  0
    6.1021    2.5564   21.0678 C   0  0  0  0  0  0  0  0  0  0  0  0
   10.9097   11.8051   18.4804 C   0  0  0  0  0  0  0  0  0  0  0  0
   11.2280   12.9135   17.5669 C   0  0  0  0  0  0  0  0  0  0  0  0
   12.3782    5.4231   20.7777 C   0  0  0  0  0  0  0  0  0  0  0  0
    7.7365    4.6508   21.6987 C   0  0  0  0  0  0  0  0  0  0  0  0
   13.0186   11.0102   18.0020 C   0  0  0  0  0  0  0  0  0  0  0  0
    8.6628    5.7088   21.8871 N   0  0  0  0  0  0  0  0  0  0  0  0
    5.6516    3.5258   21.9140 C   0  0  0  0  0  0  0  0  0  0  0  0
   11.5863    9.6815   19.4539 C   0  0  0  0  0  0  0  0  0  0  0  0
   12.9648    4.1543   20.9205 C   0  0  0  0  0  0  0  0  0  0  0  0
    8.2089    3.6265   20.8929 C   0  0  0  0  0  0  0  0  0  0  0  0
    7.3827    2.5724   20.5432 C   0  0  0  0  0  0  0  0  0  0  0  0
   11.1529    7.2750   20.8025 C   0  0  0  0  0  0  0  0  0  0  0  0
   10.2573    8.3215   20.9827 C   0  0  0  0  0  0  0  0  0  0  0  0
   11.1606    5.9378   21.2366 N   0  0  0  0  0  0  0  0  0  0  0  0
    9.8932   11.6736   19.0677 O   0  0  0  0  0  0  0  0  0  0  0  0
    6.4470    4.5850   22.2321 C   0  0  0  0  0  0  0  0  0  0  0  0
    8.4619    6.9895   22.2968 C   0  0  0  0  0  0  0  0  0  0  0  0
   12.2747    7.5102   20.0420 C   0  0  0  0  0  0  0  0  0  0  0  0
   14.2544    6.2142   19.4191 C   0  0  0  0  0  0  0  0  0  0  0  0
   13.0695    6.3705   20.0375 N   0  0  0  0  0  0  0  0  0  0  0  0
    9.1913    8.0876   21.8361 N   0  0  0  0  0  0  0  0  0  0  0  0
   10.4739    9.4813   20.2889 C   0  0  0  0  0  0  0  0  0  0  0  0
    7.5551    7.1270   23.1200 O   0  0  0  0  0  0  0  0  0  0  0  0
  1 11  4  0
  1 21  4  0
  2  4  1  0
  2  8  1  0
  2 11  1  0
  3 10  4  0
  3 14  4  0
  4  5  1  0
  4 18  2  0
  6 12  1  0
  6 17  4  0
  6 23  4  0
  7  9  1  0
  7 13  4  0
  7 19  4  0
  9 20  1  0
 10 19  4  0
 11 25  4  0
 13 14  4  0
 15 16  4  0
 15 17  4  0
 15 21  4  0
 16 24  1  0
 16 25  4  0
 20 24  1  0
 20 26  2  0
 21 23  4  0
 22 23  1  0
M  END
$$$$

 Created by Python create_sdf_string function

 26 28  0  0  0  0  0  0  0  0999 V2000
   12.4616    8.6700   19.4180 N   0  0  0  0  0  0  0  0  0  0  0  0
   11.8329   10.8148   18.6769 N   0  0  0  0  0  0  0  0  0  0  0  0
    6.1021    2.5564   21.0678 C   0  0  0  0  0  0  0  0  0  0  0  0
   10.9097   11.8051   18.4804 C   0  0  0  0  0  0  0  0  0  0  0  0
   11.2280   12.9135   17.5669 C   0  0  0  0  0  0  0  0  0  0  0  0
   12.3782    5.4231   20.7777 C   0  0  0  0  0  0  0  0  0  0  0  0
    7.7365    4.6508   21.6987 C   0  0  0  0  0  0  0  0  0  0  0  0
   13.0186   11.0102   18.0020 C   0  0  0  0  0  0  0  0  0  0  0  0
    8.6628    5.7088   21.8871 N   0  0  0  0  0  0  0  0  0  0  0  0
    5.6516    3.5258   21.9140 C   0  0  0  0  0  0  0  0  0  0  0  0
   11.5863    9.6815   19.4539 C   0  0  0  0  0  0  0  0  0  0  0  0
   12.9648    4.1543   20.9205 C   0  0  0  0  0  0  0  0  0  0  0  0
    8.2089    3.6265   20.8929 C   0  0  0  0  0  0  0  0  0  0  0  0
    7.3827    2.5724   20.5432 C   0  0  0  0  0  0  0  0  0  0  0  0
   11.1529    7.2750   20.8025 C   0  0  0  0  0  0  0  0  0  0  0  0
   10.2573    8.3215   20.9827 C   0  0  0  0  0  0  0  0  0  0  0  0
   11.1606    5.9378   21.2366 N   0  0  0  0  0  0  0  0  0  0  0  0
    9.8932   11.6736   19.0677 O   0  0  0  0  0  0  0  0  0  0  0  0
    6.4470    4.5850   22.2321 C   0  0  0  0  0  0  0  0  0  0  0  0
    8.4619    6.9895   22.2968 C   0  0  0  0  0  0  0  0  0  0  0  0
   12.2747    7.5102   20.0420 C   0  0  0  0  0  0  0  0  0  0  0  0
   14.2544    6.2142   19.4191 C   0  0  0  0  0  0  0  0  0  0  0  0
   13.0695    6.3705   20.0375 N   0  0  0  0  0  0  0  0  0  0  0  0
    9.1913    8.0876   21.8361 N   0  0  0  0  0  0  0  0  0  0  0  0
   10.4739    9.4813   20.2889 C   0  0  0  0  0  0  0  0  0  0  0  0
    7.5551    7.1270   23.1200 O   0  0  0  0  0  0  0  0  0  0  0  0
  1 11  4  0
  1 21  4  0
  2  4  1  0
  2  8  1  0
  2 11  1  0
  3 10  4  0
  3 14  4  0
  4  5  1  0
  4 18  2  0
  6 12  1  0
  6 17  4  0
  6 23  4  0
  7  9  1  0
  7 13  4  0
  7 19  4  0
  9 20  1  0
 10 19  4  0
 11 25  4  0
 13 14  4  0
 15 16  4  0
 15 17  4  0
 15 21  4  0
 16 24  1  0
 16 25  4  0
 20 24  1  0
 20 26  2  0
 21 23  4  0
 22 23  1  0
M  END
$$$$

 Created by Python create_sdf_string function

 26 28  0  0  0  0  0  0  0  0999 V2000
   12.4616    8.6700   19.4180 N   0  0  0  0  0  0  0  0  0  0  0  0
   11.8329   10.8148   18.6769 N   0  0  0  0  0  0  0  0  0  0  0  0
    6.1021    2.5564   21.0678 C   0  0  0  0  0  0  0  0  0  0  0  0
   10.9097   11.8051   18.4804 C   0  0  0  0  0  0  0  0  0  0  0  0
   11.2280   12.9135   17.5669 C   0  0  0  0  0  0  0  0  0  0  0  0
   12.3782    5.4231   20.7777 C   0  0  0  0  0  0  0  0  0  0  0  0
    7.7365    4.6508   21.6987 C   0  0  0  0  0  0  0  0  0  0  0  0
   13.0186   11.0102   18.0020 C   0  0  0  0  0  0  0  0  0  0  0  0
    8.6628    5.7088   21.8871 N   0  0  0  0  0  0  0  0  0  0  0  0
    5.6516    3.5258   21.9140 C   0  0  0  0  0  0  0  0  0  0  0  0
   11.5863    9.6815   19.4539 C   0  0  0  0  0  0  0  0  0  0  0  0
   12.9648    4.1543   20.9205 C   0  0  0  0  0  0  0  0  0  0  0  0
    8.2089    3.6265   20.8929 C   0  0  0  0  0  0  0  0  0  0  0  0
    7.3827    2.5724   20.5432 C   0  0  0  0  0  0  0  0  0  0  0  0
   11.1529    7.2750   20.8025 C   0  0  0  0  0  0  0  0  0  0  0  0
   10.2573    8.3215   20.9827 C   0  0  0  0  0  0  0  0  0  0  0  0
   11.1606    5.9378   21.2366 N   0  0  0  0  0  0  0  0  0  0  0  0
    9.8932   11.6736   19.0677 O   0  0  0  0  0  0  0  0  0  0  0  0
    6.4470    4.5850   22.2321 C   0  0  0  0  0  0  0  0  0  0  0  0
    8.4619    6.9895   22.2968 C   0  0  0  0  0  0  0  0  0  0  0  0
   12.2747    7.5102   20.0420 C   0  0  0  0  0  0  0  0  0  0  0  0
   14.2544    6.2142   19.4191 C   0  0  0  0  0  0  0  0  0  0  0  0
   13.0695    6.3705   20.0375 N   0  0  0  0  0  0  0  0  0  0  0  0
    9.1913    8.0876   21.8361 N   0  0  0  0  0  0  0  0  0  0  0  0
   10.4739    9.4813   20.2889 C   0  0  0  0  0  0  0  0  0  0  0  0
    7.5551    7.1270   23.1200 O   0  0  0  0  0  0  0  0  0  0  0  0
  1 11  4  0
  1 21  4  0
  2  4  1  0
  2  8  1  0
  2 11  1  0
  3 10  4  0
  3 14  4  0
  4  5  1  0
  4 18  2  0
  6 12  1  0
  6 17  4  0
  6 23  4  0
  7  9  1  0
  7 13  4  0
  7 19  4  0
  9 20  1  0
 10 19  4  0
 11 25  4  0
 13 14  4  0
 15 16  4  0
 15 17  4  0
 15 21  4  0
 16 24  1  0
 16 25  4  0
 20 24  1  0
 20 26  2  0
 21 23  4  0
 22 23  1  0
M  END
$$$$

 Created by Python create_sdf_string function

 26 28  0  0  0  0  0  0  0  0999 V2000
   12.4616    8.6700   19.4180 N   0  0  0  0  0  0  0  0  0  0  0  0
   11.8329   10.8148   18.6769 N   0  0  0  0  0  0  0  0  0  0  0  0
    6.1021    2.5564   21.0678 C   0  0  0  0  0  0  0  0  0  0  0  0
   10.9097   11.8051   18.4804 C   0  0  0  0  0  0  0  0  0  0  0  0
   11.2280   12.9135   17.5669 C   0  0  0  0  0  0  0  0  0  0  0  0
   12.3782    5.4231   20.7777 C   0  0  0  0  0  0  0  0  0  0  0  0
    7.7365    4.6508   21.6987 C   0  0  0  0  0  0  0  0  0  0  0  0
   13.0186   11.0102   18.0020 C   0  0  0  0  0  0  0  0  0  0  0  0
    8.6628    5.7088   21.8871 N   0  0  0  0  0  0  0  0  0  0  0  0
    5.6516    3.5258   21.9140 C   0  0  0  0  0  0  0  0  0  0  0  0
   11.5863    9.6815   19.4539 C   0  0  0  0  0  0  0  0  0  0  0  0
   12.9648    4.1543   20.9205 C   0  0  0  0  0  0  0  0  0  0  0  0
    8.2089    3.6265   20.8929 C   0  0  0  0  0  0  0  0  0  0  0  0
    7.3827    2.5724   20.5432 C   0  0  0  0  0  0  0  0  0  0  0  0
   11.1529    7.2750   20.8025 C   0  0  0  0  0  0  0  0  0  0  0  0
   10.2573    8.3215   20.9827 C   0  0  0  0  0  0  0  0  0  0  0  0
   11.1606    5.9378   21.2366 N   0  0  0  0  0  0  0  0  0  0  0  0
    9.8932   11.6736   19.0677 O   0  0  0  0  0  0  0  0  0  0  0  0
    6.4470    4.5850   22.2321 C   0  0  0  0  0  0  0  0  0  0  0  0
    8.4619    6.9895   22.2968 C   0  0  0  0  0  0  0  0  0  0  0  0
   12.2747    7.5102   20.0420 C   0  0  0  0  0  0  0  0  0  0  0  0
   14.2544    6.2142   19.4191 C   0  0  0  0  0  0  0  0  0  0  0  0
   13.0695    6.3705   20.0375 N   0  0  0  0  0  0  0  0  0  0  0  0
    9.1913    8.0876   21.8361 N   0  0  0  0  0  0  0  0  0  0  0  0
   10.4739    9.4813   20.2889 C   0  0  0  0  0  0  0  0  0  0  0  0
    7.5551    7.1270   23.1200 O   0  0  0  0  0  0  0  0  0  0  0  0
  1 11  4  0
  1 21  4  0
  2  4  1  0
  2  8  1  0
  2 11  1  0
  3 10  4  0
  3 14  4  0
  4  5  1  0
  4 18  2  0
  6 12  1  0
  6 17  4  0
  6 23  4  0
  7  9  1  0
  7 13  4  0
  7 19  4  0
  9 20  1  0
 10 19  4  0
 11 25  4  0
 13 14  4  0
 15 16  4  0
 15 17  4  0
 15 21  4  0
 16 24  1  0
 16 25  4  0
 20 24  1  0
 20 26  2  0
 21 23  4  0
 22 23  1  0
M  END
$$$$

 Created by Python create_sdf_string function

 26 28  0  0  0  0  0  0  0  0999 V2000
   12.4616    8.6700   19.4180 N   0  0  0  0  0  0  0  0  0  0  0  0
   11.8329   10.8148   18.6769 N   0  0  0  0  0  0  0  0  0  0  0  0
    6.1021    2.5564   21.0678 C   0  0  0  0  0  0  0  0  0  0  0  0
   10.9097   11.8051   18.4804 C   0  0  0  0  0  0  0  0  0  0  0  0
   11.2280   12.9135   17.5669 C   0  0  0  0  0  0  0  0  0  0  0  0
   12.3782    5.4231   20.7777 C   0  0  0  0  0  0  0  0  0  0  0  0
    7.7365    4.6508   21.6987 C   0  0  0  0  0  0  0  0  0  0  0  0
   13.0186   11.0102   18.0020 C   0  0  0  0  0  0  0  0  0  0  0  0
    8.6628    5.7088   21.8871 N   0  0  0  0  0  0  0  0  0  0  0  0
    5.6516    3.5258   21.9140 C   0  0  0  0  0  0  0  0  0  0  0  0
   11.5863    9.6815   19.4539 C   0  0  0  0  0  0  0  0  0  0  0  0
   12.9648    4.1543   20.9205 C   0  0  0  0  0  0  0  0  0  0  0  0
    8.2089    3.6265   20.8929 C   0  0  0  0  0  0  0  0  0  0  0  0
    7.3827    2.5724   20.5432 C   0  0  0  0  0  0  0  0  0  0  0  0
   11.1529    7.2750   20.8025 C   0  0  0  0  0  0  0  0  0  0  0  0
   10.2573    8.3215   20.9827 C   0  0  0  0  0  0  0  0  0  0  0  0
   11.1606    5.9378   21.2366 N   0  0  0  0  0  0  0  0  0  0  0  0
    9.8932   11.6736   19.0677 O   0  0  0  0  0  0  0  0  0  0  0  0
    6.4470    4.5850   22.2321 C   0  0  0  0  0  0  0  0  0  0  0  0
    8.4619    6.9895   22.2968 C   0  0  0  0  0  0  0  0  0  0  0  0
   12.2747    7.5102   20.0420 C   0  0  0  0  0  0  0  0  0  0  0  0
   14.2544    6.2142   19.4191 C   0  0  0  0  0  0  0  0  0  0  0  0
   13.0695    6.3705   20.0375 N   0  0  0  0  0  0  0  0  0  0  0  0
    9.1913    8.0876   21.8361 N   0  0  0  0  0  0  0  0  0  0  0  0
   10.4739    9.4813   20.2889 C   0  0  0  0  0  0  0  0  0  0  0  0
    7.5551    7.1270   23.1200 O   0  0  0  0  0  0  0  0  0  0  0  0
  1 11  4  0
  1 21  4  0
  2  4  1  0
  2  8  1  0
  2 11  1  0
  3 10  4  0
  3 14  4  0
  4  5  1  0
  4 18  2  0
  6 12  1  0
  6 17  4  0
  6 23  4  0
  7  9  1  0
  7 13  4  0
  7 19  4  0
  9 20  1  0
 10 19  4  0
 11 25  4  0
 13 14  4  0
 15 16  4  0
 15 17  4  0
 15 21  4  0
 16 24  1  0
 16 25  4  0
 20 24  1  0
 20 26  2  0
 21 23  4  0
 22 23  1  0
M  END
$$$$

 Created by Python create_sdf_string function

 26 28  0  0  0  0  0  0  0  0999 V2000
   12.4616    8.6700   19.4180 N   0  0  0  0  0  0  0  0  0  0  0  0
   11.8329   10.8148   18.6769 N   0  0  0  0  0  0  0  0  0  0  0  0
    6.1021    2.5564   21.0678 C   0  0  0  0  0  0  0  0  0  0  0  0
   10.9097   11.8051   18.4804 C   0  0  0  0  0  0  0  0  0  0  0  0
   11.2280   12.9135   17.5669 C   0  0  0  0  0  0  0  0  0  0  0  0
   12.3782    5.4231   20.7777 C   0  0  0  0  0  0  0  0  0  0  0  0
    7.7365    4.6508   21.6987 C   0  0  0  0  0  0  0  0  0  0  0  0
   13.0186   11.0102   18.0020 C   0  0  0  0  0  0  0  0  0  0  0  0
    8.6628    5.7088   21.8871 N   0  0  0  0  0  0  0  0  0  0  0  0
    5.6516    3.5258   21.9140 C   0  0  0  0  0  0  0  0  0  0  0  0
   11.5863    9.6815   19.4539 C   0  0  0  0  0  0  0  0  0  0  0  0
   12.9648    4.1543   20.9205 C   0  0  0  0  0  0  0  0  0  0  0  0
    8.2089    3.6265   20.8929 C   0  0  0  0  0  0  0  0  0  0  0  0
    7.3827    2.5724   20.5432 C   0  0  0  0  0  0  0  0  0  0  0  0
   11.1529    7.2750   20.8025 C   0  0  0  0  0  0  0  0  0  0  0  0
   10.2573    8.3215   20.9827 C   0  0  0  0  0  0  0  0  0  0  0  0
   11.1606    5.9378   21.2366 N   0  0  0  0  0  0  0  0  0  0  0  0
    9.8932   11.6736   19.0677 O   0  0  0  0  0  0  0  0  0  0  0  0
    6.4470    4.5850   22.2321 C   0  0  0  0  0  0  0  0  0  0  0  0
    8.4619    6.9895   22.2968 C   0  0  0  0  0  0  0  0  0  0  0  0
   12.2747    7.5102   20.0420 C   0  0  0  0  0  0  0  0  0  0  0  0
   14.2544    6.2142   19.4191 C   0  0  0  0  0  0  0  0  0  0  0  0
   13.0695    6.3705   20.0375 N   0  0  0  0  0  0  0  0  0  0  0  0
    9.1913    8.0876   21.8361 N   0  0  0  0  0  0  0  0  0  0  0  0
   10.4739    9.4813   20.2889 C   0  0  0  0  0  0  0  0  0  0  0  0
    7.5551    7.1270   23.1200 O   0  0  0  0  0  0  0  0  0  0  0  0
  1 11  4  0
  1 21  4  0
  2  4  1  0
  2  8  1  0
  2 11  1  0
  3 10  4  0
  3 14  4  0
  4  5  1  0
  4 18  2  0
  6 12  1  0
  6 17  4  0
  6 23  4  0
  7  9  1  0
  7 13  4  0
  7 19  4  0
  9 20  1  0
 10 19  4  0
 11 25  4  0
 13 14  4  0
 15 16  4  0
 15 17  4  0
 15 21  4  0
 16 24  1  0
 16 25  4  0
 20 24  1  0
 20 26  2  0
 21 23  4  0
 22 23  1  0
M  END
$$$$

 Created by Python create_sdf_string function

 26 28  0  0  0  0  0  0  0  0999 V2000
   12.4616    8.6700   19.4180 N   0  0  0  0  0  0  0  0  0  0  0  0
   11.8329   10.8148   18.6769 N   0  0  0  0  0  0  0  0  0  0  0  0
    6.1021    2.5564   21.0678 C   0  0  0  0  0  0  0  0  0  0  0  0
   10.9097   11.8051   18.4804 C   0  0  0  0  0  0  0  0  0  0  0  0
   11.2280   12.9135   17.5669 C   0  0  0  0  0  0  0  0  0  0  0  0
   12.3782    5.4231   20.7777 C   0  0  0  0  0  0  0  0  0  0  0  0
    7.7365    4.6508   21.6987 C   0  0  0  0  0  0  0  0  0  0  0  0
   13.0186   11.0102   18.0020 C   0  0  0  0  0  0  0  0  0  0  0  0
    8.6628    5.7088   21.8871 N   0  0  0  0  0  0  0  0  0  0  0  0
    5.6516    3.5258   21.9140 C   0  0  0  0  0  0  0  0  0  0  0  0
   11.5863    9.6815   19.4539 C   0  0  0  0  0  0  0  0  0  0  0  0
   12.9648    4.1543   20.9205 C   0  0  0  0  0  0  0  0  0  0  0  0
    8.2089    3.6265   20.8929 C   0  0  0  0  0  0  0  0  0  0  0  0
    7.3827    2.5724   20.5432 C   0  0  0  0  0  0  0  0  0  0  0  0
   11.1529    7.2750   20.8025 C   0  0  0  0  0  0  0  0  0  0  0  0
   10.2573    8.3215   20.9827 C   0  0  0  0  0  0  0  0  0  0  0  0
   11.1606    5.9378   21.2366 N   0  0  0  0  0  0  0  0  0  0  0  0
    9.8932   11.6736   19.0677 O   0  0  0  0  0  0  0  0  0  0  0  0
    6.4470    4.5850   22.2321 C   0  0  0  0  0  0  0  0  0  0  0  0
    8.4619    6.9895   22.2968 C   0  0  0  0  0  0  0  0  0  0  0  0
   12.2747    7.5102   20.0420 C   0  0  0  0  0  0  0  0  0  0  0  0
   14.2544    6.2142   19.4191 C   0  0  0  0  0  0  0  0  0  0  0  0
   13.0695    6.3705   20.0375 N   0  0  0  0  0  0  0  0  0  0  0  0
    9.1913    8.0876   21.8361 N   0  0  0  0  0  0  0  0  0  0  0  0
   10.4739    9.4813   20.2889 C   0  0  0  0  0  0  0  0  0  0  0  0
    7.5551    7.1270   23.1200 O   0  0  0  0  0  0  0  0  0  0  0  0
  1 11  4  0
  1 21  4  0
  2  4  1  0
  2  8  1  0
  2 11  1  0
  3 10  4  0
  3 14  4  0
  4  5  1  0
  4 18  2  0
  6 12  1  0
  6 17  4  0
  6 23  4  0
  7  9  1  0
  7 13  4  0
  7 19  4  0
  9 20  1  0
 10 19  4  0
 11 25  4  0
 13 14  4  0
 15 16  4  0
 15 17  4  0
 15 21  4  0
 16 24  1  0
 16 25  4  0
 20 24  1  0
 20 26  2  0
 21 23  4  0
 22 23  1  0
M  END
$$$$

 Created by Python create_sdf_string function

 26 28  0  0  0  0  0  0  0  0999 V2000
   12.4616    8.6700   19.4180 N   0  0  0  0  0  0  0  0  0  0  0  0
   11.8329   10.8148   18.6769 N   0  0  0  0  0  0  0  0  0  0  0  0
    6.1021    2.5564   21.0678 C   0  0  0  0  0  0  0  0  0  0  0  0
   10.9097   11.8051   18.4804 C   0  0  0  0  0  0  0  0  0  0  0  0
   11.2280   12.9135   17.5669 C   0  0  0  0  0  0  0  0  0  0  0  0
   12.3782    5.4231   20.7777 C   0  0  0  0  0  0  0  0  0  0  0  0
    7.7365    4.6508   21.6987 C   0  0  0  0  0  0  0  0  0  0  0  0
   13.0186   11.0102   18.0020 C   0  0  0  0  0  0  0  0  0  0  0  0
    8.6628    5.7088   21.8871 N   0  0  0  0  0  0  0  0  0  0  0  0
    5.6516    3.5258   21.9140 C   0  0  0  0  0  0  0  0  0  0  0  0
   11.5863    9.6815   19.4539 C   0  0  0  0  0  0  0  0  0  0  0  0
   12.9648    4.1543   20.9205 C   0  0  0  0  0  0  0  0  0  0  0  0
    8.2089    3.6265   20.8929 C   0  0  0  0  0  0  0  0  0  0  0  0
    7.3827    2.5724   20.5432 C   0  0  0  0  0  0  0  0  0  0  0  0
   11.1529    7.2750   20.8025 C   0  0  0  0  0  0  0  0  0  0  0  0
   10.2573    8.3215   20.9827 C   0  0  0  0  0  0  0  0  0  0  0  0
   11.1606    5.9378   21.2366 N   0  0  0  0  0  0  0  0  0  0  0  0
    9.8932   11.6736   19.0677 O   0  0  0  0  0  0  0  0  0  0  0  0
    6.4470    4.5850   22.2321 C   0  0  0  0  0  0  0  0  0  0  0  0
    8.4619    6.9895   22.2968 C   0  0  0  0  0  0  0  0  0  0  0  0
   12.2747    7.5102   20.0420 C   0  0  0  0  0  0  0  0  0  0  0  0
   14.2544    6.2142   19.4191 C   0  0  0  0  0  0  0  0  0  0  0  0
   13.0695    6.3705   20.0375 N   0  0  0  0  0  0  0  0  0  0  0  0
    9.1913    8.0876   21.8361 N   0  0  0  0  0  0  0  0  0  0  0  0
   10.4739    9.4813   20.2889 C   0  0  0  0  0  0  0  0  0  0  0  0
    7.5551    7.1270   23.1200 O   0  0  0  0  0  0  0  0  0  0  0  0
  1 11  4  0
  1 21  4  0
  2  4  1  0
  2  8  1  0
  2 11  1  0
  3 10  4  0
  3 14  4  0
  4  5  1  0
  4 18  2  0
  6 12  1  0
  6 17  4  0
  6 23  4  0
  7  9  1  0
  7 13  4  0
  7 19  4  0
  9 20  1  0
 10 19  4  0
 11 25  4  0
 13 14  4  0
 15 16  4  0
 15 17  4  0
 15 21  4  0
 16 24  1  0
 16 25  4  0
 20 24  1  0
 20 26  2  0
 21 23  4  0
 22 23  1  0
M  END
$$$$

 Created by Python create_sdf_string function

 26 28  0  0  0  0  0  0  0  0999 V2000
   12.4616    8.6700   19.4180 N   0  0  0  0  0  0  0  0  0  0  0  0
   11.8329   10.8148   18.6769 N   0  0  0  0  0  0  0  0  0  0  0  0
    6.1021    2.5564   21.0678 C   0  0  0  0  0  0  0  0  0  0  0  0
   10.9097   11.8051   18.4804 C   0  0  0  0  0  0  0  0  0  0  0  0
   11.2280   12.9135   17.5669 C   0  0  0  0  0  0  0  0  0  0  0  0
   12.3782    5.4231   20.7777 C   0  0  0  0  0  0  0  0  0  0  0  0
    7.7365    4.6508   21.6987 C   0  0  0  0  0  0  0  0  0  0  0  0
   13.0186   11.0102   18.0020 C   0  0  0  0  0  0  0  0  0  0  0  0
    8.6628    5.7088   21.8871 N   0  0  0  0  0  0  0  0  0  0  0  0
    5.6516    3.5258   21.9140 C   0  0  0  0  0  0  0  0  0  0  0  0
   11.5863    9.6815   19.4539 C   0  0  0  0  0  0  0  0  0  0  0  0
   12.9648    4.1543   20.9205 C   0  0  0  0  0  0  0  0  0  0  0  0
    8.2089    3.6265   20.8929 C   0  0  0  0  0  0  0  0  0  0  0  0
    7.3827    2.5724   20.5432 C   0  0  0  0  0  0  0  0  0  0  0  0
   11.1529    7.2750   20.8025 C   0  0  0  0  0  0  0  0  0  0  0  0
   10.2573    8.3215   20.9827 C   0  0  0  0  0  0  0  0  0  0  0  0
   11.1606    5.9378   21.2366 N   0  0  0  0  0  0  0  0  0  0  0  0
    9.8932   11.6736   19.0677 O   0  0  0  0  0  0  0  0  0  0  0  0
    6.4470    4.5850   22.2321 C   0  0  0  0  0  0  0  0  0  0  0  0
    8.4619    6.9895   22.2968 C   0  0  0  0  0  0  0  0  0  0  0  0
   12.2747    7.5102   20.0420 C   0  0  0  0  0  0  0  0  0  0  0  0
   14.2544    6.2142   19.4191 C   0  0  0  0  0  0  0  0  0  0  0  0
   13.0695    6.3705   20.0375 N   0  0  0  0  0  0  0  0  0  0  0  0
    9.1913    8.0876   21.8361 N   0  0  0  0  0  0  0  0  0  0  0  0
   10.4739    9.4813   20.2889 C   0  0  0  0  0  0  0  0  0  0  0  0
    7.5551    7.1270   23.1200 O   0  0  0  0  0  0  0  0  0  0  0  0
  1 11  4  0
  1 21  4  0
  2  4  1  0
  2  8  1  0
  2 11  1  0
  3 10  4  0
  3 14  4  0
  4  5  1  0
  4 18  2  0
  6 12  1  0
  6 17  4  0
  6 23  4  0
  7  9  1  0
  7 13  4  0
  7 19  4  0
  9 20  1  0
 10 19  4  0
 11 25  4  0
 13 14  4  0
 15 16  4  0
 15 17  4  0
 15 21  4  0
 16 24  1  0
 16 25  4  0
 20 24  1  0
 20 26  2  0
 21 23  4  0
 22 23  1  0
M  END
$$$$

 Created by Python create_sdf_string function

 26 28  0  0  0  0  0  0  0  0999 V2000
   12.4616    8.6700   19.4180 N   0  0  0  0  0  0  0  0  0  0  0  0
   11.8329   10.8148   18.6769 N   0  0  0  0  0  0  0  0  0  0  0  0
    6.1021    2.5564   21.0678 C   0  0  0  0  0  0  0  0  0  0  0  0
   10.9097   11.8051   18.4804 C   0  0  0  0  0  0  0  0  0  0  0  0
   11.2280   12.9135   17.5669 C   0  0  0  0  0  0  0  0  0  0  0  0
   12.3782    5.4231   20.7777 C   0  0  0  0  0  0  0  0  0  0  0  0
    7.7365    4.6508   21.6987 C   0  0  0  0  0  0  0  0  0  0  0  0
   13.0186   11.0102   18.0020 C   0  0  0  0  0  0  0  0  0  0  0  0
    8.6628    5.7088   21.8871 N   0  0  0  0  0  0  0  0  0  0  0  0
    5.6516    3.5258   21.9140 C   0  0  0  0  0  0  0  0  0  0  0  0
   11.5863    9.6815   19.4539 C   0  0  0  0  0  0  0  0  0  0  0  0
   12.9648    4.1543   20.9205 C   0  0  0  0  0  0  0  0  0  0  0  0
    8.2089    3.6265   20.8929 C   0  0  0  0  0  0  0  0  0  0  0  0
    7.3827    2.5724   20.5432 C   0  0  0  0  0  0  0  0  0  0  0  0
   11.1529    7.2750   20.8025 C   0  0  0  0  0  0  0  0  0  0  0  0
   10.2573    8.3215   20.9827 C   0  0  0  0  0  0  0  0  0  0  0  0
   11.1606    5.9378   21.2366 N   0  0  0  0  0  0  0  0  0  0  0  0
    9.8932   11.6736   19.0677 O   0  0  0  0  0  0  0  0  0  0  0  0
    6.4470    4.5850   22.2321 C   0  0  0  0  0  0  0  0  0  0  0  0
    8.4619    6.9895   22.2968 C   0  0  0  0  0  0  0  0  0  0  0  0
   12.2747    7.5102   20.0420 C   0  0  0  0  0  0  0  0  0  0  0  0
   14.2544    6.2142   19.4191 C   0  0  0  0  0  0  0  0  0  0  0  0
   13.0695    6.3705   20.0375 N   0  0  0  0  0  0  0  0  0  0  0  0
    9.1913    8.0876   21.8361 N   0  0  0  0  0  0  0  0  0  0  0  0
   10.4739    9.4813   20.2889 C   0  0  0  0  0  0  0  0  0  0  0  0
    7.5551    7.1270   23.1200 O   0  0  0  0  0  0  0  0  0  0  0  0
  1 11  4  0
  1 21  4  0
  2  4  1  0
  2  8  1  0
  2 11  1  0
  3 10  4  0
  3 14  4  0
  4  5  1  0
  4 18  2  0
  6 12  1  0
  6 17  4  0
  6 23  4  0
  7  9  1  0
  7 13  4  0
  7 19  4  0
  9 20  1  0
 10 19  4  0
 11 25  4  0
 13 14  4  0
 15 16  4  0
 15 17  4  0
 15 21  4  0
 16 24  1  0
 16 25  4  0
 20 24  1  0
 20 26  2  0
 21 23  4  0
 22 23  1  0
M  END
$$$$

 Created by Python create_sdf_string function

 26 28  0  0  0  0  0  0  0  0999 V2000
   12.4616    8.6700   19.4180 N   0  0  0  0  0  0  0  0  0  0  0  0
   11.8329   10.8148   18.6769 N   0  0  0  0  0  0  0  0  0  0  0  0
    6.1021    2.5564   21.0678 C   0  0  0  0  0  0  0  0  0  0  0  0
   10.9097   11.8051   18.4804 C   0  0  0  0  0  0  0  0  0  0  0  0
   11.2280   12.9135   17.5669 C   0  0  0  0  0  0  0  0  0  0  0  0
   12.3782    5.4231   20.7777 C   0  0  0  0  0  0  0  0  0  0  0  0
    7.7365    4.6508   21.6987 C   0  0  0  0  0  0  0  0  0  0  0  0
   13.0186   11.0102   18.0020 C   0  0  0  0  0  0  0  0  0  0  0  0
    8.6628    5.7088   21.8871 N   0  0  0  0  0  0  0  0  0  0  0  0
    5.6516    3.5258   21.9140 C   0  0  0  0  0  0  0  0  0  0  0  0
   11.5863    9.6815   19.4539 C   0  0  0  0  0  0  0  0  0  0  0  0
   12.9648    4.1543   20.9205 C   0  0  0  0  0  0  0  0  0  0  0  0
    8.2089    3.6265   20.8929 C   0  0  0  0  0  0  0  0  0  0  0  0
    7.3827    2.5724   20.5432 C   0  0  0  0  0  0  0  0  0  0  0  0
   11.1529    7.2750   20.8025 C   0  0  0  0  0  0  0  0  0  0  0  0
   10.2573    8.3215   20.9827 C   0  0  0  0  0  0  0  0  0  0  0  0
   11.1606    5.9378   21.2366 N   0  0  0  0  0  0  0  0  0  0  0  0
    9.8932   11.6736   19.0677 O   0  0  0  0  0  0  0  0  0  0  0  0
    6.4470    4.5850   22.2321 C   0  0  0  0  0  0  0  0  0  0  0  0
    8.4619    6.9895   22.2968 C   0  0  0  0  0  0  0  0  0  0  0  0
   12.2747    7.5102   20.0420 C   0  0  0  0  0  0  0  0  0  0  0  0
   14.2544    6.2142   19.4191 C   0  0  0  0  0  0  0  0  0  0  0  0
   13.0695    6.3705   20.0375 N   0  0  0  0  0  0  0  0  0  0  0  0
    9.1913    8.0876   21.8361 N   0  0  0  0  0  0  0  0  0  0  0  0
   10.4739    9.4813   20.2889 C   0  0  0  0  0  0  0  0  0  0  0  0
    7.5551    7.1270   23.1200 O   0  0  0  0  0  0  0  0  0  0  0  0
  1 11  4  0
  1 21  4  0
  2  4  1  0
  2  8  1  0
  2 11  1  0
  3 10  4  0
  3 14  4  0
  4  5  1  0
  4 18  2  0
  6 12  1  0
  6 17  4  0
  6 23  4  0
  7  9  1  0
  7 13  4  0
  7 19  4  0
  9 20  1  0
 10 19  4  0
 11 25  4  0
 13 14  4  0
 15 16  4  0
 15 17  4  0
 15 21  4  0
 16 24  1  0
 16 25  4  0
 20 24  1  0
 20 26  2  0
 21 23  4  0
 22 23  1  0
M  END
$$$$

 Created by Python create_sdf_string function

 26 28  0  0  0  0  0  0  0  0999 V2000
   12.4616    8.6700   19.4180 N   0  0  0  0  0  0  0  0  0  0  0  0
   11.8329   10.8148   18.6769 N   0  0  0  0  0  0  0  0  0  0  0  0
    6.1021    2.5564   21.0678 C   0  0  0  0  0  0  0  0  0  0  0  0
   10.9097   11.8051   18.4804 C   0  0  0  0  0  0  0  0  0  0  0  0
   11.2280   12.9135   17.5669 C   0  0  0  0  0  0  0  0  0  0  0  0
   12.3782    5.4231   20.7777 C   0  0  0  0  0  0  0  0  0  0  0  0
    7.7365    4.6508   21.6987 C   0  0  0  0  0  0  0  0  0  0  0  0
   13.0186   11.0102   18.0020 C   0  0  0  0  0  0  0  0  0  0  0  0
    8.6628    5.7088   21.8871 N   0  0  0  0  0  0  0  0  0  0  0  0
    5.6516    3.5258   21.9140 C   0  0  0  0  0  0  0  0  0  0  0  0
   11.5863    9.6815   19.4539 C   0  0  0  0  0  0  0  0  0  0  0  0
   12.9648    4.1543   20.9205 C   0  0  0  0  0  0  0  0  0  0  0  0
    8.2089    3.6265   20.8929 C   0  0  0  0  0  0  0  0  0  0  0  0
    7.3827    2.5724   20.5432 C   0  0  0  0  0  0  0  0  0  0  0  0
   11.1529    7.2750   20.8025 C   0  0  0  0  0  0  0  0  0  0  0  0
   10.2573    8.3215   20.9827 C   0  0  0  0  0  0  0  0  0  0  0  0
   11.1606    5.9378   21.2366 N   0  0  0  0  0  0  0  0  0  0  0  0
    9.8932   11.6736   19.0677 O   0  0  0  0  0  0  0  0  0  0  0  0
    6.4470    4.5850   22.2321 C   0  0  0  0  0  0  0  0  0  0  0  0
    8.4619    6.9895   22.2968 C   0  0  0  0  0  0  0  0  0  0  0  0
   12.2747    7.5102   20.0420 C   0  0  0  0  0  0  0  0  0  0  0  0
   14.2544    6.2142   19.4191 C   0  0  0  0  0  0  0  0  0  0  0  0
   13.0695    6.3705   20.0375 N   0  0  0  0  0  0  0  0  0  0  0  0
    9.1913    8.0876   21.8361 N   0  0  0  0  0  0  0  0  0  0  0  0
   10.4739    9.4813   20.2889 C   0  0  0  0  0  0  0  0  0  0  0  0
    7.5551    7.1270   23.1200 O   0  0  0  0  0  0  0  0  0  0  0  0
  1 11  4  0
  1 21  4  0
  2  4  1  0
  2  8  1  0
  2 11  1  0
  3 10  4  0
  3 14  4  0
  4  5  1  0
  4 18  2  0
  6 12  1  0
  6 17  4  0
  6 23  4  0
  7  9  1  0
  7 13  4  0
  7 19  4  0
  9 20  1  0
 10 19  4  0
 11 25  4  0
 13 14  4  0
 15 16  4  0
 15 17  4  0
 15 21  4  0
 16 24  1  0
 16 25  4  0
 20 24  1  0
 20 26  2  0
 21 23  4  0
 22 23  1  0
M  END
$$$$

 Created by Python create_sdf_string function

 26 28  0  0  0  0  0  0  0  0999 V2000
   12.4616    8.6700   19.4180 N   0  0  0  0  0  0  0  0  0  0  0  0
   11.8329   10.8148   18.6769 N   0  0  0  0  0  0  0  0  0  0  0  0
    6.1021    2.5564   21.0678 C   0  0  0  0  0  0  0  0  0  0  0  0
   10.9097   11.8051   18.4804 C   0  0  0  0  0  0  0  0  0  0  0  0
   11.2280   12.9135   17.5669 C   0  0  0  0  0  0  0  0  0  0  0  0
   12.3782    5.4231   20.7777 C   0  0  0  0  0  0  0  0  0  0  0  0
    7.7365    4.6508   21.6987 C   0  0  0  0  0  0  0  0  0  0  0  0
   13.0186   11.0102   18.0020 C   0  0  0  0  0  0  0  0  0  0  0  0
    8.6628    5.7088   21.8871 N   0  0  0  0  0  0  0  0  0  0  0  0
    5.6516    3.5258   21.9140 C   0  0  0  0  0  0  0  0  0  0  0  0
   11.5863    9.6815   19.4539 C   0  0  0  0  0  0  0  0  0  0  0  0
   12.9648    4.1543   20.9205 C   0  0  0  0  0  0  0  0  0  0  0  0
    8.2089    3.6265   20.8929 C   0  0  0  0  0  0  0  0  0  0  0  0
    7.3827    2.5724   20.5432 C   0  0  0  0  0  0  0  0  0  0  0  0
   11.1529    7.2750   20.8025 C   0  0  0  0  0  0  0  0  0  0  0  0
   10.2573    8.3215   20.9827 C   0  0  0  0  0  0  0  0  0  0  0  0
   11.1606    5.9378   21.2366 N   0  0  0  0  0  0  0  0  0  0  0  0
    9.8932   11.6736   19.0677 O   0  0  0  0  0  0  0  0  0  0  0  0
    6.4470    4.5850   22.2321 C   0  0  0  0  0  0  0  0  0  0  0  0
    8.4619    6.9895   22.2968 C   0  0  0  0  0  0  0  0  0  0  0  0
   12.2747    7.5102   20.0420 C   0  0  0  0  0  0  0  0  0  0  0  0
   14.2544    6.2142   19.4191 C   0  0  0  0  0  0  0  0  0  0  0  0
   13.0695    6.3705   20.0375 N   0  0  0  0  0  0  0  0  0  0  0  0
    9.1913    8.0876   21.8361 N   0  0  0  0  0  0  0  0  0  0  0  0
   10.4739    9.4813   20.2889 C   0  0  0  0  0  0  0  0  0  0  0  0
    7.5551    7.1270   23.1200 O   0  0  0  0  0  0  0  0  0  0  0  0
  1 11  4  0
  1 21  4  0
  2  4  1  0
  2  8  1  0
  2 11  1  0
  3 10  4  0
  3 14  4  0
  4  5  1  0
  4 18  2  0
  6 12  1  0
  6 17  4  0
  6 23  4  0
  7  9  1  0
  7 13  4  0
  7 19  4  0
  9 20  1  0
 10 19  4  0
 11 25  4  0
 13 14  4  0
 15 16  4  0
 15 17  4  0
 15 21  4  0
 16 24  1  0
 16 25  4  0
 20 24  1  0
 20 26  2  0
 21 23  4  0
 22 23  1  0
M  END
$$$$

 Created by Python create_sdf_string function

 26 28  0  0  0  0  0  0  0  0999 V2000
   12.4616    8.6700   19.4180 N   0  0  0  0  0  0  0  0  0  0  0  0
   11.8329   10.8148   18.6769 N   0  0  0  0  0  0  0  0  0  0  0  0
    6.1021    2.5564   21.0678 C   0  0  0  0  0  0  0  0  0  0  0  0
   10.9097   11.8051   18.4804 C   0  0  0  0  0  0  0  0  0  0  0  0
   11.2280   12.9135   17.5669 C   0  0  0  0  0  0  0  0  0  0  0  0
   12.3782    5.4231   20.7777 C   0  0  0  0  0  0  0  0  0  0  0  0
    7.7365    4.6508   21.6987 C   0  0  0  0  0  0  0  0  0  0  0  0
   13.0186   11.0102   18.0020 C   0  0  0  0  0  0  0  0  0  0  0  0
    8.6628    5.7088   21.8871 N   0  0  0  0  0  0  0  0  0  0  0  0
    5.6516    3.5258   21.9140 C   0  0  0  0  0  0  0  0  0  0  0  0
   11.5863    9.6815   19.4539 C   0  0  0  0  0  0  0  0  0  0  0  0
   12.9648    4.1543   20.9205 C   0  0  0  0  0  0  0  0  0  0  0  0
    8.2089    3.6265   20.8929 C   0  0  0  0  0  0  0  0  0  0  0  0
    7.3827    2.5724   20.5432 C   0  0  0  0  0  0  0  0  0  0  0  0
   11.1529    7.2750   20.8025 C   0  0  0  0  0  0  0  0  0  0  0  0
   10.2573    8.3215   20.9827 C   0  0  0  0  0  0  0  0  0  0  0  0
   11.1606    5.9378   21.2366 N   0  0  0  0  0  0  0  0  0  0  0  0
    9.8932   11.6736   19.0677 O   0  0  0  0  0  0  0  0  0  0  0  0
    6.4470    4.5850   22.2321 C   0  0  0  0  0  0  0  0  0  0  0  0
    8.4619    6.9895   22.2968 C   0  0  0  0  0  0  0  0  0  0  0  0
   12.2747    7.5102   20.0420 C   0  0  0  0  0  0  0  0  0  0  0  0
   14.2544    6.2142   19.4191 C   0  0  0  0  0  0  0  0  0  0  0  0
   13.0695    6.3705   20.0375 N   0  0  0  0  0  0  0  0  0  0  0  0
    9.1913    8.0876   21.8361 N   0  0  0  0  0  0  0  0  0  0  0  0
   10.4739    9.4813   20.2889 C   0  0  0  0  0  0  0  0  0  0  0  0
    7.5551    7.1270   23.1200 O   0  0  0  0  0  0  0  0  0  0  0  0
  1 11  4  0
  1 21  4  0
  2  4  1  0
  2  8  1  0
  2 11  1  0
  3 10  4  0
  3 14  4  0
  4  5  1  0
  4 18  2  0
  6 12  1  0
  6 17  4  0
  6 23  4  0
  7  9  1  0
  7 13  4  0
  7 19  4  0
  9 20  1  0
 10 19  4  0
 11 25  4  0
 13 14  4  0
 15 16  4  0
 15 17  4  0
 15 21  4  0
 16 24  1  0
 16 25  4  0
 20 24  1  0
 20 26  2  0
 21 23  4  0
 22 23  1  0
M  END
$$$$

 Created by Python create_sdf_string function

 26 28  0  0  0  0  0  0  0  0999 V2000
   12.4616    8.6700   19.4180 N   0  0  0  0  0  0  0  0  0  0  0  0
   11.8329   10.8148   18.6769 N   0  0  0  0  0  0  0  0  0  0  0  0
    6.1021    2.5564   21.0678 C   0  0  0  0  0  0  0  0  0  0  0  0
   10.9097   11.8051   18.4804 C   0  0  0  0  0  0  0  0  0  0  0  0
   11.2280   12.9135   17.5669 C   0  0  0  0  0  0  0  0  0  0  0  0
   12.3782    5.4231   20.7777 C   0  0  0  0  0  0  0  0  0  0  0  0
    7.7365    4.6508   21.6987 C   0  0  0  0  0  0  0  0  0  0  0  0
   13.0186   11.0102   18.0020 C   0  0  0  0  0  0  0  0  0  0  0  0
    8.6628    5.7088   21.8871 N   0  0  0  0  0  0  0  0  0  0  0  0
    5.6516    3.5258   21.9140 C   0  0  0  0  0  0  0  0  0  0  0  0
   11.5863    9.6815   19.4539 C   0  0  0  0  0  0  0  0  0  0  0  0
   12.9648    4.1543   20.9205 C   0  0  0  0  0  0  0  0  0  0  0  0
    8.2089    3.6265   20.8929 C   0  0  0  0  0  0  0  0  0  0  0  0
    7.3827    2.5724   20.5432 C   0  0  0  0  0  0  0  0  0  0  0  0
   11.1529    7.2750   20.8025 C   0  0  0  0  0  0  0  0  0  0  0  0
   10.2573    8.3215   20.9827 C   0  0  0  0  0  0  0  0  0  0  0  0
   11.1606    5.9378   21.2366 N   0  0  0  0  0  0  0  0  0  0  0  0
    9.8932   11.6736   19.0677 O   0  0  0  0  0  0  0  0  0  0  0  0
    6.4470    4.5850   22.2321 C   0  0  0  0  0  0  0  0  0  0  0  0
    8.4619    6.9895   22.2968 C   0  0  0  0  0  0  0  0  0  0  0  0
   12.2747    7.5102   20.0420 C   0  0  0  0  0  0  0  0  0  0  0  0
   14.2544    6.2142   19.4191 C   0  0  0  0  0  0  0  0  0  0  0  0
   13.0695    6.3705   20.0375 N   0  0  0  0  0  0  0  0  0  0  0  0
    9.1913    8.0876   21.8361 N   0  0  0  0  0  0  0  0  0  0  0  0
   10.4739    9.4813   20.2889 C   0  0  0  0  0  0  0  0  0  0  0  0
    7.5551    7.1270   23.1200 O   0  0  0  0  0  0  0  0  0  0  0  0
  1 11  4  0
  1 21  4  0
  2  4  1  0
  2  8  1  0
  2 11  1  0
  3 10  4  0
  3 14  4  0
  4  5  1  0
  4 18  2  0
  6 12  1  0
  6 17  4  0
  6 23  4  0
  7  9  1  0
  7 13  4  0
  7 19  4  0
  9 20  1  0
 10 19  4  0
 11 25  4  0
 13 14  4  0
 15 16  4  0
 15 17  4  0
 15 21  4  0
 16 24  1  0
 16 25  4  0
 20 24  1  0
 20 26  2  0
 21 23  4  0
 22 23  1  0
M  END
$$$$

 Created by Python create_sdf_string function

 26 28  0  0  0  0  0  0  0  0999 V2000
   12.4616    8.6700   19.4180 N   0  0  0  0  0  0  0  0  0  0  0  0
   11.8329   10.8148   18.6769 N   0  0  0  0  0  0  0  0  0  0  0  0
    6.1021    2.5564   21.0678 C   0  0  0  0  0  0  0  0  0  0  0  0
   10.9097   11.8051   18.4804 C   0  0  0  0  0  0  0  0  0  0  0  0
   11.2280   12.9135   17.5669 C   0  0  0  0  0  0  0  0  0  0  0  0
   12.3782    5.4231   20.7777 C   0  0  0  0  0  0  0  0  0  0  0  0
    7.7365    4.6508   21.6987 C   0  0  0  0  0  0  0  0  0  0  0  0
   13.0186   11.0102   18.0020 C   0  0  0  0  0  0  0  0  0  0  0  0
    8.6628    5.7088   21.8871 N   0  0  0  0  0  0  0  0  0  0  0  0
    5.6516    3.5258   21.9140 C   0  0  0  0  0  0  0  0  0  0  0  0
   11.5863    9.6815   19.4539 C   0  0  0  0  0  0  0  0  0  0  0  0
   12.9648    4.1543   20.9205 C   0  0  0  0  0  0  0  0  0  0  0  0
    8.2089    3.6265   20.8929 C   0  0  0  0  0  0  0  0  0  0  0  0
    7.3827    2.5724   20.5432 C   0  0  0  0  0  0  0  0  0  0  0  0
   11.1529    7.2750   20.8025 C   0  0  0  0  0  0  0  0  0  0  0  0
   10.2573    8.3215   20.9827 C   0  0  0  0  0  0  0  0  0  0  0  0
   11.1606    5.9378   21.2366 N   0  0  0  0  0  0  0  0  0  0  0  0
    9.8932   11.6736   19.0677 O   0  0  0  0  0  0  0  0  0  0  0  0
    6.4470    4.5850   22.2321 C   0  0  0  0  0  0  0  0  0  0  0  0
    8.4619    6.9895   22.2968 C   0  0  0  0  0  0  0  0  0  0  0  0
   12.2747    7.5102   20.0420 C   0  0  0  0  0  0  0  0  0  0  0  0
   14.2544    6.2142   19.4191 C   0  0  0  0  0  0  0  0  0  0  0  0
   13.0695    6.3705   20.0375 N   0  0  0  0  0  0  0  0  0  0  0  0
    9.1913    8.0876   21.8361 N   0  0  0  0  0  0  0  0  0  0  0  0
   10.4739    9.4813   20.2889 C   0  0  0  0  0  0  0  0  0  0  0  0
    7.5551    7.1270   23.1200 O   0  0  0  0  0  0  0  0  0  0  0  0
  1 11  4  0
  1 21  4  0
  2  4  1  0
  2  8  1  0
  2 11  1  0
  3 10  4  0
  3 14  4  0
  4  5  1  0
  4 18  2  0
  6 12  1  0
  6 17  4  0
  6 23  4  0
  7  9  1  0
  7 13  4  0
  7 19  4  0
  9 20  1  0
 10 19  4  0
 11 25  4  0
 13 14  4  0
 15 16  4  0
 15 17  4  0
 15 21  4  0
 16 24  1  0
 16 25  4  0
 20 24  1  0
 20 26  2  0
 21 23  4  0
 22 23  1  0
M  END
$$$$

 Created by Python create_sdf_string function

 26 28  0  0  0  0  0  0  0  0999 V2000
   12.4616    8.6700   19.4180 N   0  0  0  0  0  0  0  0  0  0  0  0
   11.8329   10.8148   18.6769 N   0  0  0  0  0  0  0  0  0  0  0  0
    6.1021    2.5564   21.0678 C   0  0  0  0  0  0  0  0  0  0  0  0
   10.9097   11.8051   18.4804 C   0  0  0  0  0  0  0  0  0  0  0  0
   11.2280   12.9135   17.5669 C   0  0  0  0  0  0  0  0  0  0  0  0
   12.3782    5.4231   20.7777 C   0  0  0  0  0  0  0  0  0  0  0  0
    7.7365    4.6508   21.6987 C   0  0  0  0  0  0  0  0  0  0  0  0
   13.0186   11.0102   18.0020 C   0  0  0  0  0  0  0  0  0  0  0  0
    8.6628    5.7088   21.8871 N   0  0  0  0  0  0  0  0  0  0  0  0
    5.6516    3.5258   21.9140 C   0  0  0  0  0  0  0  0  0  0  0  0
   11.5863    9.6815   19.4539 C   0  0  0  0  0  0  0  0  0  0  0  0
   12.9648    4.1543   20.9205 C   0  0  0  0  0  0  0  0  0  0  0  0
    8.2089    3.6265   20.8929 C   0  0  0  0  0  0  0  0  0  0  0  0
    7.3827    2.5724   20.5432 C   0  0  0  0  0  0  0  0  0  0  0  0
   11.1529    7.2750   20.8025 C   0  0  0  0  0  0  0  0  0  0  0  0
   10.2573    8.3215   20.9827 C   0  0  0  0  0  0  0  0  0  0  0  0
   11.1606    5.9378   21.2366 N   0  0  0  0  0  0  0  0  0  0  0  0
    9.8932   11.6736   19.0677 O   0  0  0  0  0  0  0  0  0  0  0  0
    6.4470    4.5850   22.2321 C   0  0  0  0  0  0  0  0  0  0  0  0
    8.4619    6.9895   22.2968 C   0  0  0  0  0  0  0  0  0  0  0  0
   12.2747    7.5102   20.0420 C   0  0  0  0  0  0  0  0  0  0  0  0
   14.2544    6.2142   19.4191 C   0  0  0  0  0  0  0  0  0  0  0  0
   13.0695    6.3705   20.0375 N   0  0  0  0  0  0  0  0  0  0  0  0
    9.1913    8.0876   21.8361 N   0  0  0  0  0  0  0  0  0  0  0  0
   10.4739    9.4813   20.2889 C   0  0  0  0  0  0  0  0  0  0  0  0
    7.5551    7.1270   23.1200 O   0  0  0  0  0  0  0  0  0  0  0  0
  1 11  4  0
  1 21  4  0
  2  4  1  0
  2  8  1  0
  2 11  1  0
  3 10  4  0
  3 14  4  0
  4  5  1  0
  4 18  2  0
  6 12  1  0
  6 17  4  0
  6 23  4  0
  7  9  1  0
  7 13  4  0
  7 19  4  0
  9 20  1  0
 10 19  4  0
 11 25  4  0
 13 14  4  0
 15 16  4  0
 15 17  4  0
 15 21  4  0
 16 24  1  0
 16 25  4  0
 20 24  1  0
 20 26  2  0
 21 23  4  0
 22 23  1  0
M  END
$$$$

 Created by Python create_sdf_string function

 26 28  0  0  0  0  0  0  0  0999 V2000
   12.4616    8.6700   19.4180 N   0  0  0  0  0  0  0  0  0  0  0  0
   11.8329   10.8148   18.6769 N   0  0  0  0  0  0  0  0  0  0  0  0
    6.1021    2.5564   21.0678 C   0  0  0  0  0  0  0  0  0  0  0  0
   10.9097   11.8051   18.4804 C   0  0  0  0  0  0  0  0  0  0  0  0
   11.2280   12.9135   17.5669 C   0  0  0  0  0  0  0  0  0  0  0  0
   12.3782    5.4231   20.7777 C   0  0  0  0  0  0  0  0  0  0  0  0
    7.7365    4.6508   21.6987 C   0  0  0  0  0  0  0  0  0  0  0  0
   13.0186   11.0102   18.0020 C   0  0  0  0  0  0  0  0  0  0  0  0
    8.6628    5.7088   21.8871 N   0  0  0  0  0  0  0  0  0  0  0  0
    5.6516    3.5258   21.9140 C   0  0  0  0  0  0  0  0  0  0  0  0
   11.5863    9.6815   19.4539 C   0  0  0  0  0  0  0  0  0  0  0  0
   12.9648    4.1543   20.9205 C   0  0  0  0  0  0  0  0  0  0  0  0
    8.2089    3.6265   20.8929 C   0  0  0  0  0  0  0  0  0  0  0  0
    7.3827    2.5724   20.5432 C   0  0  0  0  0  0  0  0  0  0  0  0
   11.1529    7.2750   20.8025 C   0  0  0  0  0  0  0  0  0  0  0  0
   10.2573    8.3215   20.9827 C   0  0  0  0  0  0  0  0  0  0  0  0
   11.1606    5.9378   21.2366 N   0  0  0  0  0  0  0  0  0  0  0  0
    9.8932   11.6736   19.0677 O   0  0  0  0  0  0  0  0  0  0  0  0
    6.4470    4.5850   22.2321 C   0  0  0  0  0  0  0  0  0  0  0  0
    8.4619    6.9895   22.2968 C   0  0  0  0  0  0  0  0  0  0  0  0
   12.2747    7.5102   20.0420 C   0  0  0  0  0  0  0  0  0  0  0  0
   14.2544    6.2142   19.4191 C   0  0  0  0  0  0  0  0  0  0  0  0
   13.0695    6.3705   20.0375 N   0  0  0  0  0  0  0  0  0  0  0  0
    9.1913    8.0876   21.8361 N   0  0  0  0  0  0  0  0  0  0  0  0
   10.4739    9.4813   20.2889 C   0  0  0  0  0  0  0  0  0  0  0  0
    7.5551    7.1270   23.1200 O   0  0  0  0  0  0  0  0  0  0  0  0
  1 11  4  0
  1 21  4  0
  2  4  1  0
  2  8  1  0
  2 11  1  0
  3 10  4  0
  3 14  4  0
  4  5  1  0
  4 18  2  0
  6 12  1  0
  6 17  4  0
  6 23  4  0
  7  9  1  0
  7 13  4  0
  7 19  4  0
  9 20  1  0
 10 19  4  0
 11 25  4  0
 13 14  4  0
 15 16  4  0
 15 17  4  0
 15 21  4  0
 16 24  1  0
 16 25  4  0
 20 24  1  0
 20 26  2  0
 21 23  4  0
 22 23  1  0
M  END
$$$$

 Created by Python create_sdf_string function

 26 28  0  0  0  0  0  0  0  0999 V2000
   12.4616    8.6700   19.4180 N   0  0  0  0  0  0  0  0  0  0  0  0
   11.8329   10.8148   18.6769 N   0  0  0  0  0  0  0  0  0  0  0  0
    6.1021    2.5564   21.0678 C   0  0  0  0  0  0  0  0  0  0  0  0
   10.9097   11.8051   18.4804 C   0  0  0  0  0  0  0  0  0  0  0  0
   11.2280   12.9135   17.5669 C   0  0  0  0  0  0  0  0  0  0  0  0
   12.3782    5.4231   20.7777 C   0  0  0  0  0  0  0  0  0  0  0  0
    7.7365    4.6508   21.6987 C   0  0  0  0  0  0  0  0  0  0  0  0
   13.0186   11.0102   18.0020 C   0  0  0  0  0  0  0  0  0  0  0  0
    8.6628    5.7088   21.8871 N   0  0  0  0  0  0  0  0  0  0  0  0
    5.6516    3.5258   21.9140 C   0  0  0  0  0  0  0  0  0  0  0  0
   11.5863    9.6815   19.4539 C   0  0  0  0  0  0  0  0  0  0  0  0
   12.9648    4.1543   20.9205 C   0  0  0  0  0  0  0  0  0  0  0  0
    8.2089    3.6265   20.8929 C   0  0  0  0  0  0  0  0  0  0  0  0
    7.3827    2.5724   20.5432 C   0  0  0  0  0  0  0  0  0  0  0  0
   11.1529    7.2750   20.8025 C   0  0  0  0  0  0  0  0  0  0  0  0
   10.2573    8.3215   20.9827 C   0  0  0  0  0  0  0  0  0  0  0  0
   11.1606    5.9378   21.2366 N   0  0  0  0  0  0  0  0  0  0  0  0
    9.8932   11.6736   19.0677 O   0  0  0  0  0  0  0  0  0  0  0  0
    6.4470    4.5850   22.2321 C   0  0  0  0  0  0  0  0  0  0  0  0
    8.4619    6.9895   22.2968 C   0  0  0  0  0  0  0  0  0  0  0  0
   12.2747    7.5102   20.0420 C   0  0  0  0  0  0  0  0  0  0  0  0
   14.2544    6.2142   19.4191 C   0  0  0  0  0  0  0  0  0  0  0  0
   13.0695    6.3705   20.0375 N   0  0  0  0  0  0  0  0  0  0  0  0
    9.1913    8.0876   21.8361 N   0  0  0  0  0  0  0  0  0  0  0  0
   10.4739    9.4813   20.2889 C   0  0  0  0  0  0  0  0  0  0  0  0
    7.5551    7.1270   23.1200 O   0  0  0  0  0  0  0  0  0  0  0  0
  1 11  4  0
  1 21  4  0
  2  4  1  0
  2  8  1  0
  2 11  1  0
  3 10  4  0
  3 14  4  0
  4  5  1  0
  4 18  2  0
  6 12  1  0
  6 17  4  0
  6 23  4  0
  7  9  1  0
  7 13  4  0
  7 19  4  0
  9 20  1  0
 10 19  4  0
 11 25  4  0
 13 14  4  0
 15 16  4  0
 15 17  4  0
 15 21  4  0
 16 24  1  0
 16 25  4  0
 20 24  1  0
 20 26  2  0
 21 23  4  0
 22 23  1  0
M  END
$$$$

 Created by Python create_sdf_string function

 26 28  0  0  0  0  0  0  0  0999 V2000
   12.4616    8.6700   19.4180 N   0  0  0  0  0  0  0  0  0  0  0  0
   11.8329   10.8148   18.6769 N   0  0  0  0  0  0  0  0  0  0  0  0
    6.1021    2.5564   21.0678 C   0  0  0  0  0  0  0  0  0  0  0  0
   10.9097   11.8051   18.4804 C   0  0  0  0  0  0  0  0  0  0  0  0
   11.2280   12.9135   17.5669 C   0  0  0  0  0  0  0  0  0  0  0  0
   12.3782    5.4231   20.7777 C   0  0  0  0  0  0  0  0  0  0  0  0
    7.7365    4.6508   21.6987 C   0  0  0  0  0  0  0  0  0  0  0  0
   13.0186   11.0102   18.0020 C   0  0  0  0  0  0  0  0  0  0  0  0
    8.6628    5.7088   21.8871 N   0  0  0  0  0  0  0  0  0  0  0  0
    5.6516    3.5258   21.9140 C   0  0  0  0  0  0  0  0  0  0  0  0
   11.5863    9.6815   19.4539 C   0  0  0  0  0  0  0  0  0  0  0  0
   12.9648    4.1543   20.9205 C   0  0  0  0  0  0  0  0  0  0  0  0
    8.2089    3.6265   20.8929 C   0  0  0  0  0  0  0  0  0  0  0  0
    7.3827    2.5724   20.5432 C   0  0  0  0  0  0  0  0  0  0  0  0
   11.1529    7.2750   20.8025 C   0  0  0  0  0  0  0  0  0  0  0  0
   10.2573    8.3215   20.9827 C   0  0  0  0  0  0  0  0  0  0  0  0
   11.1606    5.9378   21.2366 N   0  0  0  0  0  0  0  0  0  0  0  0
    9.8932   11.6736   19.0677 O   0  0  0  0  0  0  0  0  0  0  0  0
    6.4470    4.5850   22.2321 C   0  0  0  0  0  0  0  0  0  0  0  0
    8.4619    6.9895   22.2968 C   0  0  0  0  0  0  0  0  0  0  0  0
   12.2747    7.5102   20.0420 C   0  0  0  0  0  0  0  0  0  0  0  0
   14.2544    6.2142   19.4191 C   0  0  0  0  0  0  0  0  0  0  0  0
   13.0695    6.3705   20.0375 N   0  0  0  0  0  0  0  0  0  0  0  0
    9.1913    8.0876   21.8361 N   0  0  0  0  0  0  0  0  0  0  0  0
   10.4739    9.4813   20.2889 C   0  0  0  0  0  0  0  0  0  0  0  0
    7.5551    7.1270   23.1200 O   0  0  0  0  0  0  0  0  0  0  0  0
  1 11  4  0
  1 21  4  0
  2  4  1  0
  2  8  1  0
  2 11  1  0
  3 10  4  0
  3 14  4  0
  4  5  1  0
  4 18  2  0
  6 12  1  0
  6 17  4  0
  6 23  4  0
  7  9  1  0
  7 13  4  0
  7 19  4  0
  9 20  1  0
 10 19  4  0
 11 25  4  0
 13 14  4  0
 15 16  4  0
 15 17  4  0
 15 21  4  0
 16 24  1  0
 16 25  4  0
 20 24  1  0
 20 26  2  0
 21 23  4  0
 22 23  1  0
M  END
$$$$

 Created by Python create_sdf_string function

 26 28  0  0  0  0  0  0  0  0999 V2000
   12.4616    8.6700   19.4180 N   0  0  0  0  0  0  0  0  0  0  0  0
   11.8329   10.8148   18.6769 N   0  0  0  0  0  0  0  0  0  0  0  0
    6.1021    2.5564   21.0678 C   0  0  0  0  0  0  0  0  0  0  0  0
   10.9097   11.8051   18.4804 C   0  0  0  0  0  0  0  0  0  0  0  0
   11.2280   12.9135   17.5669 C   0  0  0  0  0  0  0  0  0  0  0  0
   12.3782    5.4231   20.7777 C   0  0  0  0  0  0  0  0  0  0  0  0
    7.7365    4.6508   21.6987 C   0  0  0  0  0  0  0  0  0  0  0  0
   13.0186   11.0102   18.0020 C   0  0  0  0  0  0  0  0  0  0  0  0
    8.6628    5.7088   21.8871 N   0  0  0  0  0  0  0  0  0  0  0  0
    5.6516    3.5258   21.9140 C   0  0  0  0  0  0  0  0  0  0  0  0
   11.5863    9.6815   19.4539 C   0  0  0  0  0  0  0  0  0  0  0  0
   12.9648    4.1543   20.9205 C   0  0  0  0  0  0  0  0  0  0  0  0
    8.2089    3.6265   20.8929 C   0  0  0  0  0  0  0  0  0  0  0  0
    7.3827    2.5724   20.5432 C   0  0  0  0  0  0  0  0  0  0  0  0
   11.1529    7.2750   20.8025 C   0  0  0  0  0  0  0  0  0  0  0  0
   10.2573    8.3215   20.9827 C   0  0  0  0  0  0  0  0  0  0  0  0
   11.1606    5.9378   21.2366 N   0  0  0  0  0  0  0  0  0  0  0  0
    9.8932   11.6736   19.0677 O   0  0  0  0  0  0  0  0  0  0  0  0
    6.4470    4.5850   22.2321 C   0  0  0  0  0  0  0  0  0  0  0  0
    8.4619    6.9895   22.2968 C   0  0  0  0  0  0  0  0  0  0  0  0
   12.2747    7.5102   20.0420 C   0  0  0  0  0  0  0  0  0  0  0  0
   14.2544    6.2142   19.4191 C   0  0  0  0  0  0  0  0  0  0  0  0
   13.0695    6.3705   20.0375 N   0  0  0  0  0  0  0  0  0  0  0  0
    9.1913    8.0876   21.8361 N   0  0  0  0  0  0  0  0  0  0  0  0
   10.4739    9.4813   20.2889 C   0  0  0  0  0  0  0  0  0  0  0  0
    7.5551    7.1270   23.1200 O   0  0  0  0  0  0  0  0  0  0  0  0
  1 11  4  0
  1 21  4  0
  2  4  1  0
  2  8  1  0
  2 11  1  0
  3 10  4  0
  3 14  4  0
  4  5  1  0
  4 18  2  0
  6 12  1  0
  6 17  4  0
  6 23  4  0
  7  9  1  0
  7 13  4  0
  7 19  4  0
  9 20  1  0
 10 19  4  0
 11 25  4  0
 13 14  4  0
 15 16  4  0
 15 17  4  0
 15 21  4  0
 16 24  1  0
 16 25  4  0
 20 24  1  0
 20 26  2  0
 21 23  4  0
 22 23  1  0
M  END
$$$$

 Created by Python create_sdf_string function

 26 28  0  0  0  0  0  0  0  0999 V2000
   12.4616    8.6700   19.4180 N   0  0  0  0  0  0  0  0  0  0  0  0
   11.8329   10.8148   18.6769 N   0  0  0  0  0  0  0  0  0  0  0  0
    6.1021    2.5564   21.0678 C   0  0  0  0  0  0  0  0  0  0  0  0
   10.9097   11.8051   18.4804 C   0  0  0  0  0  0  0  0  0  0  0  0
   11.2280   12.9135   17.5669 C   0  0  0  0  0  0  0  0  0  0  0  0
   12.3782    5.4231   20.7777 C   0  0  0  0  0  0  0  0  0  0  0  0
    7.7365    4.6508   21.6987 C   0  0  0  0  0  0  0  0  0  0  0  0
   13.0186   11.0102   18.0020 C   0  0  0  0  0  0  0  0  0  0  0  0
    8.6628    5.7088   21.8871 N   0  0  0  0  0  0  0  0  0  0  0  0
    5.6516    3.5258   21.9140 C   0  0  0  0  0  0  0  0  0  0  0  0
   11.5863    9.6815   19.4539 C   0  0  0  0  0  0  0  0  0  0  0  0
   12.9648    4.1543   20.9205 C   0  0  0  0  0  0  0  0  0  0  0  0
    8.2089    3.6265   20.8929 C   0  0  0  0  0  0  0  0  0  0  0  0
    7.3827    2.5724   20.5432 C   0  0  0  0  0  0  0  0  0  0  0  0
   11.1529    7.2750   20.8025 C   0  0  0  0  0  0  0  0  0  0  0  0
   10.2573    8.3215   20.9827 C   0  0  0  0  0  0  0  0  0  0  0  0
   11.1606    5.9378   21.2366 N   0  0  0  0  0  0  0  0  0  0  0  0
    9.8932   11.6736   19.0677 O   0  0  0  0  0  0  0  0  0  0  0  0
    6.4470    4.5850   22.2321 C   0  0  0  0  0  0  0  0  0  0  0  0
    8.4619    6.9895   22.2968 C   0  0  0  0  0  0  0  0  0  0  0  0
   12.2747    7.5102   20.0420 C   0  0  0  0  0  0  0  0  0  0  0  0
   14.2544    6.2142   19.4191 C   0  0  0  0  0  0  0  0  0  0  0  0
   13.0695    6.3705   20.0375 N   0  0  0  0  0  0  0  0  0  0  0  0
    9.1913    8.0876   21.8361 N   0  0  0  0  0  0  0  0  0  0  0  0
   10.4739    9.4813   20.2889 C   0  0  0  0  0  0  0  0  0  0  0  0
    7.5551    7.1270   23.1200 O   0  0  0  0  0  0  0  0  0  0  0  0
  1 11  4  0
  1 21  4  0
  2  4  1  0
  2  8  1  0
  2 11  1  0
  3 10  4  0
  3 14  4  0
  4  5  1  0
  4 18  2  0
  6 12  1  0
  6 17  4  0
  6 23  4  0
  7  9  1  0
  7 13  4  0
  7 19  4  0
  9 20  1  0
 10 19  4  0
 11 25  4  0
 13 14  4  0
 15 16  4  0
 15 17  4  0
 15 21  4  0
 16 24  1  0
 16 25  4  0
 20 24  1  0
 20 26  2  0
 21 23  4  0
 22 23  1  0
M  END
$$$$

 Created by Python create_sdf_string function

 26 28  0  0  0  0  0  0  0  0999 V2000
   12.4616    8.6700   19.4180 N   0  0  0  0  0  0  0  0  0  0  0  0
   11.8329   10.8148   18.6769 N   0  0  0  0  0  0  0  0  0  0  0  0
    6.1021    2.5564   21.0678 C   0  0  0  0  0  0  0  0  0  0  0  0
   10.9097   11.8051   18.4804 C   0  0  0  0  0  0  0  0  0  0  0  0
   11.2280   12.9135   17.5669 C   0  0  0  0  0  0  0  0  0  0  0  0
   12.3782    5.4231   20.7777 C   0  0  0  0  0  0  0  0  0  0  0  0
    7.7365    4.6508   21.6987 C   0  0  0  0  0  0  0  0  0  0  0  0
   13.0186   11.0102   18.0020 C   0  0  0  0  0  0  0  0  0  0  0  0
    8.6628    5.7088   21.8871 N   0  0  0  0  0  0  0  0  0  0  0  0
    5.6516    3.5258   21.9140 C   0  0  0  0  0  0  0  0  0  0  0  0
   11.5863    9.6815   19.4539 C   0  0  0  0  0  0  0  0  0  0  0  0
   12.9648    4.1543   20.9205 C   0  0  0  0  0  0  0  0  0  0  0  0
    8.2089    3.6265   20.8929 C   0  0  0  0  0  0  0  0  0  0  0  0
    7.3827    2.5724   20.5432 C   0  0  0  0  0  0  0  0  0  0  0  0
   11.1529    7.2750   20.8025 C   0  0  0  0  0  0  0  0  0  0  0  0
   10.2573    8.3215   20.9827 C   0  0  0  0  0  0  0  0  0  0  0  0
   11.1606    5.9378   21.2366 N   0  0  0  0  0  0  0  0  0  0  0  0
    9.8932   11.6736   19.0677 O   0  0  0  0  0  0  0  0  0  0  0  0
    6.4470    4.5850   22.2321 C   0  0  0  0  0  0  0  0  0  0  0  0
    8.4619    6.9895   22.2968 C   0  0  0  0  0  0  0  0  0  0  0  0
   12.2747    7.5102   20.0420 C   0  0  0  0  0  0  0  0  0  0  0  0
   14.2544    6.2142   19.4191 C   0  0  0  0  0  0  0  0  0  0  0  0
   13.0695    6.3705   20.0375 N   0  0  0  0  0  0  0  0  0  0  0  0
    9.1913    8.0876   21.8361 N   0  0  0  0  0  0  0  0  0  0  0  0
   10.4739    9.4813   20.2889 C   0  0  0  0  0  0  0  0  0  0  0  0
    7.5551    7.1270   23.1200 O   0  0  0  0  0  0  0  0  0  0  0  0
  1 11  4  0
  1 21  4  0
  2  4  1  0
  2  8  1  0
  2 11  1  0
  3 10  4  0
  3 14  4  0
  4  5  1  0
  4 18  2  0
  6 12  1  0
  6 17  4  0
  6 23  4  0
  7  9  1  0
  7 13  4  0
  7 19  4  0
  9 20  1  0
 10 19  4  0
 11 25  4  0
 13 14  4  0
 15 16  4  0
 15 17  4  0
 15 21  4  0
 16 24  1  0
 16 25  4  0
 20 24  1  0
 20 26  2  0
 21 23  4  0
 22 23  1  0
M  END
$$$$

 Created by Python create_sdf_string function

 26 28  0  0  0  0  0  0  0  0999 V2000
   12.4616    8.6700   19.4180 N   0  0  0  0  0  0  0  0  0  0  0  0
   11.8329   10.8148   18.6769 N   0  0  0  0  0  0  0  0  0  0  0  0
    6.1021    2.5564   21.0678 C   0  0  0  0  0  0  0  0  0  0  0  0
   10.9097   11.8051   18.4804 C   0  0  0  0  0  0  0  0  0  0  0  0
   11.2280   12.9135   17.5669 C   0  0  0  0  0  0  0  0  0  0  0  0
   12.3782    5.4231   20.7777 C   0  0  0  0  0  0  0  0  0  0  0  0
    7.7365    4.6508   21.6987 C   0  0  0  0  0  0  0  0  0  0  0  0
   13.0186   11.0102   18.0020 C   0  0  0  0  0  0  0  0  0  0  0  0
    8.6628    5.7088   21.8871 N   0  0  0  0  0  0  0  0  0  0  0  0
    5.6516    3.5258   21.9140 C   0  0  0  0  0  0  0  0  0  0  0  0
   11.5863    9.6815   19.4539 C   0  0  0  0  0  0  0  0  0  0  0  0
   12.9648    4.1543   20.9205 C   0  0  0  0  0  0  0  0  0  0  0  0
    8.2089    3.6265   20.8929 C   0  0  0  0  0  0  0  0  0  0  0  0
    7.3827    2.5724   20.5432 C   0  0  0  0  0  0  0  0  0  0  0  0
   11.1529    7.2750   20.8025 C   0  0  0  0  0  0  0  0  0  0  0  0
   10.2573    8.3215   20.9827 C   0  0  0  0  0  0  0  0  0  0  0  0
   11.1606    5.9378   21.2366 N   0  0  0  0  0  0  0  0  0  0  0  0
    9.8932   11.6736   19.0677 O   0  0  0  0  0  0  0  0  0  0  0  0
    6.4470    4.5850   22.2321 C   0  0  0  0  0  0  0  0  0  0  0  0
    8.4619    6.9895   22.2968 C   0  0  0  0  0  0  0  0  0  0  0  0
   12.2747    7.5102   20.0420 C   0  0  0  0  0  0  0  0  0  0  0  0
   14.2544    6.2142   19.4191 C   0  0  0  0  0  0  0  0  0  0  0  0
   13.0695    6.3705   20.0375 N   0  0  0  0  0  0  0  0  0  0  0  0
    9.1913    8.0876   21.8361 N   0  0  0  0  0  0  0  0  0  0  0  0
   10.4739    9.4813   20.2889 C   0  0  0  0  0  0  0  0  0  0  0  0
    7.5551    7.1270   23.1200 O   0  0  0  0  0  0  0  0  0  0  0  0
  1 11  4  0
  1 21  4  0
  2  4  1  0
  2  8  1  0
  2 11  1  0
  3 10  4  0
  3 14  4  0
  4  5  1  0
  4 18  2  0
  6 12  1  0
  6 17  4  0
  6 23  4  0
  7  9  1  0
  7 13  4  0
  7 19  4  0
  9 20  1  0
 10 19  4  0
 11 25  4  0
 13 14  4  0
 15 16  4  0
 15 17  4  0
 15 21  4  0
 16 24  1  0
 16 25  4  0
 20 24  1  0
 20 26  2  0
 21 23  4  0
 22 23  1  0
M  END
$$$$

 Created by Python create_sdf_string function

 26 28  0  0  0  0  0  0  0  0999 V2000
   12.4616    8.6700   19.4180 N   0  0  0  0  0  0  0  0  0  0  0  0
   11.8329   10.8148   18.6769 N   0  0  0  0  0  0  0  0  0  0  0  0
    6.1021    2.5564   21.0678 C   0  0  0  0  0  0  0  0  0  0  0  0
   10.9097   11.8051   18.4804 C   0  0  0  0  0  0  0  0  0  0  0  0
   11.2280   12.9135   17.5669 C   0  0  0  0  0  0  0  0  0  0  0  0
   12.3782    5.4231   20.7777 C   0  0  0  0  0  0  0  0  0  0  0  0
    7.7365    4.6508   21.6987 C   0  0  0  0  0  0  0  0  0  0  0  0
   13.0186   11.0102   18.0020 C   0  0  0  0  0  0  0  0  0  0  0  0
    8.6628    5.7088   21.8871 N   0  0  0  0  0  0  0  0  0  0  0  0
    5.6516    3.5258   21.9140 C   0  0  0  0  0  0  0  0  0  0  0  0
   11.5863    9.6815   19.4539 C   0  0  0  0  0  0  0  0  0  0  0  0
   12.9648    4.1543   20.9205 C   0  0  0  0  0  0  0  0  0  0  0  0
    8.2089    3.6265   20.8929 C   0  0  0  0  0  0  0  0  0  0  0  0
    7.3827    2.5724   20.5432 C   0  0  0  0  0  0  0  0  0  0  0  0
   11.1529    7.2750   20.8025 C   0  0  0  0  0  0  0  0  0  0  0  0
   10.2573    8.3215   20.9827 C   0  0  0  0  0  0  0  0  0  0  0  0
   11.1606    5.9378   21.2366 N   0  0  0  0  0  0  0  0  0  0  0  0
    9.8932   11.6736   19.0677 O   0  0  0  0  0  0  0  0  0  0  0  0
    6.4470    4.5850   22.2321 C   0  0  0  0  0  0  0  0  0  0  0  0
    8.4619    6.9895   22.2968 C   0  0  0  0  0  0  0  0  0  0  0  0
   12.2747    7.5102   20.0420 C   0  0  0  0  0  0  0  0  0  0  0  0
   14.2544    6.2142   19.4191 C   0  0  0  0  0  0  0  0  0  0  0  0
   13.0695    6.3705   20.0375 N   0  0  0  0  0  0  0  0  0  0  0  0
    9.1913    8.0876   21.8361 N   0  0  0  0  0  0  0  0  0  0  0  0
   10.4739    9.4813   20.2889 C   0  0  0  0  0  0  0  0  0  0  0  0
    7.5551    7.1270   23.1200 O   0  0  0  0  0  0  0  0  0  0  0  0
  1 11  4  0
  1 21  4  0
  2  4  1  0
  2  8  1  0
  2 11  1  0
  3 10  4  0
  3 14  4  0
  4  5  1  0
  4 18  2  0
  6 12  1  0
  6 17  4  0
  6 23  4  0
  7  9  1  0
  7 13  4  0
  7 19  4  0
  9 20  1  0
 10 19  4  0
 11 25  4  0
 13 14  4  0
 15 16  4  0
 15 17  4  0
 15 21  4  0
 16 24  1  0
 16 25  4  0
 20 24  1  0
 20 26  2  0
 21 23  4  0
 22 23  1  0
M  END
$$$$

 Created by Python create_sdf_string function

 26 28  0  0  0  0  0  0  0  0999 V2000
   12.4616    8.6700   19.4180 N   0  0  0  0  0  0  0  0  0  0  0  0
   11.8329   10.8148   18.6769 N   0  0  0  0  0  0  0  0  0  0  0  0
    6.1021    2.5564   21.0678 C   0  0  0  0  0  0  0  0  0  0  0  0
   10.9097   11.8051   18.4804 C   0  0  0  0  0  0  0  0  0  0  0  0
   11.2280   12.9135   17.5669 C   0  0  0  0  0  0  0  0  0  0  0  0
   12.3782    5.4231   20.7777 C   0  0  0  0  0  0  0  0  0  0  0  0
    7.7365    4.6508   21.6987 C   0  0  0  0  0  0  0  0  0  0  0  0
   13.0186   11.0102   18.0020 C   0  0  0  0  0  0  0  0  0  0  0  0
    8.6628    5.7088   21.8871 N   0  0  0  0  0  0  0  0  0  0  0  0
    5.6516    3.5258   21.9140 C   0  0  0  0  0  0  0  0  0  0  0  0
   11.5863    9.6815   19.4539 C   0  0  0  0  0  0  0  0  0  0  0  0
   12.9648    4.1543   20.9205 C   0  0  0  0  0  0  0  0  0  0  0  0
    8.2089    3.6265   20.8929 C   0  0  0  0  0  0  0  0  0  0  0  0
    7.3827    2.5724   20.5432 C   0  0  0  0  0  0  0  0  0  0  0  0
   11.1529    7.2750   20.8025 C   0  0  0  0  0  0  0  0  0  0  0  0
   10.2573    8.3215   20.9827 C   0  0  0  0  0  0  0  0  0  0  0  0
   11.1606    5.9378   21.2366 N   0  0  0  0  0  0  0  0  0  0  0  0
    9.8932   11.6736   19.0677 O   0  0  0  0  0  0  0  0  0  0  0  0
    6.4470    4.5850   22.2321 C   0  0  0  0  0  0  0  0  0  0  0  0
    8.4619    6.9895   22.2968 C   0  0  0  0  0  0  0  0  0  0  0  0
   12.2747    7.5102   20.0420 C   0  0  0  0  0  0  0  0  0  0  0  0
   14.2544    6.2142   19.4191 C   0  0  0  0  0  0  0  0  0  0  0  0
   13.0695    6.3705   20.0375 N   0  0  0  0  0  0  0  0  0  0  0  0
    9.1913    8.0876   21.8361 N   0  0  0  0  0  0  0  0  0  0  0  0
   10.4739    9.4813   20.2889 C   0  0  0  0  0  0  0  0  0  0  0  0
    7.5551    7.1270   23.1200 O   0  0  0  0  0  0  0  0  0  0  0  0
  1 11  4  0
  1 21  4  0
  2  4  1  0
  2  8  1  0
  2 11  1  0
  3 10  4  0
  3 14  4  0
  4  5  1  0
  4 18  2  0
  6 12  1  0
  6 17  4  0
  6 23  4  0
  7  9  1  0
  7 13  4  0
  7 19  4  0
  9 20  1  0
 10 19  4  0
 11 25  4  0
 13 14  4  0
 15 16  4  0
 15 17  4  0
 15 21  4  0
 16 24  1  0
 16 25  4  0
 20 24  1  0
 20 26  2  0
 21 23  4  0
 22 23  1  0
M  END
$$$$

 Created by Python create_sdf_string function

 26 28  0  0  0  0  0  0  0  0999 V2000
   12.4616    8.6700   19.4180 N   0  0  0  0  0  0  0  0  0  0  0  0
   11.8329   10.8148   18.6769 N   0  0  0  0  0  0  0  0  0  0  0  0
    6.1021    2.5564   21.0678 C   0  0  0  0  0  0  0  0  0  0  0  0
   10.9097   11.8051   18.4804 C   0  0  0  0  0  0  0  0  0  0  0  0
   11.2280   12.9135   17.5669 C   0  0  0  0  0  0  0  0  0  0  0  0
   12.3782    5.4231   20.7777 C   0  0  0  0  0  0  0  0  0  0  0  0
    7.7365    4.6508   21.6987 C   0  0  0  0  0  0  0  0  0  0  0  0
   13.0186   11.0102   18.0020 C   0  0  0  0  0  0  0  0  0  0  0  0
    8.6628    5.7088   21.8871 N   0  0  0  0  0  0  0  0  0  0  0  0
    5.6516    3.5258   21.9140 C   0  0  0  0  0  0  0  0  0  0  0  0
   11.5863    9.6815   19.4539 C   0  0  0  0  0  0  0  0  0  0  0  0
   12.9648    4.1543   20.9205 C   0  0  0  0  0  0  0  0  0  0  0  0
    8.2089    3.6265   20.8929 C   0  0  0  0  0  0  0  0  0  0  0  0
    7.3827    2.5724   20.5432 C   0  0  0  0  0  0  0  0  0  0  0  0
   11.1529    7.2750   20.8025 C   0  0  0  0  0  0  0  0  0  0  0  0
   10.2573    8.3215   20.9827 C   0  0  0  0  0  0  0  0  0  0  0  0
   11.1606    5.9378   21.2366 N   0  0  0  0  0  0  0  0  0  0  0  0
    9.8932   11.6736   19.0677 O   0  0  0  0  0  0  0  0  0  0  0  0
    6.4470    4.5850   22.2321 C   0  0  0  0  0  0  0  0  0  0  0  0
    8.4619    6.9895   22.2968 C   0  0  0  0  0  0  0  0  0  0  0  0
   12.2747    7.5102   20.0420 C   0  0  0  0  0  0  0  0  0  0  0  0
   14.2544    6.2142   19.4191 C   0  0  0  0  0  0  0  0  0  0  0  0
   13.0695    6.3705   20.0375 N   0  0  0  0  0  0  0  0  0  0  0  0
    9.1913    8.0876   21.8361 N   0  0  0  0  0  0  0  0  0  0  0  0
   10.4739    9.4813   20.2889 C   0  0  0  0  0  0  0  0  0  0  0  0
    7.5551    7.1270   23.1200 O   0  0  0  0  0  0  0  0  0  0  0  0
  1 11  4  0
  1 21  4  0
  2  4  1  0
  2  8  1  0
  2 11  1  0
  3 10  4  0
  3 14  4  0
  4  5  1  0
  4 18  2  0
  6 12  1  0
  6 17  4  0
  6 23  4  0
  7  9  1  0
  7 13  4  0
  7 19  4  0
  9 20  1  0
 10 19  4  0
 11 25  4  0
 13 14  4  0
 15 16  4  0
 15 17  4  0
 15 21  4  0
 16 24  1  0
 16 25  4  0
 20 24  1  0
 20 26  2  0
 21 23  4  0
 22 23  1  0
M  END
$$$$

 Created by Python create_sdf_string function

 26 28  0  0  0  0  0  0  0  0999 V2000
   12.4616    8.6700   19.4180 N   0  0  0  0  0  0  0  0  0  0  0  0
   11.8329   10.8148   18.6769 N   0  0  0  0  0  0  0  0  0  0  0  0
    6.1021    2.5564   21.0678 C   0  0  0  0  0  0  0  0  0  0  0  0
   10.9097   11.8051   18.4804 C   0  0  0  0  0  0  0  0  0  0  0  0
   11.2280   12.9135   17.5669 C   0  0  0  0  0  0  0  0  0  0  0  0
   12.3782    5.4231   20.7777 C   0  0  0  0  0  0  0  0  0  0  0  0
    7.7365    4.6508   21.6987 C   0  0  0  0  0  0  0  0  0  0  0  0
   13.0186   11.0102   18.0020 C   0  0  0  0  0  0  0  0  0  0  0  0
    8.6628    5.7088   21.8871 N   0  0  0  0  0  0  0  0  0  0  0  0
    5.6516    3.5258   21.9140 C   0  0  0  0  0  0  0  0  0  0  0  0
   11.5863    9.6815   19.4539 C   0  0  0  0  0  0  0  0  0  0  0  0
   12.9648    4.1543   20.9205 C   0  0  0  0  0  0  0  0  0  0  0  0
    8.2089    3.6265   20.8929 C   0  0  0  0  0  0  0  0  0  0  0  0
    7.3827    2.5724   20.5432 C   0  0  0  0  0  0  0  0  0  0  0  0
   11.1529    7.2750   20.8025 C   0  0  0  0  0  0  0  0  0  0  0  0
   10.2573    8.3215   20.9827 C   0  0  0  0  0  0  0  0  0  0  0  0
   11.1606    5.9378   21.2366 N   0  0  0  0  0  0  0  0  0  0  0  0
    9.8932   11.6736   19.0677 O   0  0  0  0  0  0  0  0  0  0  0  0
    6.4470    4.5850   22.2321 C   0  0  0  0  0  0  0  0  0  0  0  0
    8.4619    6.9895   22.2968 C   0  0  0  0  0  0  0  0  0  0  0  0
   12.2747    7.5102   20.0420 C   0  0  0  0  0  0  0  0  0  0  0  0
   14.2544    6.2142   19.4191 C   0  0  0  0  0  0  0  0  0  0  0  0
   13.0695    6.3705   20.0375 N   0  0  0  0  0  0  0  0  0  0  0  0
    9.1913    8.0876   21.8361 N   0  0  0  0  0  0  0  0  0  0  0  0
   10.4739    9.4813   20.2889 C   0  0  0  0  0  0  0  0  0  0  0  0
    7.5551    7.1270   23.1200 O   0  0  0  0  0  0  0  0  0  0  0  0
  1 11  4  0
  1 21  4  0
  2  4  1  0
  2  8  1  0
  2 11  1  0
  3 10  4  0
  3 14  4  0
  4  5  1  0
  4 18  2  0
  6 12  1  0
  6 17  4  0
  6 23  4  0
  7  9  1  0
  7 13  4  0
  7 19  4  0
  9 20  1  0
 10 19  4  0
 11 25  4  0
 13 14  4  0
 15 16  4  0
 15 17  4  0
 15 21  4  0
 16 24  1  0
 16 25  4  0
 20 24  1  0
 20 26  2  0
 21 23  4  0
 22 23  1  0
M  END
$$$$

 Created by Python create_sdf_string function

 26 28  0  0  0  0  0  0  0  0999 V2000
   12.4616    8.6700   19.4180 N   0  0  0  0  0  0  0  0  0  0  0  0
   11.8329   10.8148   18.6769 N   0  0  0  0  0  0  0  0  0  0  0  0
    6.1021    2.5564   21.0678 C   0  0  0  0  0  0  0  0  0  0  0  0
   10.9097   11.8051   18.4804 C   0  0  0  0  0  0  0  0  0  0  0  0
   11.2280   12.9135   17.5669 C   0  0  0  0  0  0  0  0  0  0  0  0
   12.3782    5.4231   20.7777 C   0  0  0  0  0  0  0  0  0  0  0  0
    7.7365    4.6508   21.6987 C   0  0  0  0  0  0  0  0  0  0  0  0
   13.0186   11.0102   18.0020 C   0  0  0  0  0  0  0  0  0  0  0  0
    8.6628    5.7088   21.8871 N   0  0  0  0  0  0  0  0  0  0  0  0
    5.6516    3.5258   21.9140 C   0  0  0  0  0  0  0  0  0  0  0  0
   11.5863    9.6815   19.4539 C   0  0  0  0  0  0  0  0  0  0  0  0
   12.9648    4.1543   20.9205 C   0  0  0  0  0  0  0  0  0  0  0  0
    8.2089    3.6265   20.8929 C   0  0  0  0  0  0  0  0  0  0  0  0
    7.3827    2.5724   20.5432 C   0  0  0  0  0  0  0  0  0  0  0  0
   11.1529    7.2750   20.8025 C   0  0  0  0  0  0  0  0  0  0  0  0
   10.2573    8.3215   20.9827 C   0  0  0  0  0  0  0  0  0  0  0  0
   11.1606    5.9378   21.2366 N   0  0  0  0  0  0  0  0  0  0  0  0
    9.8932   11.6736   19.0677 O   0  0  0  0  0  0  0  0  0  0  0  0
    6.4470    4.5850   22.2321 C   0  0  0  0  0  0  0  0  0  0  0  0
    8.4619    6.9895   22.2968 C   0  0  0  0  0  0  0  0  0  0  0  0
   12.2747    7.5102   20.0420 C   0  0  0  0  0  0  0  0  0  0  0  0
   14.2544    6.2142   19.4191 C   0  0  0  0  0  0  0  0  0  0  0  0
   13.0695    6.3705   20.0375 N   0  0  0  0  0  0  0  0  0  0  0  0
    9.1913    8.0876   21.8361 N   0  0  0  0  0  0  0  0  0  0  0  0
   10.4739    9.4813   20.2889 C   0  0  0  0  0  0  0  0  0  0  0  0
    7.5551    7.1270   23.1200 O   0  0  0  0  0  0  0  0  0  0  0  0
  1 11  4  0
  1 21  4  0
  2  4  1  0
  2  8  1  0
  2 11  1  0
  3 10  4  0
  3 14  4  0
  4  5  1  0
  4 18  2  0
  6 12  1  0
  6 17  4  0
  6 23  4  0
  7  9  1  0
  7 13  4  0
  7 19  4  0
  9 20  1  0
 10 19  4  0
 11 25  4  0
 13 14  4  0
 15 16  4  0
 15 17  4  0
 15 21  4  0
 16 24  1  0
 16 25  4  0
 20 24  1  0
 20 26  2  0
 21 23  4  0
 22 23  1  0
M  END
$$$$

 Created by Python create_sdf_string function

 26 28  0  0  0  0  0  0  0  0999 V2000
   12.4616    8.6700   19.4180 N   0  0  0  0  0  0  0  0  0  0  0  0
   11.8329   10.8148   18.6769 N   0  0  0  0  0  0  0  0  0  0  0  0
    6.1021    2.5564   21.0678 C   0  0  0  0  0  0  0  0  0  0  0  0
   10.9097   11.8051   18.4804 C   0  0  0  0  0  0  0  0  0  0  0  0
   11.2280   12.9135   17.5669 C   0  0  0  0  0  0  0  0  0  0  0  0
   12.3782    5.4231   20.7777 C   0  0  0  0  0  0  0  0  0  0  0  0
    7.7365    4.6508   21.6987 C   0  0  0  0  0  0  0  0  0  0  0  0
   13.0186   11.0102   18.0020 C   0  0  0  0  0  0  0  0  0  0  0  0
    8.6628    5.7088   21.8871 N   0  0  0  0  0  0  0  0  0  0  0  0
    5.6516    3.5258   21.9140 C   0  0  0  0  0  0  0  0  0  0  0  0
   11.5863    9.6815   19.4539 C   0  0  0  0  0  0  0  0  0  0  0  0
   12.9648    4.1543   20.9205 C   0  0  0  0  0  0  0  0  0  0  0  0
    8.2089    3.6265   20.8929 C   0  0  0  0  0  0  0  0  0  0  0  0
    7.3827    2.5724   20.5432 C   0  0  0  0  0  0  0  0  0  0  0  0
   11.1529    7.2750   20.8025 C   0  0  0  0  0  0  0  0  0  0  0  0
   10.2573    8.3215   20.9827 C   0  0  0  0  0  0  0  0  0  0  0  0
   11.1606    5.9378   21.2366 N   0  0  0  0  0  0  0  0  0  0  0  0
    9.8932   11.6736   19.0677 O   0  0  0  0  0  0  0  0  0  0  0  0
    6.4470    4.5850   22.2321 C   0  0  0  0  0  0  0  0  0  0  0  0
    8.4619    6.9895   22.2968 C   0  0  0  0  0  0  0  0  0  0  0  0
   12.2747    7.5102   20.0420 C   0  0  0  0  0  0  0  0  0  0  0  0
   14.2544    6.2142   19.4191 C   0  0  0  0  0  0  0  0  0  0  0  0
   13.0695    6.3705   20.0375 N   0  0  0  0  0  0  0  0  0  0  0  0
    9.1913    8.0876   21.8361 N   0  0  0  0  0  0  0  0  0  0  0  0
   10.4739    9.4813   20.2889 C   0  0  0  0  0  0  0  0  0  0  0  0
    7.5551    7.1270   23.1200 O   0  0  0  0  0  0  0  0  0  0  0  0
  1 11  4  0
  1 21  4  0
  2  4  1  0
  2  8  1  0
  2 11  1  0
  3 10  4  0
  3 14  4  0
  4  5  1  0
  4 18  2  0
  6 12  1  0
  6 17  4  0
  6 23  4  0
  7  9  1  0
  7 13  4  0
  7 19  4  0
  9 20  1  0
 10 19  4  0
 11 25  4  0
 13 14  4  0
 15 16  4  0
 15 17  4  0
 15 21  4  0
 16 24  1  0
 16 25  4  0
 20 24  1  0
 20 26  2  0
 21 23  4  0
 22 23  1  0
M  END
$$$$

 Created by Python create_sdf_string function

 26 28  0  0  0  0  0  0  0  0999 V2000
   12.4616    8.6700   19.4180 N   0  0  0  0  0  0  0  0  0  0  0  0
   11.8329   10.8148   18.6769 N   0  0  0  0  0  0  0  0  0  0  0  0
    6.1021    2.5564   21.0678 C   0  0  0  0  0  0  0  0  0  0  0  0
   10.9097   11.8051   18.4804 C   0  0  0  0  0  0  0  0  0  0  0  0
   11.2280   12.9135   17.5669 C   0  0  0  0  0  0  0  0  0  0  0  0
   12.3782    5.4231   20.7777 C   0  0  0  0  0  0  0  0  0  0  0  0
    7.7365    4.6508   21.6987 C   0  0  0  0  0  0  0  0  0  0  0  0
   13.0186   11.0102   18.0020 C   0  0  0  0  0  0  0  0  0  0  0  0
    8.6628    5.7088   21.8871 N   0  0  0  0  0  0  0  0  0  0  0  0
    5.6516    3.5258   21.9140 C   0  0  0  0  0  0  0  0  0  0  0  0
   11.5863    9.6815   19.4539 C   0  0  0  0  0  0  0  0  0  0  0  0
   12.9648    4.1543   20.9205 C   0  0  0  0  0  0  0  0  0  0  0  0
    8.2089    3.6265   20.8929 C   0  0  0  0  0  0  0  0  0  0  0  0
    7.3827    2.5724   20.5432 C   0  0  0  0  0  0  0  0  0  0  0  0
   11.1529    7.2750   20.8025 C   0  0  0  0  0  0  0  0  0  0  0  0
   10.2573    8.3215   20.9827 C   0  0  0  0  0  0  0  0  0  0  0  0
   11.1606    5.9378   21.2366 N   0  0  0  0  0  0  0  0  0  0  0  0
    9.8932   11.6736   19.0677 O   0  0  0  0  0  0  0  0  0  0  0  0
    6.4470    4.5850   22.2321 C   0  0  0  0  0  0  0  0  0  0  0  0
    8.4619    6.9895   22.2968 C   0  0  0  0  0  0  0  0  0  0  0  0
   12.2747    7.5102   20.0420 C   0  0  0  0  0  0  0  0  0  0  0  0
   14.2544    6.2142   19.4191 C   0  0  0  0  0  0  0  0  0  0  0  0
   13.0695    6.3705   20.0375 N   0  0  0  0  0  0  0  0  0  0  0  0
    9.1913    8.0876   21.8361 N   0  0  0  0  0  0  0  0  0  0  0  0
   10.4739    9.4813   20.2889 C   0  0  0  0  0  0  0  0  0  0  0  0
    7.5551    7.1270   23.1200 O   0  0  0  0  0  0  0  0  0  0  0  0
  1 11  4  0
  1 21  4  0
  2  4  1  0
  2  8  1  0
  2 11  1  0
  3 10  4  0
  3 14  4  0
  4  5  1  0
  4 18  2  0
  6 12  1  0
  6 17  4  0
  6 23  4  0
  7  9  1  0
  7 13  4  0
  7 19  4  0
  9 20  1  0
 10 19  4  0
 11 25  4  0
 13 14  4  0
 15 16  4  0
 15 17  4  0
 15 21  4  0
 16 24  1  0
 16 25  4  0
 20 24  1  0
 20 26  2  0
 21 23  4  0
 22 23  1  0
M  END
$$$$

 Created by Python create_sdf_string function

 26 28  0  0  0  0  0  0  0  0999 V2000
   12.4616    8.6700   19.4180 N   0  0  0  0  0  0  0  0  0  0  0  0
   11.8329   10.8148   18.6769 N   0  0  0  0  0  0  0  0  0  0  0  0
    6.1021    2.5564   21.0678 C   0  0  0  0  0  0  0  0  0  0  0  0
   10.9097   11.8051   18.4804 C   0  0  0  0  0  0  0  0  0  0  0  0
   11.2280   12.9135   17.5669 C   0  0  0  0  0  0  0  0  0  0  0  0
   12.3782    5.4231   20.7777 C   0  0  0  0  0  0  0  0  0  0  0  0
    7.7365    4.6508   21.6987 C   0  0  0  0  0  0  0  0  0  0  0  0
   13.0186   11.0102   18.0020 C   0  0  0  0  0  0  0  0  0  0  0  0
    8.6628    5.7088   21.8871 N   0  0  0  0  0  0  0  0  0  0  0  0
    5.6516    3.5258   21.9140 C   0  0  0  0  0  0  0  0  0  0  0  0
   11.5863    9.6815   19.4539 C   0  0  0  0  0  0  0  0  0  0  0  0
   12.9648    4.1543   20.9205 C   0  0  0  0  0  0  0  0  0  0  0  0
    8.2089    3.6265   20.8929 C   0  0  0  0  0  0  0  0  0  0  0  0
    7.3827    2.5724   20.5432 C   0  0  0  0  0  0  0  0  0  0  0  0
   11.1529    7.2750   20.8025 C   0  0  0  0  0  0  0  0  0  0  0  0
   10.2573    8.3215   20.9827 C   0  0  0  0  0  0  0  0  0  0  0  0
   11.1606    5.9378   21.2366 N   0  0  0  0  0  0  0  0  0  0  0  0
    9.8932   11.6736   19.0677 O   0  0  0  0  0  0  0  0  0  0  0  0
    6.4470    4.5850   22.2321 C   0  0  0  0  0  0  0  0  0  0  0  0
    8.4619    6.9895   22.2968 C   0  0  0  0  0  0  0  0  0  0  0  0
   12.2747    7.5102   20.0420 C   0  0  0  0  0  0  0  0  0  0  0  0
   14.2544    6.2142   19.4191 C   0  0  0  0  0  0  0  0  0  0  0  0
   13.0695    6.3705   20.0375 N   0  0  0  0  0  0  0  0  0  0  0  0
    9.1913    8.0876   21.8361 N   0  0  0  0  0  0  0  0  0  0  0  0
   10.4739    9.4813   20.2889 C   0  0  0  0  0  0  0  0  0  0  0  0
    7.5551    7.1270   23.1200 O   0  0  0  0  0  0  0  0  0  0  0  0
  1 11  4  0
  1 21  4  0
  2  4  1  0
  2  8  1  0
  2 11  1  0
  3 10  4  0
  3 14  4  0
  4  5  1  0
  4 18  2  0
  6 12  1  0
  6 17  4  0
  6 23  4  0
  7  9  1  0
  7 13  4  0
  7 19  4  0
  9 20  1  0
 10 19  4  0
 11 25  4  0
 13 14  4  0
 15 16  4  0
 15 17  4  0
 15 21  4  0
 16 24  1  0
 16 25  4  0
 20 24  1  0
 20 26  2  0
 21 23  4  0
 22 23  1  0
M  END
$$$$

 Created by Python create_sdf_string function

 26 28  0  0  0  0  0  0  0  0999 V2000
   12.4616    8.6700   19.4180 N   0  0  0  0  0  0  0  0  0  0  0  0
   11.8329   10.8148   18.6769 N   0  0  0  0  0  0  0  0  0  0  0  0
    6.1021    2.5564   21.0678 C   0  0  0  0  0  0  0  0  0  0  0  0
   10.9097   11.8051   18.4804 C   0  0  0  0  0  0  0  0  0  0  0  0
   11.2280   12.9135   17.5669 C   0  0  0  0  0  0  0  0  0  0  0  0
   12.3782    5.4231   20.7777 C   0  0  0  0  0  0  0  0  0  0  0  0
    7.7365    4.6508   21.6987 C   0  0  0  0  0  0  0  0  0  0  0  0
   13.0186   11.0102   18.0020 C   0  0  0  0  0  0  0  0  0  0  0  0
    8.6628    5.7088   21.8871 N   0  0  0  0  0  0  0  0  0  0  0  0
    5.6516    3.5258   21.9140 C   0  0  0  0  0  0  0  0  0  0  0  0
   11.5863    9.6815   19.4539 C   0  0  0  0  0  0  0  0  0  0  0  0
   12.9648    4.1543   20.9205 C   0  0  0  0  0  0  0  0  0  0  0  0
    8.2089    3.6265   20.8929 C   0  0  0  0  0  0  0  0  0  0  0  0
    7.3827    2.5724   20.5432 C   0  0  0  0  0  0  0  0  0  0  0  0
   11.1529    7.2750   20.8025 C   0  0  0  0  0  0  0  0  0  0  0  0
   10.2573    8.3215   20.9827 C   0  0  0  0  0  0  0  0  0  0  0  0
   11.1606    5.9378   21.2366 N   0  0  0  0  0  0  0  0  0  0  0  0
    9.8932   11.6736   19.0677 O   0  0  0  0  0  0  0  0  0  0  0  0
    6.4470    4.5850   22.2321 C   0  0  0  0  0  0  0  0  0  0  0  0
    8.4619    6.9895   22.2968 C   0  0  0  0  0  0  0  0  0  0  0  0
   12.2747    7.5102   20.0420 C   0  0  0  0  0  0  0  0  0  0  0  0
   14.2544    6.2142   19.4191 C   0  0  0  0  0  0  0  0  0  0  0  0
   13.0695    6.3705   20.0375 N   0  0  0  0  0  0  0  0  0  0  0  0
    9.1913    8.0876   21.8361 N   0  0  0  0  0  0  0  0  0  0  0  0
   10.4739    9.4813   20.2889 C   0  0  0  0  0  0  0  0  0  0  0  0
    7.5551    7.1270   23.1200 O   0  0  0  0  0  0  0  0  0  0  0  0
  1 11  4  0
  1 21  4  0
  2  4  1  0
  2  8  1  0
  2 11  1  0
  3 10  4  0
  3 14  4  0
  4  5  1  0
  4 18  2  0
  6 12  1  0
  6 17  4  0
  6 23  4  0
  7  9  1  0
  7 13  4  0
  7 19  4  0
  9 20  1  0
 10 19  4  0
 11 25  4  0
 13 14  4  0
 15 16  4  0
 15 17  4  0
 15 21  4  0
 16 24  1  0
 16 25  4  0
 20 24  1  0
 20 26  2  0
 21 23  4  0
 22 23  1  0
M  END
$$$$

 Created by Python create_sdf_string function

 26 28  0  0  0  0  0  0  0  0999 V2000
   12.4616    8.6700   19.4180 N   0  0  0  0  0  0  0  0  0  0  0  0
   11.8329   10.8148   18.6769 N   0  0  0  0  0  0  0  0  0  0  0  0
    6.1021    2.5564   21.0678 C   0  0  0  0  0  0  0  0  0  0  0  0
   10.9097   11.8051   18.4804 C   0  0  0  0  0  0  0  0  0  0  0  0
   11.2280   12.9135   17.5669 C   0  0  0  0  0  0  0  0  0  0  0  0
   12.3782    5.4231   20.7777 C   0  0  0  0  0  0  0  0  0  0  0  0
    7.7365    4.6508   21.6987 C   0  0  0  0  0  0  0  0  0  0  0  0
   13.0186   11.0102   18.0020 C   0  0  0  0  0  0  0  0  0  0  0  0
    8.6628    5.7088   21.8871 N   0  0  0  0  0  0  0  0  0  0  0  0
    5.6516    3.5258   21.9140 C   0  0  0  0  0  0  0  0  0  0  0  0
   11.5863    9.6815   19.4539 C   0  0  0  0  0  0  0  0  0  0  0  0
   12.9648    4.1543   20.9205 C   0  0  0  0  0  0  0  0  0  0  0  0
    8.2089    3.6265   20.8929 C   0  0  0  0  0  0  0  0  0  0  0  0
    7.3827    2.5724   20.5432 C   0  0  0  0  0  0  0  0  0  0  0  0
   11.1529    7.2750   20.8025 C   0  0  0  0  0  0  0  0  0  0  0  0
   10.2573    8.3215   20.9827 C   0  0  0  0  0  0  0  0  0  0  0  0
   11.1606    5.9378   21.2366 N   0  0  0  0  0  0  0  0  0  0  0  0
    9.8932   11.6736   19.0677 O   0  0  0  0  0  0  0  0  0  0  0  0
    6.4470    4.5850   22.2321 C   0  0  0  0  0  0  0  0  0  0  0  0
    8.4619    6.9895   22.2968 C   0  0  0  0  0  0  0  0  0  0  0  0
   12.2747    7.5102   20.0420 C   0  0  0  0  0  0  0  0  0  0  0  0
   14.2544    6.2142   19.4191 C   0  0  0  0  0  0  0  0  0  0  0  0
   13.0695    6.3705   20.0375 N   0  0  0  0  0  0  0  0  0  0  0  0
    9.1913    8.0876   21.8361 N   0  0  0  0  0  0  0  0  0  0  0  0
   10.4739    9.4813   20.2889 C   0  0  0  0  0  0  0  0  0  0  0  0
    7.5551    7.1270   23.1200 O   0  0  0  0  0  0  0  0  0  0  0  0
  1 11  4  0
  1 21  4  0
  2  4  1  0
  2  8  1  0
  2 11  1  0
  3 10  4  0
  3 14  4  0
  4  5  1  0
  4 18  2  0
  6 12  1  0
  6 17  4  0
  6 23  4  0
  7  9  1  0
  7 13  4  0
  7 19  4  0
  9 20  1  0
 10 19  4  0
 11 25  4  0
 13 14  4  0
 15 16  4  0
 15 17  4  0
 15 21  4  0
 16 24  1  0
 16 25  4  0
 20 24  1  0
 20 26  2  0
 21 23  4  0
 22 23  1  0
M  END
$$$$

 Created by Python create_sdf_string function

 26 28  0  0  0  0  0  0  0  0999 V2000
   12.4616    8.6700   19.4180 N   0  0  0  0  0  0  0  0  0  0  0  0
   11.8329   10.8148   18.6769 N   0  0  0  0  0  0  0  0  0  0  0  0
    6.1021    2.5564   21.0678 C   0  0  0  0  0  0  0  0  0  0  0  0
   10.9097   11.8051   18.4804 C   0  0  0  0  0  0  0  0  0  0  0  0
   11.2280   12.9135   17.5669 C   0  0  0  0  0  0  0  0  0  0  0  0
   12.3782    5.4231   20.7777 C   0  0  0  0  0  0  0  0  0  0  0  0
    7.7365    4.6508   21.6987 C   0  0  0  0  0  0  0  0  0  0  0  0
   13.0186   11.0102   18.0020 C   0  0  0  0  0  0  0  0  0  0  0  0
    8.6628    5.7088   21.8871 N   0  0  0  0  0  0  0  0  0  0  0  0
    5.6516    3.5258   21.9140 C   0  0  0  0  0  0  0  0  0  0  0  0
   11.5863    9.6815   19.4539 C   0  0  0  0  0  0  0  0  0  0  0  0
   12.9648    4.1543   20.9205 C   0  0  0  0  0  0  0  0  0  0  0  0
    8.2089    3.6265   20.8929 C   0  0  0  0  0  0  0  0  0  0  0  0
    7.3827    2.5724   20.5432 C   0  0  0  0  0  0  0  0  0  0  0  0
   11.1529    7.2750   20.8025 C   0  0  0  0  0  0  0  0  0  0  0  0
   10.2573    8.3215   20.9827 C   0  0  0  0  0  0  0  0  0  0  0  0
   11.1606    5.9378   21.2366 N   0  0  0  0  0  0  0  0  0  0  0  0
    9.8932   11.6736   19.0677 O   0  0  0  0  0  0  0  0  0  0  0  0
    6.4470    4.5850   22.2321 C   0  0  0  0  0  0  0  0  0  0  0  0
    8.4619    6.9895   22.2968 C   0  0  0  0  0  0  0  0  0  0  0  0
   12.2747    7.5102   20.0420 C   0  0  0  0  0  0  0  0  0  0  0  0
   14.2544    6.2142   19.4191 C   0  0  0  0  0  0  0  0  0  0  0  0
   13.0695    6.3705   20.0375 N   0  0  0  0  0  0  0  0  0  0  0  0
    9.1913    8.0876   21.8361 N   0  0  0  0  0  0  0  0  0  0  0  0
   10.4739    9.4813   20.2889 C   0  0  0  0  0  0  0  0  0  0  0  0
    7.5551    7.1270   23.1200 O   0  0  0  0  0  0  0  0  0  0  0  0
  1 11  4  0
  1 21  4  0
  2  4  1  0
  2  8  1  0
  2 11  1  0
  3 10  4  0
  3 14  4  0
  4  5  1  0
  4 18  2  0
  6 12  1  0
  6 17  4  0
  6 23  4  0
  7  9  1  0
  7 13  4  0
  7 19  4  0
  9 20  1  0
 10 19  4  0
 11 25  4  0
 13 14  4  0
 15 16  4  0
 15 17  4  0
 15 21  4  0
 16 24  1  0
 16 25  4  0
 20 24  1  0
 20 26  2  0
 21 23  4  0
 22 23  1  0
M  END
$$$$

 Created by Python create_sdf_string function

 26 28  0  0  0  0  0  0  0  0999 V2000
   12.4616    8.6700   19.4180 N   0  0  0  0  0  0  0  0  0  0  0  0
   11.8329   10.8148   18.6769 N   0  0  0  0  0  0  0  0  0  0  0  0
    6.1021    2.5564   21.0678 C   0  0  0  0  0  0  0  0  0  0  0  0
   10.9097   11.8051   18.4804 C   0  0  0  0  0  0  0  0  0  0  0  0
   11.2280   12.9135   17.5669 C   0  0  0  0  0  0  0  0  0  0  0  0
   12.3782    5.4231   20.7777 C   0  0  0  0  0  0  0  0  0  0  0  0
    7.7365    4.6508   21.6987 C   0  0  0  0  0  0  0  0  0  0  0  0
   13.0186   11.0102   18.0020 C   0  0  0  0  0  0  0  0  0  0  0  0
    8.6628    5.7088   21.8871 N   0  0  0  0  0  0  0  0  0  0  0  0
    5.6516    3.5258   21.9140 C   0  0  0  0  0  0  0  0  0  0  0  0
   11.5863    9.6815   19.4539 C   0  0  0  0  0  0  0  0  0  0  0  0
   12.9648    4.1543   20.9205 C   0  0  0  0  0  0  0  0  0  0  0  0
    8.2089    3.6265   20.8929 C   0  0  0  0  0  0  0  0  0  0  0  0
    7.3827    2.5724   20.5432 C   0  0  0  0  0  0  0  0  0  0  0  0
   11.1529    7.2750   20.8025 C   0  0  0  0  0  0  0  0  0  0  0  0
   10.2573    8.3215   20.9827 C   0  0  0  0  0  0  0  0  0  0  0  0
   11.1606    5.9378   21.2366 N   0  0  0  0  0  0  0  0  0  0  0  0
    9.8932   11.6736   19.0677 O   0  0  0  0  0  0  0  0  0  0  0  0
    6.4470    4.5850   22.2321 C   0  0  0  0  0  0  0  0  0  0  0  0
    8.4619    6.9895   22.2968 C   0  0  0  0  0  0  0  0  0  0  0  0
   12.2747    7.5102   20.0420 C   0  0  0  0  0  0  0  0  0  0  0  0
   14.2544    6.2142   19.4191 C   0  0  0  0  0  0  0  0  0  0  0  0
   13.0695    6.3705   20.0375 N   0  0  0  0  0  0  0  0  0  0  0  0
    9.1913    8.0876   21.8361 N   0  0  0  0  0  0  0  0  0  0  0  0
   10.4739    9.4813   20.2889 C   0  0  0  0  0  0  0  0  0  0  0  0
    7.5551    7.1270   23.1200 O   0  0  0  0  0  0  0  0  0  0  0  0
  1 11  4  0
  1 21  4  0
  2  4  1  0
  2  8  1  0
  2 11  1  0
  3 10  4  0
  3 14  4  0
  4  5  1  0
  4 18  2  0
  6 12  1  0
  6 17  4  0
  6 23  4  0
  7  9  1  0
  7 13  4  0
  7 19  4  0
  9 20  1  0
 10 19  4  0
 11 25  4  0
 13 14  4  0
 15 16  4  0
 15 17  4  0
 15 21  4  0
 16 24  1  0
 16 25  4  0
 20 24  1  0
 20 26  2  0
 21 23  4  0
 22 23  1  0
M  END
$$$$

 Created by Python create_sdf_string function

 26 28  0  0  0  0  0  0  0  0999 V2000
   12.4616    8.6700   19.4180 N   0  0  0  0  0  0  0  0  0  0  0  0
   11.8329   10.8148   18.6769 N   0  0  0  0  0  0  0  0  0  0  0  0
    6.1021    2.5564   21.0678 C   0  0  0  0  0  0  0  0  0  0  0  0
   10.9097   11.8051   18.4804 C   0  0  0  0  0  0  0  0  0  0  0  0
   11.2280   12.9135   17.5669 C   0  0  0  0  0  0  0  0  0  0  0  0
   12.3782    5.4231   20.7777 C   0  0  0  0  0  0  0  0  0  0  0  0
    7.7365    4.6508   21.6987 C   0  0  0  0  0  0  0  0  0  0  0  0
   13.0186   11.0102   18.0020 C   0  0  0  0  0  0  0  0  0  0  0  0
    8.6628    5.7088   21.8871 N   0  0  0  0  0  0  0  0  0  0  0  0
    5.6516    3.5258   21.9140 C   0  0  0  0  0  0  0  0  0  0  0  0
   11.5863    9.6815   19.4539 C   0  0  0  0  0  0  0  0  0  0  0  0
   12.9648    4.1543   20.9205 C   0  0  0  0  0  0  0  0  0  0  0  0
    8.2089    3.6265   20.8929 C   0  0  0  0  0  0  0  0  0  0  0  0
    7.3827    2.5724   20.5432 C   0  0  0  0  0  0  0  0  0  0  0  0
   11.1529    7.2750   20.8025 C   0  0  0  0  0  0  0  0  0  0  0  0
   10.2573    8.3215   20.9827 C   0  0  0  0  0  0  0  0  0  0  0  0
   11.1606    5.9378   21.2366 N   0  0  0  0  0  0  0  0  0  0  0  0
    9.8932   11.6736   19.0677 O   0  0  0  0  0  0  0  0  0  0  0  0
    6.4470    4.5850   22.2321 C   0  0  0  0  0  0  0  0  0  0  0  0
    8.4619    6.9895   22.2968 C   0  0  0  0  0  0  0  0  0  0  0  0
   12.2747    7.5102   20.0420 C   0  0  0  0  0  0  0  0  0  0  0  0
   14.2544    6.2142   19.4191 C   0  0  0  0  0  0  0  0  0  0  0  0
   13.0695    6.3705   20.0375 N   0  0  0  0  0  0  0  0  0  0  0  0
    9.1913    8.0876   21.8361 N   0  0  0  0  0  0  0  0  0  0  0  0
   10.4739    9.4813   20.2889 C   0  0  0  0  0  0  0  0  0  0  0  0
    7.5551    7.1270   23.1200 O   0  0  0  0  0  0  0  0  0  0  0  0
  1 11  4  0
  1 21  4  0
  2  4  1  0
  2  8  1  0
  2 11  1  0
  3 10  4  0
  3 14  4  0
  4  5  1  0
  4 18  2  0
  6 12  1  0
  6 17  4  0
  6 23  4  0
  7  9  1  0
  7 13  4  0
  7 19  4  0
  9 20  1  0
 10 19  4  0
 11 25  4  0
 13 14  4  0
 15 16  4  0
 15 17  4  0
 15 21  4  0
 16 24  1  0
 16 25  4  0
 20 24  1  0
 20 26  2  0
 21 23  4  0
 22 23  1  0
M  END
$$$$

 Created by Python create_sdf_string function

 26 28  0  0  0  0  0  0  0  0999 V2000
   12.4616    8.6700   19.4180 N   0  0  0  0  0  0  0  0  0  0  0  0
   11.8329   10.8148   18.6769 N   0  0  0  0  0  0  0  0  0  0  0  0
    6.1021    2.5564   21.0678 C   0  0  0  0  0  0  0  0  0  0  0  0
   10.9097   11.8051   18.4804 C   0  0  0  0  0  0  0  0  0  0  0  0
   11.2280   12.9135   17.5669 C   0  0  0  0  0  0  0  0  0  0  0  0
   12.3782    5.4231   20.7777 C   0  0  0  0  0  0  0  0  0  0  0  0
    7.7365    4.6508   21.6987 C   0  0  0  0  0  0  0  0  0  0  0  0
   13.0186   11.0102   18.0020 C   0  0  0  0  0  0  0  0  0  0  0  0
    8.6628    5.7088   21.8871 N   0  0  0  0  0  0  0  0  0  0  0  0
    5.6516    3.5258   21.9140 C   0  0  0  0  0  0  0  0  0  0  0  0
   11.5863    9.6815   19.4539 C   0  0  0  0  0  0  0  0  0  0  0  0
   12.9648    4.1543   20.9205 C   0  0  0  0  0  0  0  0  0  0  0  0
    8.2089    3.6265   20.8929 C   0  0  0  0  0  0  0  0  0  0  0  0
    7.3827    2.5724   20.5432 C   0  0  0  0  0  0  0  0  0  0  0  0
   11.1529    7.2750   20.8025 C   0  0  0  0  0  0  0  0  0  0  0  0
   10.2573    8.3215   20.9827 C   0  0  0  0  0  0  0  0  0  0  0  0
   11.1606    5.9378   21.2366 N   0  0  0  0  0  0  0  0  0  0  0  0
    9.8932   11.6736   19.0677 O   0  0  0  0  0  0  0  0  0  0  0  0
    6.4470    4.5850   22.2321 C   0  0  0  0  0  0  0  0  0  0  0  0
    8.4619    6.9895   22.2968 C   0  0  0  0  0  0  0  0  0  0  0  0
   12.2747    7.5102   20.0420 C   0  0  0  0  0  0  0  0  0  0  0  0
   14.2544    6.2142   19.4191 C   0  0  0  0  0  0  0  0  0  0  0  0
   13.0695    6.3705   20.0375 N   0  0  0  0  0  0  0  0  0  0  0  0
    9.1913    8.0876   21.8361 N   0  0  0  0  0  0  0  0  0  0  0  0
   10.4739    9.4813   20.2889 C   0  0  0  0  0  0  0  0  0  0  0  0
    7.5551    7.1270   23.1200 O   0  0  0  0  0  0  0  0  0  0  0  0
  1 11  4  0
  1 21  4  0
  2  4  1  0
  2  8  1  0
  2 11  1  0
  3 10  4  0
  3 14  4  0
  4  5  1  0
  4 18  2  0
  6 12  1  0
  6 17  4  0
  6 23  4  0
  7  9  1  0
  7 13  4  0
  7 19  4  0
  9 20  1  0
 10 19  4  0
 11 25  4  0
 13 14  4  0
 15 16  4  0
 15 17  4  0
 15 21  4  0
 16 24  1  0
 16 25  4  0
 20 24  1  0
 20 26  2  0
 21 23  4  0
 22 23  1  0
M  END
$$$$

 Created by Python create_sdf_string function

 26 28  0  0  0  0  0  0  0  0999 V2000
   12.4616    8.6700   19.4180 N   0  0  0  0  0  0  0  0  0  0  0  0
   11.8329   10.8148   18.6769 N   0  0  0  0  0  0  0  0  0  0  0  0
    6.1021    2.5564   21.0678 C   0  0  0  0  0  0  0  0  0  0  0  0
   10.9097   11.8051   18.4804 C   0  0  0  0  0  0  0  0  0  0  0  0
   11.2280   12.9135   17.5669 C   0  0  0  0  0  0  0  0  0  0  0  0
   12.3782    5.4231   20.7777 C   0  0  0  0  0  0  0  0  0  0  0  0
    7.7365    4.6508   21.6987 C   0  0  0  0  0  0  0  0  0  0  0  0
   13.0186   11.0102   18.0020 C   0  0  0  0  0  0  0  0  0  0  0  0
    8.6628    5.7088   21.8871 N   0  0  0  0  0  0  0  0  0  0  0  0
    5.6516    3.5258   21.9140 C   0  0  0  0  0  0  0  0  0  0  0  0
   11.5863    9.6815   19.4539 C   0  0  0  0  0  0  0  0  0  0  0  0
   12.9648    4.1543   20.9205 C   0  0  0  0  0  0  0  0  0  0  0  0
    8.2089    3.6265   20.8929 C   0  0  0  0  0  0  0  0  0  0  0  0
    7.3827    2.5724   20.5432 C   0  0  0  0  0  0  0  0  0  0  0  0
   11.1529    7.2750   20.8025 C   0  0  0  0  0  0  0  0  0  0  0  0
   10.2573    8.3215   20.9827 C   0  0  0  0  0  0  0  0  0  0  0  0
   11.1606    5.9378   21.2366 N   0  0  0  0  0  0  0  0  0  0  0  0
    9.8932   11.6736   19.0677 O   0  0  0  0  0  0  0  0  0  0  0  0
    6.4470    4.5850   22.2321 C   0  0  0  0  0  0  0  0  0  0  0  0
    8.4619    6.9895   22.2968 C   0  0  0  0  0  0  0  0  0  0  0  0
   12.2747    7.5102   20.0420 C   0  0  0  0  0  0  0  0  0  0  0  0
   14.2544    6.2142   19.4191 C   0  0  0  0  0  0  0  0  0  0  0  0
   13.0695    6.3705   20.0375 N   0  0  0  0  0  0  0  0  0  0  0  0
    9.1913    8.0876   21.8361 N   0  0  0  0  0  0  0  0  0  0  0  0
   10.4739    9.4813   20.2889 C   0  0  0  0  0  0  0  0  0  0  0  0
    7.5551    7.1270   23.1200 O   0  0  0  0  0  0  0  0  0  0  0  0
  1 11  4  0
  1 21  4  0
  2  4  1  0
  2  8  1  0
  2 11  1  0
  3 10  4  0
  3 14  4  0
  4  5  1  0
  4 18  2  0
  6 12  1  0
  6 17  4  0
  6 23  4  0
  7  9  1  0
  7 13  4  0
  7 19  4  0
  9 20  1  0
 10 19  4  0
 11 25  4  0
 13 14  4  0
 15 16  4  0
 15 17  4  0
 15 21  4  0
 16 24  1  0
 16 25  4  0
 20 24  1  0
 20 26  2  0
 21 23  4  0
 22 23  1  0
M  END
$$$$

 Created by Python create_sdf_string function

 26 28  0  0  0  0  0  0  0  0999 V2000
   12.4616    8.6700   19.4180 N   0  0  0  0  0  0  0  0  0  0  0  0
   11.8329   10.8148   18.6769 N   0  0  0  0  0  0  0  0  0  0  0  0
    6.1021    2.5564   21.0678 C   0  0  0  0  0  0  0  0  0  0  0  0
   10.9097   11.8051   18.4804 C   0  0  0  0  0  0  0  0  0  0  0  0
   11.2280   12.9135   17.5669 C   0  0  0  0  0  0  0  0  0  0  0  0
   12.3782    5.4231   20.7777 C   0  0  0  0  0  0  0  0  0  0  0  0
    7.7365    4.6508   21.6987 C   0  0  0  0  0  0  0  0  0  0  0  0
   13.0186   11.0102   18.0020 C   0  0  0  0  0  0  0  0  0  0  0  0
    8.6628    5.7088   21.8871 N   0  0  0  0  0  0  0  0  0  0  0  0
    5.6516    3.5258   21.9140 C   0  0  0  0  0  0  0  0  0  0  0  0
   11.5863    9.6815   19.4539 C   0  0  0  0  0  0  0  0  0  0  0  0
   12.9648    4.1543   20.9205 C   0  0  0  0  0  0  0  0  0  0  0  0
    8.2089    3.6265   20.8929 C   0  0  0  0  0  0  0  0  0  0  0  0
    7.3827    2.5724   20.5432 C   0  0  0  0  0  0  0  0  0  0  0  0
   11.1529    7.2750   20.8025 C   0  0  0  0  0  0  0  0  0  0  0  0
   10.2573    8.3215   20.9827 C   0  0  0  0  0  0  0  0  0  0  0  0
   11.1606    5.9378   21.2366 N   0  0  0  0  0  0  0  0  0  0  0  0
    9.8932   11.6736   19.0677 O   0  0  0  0  0  0  0  0  0  0  0  0
    6.4470    4.5850   22.2321 C   0  0  0  0  0  0  0  0  0  0  0  0
    8.4619    6.9895   22.2968 C   0  0  0  0  0  0  0  0  0  0  0  0
   12.2747    7.5102   20.0420 C   0  0  0  0  0  0  0  0  0  0  0  0
   14.2544    6.2142   19.4191 C   0  0  0  0  0  0  0  0  0  0  0  0
   13.0695    6.3705   20.0375 N   0  0  0  0  0  0  0  0  0  0  0  0
    9.1913    8.0876   21.8361 N   0  0  0  0  0  0  0  0  0  0  0  0
   10.4739    9.4813   20.2889 C   0  0  0  0  0  0  0  0  0  0  0  0
    7.5551    7.1270   23.1200 O   0  0  0  0  0  0  0  0  0  0  0  0
  1 11  4  0
  1 21  4  0
  2  4  1  0
  2  8  1  0
  2 11  1  0
  3 10  4  0
  3 14  4  0
  4  5  1  0
  4 18  2  0
  6 12  1  0
  6 17  4  0
  6 23  4  0
  7  9  1  0
  7 13  4  0
  7 19  4  0
  9 20  1  0
 10 19  4  0
 11 25  4  0
 13 14  4  0
 15 16  4  0
 15 17  4  0
 15 21  4  0
 16 24  1  0
 16 25  4  0
 20 24  1  0
 20 26  2  0
 21 23  4  0
 22 23  1  0
M  END
$$$$

 Created by Python create_sdf_string function

 26 28  0  0  0  0  0  0  0  0999 V2000
   12.4616    8.6700   19.4180 N   0  0  0  0  0  0  0  0  0  0  0  0
   11.8329   10.8148   18.6769 N   0  0  0  0  0  0  0  0  0  0  0  0
    6.1021    2.5564   21.0678 C   0  0  0  0  0  0  0  0  0  0  0  0
   10.9097   11.8051   18.4804 C   0  0  0  0  0  0  0  0  0  0  0  0
   11.2280   12.9135   17.5669 C   0  0  0  0  0  0  0  0  0  0  0  0
   12.3782    5.4231   20.7777 C   0  0  0  0  0  0  0  0  0  0  0  0
    7.7365    4.6508   21.6987 C   0  0  0  0  0  0  0  0  0  0  0  0
   13.0186   11.0102   18.0020 C   0  0  0  0  0  0  0  0  0  0  0  0
    8.6628    5.7088   21.8871 N   0  0  0  0  0  0  0  0  0  0  0  0
    5.6516    3.5258   21.9140 C   0  0  0  0  0  0  0  0  0  0  0  0
   11.5863    9.6815   19.4539 C   0  0  0  0  0  0  0  0  0  0  0  0
   12.9648    4.1543   20.9205 C   0  0  0  0  0  0  0  0  0  0  0  0
    8.2089    3.6265   20.8929 C   0  0  0  0  0  0  0  0  0  0  0  0
    7.3827    2.5724   20.5432 C   0  0  0  0  0  0  0  0  0  0  0  0
   11.1529    7.2750   20.8025 C   0  0  0  0  0  0  0  0  0  0  0  0
   10.2573    8.3215   20.9827 C   0  0  0  0  0  0  0  0  0  0  0  0
   11.1606    5.9378   21.2366 N   0  0  0  0  0  0  0  0  0  0  0  0
    9.8932   11.6736   19.0677 O   0  0  0  0  0  0  0  0  0  0  0  0
    6.4470    4.5850   22.2321 C   0  0  0  0  0  0  0  0  0  0  0  0
    8.4619    6.9895   22.2968 C   0  0  0  0  0  0  0  0  0  0  0  0
   12.2747    7.5102   20.0420 C   0  0  0  0  0  0  0  0  0  0  0  0
   14.2544    6.2142   19.4191 C   0  0  0  0  0  0  0  0  0  0  0  0
   13.0695    6.3705   20.0375 N   0  0  0  0  0  0  0  0  0  0  0  0
    9.1913    8.0876   21.8361 N   0  0  0  0  0  0  0  0  0  0  0  0
   10.4739    9.4813   20.2889 C   0  0  0  0  0  0  0  0  0  0  0  0
    7.5551    7.1270   23.1200 O   0  0  0  0  0  0  0  0  0  0  0  0
  1 11  4  0
  1 21  4  0
  2  4  1  0
  2  8  1  0
  2 11  1  0
  3 10  4  0
  3 14  4  0
  4  5  1  0
  4 18  2  0
  6 12  1  0
  6 17  4  0
  6 23  4  0
  7  9  1  0
  7 13  4  0
  7 19  4  0
  9 20  1  0
 10 19  4  0
 11 25  4  0
 13 14  4  0
 15 16  4  0
 15 17  4  0
 15 21  4  0
 16 24  1  0
 16 25  4  0
 20 24  1  0
 20 26  2  0
 21 23  4  0
 22 23  1  0
M  END
$$$$

 Created by Python create_sdf_string function

 26 28  0  0  0  0  0  0  0  0999 V2000
   12.4616    8.6700   19.4180 N   0  0  0  0  0  0  0  0  0  0  0  0
   11.8329   10.8148   18.6769 N   0  0  0  0  0  0  0  0  0  0  0  0
    6.1021    2.5564   21.0678 C   0  0  0  0  0  0  0  0  0  0  0  0
   10.9097   11.8051   18.4804 C   0  0  0  0  0  0  0  0  0  0  0  0
   11.2280   12.9135   17.5669 C   0  0  0  0  0  0  0  0  0  0  0  0
   12.3782    5.4231   20.7777 C   0  0  0  0  0  0  0  0  0  0  0  0
    7.7365    4.6508   21.6987 C   0  0  0  0  0  0  0  0  0  0  0  0
   13.0186   11.0102   18.0020 C   0  0  0  0  0  0  0  0  0  0  0  0
    8.6628    5.7088   21.8871 N   0  0  0  0  0  0  0  0  0  0  0  0
    5.6516    3.5258   21.9140 C   0  0  0  0  0  0  0  0  0  0  0  0
   11.5863    9.6815   19.4539 C   0  0  0  0  0  0  0  0  0  0  0  0
   12.9648    4.1543   20.9205 C   0  0  0  0  0  0  0  0  0  0  0  0
    8.2089    3.6265   20.8929 C   0  0  0  0  0  0  0  0  0  0  0  0
    7.3827    2.5724   20.5432 C   0  0  0  0  0  0  0  0  0  0  0  0
   11.1529    7.2750   20.8025 C   0  0  0  0  0  0  0  0  0  0  0  0
   10.2573    8.3215   20.9827 C   0  0  0  0  0  0  0  0  0  0  0  0
   11.1606    5.9378   21.2366 N   0  0  0  0  0  0  0  0  0  0  0  0
    9.8932   11.6736   19.0677 O   0  0  0  0  0  0  0  0  0  0  0  0
    6.4470    4.5850   22.2321 C   0  0  0  0  0  0  0  0  0  0  0  0
    8.4619    6.9895   22.2968 C   0  0  0  0  0  0  0  0  0  0  0  0
   12.2747    7.5102   20.0420 C   0  0  0  0  0  0  0  0  0  0  0  0
   14.2544    6.2142   19.4191 C   0  0  0  0  0  0  0  0  0  0  0  0
   13.0695    6.3705   20.0375 N   0  0  0  0  0  0  0  0  0  0  0  0
    9.1913    8.0876   21.8361 N   0  0  0  0  0  0  0  0  0  0  0  0
   10.4739    9.4813   20.2889 C   0  0  0  0  0  0  0  0  0  0  0  0
    7.5551    7.1270   23.1200 O   0  0  0  0  0  0  0  0  0  0  0  0
  1 11  4  0
  1 21  4  0
  2  4  1  0
  2  8  1  0
  2 11  1  0
  3 10  4  0
  3 14  4  0
  4  5  1  0
  4 18  2  0
  6 12  1  0
  6 17  4  0
  6 23  4  0
  7  9  1  0
  7 13  4  0
  7 19  4  0
  9 20  1  0
 10 19  4  0
 11 25  4  0
 13 14  4  0
 15 16  4  0
 15 17  4  0
 15 21  4  0
 16 24  1  0
 16 25  4  0
 20 24  1  0
 20 26  2  0
 21 23  4  0
 22 23  1  0
M  END
$$$$

 Created by Python create_sdf_string function

 26 28  0  0  0  0  0  0  0  0999 V2000
   12.4616    8.6700   19.4180 N   0  0  0  0  0  0  0  0  0  0  0  0
   11.8329   10.8148   18.6769 N   0  0  0  0  0  0  0  0  0  0  0  0
    6.1021    2.5564   21.0678 C   0  0  0  0  0  0  0  0  0  0  0  0
   10.9097   11.8051   18.4804 C   0  0  0  0  0  0  0  0  0  0  0  0
   11.2280   12.9135   17.5669 C   0  0  0  0  0  0  0  0  0  0  0  0
   12.3782    5.4231   20.7777 C   0  0  0  0  0  0  0  0  0  0  0  0
    7.7365    4.6508   21.6987 C   0  0  0  0  0  0  0  0  0  0  0  0
   13.0186   11.0102   18.0020 C   0  0  0  0  0  0  0  0  0  0  0  0
    8.6628    5.7088   21.8871 N   0  0  0  0  0  0  0  0  0  0  0  0
    5.6516    3.5258   21.9140 C   0  0  0  0  0  0  0  0  0  0  0  0
   11.5863    9.6815   19.4539 C   0  0  0  0  0  0  0  0  0  0  0  0
   12.9648    4.1543   20.9205 C   0  0  0  0  0  0  0  0  0  0  0  0
    8.2089    3.6265   20.8929 C   0  0  0  0  0  0  0  0  0  0  0  0
    7.3827    2.5724   20.5432 C   0  0  0  0  0  0  0  0  0  0  0  0
   11.1529    7.2750   20.8025 C   0  0  0  0  0  0  0  0  0  0  0  0
   10.2573    8.3215   20.9827 C   0  0  0  0  0  0  0  0  0  0  0  0
   11.1606    5.9378   21.2366 N   0  0  0  0  0  0  0  0  0  0  0  0
    9.8932   11.6736   19.0677 O   0  0  0  0  0  0  0  0  0  0  0  0
    6.4470    4.5850   22.2321 C   0  0  0  0  0  0  0  0  0  0  0  0
    8.4619    6.9895   22.2968 C   0  0  0  0  0  0  0  0  0  0  0  0
   12.2747    7.5102   20.0420 C   0  0  0  0  0  0  0  0  0  0  0  0
   14.2544    6.2142   19.4191 C   0  0  0  0  0  0  0  0  0  0  0  0
   13.0695    6.3705   20.0375 N   0  0  0  0  0  0  0  0  0  0  0  0
    9.1913    8.0876   21.8361 N   0  0  0  0  0  0  0  0  0  0  0  0
   10.4739    9.4813   20.2889 C   0  0  0  0  0  0  0  0  0  0  0  0
    7.5551    7.1270   23.1200 O   0  0  0  0  0  0  0  0  0  0  0  0
  1 11  4  0
  1 21  4  0
  2  4  1  0
  2  8  1  0
  2 11  1  0
  3 10  4  0
  3 14  4  0
  4  5  1  0
  4 18  2  0
  6 12  1  0
  6 17  4  0
  6 23  4  0
  7  9  1  0
  7 13  4  0
  7 19  4  0
  9 20  1  0
 10 19  4  0
 11 25  4  0
 13 14  4  0
 15 16  4  0
 15 17  4  0
 15 21  4  0
 16 24  1  0
 16 25  4  0
 20 24  1  0
 20 26  2  0
 21 23  4  0
 22 23  1  0
M  END
$$$$

 Created by Python create_sdf_string function

 26 28  0  0  0  0  0  0  0  0999 V2000
   12.4616    8.6700   19.4180 N   0  0  0  0  0  0  0  0  0  0  0  0
   11.8329   10.8148   18.6769 N   0  0  0  0  0  0  0  0  0  0  0  0
    6.1021    2.5564   21.0678 C   0  0  0  0  0  0  0  0  0  0  0  0
   10.9097   11.8051   18.4804 C   0  0  0  0  0  0  0  0  0  0  0  0
   11.2280   12.9135   17.5669 C   0  0  0  0  0  0  0  0  0  0  0  0
   12.3782    5.4231   20.7777 C   0  0  0  0  0  0  0  0  0  0  0  0
    7.7365    4.6508   21.6987 C   0  0  0  0  0  0  0  0  0  0  0  0
   13.0186   11.0102   18.0020 C   0  0  0  0  0  0  0  0  0  0  0  0
    8.6628    5.7088   21.8871 N   0  0  0  0  0  0  0  0  0  0  0  0
    5.6516    3.5258   21.9140 C   0  0  0  0  0  0  0  0  0  0  0  0
   11.5863    9.6815   19.4539 C   0  0  0  0  0  0  0  0  0  0  0  0
   12.9648    4.1543   20.9205 C   0  0  0  0  0  0  0  0  0  0  0  0
    8.2089    3.6265   20.8929 C   0  0  0  0  0  0  0  0  0  0  0  0
    7.3827    2.5724   20.5432 C   0  0  0  0  0  0  0  0  0  0  0  0
   11.1529    7.2750   20.8025 C   0  0  0  0  0  0  0  0  0  0  0  0
   10.2573    8.3215   20.9827 C   0  0  0  0  0  0  0  0  0  0  0  0
   11.1606    5.9378   21.2366 N   0  0  0  0  0  0  0  0  0  0  0  0
    9.8932   11.6736   19.0677 O   0  0  0  0  0  0  0  0  0  0  0  0
    6.4470    4.5850   22.2321 C   0  0  0  0  0  0  0  0  0  0  0  0
    8.4619    6.9895   22.2968 C   0  0  0  0  0  0  0  0  0  0  0  0
   12.2747    7.5102   20.0420 C   0  0  0  0  0  0  0  0  0  0  0  0
   14.2544    6.2142   19.4191 C   0  0  0  0  0  0  0  0  0  0  0  0
   13.0695    6.3705   20.0375 N   0  0  0  0  0  0  0  0  0  0  0  0
    9.1913    8.0876   21.8361 N   0  0  0  0  0  0  0  0  0  0  0  0
   10.4739    9.4813   20.2889 C   0  0  0  0  0  0  0  0  0  0  0  0
    7.5551    7.1270   23.1200 O   0  0  0  0  0  0  0  0  0  0  0  0
  1 11  4  0
  1 21  4  0
  2  4  1  0
  2  8  1  0
  2 11  1  0
  3 10  4  0
  3 14  4  0
  4  5  1  0
  4 18  2  0
  6 12  1  0
  6 17  4  0
  6 23  4  0
  7  9  1  0
  7 13  4  0
  7 19  4  0
  9 20  1  0
 10 19  4  0
 11 25  4  0
 13 14  4  0
 15 16  4  0
 15 17  4  0
 15 21  4  0
 16 24  1  0
 16 25  4  0
 20 24  1  0
 20 26  2  0
 21 23  4  0
 22 23  1  0
M  END
$$$$

 Created by Python create_sdf_string function

 26 28  0  0  0  0  0  0  0  0999 V2000
   12.4616    8.6700   19.4180 N   0  0  0  0  0  0  0  0  0  0  0  0
   11.8329   10.8148   18.6769 N   0  0  0  0  0  0  0  0  0  0  0  0
    6.1021    2.5564   21.0678 C   0  0  0  0  0  0  0  0  0  0  0  0
   10.9097   11.8051   18.4804 C   0  0  0  0  0  0  0  0  0  0  0  0
   11.2280   12.9135   17.5669 C   0  0  0  0  0  0  0  0  0  0  0  0
   12.3782    5.4231   20.7777 C   0  0  0  0  0  0  0  0  0  0  0  0
    7.7365    4.6508   21.6987 C   0  0  0  0  0  0  0  0  0  0  0  0
   13.0186   11.0102   18.0020 C   0  0  0  0  0  0  0  0  0  0  0  0
    8.6628    5.7088   21.8871 N   0  0  0  0  0  0  0  0  0  0  0  0
    5.6516    3.5258   21.9140 C   0  0  0  0  0  0  0  0  0  0  0  0
   11.5863    9.6815   19.4539 C   0  0  0  0  0  0  0  0  0  0  0  0
   12.9648    4.1543   20.9205 C   0  0  0  0  0  0  0  0  0  0  0  0
    8.2089    3.6265   20.8929 C   0  0  0  0  0  0  0  0  0  0  0  0
    7.3827    2.5724   20.5432 C   0  0  0  0  0  0  0  0  0  0  0  0
   11.1529    7.2750   20.8025 C   0  0  0  0  0  0  0  0  0  0  0  0
   10.2573    8.3215   20.9827 C   0  0  0  0  0  0  0  0  0  0  0  0
   11.1606    5.9378   21.2366 N   0  0  0  0  0  0  0  0  0  0  0  0
    9.8932   11.6736   19.0677 O   0  0  0  0  0  0  0  0  0  0  0  0
    6.4470    4.5850   22.2321 C   0  0  0  0  0  0  0  0  0  0  0  0
    8.4619    6.9895   22.2968 C   0  0  0  0  0  0  0  0  0  0  0  0
   12.2747    7.5102   20.0420 C   0  0  0  0  0  0  0  0  0  0  0  0
   14.2544    6.2142   19.4191 C   0  0  0  0  0  0  0  0  0  0  0  0
   13.0695    6.3705   20.0375 N   0  0  0  0  0  0  0  0  0  0  0  0
    9.1913    8.0876   21.8361 N   0  0  0  0  0  0  0  0  0  0  0  0
   10.4739    9.4813   20.2889 C   0  0  0  0  0  0  0  0  0  0  0  0
    7.5551    7.1270   23.1200 O   0  0  0  0  0  0  0  0  0  0  0  0
  1 11  4  0
  1 21  4  0
  2  4  1  0
  2  8  1  0
  2 11  1  0
  3 10  4  0
  3 14  4  0
  4  5  1  0
  4 18  2  0
  6 12  1  0
  6 17  4  0
  6 23  4  0
  7  9  1  0
  7 13  4  0
  7 19  4  0
  9 20  1  0
 10 19  4  0
 11 25  4  0
 13 14  4  0
 15 16  4  0
 15 17  4  0
 15 21  4  0
 16 24  1  0
 16 25  4  0
 20 24  1  0
 20 26  2  0
 21 23  4  0
 22 23  1  0
M  END
$$$$

 Created by Python create_sdf_string function

 26 28  0  0  0  0  0  0  0  0999 V2000
   12.4616    8.6700   19.4180 N   0  0  0  0  0  0  0  0  0  0  0  0
   11.8329   10.8148   18.6769 N   0  0  0  0  0  0  0  0  0  0  0  0
    6.1021    2.5564   21.0678 C   0  0  0  0  0  0  0  0  0  0  0  0
   10.9097   11.8051   18.4804 C   0  0  0  0  0  0  0  0  0  0  0  0
   11.2280   12.9135   17.5669 C   0  0  0  0  0  0  0  0  0  0  0  0
   12.3782    5.4231   20.7777 C   0  0  0  0  0  0  0  0  0  0  0  0
    7.7365    4.6508   21.6987 C   0  0  0  0  0  0  0  0  0  0  0  0
   13.0186   11.0102   18.0020 C   0  0  0  0  0  0  0  0  0  0  0  0
    8.6628    5.7088   21.8871 N   0  0  0  0  0  0  0  0  0  0  0  0
    5.6516    3.5258   21.9140 C   0  0  0  0  0  0  0  0  0  0  0  0
   11.5863    9.6815   19.4539 C   0  0  0  0  0  0  0  0  0  0  0  0
   12.9648    4.1543   20.9205 C   0  0  0  0  0  0  0  0  0  0  0  0
    8.2089    3.6265   20.8929 C   0  0  0  0  0  0  0  0  0  0  0  0
    7.3827    2.5724   20.5432 C   0  0  0  0  0  0  0  0  0  0  0  0
   11.1529    7.2750   20.8025 C   0  0  0  0  0  0  0  0  0  0  0  0
   10.2573    8.3215   20.9827 C   0  0  0  0  0  0  0  0  0  0  0  0
   11.1606    5.9378   21.2366 N   0  0  0  0  0  0  0  0  0  0  0  0
    9.8932   11.6736   19.0677 O   0  0  0  0  0  0  0  0  0  0  0  0
    6.4470    4.5850   22.2321 C   0  0  0  0  0  0  0  0  0  0  0  0
    8.4619    6.9895   22.2968 C   0  0  0  0  0  0  0  0  0  0  0  0
   12.2747    7.5102   20.0420 C   0  0  0  0  0  0  0  0  0  0  0  0
   14.2544    6.2142   19.4191 C   0  0  0  0  0  0  0  0  0  0  0  0
   13.0695    6.3705   20.0375 N   0  0  0  0  0  0  0  0  0  0  0  0
    9.1913    8.0876   21.8361 N   0  0  0  0  0  0  0  0  0  0  0  0
   10.4739    9.4813   20.2889 C   0  0  0  0  0  0  0  0  0  0  0  0
    7.5551    7.1270   23.1200 O   0  0  0  0  0  0  0  0  0  0  0  0
  1 11  4  0
  1 21  4  0
  2  4  1  0
  2  8  1  0
  2 11  1  0
  3 10  4  0
  3 14  4  0
  4  5  1  0
  4 18  2  0
  6 12  1  0
  6 17  4  0
  6 23  4  0
  7  9  1  0
  7 13  4  0
  7 19  4  0
  9 20  1  0
 10 19  4  0
 11 25  4  0
 13 14  4  0
 15 16  4  0
 15 17  4  0
 15 21  4  0
 16 24  1  0
 16 25  4  0
 20 24  1  0
 20 26  2  0
 21 23  4  0
 22 23  1  0
M  END
$$$$

 Created by Python create_sdf_string function

 26 28  0  0  0  0  0  0  0  0999 V2000
   12.4616    8.6700   19.4180 N   0  0  0  0  0  0  0  0  0  0  0  0
   11.8329   10.8148   18.6769 N   0  0  0  0  0  0  0  0  0  0  0  0
    6.1021    2.5564   21.0678 C   0  0  0  0  0  0  0  0  0  0  0  0
   10.9097   11.8051   18.4804 C   0  0  0  0  0  0  0  0  0  0  0  0
   11.2280   12.9135   17.5669 C   0  0  0  0  0  0  0  0  0  0  0  0
   12.3782    5.4231   20.7777 C   0  0  0  0  0  0  0  0  0  0  0  0
    7.7365    4.6508   21.6987 C   0  0  0  0  0  0  0  0  0  0  0  0
   13.0186   11.0102   18.0020 C   0  0  0  0  0  0  0  0  0  0  0  0
    8.6628    5.7088   21.8871 N   0  0  0  0  0  0  0  0  0  0  0  0
    5.6516    3.5258   21.9140 C   0  0  0  0  0  0  0  0  0  0  0  0
   11.5863    9.6815   19.4539 C   0  0  0  0  0  0  0  0  0  0  0  0
   12.9648    4.1543   20.9205 C   0  0  0  0  0  0  0  0  0  0  0  0
    8.2089    3.6265   20.8929 C   0  0  0  0  0  0  0  0  0  0  0  0
    7.3827    2.5724   20.5432 C   0  0  0  0  0  0  0  0  0  0  0  0
   11.1529    7.2750   20.8025 C   0  0  0  0  0  0  0  0  0  0  0  0
   10.2573    8.3215   20.9827 C   0  0  0  0  0  0  0  0  0  0  0  0
   11.1606    5.9378   21.2366 N   0  0  0  0  0  0  0  0  0  0  0  0
    9.8932   11.6736   19.0677 O   0  0  0  0  0  0  0  0  0  0  0  0
    6.4470    4.5850   22.2321 C   0  0  0  0  0  0  0  0  0  0  0  0
    8.4619    6.9895   22.2968 C   0  0  0  0  0  0  0  0  0  0  0  0
   12.2747    7.5102   20.0420 C   0  0  0  0  0  0  0  0  0  0  0  0
   14.2544    6.2142   19.4191 C   0  0  0  0  0  0  0  0  0  0  0  0
   13.0695    6.3705   20.0375 N   0  0  0  0  0  0  0  0  0  0  0  0
    9.1913    8.0876   21.8361 N   0  0  0  0  0  0  0  0  0  0  0  0
   10.4739    9.4813   20.2889 C   0  0  0  0  0  0  0  0  0  0  0  0
    7.5551    7.1270   23.1200 O   0  0  0  0  0  0  0  0  0  0  0  0
  1 11  4  0
  1 21  4  0
  2  4  1  0
  2  8  1  0
  2 11  1  0
  3 10  4  0
  3 14  4  0
  4  5  1  0
  4 18  2  0
  6 12  1  0
  6 17  4  0
  6 23  4  0
  7  9  1  0
  7 13  4  0
  7 19  4  0
  9 20  1  0
 10 19  4  0
 11 25  4  0
 13 14  4  0
 15 16  4  0
 15 17  4  0
 15 21  4  0
 16 24  1  0
 16 25  4  0
 20 24  1  0
 20 26  2  0
 21 23  4  0
 22 23  1  0
M  END
$$$$

 Created by Python create_sdf_string function

 26 28  0  0  0  0  0  0  0  0999 V2000
   12.4616    8.6700   19.4180 N   0  0  0  0  0  0  0  0  0  0  0  0
   11.8329   10.8148   18.6769 N   0  0  0  0  0  0  0  0  0  0  0  0
    6.1021    2.5564   21.0678 C   0  0  0  0  0  0  0  0  0  0  0  0
   10.9097   11.8051   18.4804 C   0  0  0  0  0  0  0  0  0  0  0  0
   11.2280   12.9135   17.5669 C   0  0  0  0  0  0  0  0  0  0  0  0
   12.3782    5.4231   20.7777 C   0  0  0  0  0  0  0  0  0  0  0  0
    7.7365    4.6508   21.6987 C   0  0  0  0  0  0  0  0  0  0  0  0
   13.0186   11.0102   18.0020 C   0  0  0  0  0  0  0  0  0  0  0  0
    8.6628    5.7088   21.8871 N   0  0  0  0  0  0  0  0  0  0  0  0
    5.6516    3.5258   21.9140 C   0  0  0  0  0  0  0  0  0  0  0  0
   11.5863    9.6815   19.4539 C   0  0  0  0  0  0  0  0  0  0  0  0
   12.9648    4.1543   20.9205 C   0  0  0  0  0  0  0  0  0  0  0  0
    8.2089    3.6265   20.8929 C   0  0  0  0  0  0  0  0  0  0  0  0
    7.3827    2.5724   20.5432 C   0  0  0  0  0  0  0  0  0  0  0  0
   11.1529    7.2750   20.8025 C   0  0  0  0  0  0  0  0  0  0  0  0
   10.2573    8.3215   20.9827 C   0  0  0  0  0  0  0  0  0  0  0  0
   11.1606    5.9378   21.2366 N   0  0  0  0  0  0  0  0  0  0  0  0
    9.8932   11.6736   19.0677 O   0  0  0  0  0  0  0  0  0  0  0  0
    6.4470    4.5850   22.2321 C   0  0  0  0  0  0  0  0  0  0  0  0
    8.4619    6.9895   22.2968 C   0  0  0  0  0  0  0  0  0  0  0  0
   12.2747    7.5102   20.0420 C   0  0  0  0  0  0  0  0  0  0  0  0
   14.2544    6.2142   19.4191 C   0  0  0  0  0  0  0  0  0  0  0  0
   13.0695    6.3705   20.0375 N   0  0  0  0  0  0  0  0  0  0  0  0
    9.1913    8.0876   21.8361 N   0  0  0  0  0  0  0  0  0  0  0  0
   10.4739    9.4813   20.2889 C   0  0  0  0  0  0  0  0  0  0  0  0
    7.5551    7.1270   23.1200 O   0  0  0  0  0  0  0  0  0  0  0  0
  1 11  4  0
  1 21  4  0
  2  4  1  0
  2  8  1  0
  2 11  1  0
  3 10  4  0
  3 14  4  0
  4  5  1  0
  4 18  2  0
  6 12  1  0
  6 17  4  0
  6 23  4  0
  7  9  1  0
  7 13  4  0
  7 19  4  0
  9 20  1  0
 10 19  4  0
 11 25  4  0
 13 14  4  0
 15 16  4  0
 15 17  4  0
 15 21  4  0
 16 24  1  0
 16 25  4  0
 20 24  1  0
 20 26  2  0
 21 23  4  0
 22 23  1  0
M  END
$$$$

 Created by Python create_sdf_string function

 26 28  0  0  0  0  0  0  0  0999 V2000
   12.4616    8.6700   19.4180 N   0  0  0  0  0  0  0  0  0  0  0  0
   11.8329   10.8148   18.6769 N   0  0  0  0  0  0  0  0  0  0  0  0
    6.1021    2.5564   21.0678 C   0  0  0  0  0  0  0  0  0  0  0  0
   10.9097   11.8051   18.4804 C   0  0  0  0  0  0  0  0  0  0  0  0
   11.2280   12.9135   17.5669 C   0  0  0  0  0  0  0  0  0  0  0  0
   12.3782    5.4231   20.7777 C   0  0  0  0  0  0  0  0  0  0  0  0
    7.7365    4.6508   21.6987 C   0  0  0  0  0  0  0  0  0  0  0  0
   13.0186   11.0102   18.0020 C   0  0  0  0  0  0  0  0  0  0  0  0
    8.6628    5.7088   21.8871 N   0  0  0  0  0  0  0  0  0  0  0  0
    5.6516    3.5258   21.9140 C   0  0  0  0  0  0  0  0  0  0  0  0
   11.5863    9.6815   19.4539 C   0  0  0  0  0  0  0  0  0  0  0  0
   12.9648    4.1543   20.9205 C   0  0  0  0  0  0  0  0  0  0  0  0
    8.2089    3.6265   20.8929 C   0  0  0  0  0  0  0  0  0  0  0  0
    7.3827    2.5724   20.5432 C   0  0  0  0  0  0  0  0  0  0  0  0
   11.1529    7.2750   20.8025 C   0  0  0  0  0  0  0  0  0  0  0  0
   10.2573    8.3215   20.9827 C   0  0  0  0  0  0  0  0  0  0  0  0
   11.1606    5.9378   21.2366 N   0  0  0  0  0  0  0  0  0  0  0  0
    9.8932   11.6736   19.0677 O   0  0  0  0  0  0  0  0  0  0  0  0
    6.4470    4.5850   22.2321 C   0  0  0  0  0  0  0  0  0  0  0  0
    8.4619    6.9895   22.2968 C   0  0  0  0  0  0  0  0  0  0  0  0
   12.2747    7.5102   20.0420 C   0  0  0  0  0  0  0  0  0  0  0  0
   14.2544    6.2142   19.4191 C   0  0  0  0  0  0  0  0  0  0  0  0
   13.0695    6.3705   20.0375 N   0  0  0  0  0  0  0  0  0  0  0  0
    9.1913    8.0876   21.8361 N   0  0  0  0  0  0  0  0  0  0  0  0
   10.4739    9.4813   20.2889 C   0  0  0  0  0  0  0  0  0  0  0  0
    7.5551    7.1270   23.1200 O   0  0  0  0  0  0  0  0  0  0  0  0
  1 11  4  0
  1 21  4  0
  2  4  1  0
  2  8  1  0
  2 11  1  0
  3 10  4  0
  3 14  4  0
  4  5  1  0
  4 18  2  0
  6 12  1  0
  6 17  4  0
  6 23  4  0
  7  9  1  0
  7 13  4  0
  7 19  4  0
  9 20  1  0
 10 19  4  0
 11 25  4  0
 13 14  4  0
 15 16  4  0
 15 17  4  0
 15 21  4  0
 16 24  1  0
 16 25  4  0
 20 24  1  0
 20 26  2  0
 21 23  4  0
 22 23  1  0
M  END
$$$$

 Created by Python create_sdf_string function

 26 28  0  0  0  0  0  0  0  0999 V2000
   12.4616    8.6700   19.4180 N   0  0  0  0  0  0  0  0  0  0  0  0
   11.8329   10.8148   18.6769 N   0  0  0  0  0  0  0  0  0  0  0  0
    6.1021    2.5564   21.0678 C   0  0  0  0  0  0  0  0  0  0  0  0
   10.9097   11.8051   18.4804 C   0  0  0  0  0  0  0  0  0  0  0  0
   11.2280   12.9135   17.5669 C   0  0  0  0  0  0  0  0  0  0  0  0
   12.3782    5.4231   20.7777 C   0  0  0  0  0  0  0  0  0  0  0  0
    7.7365    4.6508   21.6987 C   0  0  0  0  0  0  0  0  0  0  0  0
   13.0186   11.0102   18.0020 C   0  0  0  0  0  0  0  0  0  0  0  0
    8.6628    5.7088   21.8871 N   0  0  0  0  0  0  0  0  0  0  0  0
    5.6516    3.5258   21.9140 C   0  0  0  0  0  0  0  0  0  0  0  0
   11.5863    9.6815   19.4539 C   0  0  0  0  0  0  0  0  0  0  0  0
   12.9648    4.1543   20.9205 C   0  0  0  0  0  0  0  0  0  0  0  0
    8.2089    3.6265   20.8929 C   0  0  0  0  0  0  0  0  0  0  0  0
    7.3827    2.5724   20.5432 C   0  0  0  0  0  0  0  0  0  0  0  0
   11.1529    7.2750   20.8025 C   0  0  0  0  0  0  0  0  0  0  0  0
   10.2573    8.3215   20.9827 C   0  0  0  0  0  0  0  0  0  0  0  0
   11.1606    5.9378   21.2366 N   0  0  0  0  0  0  0  0  0  0  0  0
    9.8932   11.6736   19.0677 O   0  0  0  0  0  0  0  0  0  0  0  0
    6.4470    4.5850   22.2321 C   0  0  0  0  0  0  0  0  0  0  0  0
    8.4619    6.9895   22.2968 C   0  0  0  0  0  0  0  0  0  0  0  0
   12.2747    7.5102   20.0420 C   0  0  0  0  0  0  0  0  0  0  0  0
   14.2544    6.2142   19.4191 C   0  0  0  0  0  0  0  0  0  0  0  0
   13.0695    6.3705   20.0375 N   0  0  0  0  0  0  0  0  0  0  0  0
    9.1913    8.0876   21.8361 N   0  0  0  0  0  0  0  0  0  0  0  0
   10.4739    9.4813   20.2889 C   0  0  0  0  0  0  0  0  0  0  0  0
    7.5551    7.1270   23.1200 O   0  0  0  0  0  0  0  0  0  0  0  0
  1 11  4  0
  1 21  4  0
  2  4  1  0
  2  8  1  0
  2 11  1  0
  3 10  4  0
  3 14  4  0
  4  5  1  0
  4 18  2  0
  6 12  1  0
  6 17  4  0
  6 23  4  0
  7  9  1  0
  7 13  4  0
  7 19  4  0
  9 20  1  0
 10 19  4  0
 11 25  4  0
 13 14  4  0
 15 16  4  0
 15 17  4  0
 15 21  4  0
 16 24  1  0
 16 25  4  0
 20 24  1  0
 20 26  2  0
 21 23  4  0
 22 23  1  0
M  END
$$$$

 Created by Python create_sdf_string function

 26 28  0  0  0  0  0  0  0  0999 V2000
   12.4616    8.6700   19.4180 N   0  0  0  0  0  0  0  0  0  0  0  0
   11.8329   10.8148   18.6769 N   0  0  0  0  0  0  0  0  0  0  0  0
    6.1021    2.5564   21.0678 C   0  0  0  0  0  0  0  0  0  0  0  0
   10.9097   11.8051   18.4804 C   0  0  0  0  0  0  0  0  0  0  0  0
   11.2280   12.9135   17.5669 C   0  0  0  0  0  0  0  0  0  0  0  0
   12.3782    5.4231   20.7777 C   0  0  0  0  0  0  0  0  0  0  0  0
    7.7365    4.6508   21.6987 C   0  0  0  0  0  0  0  0  0  0  0  0
   13.0186   11.0102   18.0020 C   0  0  0  0  0  0  0  0  0  0  0  0
    8.6628    5.7088   21.8871 N   0  0  0  0  0  0  0  0  0  0  0  0
    5.6516    3.5258   21.9140 C   0  0  0  0  0  0  0  0  0  0  0  0
   11.5863    9.6815   19.4539 C   0  0  0  0  0  0  0  0  0  0  0  0
   12.9648    4.1543   20.9205 C   0  0  0  0  0  0  0  0  0  0  0  0
    8.2089    3.6265   20.8929 C   0  0  0  0  0  0  0  0  0  0  0  0
    7.3827    2.5724   20.5432 C   0  0  0  0  0  0  0  0  0  0  0  0
   11.1529    7.2750   20.8025 C   0  0  0  0  0  0  0  0  0  0  0  0
   10.2573    8.3215   20.9827 C   0  0  0  0  0  0  0  0  0  0  0  0
   11.1606    5.9378   21.2366 N   0  0  0  0  0  0  0  0  0  0  0  0
    9.8932   11.6736   19.0677 O   0  0  0  0  0  0  0  0  0  0  0  0
    6.4470    4.5850   22.2321 C   0  0  0  0  0  0  0  0  0  0  0  0
    8.4619    6.9895   22.2968 C   0  0  0  0  0  0  0  0  0  0  0  0
   12.2747    7.5102   20.0420 C   0  0  0  0  0  0  0  0  0  0  0  0
   14.2544    6.2142   19.4191 C   0  0  0  0  0  0  0  0  0  0  0  0
   13.0695    6.3705   20.0375 N   0  0  0  0  0  0  0  0  0  0  0  0
    9.1913    8.0876   21.8361 N   0  0  0  0  0  0  0  0  0  0  0  0
   10.4739    9.4813   20.2889 C   0  0  0  0  0  0  0  0  0  0  0  0
    7.5551    7.1270   23.1200 O   0  0  0  0  0  0  0  0  0  0  0  0
  1 11  4  0
  1 21  4  0
  2  4  1  0
  2  8  1  0
  2 11  1  0
  3 10  4  0
  3 14  4  0
  4  5  1  0
  4 18  2  0
  6 12  1  0
  6 17  4  0
  6 23  4  0
  7  9  1  0
  7 13  4  0
  7 19  4  0
  9 20  1  0
 10 19  4  0
 11 25  4  0
 13 14  4  0
 15 16  4  0
 15 17  4  0
 15 21  4  0
 16 24  1  0
 16 25  4  0
 20 24  1  0
 20 26  2  0
 21 23  4  0
 22 23  1  0
M  END
$$$$

 Created by Python create_sdf_string function

 26 28  0  0  0  0  0  0  0  0999 V2000
   12.4616    8.6700   19.4180 N   0  0  0  0  0  0  0  0  0  0  0  0
   11.8329   10.8148   18.6769 N   0  0  0  0  0  0  0  0  0  0  0  0
    6.1021    2.5564   21.0678 C   0  0  0  0  0  0  0  0  0  0  0  0
   10.9097   11.8051   18.4804 C   0  0  0  0  0  0  0  0  0  0  0  0
   11.2280   12.9135   17.5669 C   0  0  0  0  0  0  0  0  0  0  0  0
   12.3782    5.4231   20.7777 C   0  0  0  0  0  0  0  0  0  0  0  0
    7.7365    4.6508   21.6987 C   0  0  0  0  0  0  0  0  0  0  0  0
   13.0186   11.0102   18.0020 C   0  0  0  0  0  0  0  0  0  0  0  0
    8.6628    5.7088   21.8871 N   0  0  0  0  0  0  0  0  0  0  0  0
    5.6516    3.5258   21.9140 C   0  0  0  0  0  0  0  0  0  0  0  0
   11.5863    9.6815   19.4539 C   0  0  0  0  0  0  0  0  0  0  0  0
   12.9648    4.1543   20.9205 C   0  0  0  0  0  0  0  0  0  0  0  0
    8.2089    3.6265   20.8929 C   0  0  0  0  0  0  0  0  0  0  0  0
    7.3827    2.5724   20.5432 C   0  0  0  0  0  0  0  0  0  0  0  0
   11.1529    7.2750   20.8025 C   0  0  0  0  0  0  0  0  0  0  0  0
   10.2573    8.3215   20.9827 C   0  0  0  0  0  0  0  0  0  0  0  0
   11.1606    5.9378   21.2366 N   0  0  0  0  0  0  0  0  0  0  0  0
    9.8932   11.6736   19.0677 O   0  0  0  0  0  0  0  0  0  0  0  0
    6.4470    4.5850   22.2321 C   0  0  0  0  0  0  0  0  0  0  0  0
    8.4619    6.9895   22.2968 C   0  0  0  0  0  0  0  0  0  0  0  0
   12.2747    7.5102   20.0420 C   0  0  0  0  0  0  0  0  0  0  0  0
   14.2544    6.2142   19.4191 C   0  0  0  0  0  0  0  0  0  0  0  0
   13.0695    6.3705   20.0375 N   0  0  0  0  0  0  0  0  0  0  0  0
    9.1913    8.0876   21.8361 N   0  0  0  0  0  0  0  0  0  0  0  0
   10.4739    9.4813   20.2889 C   0  0  0  0  0  0  0  0  0  0  0  0
    7.5551    7.1270   23.1200 O   0  0  0  0  0  0  0  0  0  0  0  0
  1 11  4  0
  1 21  4  0
  2  4  1  0
  2  8  1  0
  2 11  1  0
  3 10  4  0
  3 14  4  0
  4  5  1  0
  4 18  2  0
  6 12  1  0
  6 17  4  0
  6 23  4  0
  7  9  1  0
  7 13  4  0
  7 19  4  0
  9 20  1  0
 10 19  4  0
 11 25  4  0
 13 14  4  0
 15 16  4  0
 15 17  4  0
 15 21  4  0
 16 24  1  0
 16 25  4  0
 20 24  1  0
 20 26  2  0
 21 23  4  0
 22 23  1  0
M  END
$$$$

 Created by Python create_sdf_string function

 26 28  0  0  0  0  0  0  0  0999 V2000
   12.4616    8.6700   19.4180 N   0  0  0  0  0  0  0  0  0  0  0  0
   11.8329   10.8148   18.6769 N   0  0  0  0  0  0  0  0  0  0  0  0
    6.1021    2.5564   21.0678 C   0  0  0  0  0  0  0  0  0  0  0  0
   10.9097   11.8051   18.4804 C   0  0  0  0  0  0  0  0  0  0  0  0
   11.2280   12.9135   17.5669 C   0  0  0  0  0  0  0  0  0  0  0  0
   12.3782    5.4231   20.7777 C   0  0  0  0  0  0  0  0  0  0  0  0
    7.7365    4.6508   21.6987 C   0  0  0  0  0  0  0  0  0  0  0  0
   13.0186   11.0102   18.0020 C   0  0  0  0  0  0  0  0  0  0  0  0
    8.6628    5.7088   21.8871 N   0  0  0  0  0  0  0  0  0  0  0  0
    5.6516    3.5258   21.9140 C   0  0  0  0  0  0  0  0  0  0  0  0
   11.5863    9.6815   19.4539 C   0  0  0  0  0  0  0  0  0  0  0  0
   12.9648    4.1543   20.9205 C   0  0  0  0  0  0  0  0  0  0  0  0
    8.2089    3.6265   20.8929 C   0  0  0  0  0  0  0  0  0  0  0  0
    7.3827    2.5724   20.5432 C   0  0  0  0  0  0  0  0  0  0  0  0
   11.1529    7.2750   20.8025 C   0  0  0  0  0  0  0  0  0  0  0  0
   10.2573    8.3215   20.9827 C   0  0  0  0  0  0  0  0  0  0  0  0
   11.1606    5.9378   21.2366 N   0  0  0  0  0  0  0  0  0  0  0  0
    9.8932   11.6736   19.0677 O   0  0  0  0  0  0  0  0  0  0  0  0
    6.4470    4.5850   22.2321 C   0  0  0  0  0  0  0  0  0  0  0  0
    8.4619    6.9895   22.2968 C   0  0  0  0  0  0  0  0  0  0  0  0
   12.2747    7.5102   20.0420 C   0  0  0  0  0  0  0  0  0  0  0  0
   14.2544    6.2142   19.4191 C   0  0  0  0  0  0  0  0  0  0  0  0
   13.0695    6.3705   20.0375 N   0  0  0  0  0  0  0  0  0  0  0  0
    9.1913    8.0876   21.8361 N   0  0  0  0  0  0  0  0  0  0  0  0
   10.4739    9.4813   20.2889 C   0  0  0  0  0  0  0  0  0  0  0  0
    7.5551    7.1270   23.1200 O   0  0  0  0  0  0  0  0  0  0  0  0
  1 11  4  0
  1 21  4  0
  2  4  1  0
  2  8  1  0
  2 11  1  0
  3 10  4  0
  3 14  4  0
  4  5  1  0
  4 18  2  0
  6 12  1  0
  6 17  4  0
  6 23  4  0
  7  9  1  0
  7 13  4  0
  7 19  4  0
  9 20  1  0
 10 19  4  0
 11 25  4  0
 13 14  4  0
 15 16  4  0
 15 17  4  0
 15 21  4  0
 16 24  1  0
 16 25  4  0
 20 24  1  0
 20 26  2  0
 21 23  4  0
 22 23  1  0
M  END
$$$$

 Created by Python create_sdf_string function

 26 28  0  0  0  0  0  0  0  0999 V2000
   12.4616    8.6700   19.4180 N   0  0  0  0  0  0  0  0  0  0  0  0
   11.8329   10.8148   18.6769 N   0  0  0  0  0  0  0  0  0  0  0  0
    6.1021    2.5564   21.0678 C   0  0  0  0  0  0  0  0  0  0  0  0
   10.9097   11.8051   18.4804 C   0  0  0  0  0  0  0  0  0  0  0  0
   11.2280   12.9135   17.5669 C   0  0  0  0  0  0  0  0  0  0  0  0
   12.3782    5.4231   20.7777 C   0  0  0  0  0  0  0  0  0  0  0  0
    7.7365    4.6508   21.6987 C   0  0  0  0  0  0  0  0  0  0  0  0
   13.0186   11.0102   18.0020 C   0  0  0  0  0  0  0  0  0  0  0  0
    8.6628    5.7088   21.8871 N   0  0  0  0  0  0  0  0  0  0  0  0
    5.6516    3.5258   21.9140 C   0  0  0  0  0  0  0  0  0  0  0  0
   11.5863    9.6815   19.4539 C   0  0  0  0  0  0  0  0  0  0  0  0
   12.9648    4.1543   20.9205 C   0  0  0  0  0  0  0  0  0  0  0  0
    8.2089    3.6265   20.8929 C   0  0  0  0  0  0  0  0  0  0  0  0
    7.3827    2.5724   20.5432 C   0  0  0  0  0  0  0  0  0  0  0  0
   11.1529    7.2750   20.8025 C   0  0  0  0  0  0  0  0  0  0  0  0
   10.2573    8.3215   20.9827 C   0  0  0  0  0  0  0  0  0  0  0  0
   11.1606    5.9378   21.2366 N   0  0  0  0  0  0  0  0  0  0  0  0
    9.8932   11.6736   19.0677 O   0  0  0  0  0  0  0  0  0  0  0  0
    6.4470    4.5850   22.2321 C   0  0  0  0  0  0  0  0  0  0  0  0
    8.4619    6.9895   22.2968 C   0  0  0  0  0  0  0  0  0  0  0  0
   12.2747    7.5102   20.0420 C   0  0  0  0  0  0  0  0  0  0  0  0
   14.2544    6.2142   19.4191 C   0  0  0  0  0  0  0  0  0  0  0  0
   13.0695    6.3705   20.0375 N   0  0  0  0  0  0  0  0  0  0  0  0
    9.1913    8.0876   21.8361 N   0  0  0  0  0  0  0  0  0  0  0  0
   10.4739    9.4813   20.2889 C   0  0  0  0  0  0  0  0  0  0  0  0
    7.5551    7.1270   23.1200 O   0  0  0  0  0  0  0  0  0  0  0  0
  1 11  4  0
  1 21  4  0
  2  4  1  0
  2  8  1  0
  2 11  1  0
  3 10  4  0
  3 14  4  0
  4  5  1  0
  4 18  2  0
  6 12  1  0
  6 17  4  0
  6 23  4  0
  7  9  1  0
  7 13  4  0
  7 19  4  0
  9 20  1  0
 10 19  4  0
 11 25  4  0
 13 14  4  0
 15 16  4  0
 15 17  4  0
 15 21  4  0
 16 24  1  0
 16 25  4  0
 20 24  1  0
 20 26  2  0
 21 23  4  0
 22 23  1  0
M  END
$$$$

 Created by Python create_sdf_string function

 26 28  0  0  0  0  0  0  0  0999 V2000
   12.4616    8.6700   19.4180 N   0  0  0  0  0  0  0  0  0  0  0  0
   11.8329   10.8148   18.6769 N   0  0  0  0  0  0  0  0  0  0  0  0
    6.1021    2.5564   21.0678 C   0  0  0  0  0  0  0  0  0  0  0  0
   10.9097   11.8051   18.4804 C   0  0  0  0  0  0  0  0  0  0  0  0
   11.2280   12.9135   17.5669 C   0  0  0  0  0  0  0  0  0  0  0  0
   12.3782    5.4231   20.7777 C   0  0  0  0  0  0  0  0  0  0  0  0
    7.7365    4.6508   21.6987 C   0  0  0  0  0  0  0  0  0  0  0  0
   13.0186   11.0102   18.0020 C   0  0  0  0  0  0  0  0  0  0  0  0
    8.6628    5.7088   21.8871 N   0  0  0  0  0  0  0  0  0  0  0  0
    5.6516    3.5258   21.9140 C   0  0  0  0  0  0  0  0  0  0  0  0
   11.5863    9.6815   19.4539 C   0  0  0  0  0  0  0  0  0  0  0  0
   12.9648    4.1543   20.9205 C   0  0  0  0  0  0  0  0  0  0  0  0
    8.2089    3.6265   20.8929 C   0  0  0  0  0  0  0  0  0  0  0  0
    7.3827    2.5724   20.5432 C   0  0  0  0  0  0  0  0  0  0  0  0
   11.1529    7.2750   20.8025 C   0  0  0  0  0  0  0  0  0  0  0  0
   10.2573    8.3215   20.9827 C   0  0  0  0  0  0  0  0  0  0  0  0
   11.1606    5.9378   21.2366 N   0  0  0  0  0  0  0  0  0  0  0  0
    9.8932   11.6736   19.0677 O   0  0  0  0  0  0  0  0  0  0  0  0
    6.4470    4.5850   22.2321 C   0  0  0  0  0  0  0  0  0  0  0  0
    8.4619    6.9895   22.2968 C   0  0  0  0  0  0  0  0  0  0  0  0
   12.2747    7.5102   20.0420 C   0  0  0  0  0  0  0  0  0  0  0  0
   14.2544    6.2142   19.4191 C   0  0  0  0  0  0  0  0  0  0  0  0
   13.0695    6.3705   20.0375 N   0  0  0  0  0  0  0  0  0  0  0  0
    9.1913    8.0876   21.8361 N   0  0  0  0  0  0  0  0  0  0  0  0
   10.4739    9.4813   20.2889 C   0  0  0  0  0  0  0  0  0  0  0  0
    7.5551    7.1270   23.1200 O   0  0  0  0  0  0  0  0  0  0  0  0
  1 11  4  0
  1 21  4  0
  2  4  1  0
  2  8  1  0
  2 11  1  0
  3 10  4  0
  3 14  4  0
  4  5  1  0
  4 18  2  0
  6 12  1  0
  6 17  4  0
  6 23  4  0
  7  9  1  0
  7 13  4  0
  7 19  4  0
  9 20  1  0
 10 19  4  0
 11 25  4  0
 13 14  4  0
 15 16  4  0
 15 17  4  0
 15 21  4  0
 16 24  1  0
 16 25  4  0
 20 24  1  0
 20 26  2  0
 21 23  4  0
 22 23  1  0
M  END
$$$$

 Created by Python create_sdf_string function

 26 28  0  0  0  0  0  0  0  0999 V2000
   12.4616    8.6700   19.4180 N   0  0  0  0  0  0  0  0  0  0  0  0
   11.8329   10.8148   18.6769 N   0  0  0  0  0  0  0  0  0  0  0  0
    6.1021    2.5564   21.0678 C   0  0  0  0  0  0  0  0  0  0  0  0
   10.9097   11.8051   18.4804 C   0  0  0  0  0  0  0  0  0  0  0  0
   11.2280   12.9135   17.5669 C   0  0  0  0  0  0  0  0  0  0  0  0
   12.3782    5.4231   20.7777 C   0  0  0  0  0  0  0  0  0  0  0  0
    7.7365    4.6508   21.6987 C   0  0  0  0  0  0  0  0  0  0  0  0
   13.0186   11.0102   18.0020 C   0  0  0  0  0  0  0  0  0  0  0  0
    8.6628    5.7088   21.8871 N   0  0  0  0  0  0  0  0  0  0  0  0
    5.6516    3.5258   21.9140 C   0  0  0  0  0  0  0  0  0  0  0  0
   11.5863    9.6815   19.4539 C   0  0  0  0  0  0  0  0  0  0  0  0
   12.9648    4.1543   20.9205 C   0  0  0  0  0  0  0  0  0  0  0  0
    8.2089    3.6265   20.8929 C   0  0  0  0  0  0  0  0  0  0  0  0
    7.3827    2.5724   20.5432 C   0  0  0  0  0  0  0  0  0  0  0  0
   11.1529    7.2750   20.8025 C   0  0  0  0  0  0  0  0  0  0  0  0
   10.2573    8.3215   20.9827 C   0  0  0  0  0  0  0  0  0  0  0  0
   11.1606    5.9378   21.2366 N   0  0  0  0  0  0  0  0  0  0  0  0
    9.8932   11.6736   19.0677 O   0  0  0  0  0  0  0  0  0  0  0  0
    6.4470    4.5850   22.2321 C   0  0  0  0  0  0  0  0  0  0  0  0
    8.4619    6.9895   22.2968 C   0  0  0  0  0  0  0  0  0  0  0  0
   12.2747    7.5102   20.0420 C   0  0  0  0  0  0  0  0  0  0  0  0
   14.2544    6.2142   19.4191 C   0  0  0  0  0  0  0  0  0  0  0  0
   13.0695    6.3705   20.0375 N   0  0  0  0  0  0  0  0  0  0  0  0
    9.1913    8.0876   21.8361 N   0  0  0  0  0  0  0  0  0  0  0  0
   10.4739    9.4813   20.2889 C   0  0  0  0  0  0  0  0  0  0  0  0
    7.5551    7.1270   23.1200 O   0  0  0  0  0  0  0  0  0  0  0  0
  1 11  4  0
  1 21  4  0
  2  4  1  0
  2  8  1  0
  2 11  1  0
  3 10  4  0
  3 14  4  0
  4  5  1  0
  4 18  2  0
  6 12  1  0
  6 17  4  0
  6 23  4  0
  7  9  1  0
  7 13  4  0
  7 19  4  0
  9 20  1  0
 10 19  4  0
 11 25  4  0
 13 14  4  0
 15 16  4  0
 15 17  4  0
 15 21  4  0
 16 24  1  0
 16 25  4  0
 20 24  1  0
 20 26  2  0
 21 23  4  0
 22 23  1  0
M  END
$$$$

 Created by Python create_sdf_string function

 26 28  0  0  0  0  0  0  0  0999 V2000
   12.4616    8.6700   19.4180 N   0  0  0  0  0  0  0  0  0  0  0  0
   11.8329   10.8148   18.6769 N   0  0  0  0  0  0  0  0  0  0  0  0
    6.1021    2.5564   21.0678 C   0  0  0  0  0  0  0  0  0  0  0  0
   10.9097   11.8051   18.4804 C   0  0  0  0  0  0  0  0  0  0  0  0
   11.2280   12.9135   17.5669 C   0  0  0  0  0  0  0  0  0  0  0  0
   12.3782    5.4231   20.7777 C   0  0  0  0  0  0  0  0  0  0  0  0
    7.7365    4.6508   21.6987 C   0  0  0  0  0  0  0  0  0  0  0  0
   13.0186   11.0102   18.0020 C   0  0  0  0  0  0  0  0  0  0  0  0
    8.6628    5.7088   21.8871 N   0  0  0  0  0  0  0  0  0  0  0  0
    5.6516    3.5258   21.9140 C   0  0  0  0  0  0  0  0  0  0  0  0
   11.5863    9.6815   19.4539 C   0  0  0  0  0  0  0  0  0  0  0  0
   12.9648    4.1543   20.9205 C   0  0  0  0  0  0  0  0  0  0  0  0
    8.2089    3.6265   20.8929 C   0  0  0  0  0  0  0  0  0  0  0  0
    7.3827    2.5724   20.5432 C   0  0  0  0  0  0  0  0  0  0  0  0
   11.1529    7.2750   20.8025 C   0  0  0  0  0  0  0  0  0  0  0  0
   10.2573    8.3215   20.9827 C   0  0  0  0  0  0  0  0  0  0  0  0
   11.1606    5.9378   21.2366 N   0  0  0  0  0  0  0  0  0  0  0  0
    9.8932   11.6736   19.0677 O   0  0  0  0  0  0  0  0  0  0  0  0
    6.4470    4.5850   22.2321 C   0  0  0  0  0  0  0  0  0  0  0  0
    8.4619    6.9895   22.2968 C   0  0  0  0  0  0  0  0  0  0  0  0
   12.2747    7.5102   20.0420 C   0  0  0  0  0  0  0  0  0  0  0  0
   14.2544    6.2142   19.4191 C   0  0  0  0  0  0  0  0  0  0  0  0
   13.0695    6.3705   20.0375 N   0  0  0  0  0  0  0  0  0  0  0  0
    9.1913    8.0876   21.8361 N   0  0  0  0  0  0  0  0  0  0  0  0
   10.4739    9.4813   20.2889 C   0  0  0  0  0  0  0  0  0  0  0  0
    7.5551    7.1270   23.1200 O   0  0  0  0  0  0  0  0  0  0  0  0
  1 11  4  0
  1 21  4  0
  2  4  1  0
  2  8  1  0
  2 11  1  0
  3 10  4  0
  3 14  4  0
  4  5  1  0
  4 18  2  0
  6 12  1  0
  6 17  4  0
  6 23  4  0
  7  9  1  0
  7 13  4  0
  7 19  4  0
  9 20  1  0
 10 19  4  0
 11 25  4  0
 13 14  4  0
 15 16  4  0
 15 17  4  0
 15 21  4  0
 16 24  1  0
 16 25  4  0
 20 24  1  0
 20 26  2  0
 21 23  4  0
 22 23  1  0
M  END
$$$$

 Created by Python create_sdf_string function

 26 28  0  0  0  0  0  0  0  0999 V2000
   12.4616    8.6700   19.4180 N   0  0  0  0  0  0  0  0  0  0  0  0
   11.8329   10.8148   18.6769 N   0  0  0  0  0  0  0  0  0  0  0  0
    6.1021    2.5564   21.0678 C   0  0  0  0  0  0  0  0  0  0  0  0
   10.9097   11.8051   18.4804 C   0  0  0  0  0  0  0  0  0  0  0  0
   11.2280   12.9135   17.5669 C   0  0  0  0  0  0  0  0  0  0  0  0
   12.3782    5.4231   20.7777 C   0  0  0  0  0  0  0  0  0  0  0  0
    7.7365    4.6508   21.6987 C   0  0  0  0  0  0  0  0  0  0  0  0
   13.0186   11.0102   18.0020 C   0  0  0  0  0  0  0  0  0  0  0  0
    8.6628    5.7088   21.8871 N   0  0  0  0  0  0  0  0  0  0  0  0
    5.6516    3.5258   21.9140 C   0  0  0  0  0  0  0  0  0  0  0  0
   11.5863    9.6815   19.4539 C   0  0  0  0  0  0  0  0  0  0  0  0
   12.9648    4.1543   20.9205 C   0  0  0  0  0  0  0  0  0  0  0  0
    8.2089    3.6265   20.8929 C   0  0  0  0  0  0  0  0  0  0  0  0
    7.3827    2.5724   20.5432 C   0  0  0  0  0  0  0  0  0  0  0  0
   11.1529    7.2750   20.8025 C   0  0  0  0  0  0  0  0  0  0  0  0
   10.2573    8.3215   20.9827 C   0  0  0  0  0  0  0  0  0  0  0  0
   11.1606    5.9378   21.2366 N   0  0  0  0  0  0  0  0  0  0  0  0
    9.8932   11.6736   19.0677 O   0  0  0  0  0  0  0  0  0  0  0  0
    6.4470    4.5850   22.2321 C   0  0  0  0  0  0  0  0  0  0  0  0
    8.4619    6.9895   22.2968 C   0  0  0  0  0  0  0  0  0  0  0  0
   12.2747    7.5102   20.0420 C   0  0  0  0  0  0  0  0  0  0  0  0
   14.2544    6.2142   19.4191 C   0  0  0  0  0  0  0  0  0  0  0  0
   13.0695    6.3705   20.0375 N   0  0  0  0  0  0  0  0  0  0  0  0
    9.1913    8.0876   21.8361 N   0  0  0  0  0  0  0  0  0  0  0  0
   10.4739    9.4813   20.2889 C   0  0  0  0  0  0  0  0  0  0  0  0
    7.5551    7.1270   23.1200 O   0  0  0  0  0  0  0  0  0  0  0  0
  1 11  4  0
  1 21  4  0
  2  4  1  0
  2  8  1  0
  2 11  1  0
  3 10  4  0
  3 14  4  0
  4  5  1  0
  4 18  2  0
  6 12  1  0
  6 17  4  0
  6 23  4  0
  7  9  1  0
  7 13  4  0
  7 19  4  0
  9 20  1  0
 10 19  4  0
 11 25  4  0
 13 14  4  0
 15 16  4  0
 15 17  4  0
 15 21  4  0
 16 24  1  0
 16 25  4  0
 20 24  1  0
 20 26  2  0
 21 23  4  0
 22 23  1  0
M  END
$$$$

 Created by Python create_sdf_string function

 26 28  0  0  0  0  0  0  0  0999 V2000
   12.4616    8.6700   19.4180 N   0  0  0  0  0  0  0  0  0  0  0  0
   11.8329   10.8148   18.6769 N   0  0  0  0  0  0  0  0  0  0  0  0
    6.1021    2.5564   21.0678 C   0  0  0  0  0  0  0  0  0  0  0  0
   10.9097   11.8051   18.4804 C   0  0  0  0  0  0  0  0  0  0  0  0
   11.2280   12.9135   17.5669 C   0  0  0  0  0  0  0  0  0  0  0  0
   12.3782    5.4231   20.7777 C   0  0  0  0  0  0  0  0  0  0  0  0
    7.7365    4.6508   21.6987 C   0  0  0  0  0  0  0  0  0  0  0  0
   13.0186   11.0102   18.0020 C   0  0  0  0  0  0  0  0  0  0  0  0
    8.6628    5.7088   21.8871 N   0  0  0  0  0  0  0  0  0  0  0  0
    5.6516    3.5258   21.9140 C   0  0  0  0  0  0  0  0  0  0  0  0
   11.5863    9.6815   19.4539 C   0  0  0  0  0  0  0  0  0  0  0  0
   12.9648    4.1543   20.9205 C   0  0  0  0  0  0  0  0  0  0  0  0
    8.2089    3.6265   20.8929 C   0  0  0  0  0  0  0  0  0  0  0  0
    7.3827    2.5724   20.5432 C   0  0  0  0  0  0  0  0  0  0  0  0
   11.1529    7.2750   20.8025 C   0  0  0  0  0  0  0  0  0  0  0  0
   10.2573    8.3215   20.9827 C   0  0  0  0  0  0  0  0  0  0  0  0
   11.1606    5.9378   21.2366 N   0  0  0  0  0  0  0  0  0  0  0  0
    9.8932   11.6736   19.0677 O   0  0  0  0  0  0  0  0  0  0  0  0
    6.4470    4.5850   22.2321 C   0  0  0  0  0  0  0  0  0  0  0  0
    8.4619    6.9895   22.2968 C   0  0  0  0  0  0  0  0  0  0  0  0
   12.2747    7.5102   20.0420 C   0  0  0  0  0  0  0  0  0  0  0  0
   14.2544    6.2142   19.4191 C   0  0  0  0  0  0  0  0  0  0  0  0
   13.0695    6.3705   20.0375 N   0  0  0  0  0  0  0  0  0  0  0  0
    9.1913    8.0876   21.8361 N   0  0  0  0  0  0  0  0  0  0  0  0
   10.4739    9.4813   20.2889 C   0  0  0  0  0  0  0  0  0  0  0  0
    7.5551    7.1270   23.1200 O   0  0  0  0  0  0  0  0  0  0  0  0
  1 11  4  0
  1 21  4  0
  2  4  1  0
  2  8  1  0
  2 11  1  0
  3 10  4  0
  3 14  4  0
  4  5  1  0
  4 18  2  0
  6 12  1  0
  6 17  4  0
  6 23  4  0
  7  9  1  0
  7 13  4  0
  7 19  4  0
  9 20  1  0
 10 19  4  0
 11 25  4  0
 13 14  4  0
 15 16  4  0
 15 17  4  0
 15 21  4  0
 16 24  1  0
 16 25  4  0
 20 24  1  0
 20 26  2  0
 21 23  4  0
 22 23  1  0
M  END
$$$$

 Created by Python create_sdf_string function

 26 28  0  0  0  0  0  0  0  0999 V2000
   12.4616    8.6700   19.4180 N   0  0  0  0  0  0  0  0  0  0  0  0
   11.8329   10.8148   18.6769 N   0  0  0  0  0  0  0  0  0  0  0  0
    6.1021    2.5564   21.0678 C   0  0  0  0  0  0  0  0  0  0  0  0
   10.9097   11.8051   18.4804 C   0  0  0  0  0  0  0  0  0  0  0  0
   11.2280   12.9135   17.5669 C   0  0  0  0  0  0  0  0  0  0  0  0
   12.3782    5.4231   20.7777 C   0  0  0  0  0  0  0  0  0  0  0  0
    7.7365    4.6508   21.6987 C   0  0  0  0  0  0  0  0  0  0  0  0
   13.0186   11.0102   18.0020 C   0  0  0  0  0  0  0  0  0  0  0  0
    8.6628    5.7088   21.8871 N   0  0  0  0  0  0  0  0  0  0  0  0
    5.6516    3.5258   21.9140 C   0  0  0  0  0  0  0  0  0  0  0  0
   11.5863    9.6815   19.4539 C   0  0  0  0  0  0  0  0  0  0  0  0
   12.9648    4.1543   20.9205 C   0  0  0  0  0  0  0  0  0  0  0  0
    8.2089    3.6265   20.8929 C   0  0  0  0  0  0  0  0  0  0  0  0
    7.3827    2.5724   20.5432 C   0  0  0  0  0  0  0  0  0  0  0  0
   11.1529    7.2750   20.8025 C   0  0  0  0  0  0  0  0  0  0  0  0
   10.2573    8.3215   20.9827 C   0  0  0  0  0  0  0  0  0  0  0  0
   11.1606    5.9378   21.2366 N   0  0  0  0  0  0  0  0  0  0  0  0
    9.8932   11.6736   19.0677 O   0  0  0  0  0  0  0  0  0  0  0  0
    6.4470    4.5850   22.2321 C   0  0  0  0  0  0  0  0  0  0  0  0
    8.4619    6.9895   22.2968 C   0  0  0  0  0  0  0  0  0  0  0  0
   12.2747    7.5102   20.0420 C   0  0  0  0  0  0  0  0  0  0  0  0
   14.2544    6.2142   19.4191 C   0  0  0  0  0  0  0  0  0  0  0  0
   13.0695    6.3705   20.0375 N   0  0  0  0  0  0  0  0  0  0  0  0
    9.1913    8.0876   21.8361 N   0  0  0  0  0  0  0  0  0  0  0  0
   10.4739    9.4813   20.2889 C   0  0  0  0  0  0  0  0  0  0  0  0
    7.5551    7.1270   23.1200 O   0  0  0  0  0  0  0  0  0  0  0  0
  1 11  4  0
  1 21  4  0
  2  4  1  0
  2  8  1  0
  2 11  1  0
  3 10  4  0
  3 14  4  0
  4  5  1  0
  4 18  2  0
  6 12  1  0
  6 17  4  0
  6 23  4  0
  7  9  1  0
  7 13  4  0
  7 19  4  0
  9 20  1  0
 10 19  4  0
 11 25  4  0
 13 14  4  0
 15 16  4  0
 15 17  4  0
 15 21  4  0
 16 24  1  0
 16 25  4  0
 20 24  1  0
 20 26  2  0
 21 23  4  0
 22 23  1  0
M  END
$$$$

 Created by Python create_sdf_string function

 26 28  0  0  0  0  0  0  0  0999 V2000
   12.4616    8.6700   19.4180 N   0  0  0  0  0  0  0  0  0  0  0  0
   11.8329   10.8148   18.6769 N   0  0  0  0  0  0  0  0  0  0  0  0
    6.1021    2.5564   21.0678 C   0  0  0  0  0  0  0  0  0  0  0  0
   10.9097   11.8051   18.4804 C   0  0  0  0  0  0  0  0  0  0  0  0
   11.2280   12.9135   17.5669 C   0  0  0  0  0  0  0  0  0  0  0  0
   12.3782    5.4231   20.7777 C   0  0  0  0  0  0  0  0  0  0  0  0
    7.7365    4.6508   21.6987 C   0  0  0  0  0  0  0  0  0  0  0  0
   13.0186   11.0102   18.0020 C   0  0  0  0  0  0  0  0  0  0  0  0
    8.6628    5.7088   21.8871 N   0  0  0  0  0  0  0  0  0  0  0  0
    5.6516    3.5258   21.9140 C   0  0  0  0  0  0  0  0  0  0  0  0
   11.5863    9.6815   19.4539 C   0  0  0  0  0  0  0  0  0  0  0  0
   12.9648    4.1543   20.9205 C   0  0  0  0  0  0  0  0  0  0  0  0
    8.2089    3.6265   20.8929 C   0  0  0  0  0  0  0  0  0  0  0  0
    7.3827    2.5724   20.5432 C   0  0  0  0  0  0  0  0  0  0  0  0
   11.1529    7.2750   20.8025 C   0  0  0  0  0  0  0  0  0  0  0  0
   10.2573    8.3215   20.9827 C   0  0  0  0  0  0  0  0  0  0  0  0
   11.1606    5.9378   21.2366 N   0  0  0  0  0  0  0  0  0  0  0  0
    9.8932   11.6736   19.0677 O   0  0  0  0  0  0  0  0  0  0  0  0
    6.4470    4.5850   22.2321 C   0  0  0  0  0  0  0  0  0  0  0  0
    8.4619    6.9895   22.2968 C   0  0  0  0  0  0  0  0  0  0  0  0
   12.2747    7.5102   20.0420 C   0  0  0  0  0  0  0  0  0  0  0  0
   14.2544    6.2142   19.4191 C   0  0  0  0  0  0  0  0  0  0  0  0
   13.0695    6.3705   20.0375 N   0  0  0  0  0  0  0  0  0  0  0  0
    9.1913    8.0876   21.8361 N   0  0  0  0  0  0  0  0  0  0  0  0
   10.4739    9.4813   20.2889 C   0  0  0  0  0  0  0  0  0  0  0  0
    7.5551    7.1270   23.1200 O   0  0  0  0  0  0  0  0  0  0  0  0
  1 11  4  0
  1 21  4  0
  2  4  1  0
  2  8  1  0
  2 11  1  0
  3 10  4  0
  3 14  4  0
  4  5  1  0
  4 18  2  0
  6 12  1  0
  6 17  4  0
  6 23  4  0
  7  9  1  0
  7 13  4  0
  7 19  4  0
  9 20  1  0
 10 19  4  0
 11 25  4  0
 13 14  4  0
 15 16  4  0
 15 17  4  0
 15 21  4  0
 16 24  1  0
 16 25  4  0
 20 24  1  0
 20 26  2  0
 21 23  4  0
 22 23  1  0
M  END
$$$$

 Created by Python create_sdf_string function

 26 28  0  0  0  0  0  0  0  0999 V2000
   12.4616    8.6700   19.4180 N   0  0  0  0  0  0  0  0  0  0  0  0
   11.8329   10.8148   18.6769 N   0  0  0  0  0  0  0  0  0  0  0  0
    6.1021    2.5564   21.0678 C   0  0  0  0  0  0  0  0  0  0  0  0
   10.9097   11.8051   18.4804 C   0  0  0  0  0  0  0  0  0  0  0  0
   11.2280   12.9135   17.5669 C   0  0  0  0  0  0  0  0  0  0  0  0
   12.3782    5.4231   20.7777 C   0  0  0  0  0  0  0  0  0  0  0  0
    7.7365    4.6508   21.6987 C   0  0  0  0  0  0  0  0  0  0  0  0
   13.0186   11.0102   18.0020 C   0  0  0  0  0  0  0  0  0  0  0  0
    8.6628    5.7088   21.8871 N   0  0  0  0  0  0  0  0  0  0  0  0
    5.6516    3.5258   21.9140 C   0  0  0  0  0  0  0  0  0  0  0  0
   11.5863    9.6815   19.4539 C   0  0  0  0  0  0  0  0  0  0  0  0
   12.9648    4.1543   20.9205 C   0  0  0  0  0  0  0  0  0  0  0  0
    8.2089    3.6265   20.8929 C   0  0  0  0  0  0  0  0  0  0  0  0
    7.3827    2.5724   20.5432 C   0  0  0  0  0  0  0  0  0  0  0  0
   11.1529    7.2750   20.8025 C   0  0  0  0  0  0  0  0  0  0  0  0
   10.2573    8.3215   20.9827 C   0  0  0  0  0  0  0  0  0  0  0  0
   11.1606    5.9378   21.2366 N   0  0  0  0  0  0  0  0  0  0  0  0
    9.8932   11.6736   19.0677 O   0  0  0  0  0  0  0  0  0  0  0  0
    6.4470    4.5850   22.2321 C   0  0  0  0  0  0  0  0  0  0  0  0
    8.4619    6.9895   22.2968 C   0  0  0  0  0  0  0  0  0  0  0  0
   12.2747    7.5102   20.0420 C   0  0  0  0  0  0  0  0  0  0  0  0
   14.2544    6.2142   19.4191 C   0  0  0  0  0  0  0  0  0  0  0  0
   13.0695    6.3705   20.0375 N   0  0  0  0  0  0  0  0  0  0  0  0
    9.1913    8.0876   21.8361 N   0  0  0  0  0  0  0  0  0  0  0  0
   10.4739    9.4813   20.2889 C   0  0  0  0  0  0  0  0  0  0  0  0
    7.5551    7.1270   23.1200 O   0  0  0  0  0  0  0  0  0  0  0  0
  1 11  4  0
  1 21  4  0
  2  4  1  0
  2  8  1  0
  2 11  1  0
  3 10  4  0
  3 14  4  0
  4  5  1  0
  4 18  2  0
  6 12  1  0
  6 17  4  0
  6 23  4  0
  7  9  1  0
  7 13  4  0
  7 19  4  0
  9 20  1  0
 10 19  4  0
 11 25  4  0
 13 14  4  0
 15 16  4  0
 15 17  4  0
 15 21  4  0
 16 24  1  0
 16 25  4  0
 20 24  1  0
 20 26  2  0
 21 23  4  0
 22 23  1  0
M  END
$$$$

 Created by Python create_sdf_string function

 26 28  0  0  0  0  0  0  0  0999 V2000
   12.4616    8.6700   19.4180 N   0  0  0  0  0  0  0  0  0  0  0  0
   11.8329   10.8148   18.6769 N   0  0  0  0  0  0  0  0  0  0  0  0
    6.1021    2.5564   21.0678 C   0  0  0  0  0  0  0  0  0  0  0  0
   10.9097   11.8051   18.4804 C   0  0  0  0  0  0  0  0  0  0  0  0
   11.2280   12.9135   17.5669 C   0  0  0  0  0  0  0  0  0  0  0  0
   12.3782    5.4231   20.7777 C   0  0  0  0  0  0  0  0  0  0  0  0
    7.7365    4.6508   21.6987 C   0  0  0  0  0  0  0  0  0  0  0  0
   13.0186   11.0102   18.0020 C   0  0  0  0  0  0  0  0  0  0  0  0
    8.6628    5.7088   21.8871 N   0  0  0  0  0  0  0  0  0  0  0  0
    5.6516    3.5258   21.9140 C   0  0  0  0  0  0  0  0  0  0  0  0
   11.5863    9.6815   19.4539 C   0  0  0  0  0  0  0  0  0  0  0  0
   12.9648    4.1543   20.9205 C   0  0  0  0  0  0  0  0  0  0  0  0
    8.2089    3.6265   20.8929 C   0  0  0  0  0  0  0  0  0  0  0  0
    7.3827    2.5724   20.5432 C   0  0  0  0  0  0  0  0  0  0  0  0
   11.1529    7.2750   20.8025 C   0  0  0  0  0  0  0  0  0  0  0  0
   10.2573    8.3215   20.9827 C   0  0  0  0  0  0  0  0  0  0  0  0
   11.1606    5.9378   21.2366 N   0  0  0  0  0  0  0  0  0  0  0  0
    9.8932   11.6736   19.0677 O   0  0  0  0  0  0  0  0  0  0  0  0
    6.4470    4.5850   22.2321 C   0  0  0  0  0  0  0  0  0  0  0  0
    8.4619    6.9895   22.2968 C   0  0  0  0  0  0  0  0  0  0  0  0
   12.2747    7.5102   20.0420 C   0  0  0  0  0  0  0  0  0  0  0  0
   14.2544    6.2142   19.4191 C   0  0  0  0  0  0  0  0  0  0  0  0
   13.0695    6.3705   20.0375 N   0  0  0  0  0  0  0  0  0  0  0  0
    9.1913    8.0876   21.8361 N   0  0  0  0  0  0  0  0  0  0  0  0
   10.4739    9.4813   20.2889 C   0  0  0  0  0  0  0  0  0  0  0  0
    7.5551    7.1270   23.1200 O   0  0  0  0  0  0  0  0  0  0  0  0
  1 11  4  0
  1 21  4  0
  2  4  1  0
  2  8  1  0
  2 11  1  0
  3 10  4  0
  3 14  4  0
  4  5  1  0
  4 18  2  0
  6 12  1  0
  6 17  4  0
  6 23  4  0
  7  9  1  0
  7 13  4  0
  7 19  4  0
  9 20  1  0
 10 19  4  0
 11 25  4  0
 13 14  4  0
 15 16  4  0
 15 17  4  0
 15 21  4  0
 16 24  1  0
 16 25  4  0
 20 24  1  0
 20 26  2  0
 21 23  4  0
 22 23  1  0
M  END
$$$$

 Created by Python create_sdf_string function

 26 28  0  0  0  0  0  0  0  0999 V2000
   12.4616    8.6700   19.4180 N   0  0  0  0  0  0  0  0  0  0  0  0
   11.8329   10.8148   18.6769 N   0  0  0  0  0  0  0  0  0  0  0  0
    6.1021    2.5564   21.0678 C   0  0  0  0  0  0  0  0  0  0  0  0
   10.9097   11.8051   18.4804 C   0  0  0  0  0  0  0  0  0  0  0  0
   11.2280   12.9135   17.5669 C   0  0  0  0  0  0  0  0  0  0  0  0
   12.3782    5.4231   20.7777 C   0  0  0  0  0  0  0  0  0  0  0  0
    7.7365    4.6508   21.6987 C   0  0  0  0  0  0  0  0  0  0  0  0
   13.0186   11.0102   18.0020 C   0  0  0  0  0  0  0  0  0  0  0  0
    8.6628    5.7088   21.8871 N   0  0  0  0  0  0  0  0  0  0  0  0
    5.6516    3.5258   21.9140 C   0  0  0  0  0  0  0  0  0  0  0  0
   11.5863    9.6815   19.4539 C   0  0  0  0  0  0  0  0  0  0  0  0
   12.9648    4.1543   20.9205 C   0  0  0  0  0  0  0  0  0  0  0  0
    8.2089    3.6265   20.8929 C   0  0  0  0  0  0  0  0  0  0  0  0
    7.3827    2.5724   20.5432 C   0  0  0  0  0  0  0  0  0  0  0  0
   11.1529    7.2750   20.8025 C   0  0  0  0  0  0  0  0  0  0  0  0
   10.2573    8.3215   20.9827 C   0  0  0  0  0  0  0  0  0  0  0  0
   11.1606    5.9378   21.2366 N   0  0  0  0  0  0  0  0  0  0  0  0
    9.8932   11.6736   19.0677 O   0  0  0  0  0  0  0  0  0  0  0  0
    6.4470    4.5850   22.2321 C   0  0  0  0  0  0  0  0  0  0  0  0
    8.4619    6.9895   22.2968 C   0  0  0  0  0  0  0  0  0  0  0  0
   12.2747    7.5102   20.0420 C   0  0  0  0  0  0  0  0  0  0  0  0
   14.2544    6.2142   19.4191 C   0  0  0  0  0  0  0  0  0  0  0  0
   13.0695    6.3705   20.0375 N   0  0  0  0  0  0  0  0  0  0  0  0
    9.1913    8.0876   21.8361 N   0  0  0  0  0  0  0  0  0  0  0  0
   10.4739    9.4813   20.2889 C   0  0  0  0  0  0  0  0  0  0  0  0
    7.5551    7.1270   23.1200 O   0  0  0  0  0  0  0  0  0  0  0  0
  1 11  4  0
  1 21  4  0
  2  4  1  0
  2  8  1  0
  2 11  1  0
  3 10  4  0
  3 14  4  0
  4  5  1  0
  4 18  2  0
  6 12  1  0
  6 17  4  0
  6 23  4  0
  7  9  1  0
  7 13  4  0
  7 19  4  0
  9 20  1  0
 10 19  4  0
 11 25  4  0
 13 14  4  0
 15 16  4  0
 15 17  4  0
 15 21  4  0
 16 24  1  0
 16 25  4  0
 20 24  1  0
 20 26  2  0
 21 23  4  0
 22 23  1  0
M  END
$$$$

 Created by Python create_sdf_string function

 26 28  0  0  0  0  0  0  0  0999 V2000
   12.4616    8.6700   19.4180 N   0  0  0  0  0  0  0  0  0  0  0  0
   11.8329   10.8148   18.6769 N   0  0  0  0  0  0  0  0  0  0  0  0
    6.1021    2.5564   21.0678 C   0  0  0  0  0  0  0  0  0  0  0  0
   10.9097   11.8051   18.4804 C   0  0  0  0  0  0  0  0  0  0  0  0
   11.2280   12.9135   17.5669 C   0  0  0  0  0  0  0  0  0  0  0  0
   12.3782    5.4231   20.7777 C   0  0  0  0  0  0  0  0  0  0  0  0
    7.7365    4.6508   21.6987 C   0  0  0  0  0  0  0  0  0  0  0  0
   13.0186   11.0102   18.0020 C   0  0  0  0  0  0  0  0  0  0  0  0
    8.6628    5.7088   21.8871 N   0  0  0  0  0  0  0  0  0  0  0  0
    5.6516    3.5258   21.9140 C   0  0  0  0  0  0  0  0  0  0  0  0
   11.5863    9.6815   19.4539 C   0  0  0  0  0  0  0  0  0  0  0  0
   12.9648    4.1543   20.9205 C   0  0  0  0  0  0  0  0  0  0  0  0
    8.2089    3.6265   20.8929 C   0  0  0  0  0  0  0  0  0  0  0  0
    7.3827    2.5724   20.5432 C   0  0  0  0  0  0  0  0  0  0  0  0
   11.1529    7.2750   20.8025 C   0  0  0  0  0  0  0  0  0  0  0  0
   10.2573    8.3215   20.9827 C   0  0  0  0  0  0  0  0  0  0  0  0
   11.1606    5.9378   21.2366 N   0  0  0  0  0  0  0  0  0  0  0  0
    9.8932   11.6736   19.0677 O   0  0  0  0  0  0  0  0  0  0  0  0
    6.4470    4.5850   22.2321 C   0  0  0  0  0  0  0  0  0  0  0  0
    8.4619    6.9895   22.2968 C   0  0  0  0  0  0  0  0  0  0  0  0
   12.2747    7.5102   20.0420 C   0  0  0  0  0  0  0  0  0  0  0  0
   14.2544    6.2142   19.4191 C   0  0  0  0  0  0  0  0  0  0  0  0
   13.0695    6.3705   20.0375 N   0  0  0  0  0  0  0  0  0  0  0  0
    9.1913    8.0876   21.8361 N   0  0  0  0  0  0  0  0  0  0  0  0
   10.4739    9.4813   20.2889 C   0  0  0  0  0  0  0  0  0  0  0  0
    7.5551    7.1270   23.1200 O   0  0  0  0  0  0  0  0  0  0  0  0
  1 11  4  0
  1 21  4  0
  2  4  1  0
  2  8  1  0
  2 11  1  0
  3 10  4  0
  3 14  4  0
  4  5  1  0
  4 18  2  0
  6 12  1  0
  6 17  4  0
  6 23  4  0
  7  9  1  0
  7 13  4  0
  7 19  4  0
  9 20  1  0
 10 19  4  0
 11 25  4  0
 13 14  4  0
 15 16  4  0
 15 17  4  0
 15 21  4  0
 16 24  1  0
 16 25  4  0
 20 24  1  0
 20 26  2  0
 21 23  4  0
 22 23  1  0
M  END
$$$$

 Created by Python create_sdf_string function

 26 28  0  0  0  0  0  0  0  0999 V2000
   12.4616    8.6700   19.4180 N   0  0  0  0  0  0  0  0  0  0  0  0
   11.8329   10.8148   18.6769 N   0  0  0  0  0  0  0  0  0  0  0  0
    6.1021    2.5564   21.0678 C   0  0  0  0  0  0  0  0  0  0  0  0
   10.9097   11.8051   18.4804 C   0  0  0  0  0  0  0  0  0  0  0  0
   11.2280   12.9135   17.5669 C   0  0  0  0  0  0  0  0  0  0  0  0
   12.3782    5.4231   20.7777 C   0  0  0  0  0  0  0  0  0  0  0  0
    7.7365    4.6508   21.6987 C   0  0  0  0  0  0  0  0  0  0  0  0
   13.0186   11.0102   18.0020 C   0  0  0  0  0  0  0  0  0  0  0  0
    8.6628    5.7088   21.8871 N   0  0  0  0  0  0  0  0  0  0  0  0
    5.6516    3.5258   21.9140 C   0  0  0  0  0  0  0  0  0  0  0  0
   11.5863    9.6815   19.4539 C   0  0  0  0  0  0  0  0  0  0  0  0
   12.9648    4.1543   20.9205 C   0  0  0  0  0  0  0  0  0  0  0  0
    8.2089    3.6265   20.8929 C   0  0  0  0  0  0  0  0  0  0  0  0
    7.3827    2.5724   20.5432 C   0  0  0  0  0  0  0  0  0  0  0  0
   11.1529    7.2750   20.8025 C   0  0  0  0  0  0  0  0  0  0  0  0
   10.2573    8.3215   20.9827 C   0  0  0  0  0  0  0  0  0  0  0  0
   11.1606    5.9378   21.2366 N   0  0  0  0  0  0  0  0  0  0  0  0
    9.8932   11.6736   19.0677 O   0  0  0  0  0  0  0  0  0  0  0  0
    6.4470    4.5850   22.2321 C   0  0  0  0  0  0  0  0  0  0  0  0
    8.4619    6.9895   22.2968 C   0  0  0  0  0  0  0  0  0  0  0  0
   12.2747    7.5102   20.0420 C   0  0  0  0  0  0  0  0  0  0  0  0
   14.2544    6.2142   19.4191 C   0  0  0  0  0  0  0  0  0  0  0  0
   13.0695    6.3705   20.0375 N   0  0  0  0  0  0  0  0  0  0  0  0
    9.1913    8.0876   21.8361 N   0  0  0  0  0  0  0  0  0  0  0  0
   10.4739    9.4813   20.2889 C   0  0  0  0  0  0  0  0  0  0  0  0
    7.5551    7.1270   23.1200 O   0  0  0  0  0  0  0  0  0  0  0  0
  1 11  4  0
  1 21  4  0
  2  4  1  0
  2  8  1  0
  2 11  1  0
  3 10  4  0
  3 14  4  0
  4  5  1  0
  4 18  2  0
  6 12  1  0
  6 17  4  0
  6 23  4  0
  7  9  1  0
  7 13  4  0
  7 19  4  0
  9 20  1  0
 10 19  4  0
 11 25  4  0
 13 14  4  0
 15 16  4  0
 15 17  4  0
 15 21  4  0
 16 24  1  0
 16 25  4  0
 20 24  1  0
 20 26  2  0
 21 23  4  0
 22 23  1  0
M  END
$$$$

 Created by Python create_sdf_string function

 26 28  0  0  0  0  0  0  0  0999 V2000
   12.4616    8.6700   19.4180 N   0  0  0  0  0  0  0  0  0  0  0  0
   11.8329   10.8148   18.6769 N   0  0  0  0  0  0  0  0  0  0  0  0
    6.1021    2.5564   21.0678 C   0  0  0  0  0  0  0  0  0  0  0  0
   10.9097   11.8051   18.4804 C   0  0  0  0  0  0  0  0  0  0  0  0
   11.2280   12.9135   17.5669 C   0  0  0  0  0  0  0  0  0  0  0  0
   12.3782    5.4231   20.7777 C   0  0  0  0  0  0  0  0  0  0  0  0
    7.7365    4.6508   21.6987 C   0  0  0  0  0  0  0  0  0  0  0  0
   13.0186   11.0102   18.0020 C   0  0  0  0  0  0  0  0  0  0  0  0
    8.6628    5.7088   21.8871 N   0  0  0  0  0  0  0  0  0  0  0  0
    5.6516    3.5258   21.9140 C   0  0  0  0  0  0  0  0  0  0  0  0
   11.5863    9.6815   19.4539 C   0  0  0  0  0  0  0  0  0  0  0  0
   12.9648    4.1543   20.9205 C   0  0  0  0  0  0  0  0  0  0  0  0
    8.2089    3.6265   20.8929 C   0  0  0  0  0  0  0  0  0  0  0  0
    7.3827    2.5724   20.5432 C   0  0  0  0  0  0  0  0  0  0  0  0
   11.1529    7.2750   20.8025 C   0  0  0  0  0  0  0  0  0  0  0  0
   10.2573    8.3215   20.9827 C   0  0  0  0  0  0  0  0  0  0  0  0
   11.1606    5.9378   21.2366 N   0  0  0  0  0  0  0  0  0  0  0  0
    9.8932   11.6736   19.0677 O   0  0  0  0  0  0  0  0  0  0  0  0
    6.4470    4.5850   22.2321 C   0  0  0  0  0  0  0  0  0  0  0  0
    8.4619    6.9895   22.2968 C   0  0  0  0  0  0  0  0  0  0  0  0
   12.2747    7.5102   20.0420 C   0  0  0  0  0  0  0  0  0  0  0  0
   14.2544    6.2142   19.4191 C   0  0  0  0  0  0  0  0  0  0  0  0
   13.0695    6.3705   20.0375 N   0  0  0  0  0  0  0  0  0  0  0  0
    9.1913    8.0876   21.8361 N   0  0  0  0  0  0  0  0  0  0  0  0
   10.4739    9.4813   20.2889 C   0  0  0  0  0  0  0  0  0  0  0  0
    7.5551    7.1270   23.1200 O   0  0  0  0  0  0  0  0  0  0  0  0
  1 11  4  0
  1 21  4  0
  2  4  1  0
  2  8  1  0
  2 11  1  0
  3 10  4  0
  3 14  4  0
  4  5  1  0
  4 18  2  0
  6 12  1  0
  6 17  4  0
  6 23  4  0
  7  9  1  0
  7 13  4  0
  7 19  4  0
  9 20  1  0
 10 19  4  0
 11 25  4  0
 13 14  4  0
 15 16  4  0
 15 17  4  0
 15 21  4  0
 16 24  1  0
 16 25  4  0
 20 24  1  0
 20 26  2  0
 21 23  4  0
 22 23  1  0
M  END
$$$$

 Created by Python create_sdf_string function

 26 28  0  0  0  0  0  0  0  0999 V2000
   12.4616    8.6700   19.4180 N   0  0  0  0  0  0  0  0  0  0  0  0
   11.8329   10.8148   18.6769 N   0  0  0  0  0  0  0  0  0  0  0  0
    6.1021    2.5564   21.0678 C   0  0  0  0  0  0  0  0  0  0  0  0
   10.9097   11.8051   18.4804 C   0  0  0  0  0  0  0  0  0  0  0  0
   11.2280   12.9135   17.5669 C   0  0  0  0  0  0  0  0  0  0  0  0
   12.3782    5.4231   20.7777 C   0  0  0  0  0  0  0  0  0  0  0  0
    7.7365    4.6508   21.6987 C   0  0  0  0  0  0  0  0  0  0  0  0
   13.0186   11.0102   18.0020 C   0  0  0  0  0  0  0  0  0  0  0  0
    8.6628    5.7088   21.8871 N   0  0  0  0  0  0  0  0  0  0  0  0
    5.6516    3.5258   21.9140 C   0  0  0  0  0  0  0  0  0  0  0  0
   11.5863    9.6815   19.4539 C   0  0  0  0  0  0  0  0  0  0  0  0
   12.9648    4.1543   20.9205 C   0  0  0  0  0  0  0  0  0  0  0  0
    8.2089    3.6265   20.8929 C   0  0  0  0  0  0  0  0  0  0  0  0
    7.3827    2.5724   20.5432 C   0  0  0  0  0  0  0  0  0  0  0  0
   11.1529    7.2750   20.8025 C   0  0  0  0  0  0  0  0  0  0  0  0
   10.2573    8.3215   20.9827 C   0  0  0  0  0  0  0  0  0  0  0  0
   11.1606    5.9378   21.2366 N   0  0  0  0  0  0  0  0  0  0  0  0
    9.8932   11.6736   19.0677 O   0  0  0  0  0  0  0  0  0  0  0  0
    6.4470    4.5850   22.2321 C   0  0  0  0  0  0  0  0  0  0  0  0
    8.4619    6.9895   22.2968 C   0  0  0  0  0  0  0  0  0  0  0  0
   12.2747    7.5102   20.0420 C   0  0  0  0  0  0  0  0  0  0  0  0
   14.2544    6.2142   19.4191 C   0  0  0  0  0  0  0  0  0  0  0  0
   13.0695    6.3705   20.0375 N   0  0  0  0  0  0  0  0  0  0  0  0
    9.1913    8.0876   21.8361 N   0  0  0  0  0  0  0  0  0  0  0  0
   10.4739    9.4813   20.2889 C   0  0  0  0  0  0  0  0  0  0  0  0
    7.5551    7.1270   23.1200 O   0  0  0  0  0  0  0  0  0  0  0  0
  1 11  4  0
  1 21  4  0
  2  4  1  0
  2  8  1  0
  2 11  1  0
  3 10  4  0
  3 14  4  0
  4  5  1  0
  4 18  2  0
  6 12  1  0
  6 17  4  0
  6 23  4  0
  7  9  1  0
  7 13  4  0
  7 19  4  0
  9 20  1  0
 10 19  4  0
 11 25  4  0
 13 14  4  0
 15 16  4  0
 15 17  4  0
 15 21  4  0
 16 24  1  0
 16 25  4  0
 20 24  1  0
 20 26  2  0
 21 23  4  0
 22 23  1  0
M  END
$$$$

 Created by Python create_sdf_string function

 26 28  0  0  0  0  0  0  0  0999 V2000
   12.4616    8.6700   19.4180 N   0  0  0  0  0  0  0  0  0  0  0  0
   11.8329   10.8148   18.6769 N   0  0  0  0  0  0  0  0  0  0  0  0
    6.1021    2.5564   21.0678 C   0  0  0  0  0  0  0  0  0  0  0  0
   10.9097   11.8051   18.4804 C   0  0  0  0  0  0  0  0  0  0  0  0
   11.2280   12.9135   17.5669 C   0  0  0  0  0  0  0  0  0  0  0  0
   12.3782    5.4231   20.7777 C   0  0  0  0  0  0  0  0  0  0  0  0
    7.7365    4.6508   21.6987 C   0  0  0  0  0  0  0  0  0  0  0  0
   13.0186   11.0102   18.0020 C   0  0  0  0  0  0  0  0  0  0  0  0
    8.6628    5.7088   21.8871 N   0  0  0  0  0  0  0  0  0  0  0  0
    5.6516    3.5258   21.9140 C   0  0  0  0  0  0  0  0  0  0  0  0
   11.5863    9.6815   19.4539 C   0  0  0  0  0  0  0  0  0  0  0  0
   12.9648    4.1543   20.9205 C   0  0  0  0  0  0  0  0  0  0  0  0
    8.2089    3.6265   20.8929 C   0  0  0  0  0  0  0  0  0  0  0  0
    7.3827    2.5724   20.5432 C   0  0  0  0  0  0  0  0  0  0  0  0
   11.1529    7.2750   20.8025 C   0  0  0  0  0  0  0  0  0  0  0  0
   10.2573    8.3215   20.9827 C   0  0  0  0  0  0  0  0  0  0  0  0
   11.1606    5.9378   21.2366 N   0  0  0  0  0  0  0  0  0  0  0  0
    9.8932   11.6736   19.0677 O   0  0  0  0  0  0  0  0  0  0  0  0
    6.4470    4.5850   22.2321 C   0  0  0  0  0  0  0  0  0  0  0  0
    8.4619    6.9895   22.2968 C   0  0  0  0  0  0  0  0  0  0  0  0
   12.2747    7.5102   20.0420 C   0  0  0  0  0  0  0  0  0  0  0  0
   14.2544    6.2142   19.4191 C   0  0  0  0  0  0  0  0  0  0  0  0
   13.0695    6.3705   20.0375 N   0  0  0  0  0  0  0  0  0  0  0  0
    9.1913    8.0876   21.8361 N   0  0  0  0  0  0  0  0  0  0  0  0
   10.4739    9.4813   20.2889 C   0  0  0  0  0  0  0  0  0  0  0  0
    7.5551    7.1270   23.1200 O   0  0  0  0  0  0  0  0  0  0  0  0
  1 11  4  0
  1 21  4  0
  2  4  1  0
  2  8  1  0
  2 11  1  0
  3 10  4  0
  3 14  4  0
  4  5  1  0
  4 18  2  0
  6 12  1  0
  6 17  4  0
  6 23  4  0
  7  9  1  0
  7 13  4  0
  7 19  4  0
  9 20  1  0
 10 19  4  0
 11 25  4  0
 13 14  4  0
 15 16  4  0
 15 17  4  0
 15 21  4  0
 16 24  1  0
 16 25  4  0
 20 24  1  0
 20 26  2  0
 21 23  4  0
 22 23  1  0
M  END
$$$$

 Created by Python create_sdf_string function

 26 28  0  0  0  0  0  0  0  0999 V2000
   12.4616    8.6700   19.4180 N   0  0  0  0  0  0  0  0  0  0  0  0
   11.8329   10.8148   18.6769 N   0  0  0  0  0  0  0  0  0  0  0  0
    6.1021    2.5564   21.0678 C   0  0  0  0  0  0  0  0  0  0  0  0
   10.9097   11.8051   18.4804 C   0  0  0  0  0  0  0  0  0  0  0  0
   11.2280   12.9135   17.5669 C   0  0  0  0  0  0  0  0  0  0  0  0
   12.3782    5.4231   20.7777 C   0  0  0  0  0  0  0  0  0  0  0  0
    7.7365    4.6508   21.6987 C   0  0  0  0  0  0  0  0  0  0  0  0
   13.0186   11.0102   18.0020 C   0  0  0  0  0  0  0  0  0  0  0  0
    8.6628    5.7088   21.8871 N   0  0  0  0  0  0  0  0  0  0  0  0
    5.6516    3.5258   21.9140 C   0  0  0  0  0  0  0  0  0  0  0  0
   11.5863    9.6815   19.4539 C   0  0  0  0  0  0  0  0  0  0  0  0
   12.9648    4.1543   20.9205 C   0  0  0  0  0  0  0  0  0  0  0  0
    8.2089    3.6265   20.8929 C   0  0  0  0  0  0  0  0  0  0  0  0
    7.3827    2.5724   20.5432 C   0  0  0  0  0  0  0  0  0  0  0  0
   11.1529    7.2750   20.8025 C   0  0  0  0  0  0  0  0  0  0  0  0
   10.2573    8.3215   20.9827 C   0  0  0  0  0  0  0  0  0  0  0  0
   11.1606    5.9378   21.2366 N   0  0  0  0  0  0  0  0  0  0  0  0
    9.8932   11.6736   19.0677 O   0  0  0  0  0  0  0  0  0  0  0  0
    6.4470    4.5850   22.2321 C   0  0  0  0  0  0  0  0  0  0  0  0
    8.4619    6.9895   22.2968 C   0  0  0  0  0  0  0  0  0  0  0  0
   12.2747    7.5102   20.0420 C   0  0  0  0  0  0  0  0  0  0  0  0
   14.2544    6.2142   19.4191 C   0  0  0  0  0  0  0  0  0  0  0  0
   13.0695    6.3705   20.0375 N   0  0  0  0  0  0  0  0  0  0  0  0
    9.1913    8.0876   21.8361 N   0  0  0  0  0  0  0  0  0  0  0  0
   10.4739    9.4813   20.2889 C   0  0  0  0  0  0  0  0  0  0  0  0
    7.5551    7.1270   23.1200 O   0  0  0  0  0  0  0  0  0  0  0  0
  1 11  4  0
  1 21  4  0
  2  4  1  0
  2  8  1  0
  2 11  1  0
  3 10  4  0
  3 14  4  0
  4  5  1  0
  4 18  2  0
  6 12  1  0
  6 17  4  0
  6 23  4  0
  7  9  1  0
  7 13  4  0
  7 19  4  0
  9 20  1  0
 10 19  4  0
 11 25  4  0
 13 14  4  0
 15 16  4  0
 15 17  4  0
 15 21  4  0
 16 24  1  0
 16 25  4  0
 20 24  1  0
 20 26  2  0
 21 23  4  0
 22 23  1  0
M  END
$$$$

 Created by Python create_sdf_string function

 26 28  0  0  0  0  0  0  0  0999 V2000
   12.4616    8.6700   19.4180 N   0  0  0  0  0  0  0  0  0  0  0  0
   11.8329   10.8148   18.6769 N   0  0  0  0  0  0  0  0  0  0  0  0
    6.1021    2.5564   21.0678 C   0  0  0  0  0  0  0  0  0  0  0  0
   10.9097   11.8051   18.4804 C   0  0  0  0  0  0  0  0  0  0  0  0
   11.2280   12.9135   17.5669 C   0  0  0  0  0  0  0  0  0  0  0  0
   12.3782    5.4231   20.7777 C   0  0  0  0  0  0  0  0  0  0  0  0
    7.7365    4.6508   21.6987 C   0  0  0  0  0  0  0  0  0  0  0  0
   13.0186   11.0102   18.0020 C   0  0  0  0  0  0  0  0  0  0  0  0
    8.6628    5.7088   21.8871 N   0  0  0  0  0  0  0  0  0  0  0  0
    5.6516    3.5258   21.9140 C   0  0  0  0  0  0  0  0  0  0  0  0
   11.5863    9.6815   19.4539 C   0  0  0  0  0  0  0  0  0  0  0  0
   12.9648    4.1543   20.9205 C   0  0  0  0  0  0  0  0  0  0  0  0
    8.2089    3.6265   20.8929 C   0  0  0  0  0  0  0  0  0  0  0  0
    7.3827    2.5724   20.5432 C   0  0  0  0  0  0  0  0  0  0  0  0
   11.1529    7.2750   20.8025 C   0  0  0  0  0  0  0  0  0  0  0  0
   10.2573    8.3215   20.9827 C   0  0  0  0  0  0  0  0  0  0  0  0
   11.1606    5.9378   21.2366 N   0  0  0  0  0  0  0  0  0  0  0  0
    9.8932   11.6736   19.0677 O   0  0  0  0  0  0  0  0  0  0  0  0
    6.4470    4.5850   22.2321 C   0  0  0  0  0  0  0  0  0  0  0  0
    8.4619    6.9895   22.2968 C   0  0  0  0  0  0  0  0  0  0  0  0
   12.2747    7.5102   20.0420 C   0  0  0  0  0  0  0  0  0  0  0  0
   14.2544    6.2142   19.4191 C   0  0  0  0  0  0  0  0  0  0  0  0
   13.0695    6.3705   20.0375 N   0  0  0  0  0  0  0  0  0  0  0  0
    9.1913    8.0876   21.8361 N   0  0  0  0  0  0  0  0  0  0  0  0
   10.4739    9.4813   20.2889 C   0  0  0  0  0  0  0  0  0  0  0  0
    7.5551    7.1270   23.1200 O   0  0  0  0  0  0  0  0  0  0  0  0
  1 11  4  0
  1 21  4  0
  2  4  1  0
  2  8  1  0
  2 11  1  0
  3 10  4  0
  3 14  4  0
  4  5  1  0
  4 18  2  0
  6 12  1  0
  6 17  4  0
  6 23  4  0
  7  9  1  0
  7 13  4  0
  7 19  4  0
  9 20  1  0
 10 19  4  0
 11 25  4  0
 13 14  4  0
 15 16  4  0
 15 17  4  0
 15 21  4  0
 16 24  1  0
 16 25  4  0
 20 24  1  0
 20 26  2  0
 21 23  4  0
 22 23  1  0
M  END
$$$$

 Created by Python create_sdf_string function

 26 28  0  0  0  0  0  0  0  0999 V2000
   12.4616    8.6700   19.4180 N   0  0  0  0  0  0  0  0  0  0  0  0
   11.8329   10.8148   18.6769 N   0  0  0  0  0  0  0  0  0  0  0  0
    6.1021    2.5564   21.0678 C   0  0  0  0  0  0  0  0  0  0  0  0
   10.9097   11.8051   18.4804 C   0  0  0  0  0  0  0  0  0  0  0  0
   11.2280   12.9135   17.5669 C   0  0  0  0  0  0  0  0  0  0  0  0
   12.3782    5.4231   20.7777 C   0  0  0  0  0  0  0  0  0  0  0  0
    7.7365    4.6508   21.6987 C   0  0  0  0  0  0  0  0  0  0  0  0
   13.0186   11.0102   18.0020 C   0  0  0  0  0  0  0  0  0  0  0  0
    8.6628    5.7088   21.8871 N   0  0  0  0  0  0  0  0  0  0  0  0
    5.6516    3.5258   21.9140 C   0  0  0  0  0  0  0  0  0  0  0  0
   11.5863    9.6815   19.4539 C   0  0  0  0  0  0  0  0  0  0  0  0
   12.9648    4.1543   20.9205 C   0  0  0  0  0  0  0  0  0  0  0  0
    8.2089    3.6265   20.8929 C   0  0  0  0  0  0  0  0  0  0  0  0
    7.3827    2.5724   20.5432 C   0  0  0  0  0  0  0  0  0  0  0  0
   11.1529    7.2750   20.8025 C   0  0  0  0  0  0  0  0  0  0  0  0
   10.2573    8.3215   20.9827 C   0  0  0  0  0  0  0  0  0  0  0  0
   11.1606    5.9378   21.2366 N   0  0  0  0  0  0  0  0  0  0  0  0
    9.8932   11.6736   19.0677 O   0  0  0  0  0  0  0  0  0  0  0  0
    6.4470    4.5850   22.2321 C   0  0  0  0  0  0  0  0  0  0  0  0
    8.4619    6.9895   22.2968 C   0  0  0  0  0  0  0  0  0  0  0  0
   12.2747    7.5102   20.0420 C   0  0  0  0  0  0  0  0  0  0  0  0
   14.2544    6.2142   19.4191 C   0  0  0  0  0  0  0  0  0  0  0  0
   13.0695    6.3705   20.0375 N   0  0  0  0  0  0  0  0  0  0  0  0
    9.1913    8.0876   21.8361 N   0  0  0  0  0  0  0  0  0  0  0  0
   10.4739    9.4813   20.2889 C   0  0  0  0  0  0  0  0  0  0  0  0
    7.5551    7.1270   23.1200 O   0  0  0  0  0  0  0  0  0  0  0  0
  1 11  4  0
  1 21  4  0
  2  4  1  0
  2  8  1  0
  2 11  1  0
  3 10  4  0
  3 14  4  0
  4  5  1  0
  4 18  2  0
  6 12  1  0
  6 17  4  0
  6 23  4  0
  7  9  1  0
  7 13  4  0
  7 19  4  0
  9 20  1  0
 10 19  4  0
 11 25  4  0
 13 14  4  0
 15 16  4  0
 15 17  4  0
 15 21  4  0
 16 24  1  0
 16 25  4  0
 20 24  1  0
 20 26  2  0
 21 23  4  0
 22 23  1  0
M  END
$$$$

 Created by Python create_sdf_string function

 26 28  0  0  0  0  0  0  0  0999 V2000
   12.4616    8.6700   19.4180 N   0  0  0  0  0  0  0  0  0  0  0  0
   11.8329   10.8148   18.6769 N   0  0  0  0  0  0  0  0  0  0  0  0
    6.1021    2.5564   21.0678 C   0  0  0  0  0  0  0  0  0  0  0  0
   10.9097   11.8051   18.4804 C   0  0  0  0  0  0  0  0  0  0  0  0
   11.2280   12.9135   17.5669 C   0  0  0  0  0  0  0  0  0  0  0  0
   12.3782    5.4231   20.7777 C   0  0  0  0  0  0  0  0  0  0  0  0
    7.7365    4.6508   21.6987 C   0  0  0  0  0  0  0  0  0  0  0  0
   13.0186   11.0102   18.0020 C   0  0  0  0  0  0  0  0  0  0  0  0
    8.6628    5.7088   21.8871 N   0  0  0  0  0  0  0  0  0  0  0  0
    5.6516    3.5258   21.9140 C   0  0  0  0  0  0  0  0  0  0  0  0
   11.5863    9.6815   19.4539 C   0  0  0  0  0  0  0  0  0  0  0  0
   12.9648    4.1543   20.9205 C   0  0  0  0  0  0  0  0  0  0  0  0
    8.2089    3.6265   20.8929 C   0  0  0  0  0  0  0  0  0  0  0  0
    7.3827    2.5724   20.5432 C   0  0  0  0  0  0  0  0  0  0  0  0
   11.1529    7.2750   20.8025 C   0  0  0  0  0  0  0  0  0  0  0  0
   10.2573    8.3215   20.9827 C   0  0  0  0  0  0  0  0  0  0  0  0
   11.1606    5.9378   21.2366 N   0  0  0  0  0  0  0  0  0  0  0  0
    9.8932   11.6736   19.0677 O   0  0  0  0  0  0  0  0  0  0  0  0
    6.4470    4.5850   22.2321 C   0  0  0  0  0  0  0  0  0  0  0  0
    8.4619    6.9895   22.2968 C   0  0  0  0  0  0  0  0  0  0  0  0
   12.2747    7.5102   20.0420 C   0  0  0  0  0  0  0  0  0  0  0  0
   14.2544    6.2142   19.4191 C   0  0  0  0  0  0  0  0  0  0  0  0
   13.0695    6.3705   20.0375 N   0  0  0  0  0  0  0  0  0  0  0  0
    9.1913    8.0876   21.8361 N   0  0  0  0  0  0  0  0  0  0  0  0
   10.4739    9.4813   20.2889 C   0  0  0  0  0  0  0  0  0  0  0  0
    7.5551    7.1270   23.1200 O   0  0  0  0  0  0  0  0  0  0  0  0
  1 11  4  0
  1 21  4  0
  2  4  1  0
  2  8  1  0
  2 11  1  0
  3 10  4  0
  3 14  4  0
  4  5  1  0
  4 18  2  0
  6 12  1  0
  6 17  4  0
  6 23  4  0
  7  9  1  0
  7 13  4  0
  7 19  4  0
  9 20  1  0
 10 19  4  0
 11 25  4  0
 13 14  4  0
 15 16  4  0
 15 17  4  0
 15 21  4  0
 16 24  1  0
 16 25  4  0
 20 24  1  0
 20 26  2  0
 21 23  4  0
 22 23  1  0
M  END
$$$$

 Created by Python create_sdf_string function

 26 28  0  0  0  0  0  0  0  0999 V2000
   12.4616    8.6700   19.4180 N   0  0  0  0  0  0  0  0  0  0  0  0
   11.8329   10.8148   18.6769 N   0  0  0  0  0  0  0  0  0  0  0  0
    6.1021    2.5564   21.0678 C   0  0  0  0  0  0  0  0  0  0  0  0
   10.9097   11.8051   18.4804 C   0  0  0  0  0  0  0  0  0  0  0  0
   11.2280   12.9135   17.5669 C   0  0  0  0  0  0  0  0  0  0  0  0
   12.3782    5.4231   20.7777 C   0  0  0  0  0  0  0  0  0  0  0  0
    7.7365    4.6508   21.6987 C   0  0  0  0  0  0  0  0  0  0  0  0
   13.0186   11.0102   18.0020 C   0  0  0  0  0  0  0  0  0  0  0  0
    8.6628    5.7088   21.8871 N   0  0  0  0  0  0  0  0  0  0  0  0
    5.6516    3.5258   21.9140 C   0  0  0  0  0  0  0  0  0  0  0  0
   11.5863    9.6815   19.4539 C   0  0  0  0  0  0  0  0  0  0  0  0
   12.9648    4.1543   20.9205 C   0  0  0  0  0  0  0  0  0  0  0  0
    8.2089    3.6265   20.8929 C   0  0  0  0  0  0  0  0  0  0  0  0
    7.3827    2.5724   20.5432 C   0  0  0  0  0  0  0  0  0  0  0  0
   11.1529    7.2750   20.8025 C   0  0  0  0  0  0  0  0  0  0  0  0
   10.2573    8.3215   20.9827 C   0  0  0  0  0  0  0  0  0  0  0  0
   11.1606    5.9378   21.2366 N   0  0  0  0  0  0  0  0  0  0  0  0
    9.8932   11.6736   19.0677 O   0  0  0  0  0  0  0  0  0  0  0  0
    6.4470    4.5850   22.2321 C   0  0  0  0  0  0  0  0  0  0  0  0
    8.4619    6.9895   22.2968 C   0  0  0  0  0  0  0  0  0  0  0  0
   12.2747    7.5102   20.0420 C   0  0  0  0  0  0  0  0  0  0  0  0
   14.2544    6.2142   19.4191 C   0  0  0  0  0  0  0  0  0  0  0  0
   13.0695    6.3705   20.0375 N   0  0  0  0  0  0  0  0  0  0  0  0
    9.1913    8.0876   21.8361 N   0  0  0  0  0  0  0  0  0  0  0  0
   10.4739    9.4813   20.2889 C   0  0  0  0  0  0  0  0  0  0  0  0
    7.5551    7.1270   23.1200 O   0  0  0  0  0  0  0  0  0  0  0  0
  1 11  4  0
  1 21  4  0
  2  4  1  0
  2  8  1  0
  2 11  1  0
  3 10  4  0
  3 14  4  0
  4  5  1  0
  4 18  2  0
  6 12  1  0
  6 17  4  0
  6 23  4  0
  7  9  1  0
  7 13  4  0
  7 19  4  0
  9 20  1  0
 10 19  4  0
 11 25  4  0
 13 14  4  0
 15 16  4  0
 15 17  4  0
 15 21  4  0
 16 24  1  0
 16 25  4  0
 20 24  1  0
 20 26  2  0
 21 23  4  0
 22 23  1  0
M  END
$$$$

 Created by Python create_sdf_string function

 26 28  0  0  0  0  0  0  0  0999 V2000
   12.4616    8.6700   19.4180 N   0  0  0  0  0  0  0  0  0  0  0  0
   11.8329   10.8148   18.6769 N   0  0  0  0  0  0  0  0  0  0  0  0
    6.1021    2.5564   21.0678 C   0  0  0  0  0  0  0  0  0  0  0  0
   10.9097   11.8051   18.4804 C   0  0  0  0  0  0  0  0  0  0  0  0
   11.2280   12.9135   17.5669 C   0  0  0  0  0  0  0  0  0  0  0  0
   12.3782    5.4231   20.7777 C   0  0  0  0  0  0  0  0  0  0  0  0
    7.7365    4.6508   21.6987 C   0  0  0  0  0  0  0  0  0  0  0  0
   13.0186   11.0102   18.0020 C   0  0  0  0  0  0  0  0  0  0  0  0
    8.6628    5.7088   21.8871 N   0  0  0  0  0  0  0  0  0  0  0  0
    5.6516    3.5258   21.9140 C   0  0  0  0  0  0  0  0  0  0  0  0
   11.5863    9.6815   19.4539 C   0  0  0  0  0  0  0  0  0  0  0  0
   12.9648    4.1543   20.9205 C   0  0  0  0  0  0  0  0  0  0  0  0
    8.2089    3.6265   20.8929 C   0  0  0  0  0  0  0  0  0  0  0  0
    7.3827    2.5724   20.5432 C   0  0  0  0  0  0  0  0  0  0  0  0
   11.1529    7.2750   20.8025 C   0  0  0  0  0  0  0  0  0  0  0  0
   10.2573    8.3215   20.9827 C   0  0  0  0  0  0  0  0  0  0  0  0
   11.1606    5.9378   21.2366 N   0  0  0  0  0  0  0  0  0  0  0  0
    9.8932   11.6736   19.0677 O   0  0  0  0  0  0  0  0  0  0  0  0
    6.4470    4.5850   22.2321 C   0  0  0  0  0  0  0  0  0  0  0  0
    8.4619    6.9895   22.2968 C   0  0  0  0  0  0  0  0  0  0  0  0
   12.2747    7.5102   20.0420 C   0  0  0  0  0  0  0  0  0  0  0  0
   14.2544    6.2142   19.4191 C   0  0  0  0  0  0  0  0  0  0  0  0
   13.0695    6.3705   20.0375 N   0  0  0  0  0  0  0  0  0  0  0  0
    9.1913    8.0876   21.8361 N   0  0  0  0  0  0  0  0  0  0  0  0
   10.4739    9.4813   20.2889 C   0  0  0  0  0  0  0  0  0  0  0  0
    7.5551    7.1270   23.1200 O   0  0  0  0  0  0  0  0  0  0  0  0
  1 11  4  0
  1 21  4  0
  2  4  1  0
  2  8  1  0
  2 11  1  0
  3 10  4  0
  3 14  4  0
  4  5  1  0
  4 18  2  0
  6 12  1  0
  6 17  4  0
  6 23  4  0
  7  9  1  0
  7 13  4  0
  7 19  4  0
  9 20  1  0
 10 19  4  0
 11 25  4  0
 13 14  4  0
 15 16  4  0
 15 17  4  0
 15 21  4  0
 16 24  1  0
 16 25  4  0
 20 24  1  0
 20 26  2  0
 21 23  4  0
 22 23  1  0
M  END
$$$$

 Created by Python create_sdf_string function

 26 28  0  0  0  0  0  0  0  0999 V2000
   12.4616    8.6700   19.4180 N   0  0  0  0  0  0  0  0  0  0  0  0
   11.8329   10.8148   18.6769 N   0  0  0  0  0  0  0  0  0  0  0  0
    6.1021    2.5564   21.0678 C   0  0  0  0  0  0  0  0  0  0  0  0
   10.9097   11.8051   18.4804 C   0  0  0  0  0  0  0  0  0  0  0  0
   11.2280   12.9135   17.5669 C   0  0  0  0  0  0  0  0  0  0  0  0
   12.3782    5.4231   20.7777 C   0  0  0  0  0  0  0  0  0  0  0  0
    7.7365    4.6508   21.6987 C   0  0  0  0  0  0  0  0  0  0  0  0
   13.0186   11.0102   18.0020 C   0  0  0  0  0  0  0  0  0  0  0  0
    8.6628    5.7088   21.8871 N   0  0  0  0  0  0  0  0  0  0  0  0
    5.6516    3.5258   21.9140 C   0  0  0  0  0  0  0  0  0  0  0  0
   11.5863    9.6815   19.4539 C   0  0  0  0  0  0  0  0  0  0  0  0
   12.9648    4.1543   20.9205 C   0  0  0  0  0  0  0  0  0  0  0  0
    8.2089    3.6265   20.8929 C   0  0  0  0  0  0  0  0  0  0  0  0
    7.3827    2.5724   20.5432 C   0  0  0  0  0  0  0  0  0  0  0  0
   11.1529    7.2750   20.8025 C   0  0  0  0  0  0  0  0  0  0  0  0
   10.2573    8.3215   20.9827 C   0  0  0  0  0  0  0  0  0  0  0  0
   11.1606    5.9378   21.2366 N   0  0  0  0  0  0  0  0  0  0  0  0
    9.8932   11.6736   19.0677 O   0  0  0  0  0  0  0  0  0  0  0  0
    6.4470    4.5850   22.2321 C   0  0  0  0  0  0  0  0  0  0  0  0
    8.4619    6.9895   22.2968 C   0  0  0  0  0  0  0  0  0  0  0  0
   12.2747    7.5102   20.0420 C   0  0  0  0  0  0  0  0  0  0  0  0
   14.2544    6.2142   19.4191 C   0  0  0  0  0  0  0  0  0  0  0  0
   13.0695    6.3705   20.0375 N   0  0  0  0  0  0  0  0  0  0  0  0
    9.1913    8.0876   21.8361 N   0  0  0  0  0  0  0  0  0  0  0  0
   10.4739    9.4813   20.2889 C   0  0  0  0  0  0  0  0  0  0  0  0
    7.5551    7.1270   23.1200 O   0  0  0  0  0  0  0  0  0  0  0  0
  1 11  4  0
  1 21  4  0
  2  4  1  0
  2  8  1  0
  2 11  1  0
  3 10  4  0
  3 14  4  0
  4  5  1  0
  4 18  2  0
  6 12  1  0
  6 17  4  0
  6 23  4  0
  7  9  1  0
  7 13  4  0
  7 19  4  0
  9 20  1  0
 10 19  4  0
 11 25  4  0
 13 14  4  0
 15 16  4  0
 15 17  4  0
 15 21  4  0
 16 24  1  0
 16 25  4  0
 20 24  1  0
 20 26  2  0
 21 23  4  0
 22 23  1  0
M  END
$$$$

 Created by Python create_sdf_string function

 26 28  0  0  0  0  0  0  0  0999 V2000
   12.4616    8.6700   19.4180 N   0  0  0  0  0  0  0  0  0  0  0  0
   11.8329   10.8148   18.6769 N   0  0  0  0  0  0  0  0  0  0  0  0
    6.1021    2.5564   21.0678 C   0  0  0  0  0  0  0  0  0  0  0  0
   10.9097   11.8051   18.4804 C   0  0  0  0  0  0  0  0  0  0  0  0
   11.2280   12.9135   17.5669 C   0  0  0  0  0  0  0  0  0  0  0  0
   12.3782    5.4231   20.7777 C   0  0  0  0  0  0  0  0  0  0  0  0
    7.7365    4.6508   21.6987 C   0  0  0  0  0  0  0  0  0  0  0  0
   13.0186   11.0102   18.0020 C   0  0  0  0  0  0  0  0  0  0  0  0
    8.6628    5.7088   21.8871 N   0  0  0  0  0  0  0  0  0  0  0  0
    5.6516    3.5258   21.9140 C   0  0  0  0  0  0  0  0  0  0  0  0
   11.5863    9.6815   19.4539 C   0  0  0  0  0  0  0  0  0  0  0  0
   12.9648    4.1543   20.9205 C   0  0  0  0  0  0  0  0  0  0  0  0
    8.2089    3.6265   20.8929 C   0  0  0  0  0  0  0  0  0  0  0  0
    7.3827    2.5724   20.5432 C   0  0  0  0  0  0  0  0  0  0  0  0
   11.1529    7.2750   20.8025 C   0  0  0  0  0  0  0  0  0  0  0  0
   10.2573    8.3215   20.9827 C   0  0  0  0  0  0  0  0  0  0  0  0
   11.1606    5.9378   21.2366 N   0  0  0  0  0  0  0  0  0  0  0  0
    9.8932   11.6736   19.0677 O   0  0  0  0  0  0  0  0  0  0  0  0
    6.4470    4.5850   22.2321 C   0  0  0  0  0  0  0  0  0  0  0  0
    8.4619    6.9895   22.2968 C   0  0  0  0  0  0  0  0  0  0  0  0
   12.2747    7.5102   20.0420 C   0  0  0  0  0  0  0  0  0  0  0  0
   14.2544    6.2142   19.4191 C   0  0  0  0  0  0  0  0  0  0  0  0
   13.0695    6.3705   20.0375 N   0  0  0  0  0  0  0  0  0  0  0  0
    9.1913    8.0876   21.8361 N   0  0  0  0  0  0  0  0  0  0  0  0
   10.4739    9.4813   20.2889 C   0  0  0  0  0  0  0  0  0  0  0  0
    7.5551    7.1270   23.1200 O   0  0  0  0  0  0  0  0  0  0  0  0
  1 11  4  0
  1 21  4  0
  2  4  1  0
  2  8  1  0
  2 11  1  0
  3 10  4  0
  3 14  4  0
  4  5  1  0
  4 18  2  0
  6 12  1  0
  6 17  4  0
  6 23  4  0
  7  9  1  0
  7 13  4  0
  7 19  4  0
  9 20  1  0
 10 19  4  0
 11 25  4  0
 13 14  4  0
 15 16  4  0
 15 17  4  0
 15 21  4  0
 16 24  1  0
 16 25  4  0
 20 24  1  0
 20 26  2  0
 21 23  4  0
 22 23  1  0
M  END
$$$$

 Created by Python create_sdf_string function

 26 28  0  0  0  0  0  0  0  0999 V2000
   12.4616    8.6700   19.4180 N   0  0  0  0  0  0  0  0  0  0  0  0
   11.8329   10.8148   18.6769 N   0  0  0  0  0  0  0  0  0  0  0  0
    6.1021    2.5564   21.0678 C   0  0  0  0  0  0  0  0  0  0  0  0
   10.9097   11.8051   18.4804 C   0  0  0  0  0  0  0  0  0  0  0  0
   11.2280   12.9135   17.5669 C   0  0  0  0  0  0  0  0  0  0  0  0
   12.3782    5.4231   20.7777 C   0  0  0  0  0  0  0  0  0  0  0  0
    7.7365    4.6508   21.6987 C   0  0  0  0  0  0  0  0  0  0  0  0
   13.0186   11.0102   18.0020 C   0  0  0  0  0  0  0  0  0  0  0  0
    8.6628    5.7088   21.8871 N   0  0  0  0  0  0  0  0  0  0  0  0
    5.6516    3.5258   21.9140 C   0  0  0  0  0  0  0  0  0  0  0  0
   11.5863    9.6815   19.4539 C   0  0  0  0  0  0  0  0  0  0  0  0
   12.9648    4.1543   20.9205 C   0  0  0  0  0  0  0  0  0  0  0  0
    8.2089    3.6265   20.8929 C   0  0  0  0  0  0  0  0  0  0  0  0
    7.3827    2.5724   20.5432 C   0  0  0  0  0  0  0  0  0  0  0  0
   11.1529    7.2750   20.8025 C   0  0  0  0  0  0  0  0  0  0  0  0
   10.2573    8.3215   20.9827 C   0  0  0  0  0  0  0  0  0  0  0  0
   11.1606    5.9378   21.2366 N   0  0  0  0  0  0  0  0  0  0  0  0
    9.8932   11.6736   19.0677 O   0  0  0  0  0  0  0  0  0  0  0  0
    6.4470    4.5850   22.2321 C   0  0  0  0  0  0  0  0  0  0  0  0
    8.4619    6.9895   22.2968 C   0  0  0  0  0  0  0  0  0  0  0  0
   12.2747    7.5102   20.0420 C   0  0  0  0  0  0  0  0  0  0  0  0
   14.2544    6.2142   19.4191 C   0  0  0  0  0  0  0  0  0  0  0  0
   13.0695    6.3705   20.0375 N   0  0  0  0  0  0  0  0  0  0  0  0
    9.1913    8.0876   21.8361 N   0  0  0  0  0  0  0  0  0  0  0  0
   10.4739    9.4813   20.2889 C   0  0  0  0  0  0  0  0  0  0  0  0
    7.5551    7.1270   23.1200 O   0  0  0  0  0  0  0  0  0  0  0  0
  1 11  4  0
  1 21  4  0
  2  4  1  0
  2  8  1  0
  2 11  1  0
  3 10  4  0
  3 14  4  0
  4  5  1  0
  4 18  2  0
  6 12  1  0
  6 17  4  0
  6 23  4  0
  7  9  1  0
  7 13  4  0
  7 19  4  0
  9 20  1  0
 10 19  4  0
 11 25  4  0
 13 14  4  0
 15 16  4  0
 15 17  4  0
 15 21  4  0
 16 24  1  0
 16 25  4  0
 20 24  1  0
 20 26  2  0
 21 23  4  0
 22 23  1  0
M  END
$$$$

 Created by Python create_sdf_string function

 26 28  0  0  0  0  0  0  0  0999 V2000
   12.4616    8.6700   19.4180 N   0  0  0  0  0  0  0  0  0  0  0  0
   11.8329   10.8148   18.6769 N   0  0  0  0  0  0  0  0  0  0  0  0
    6.1021    2.5564   21.0678 C   0  0  0  0  0  0  0  0  0  0  0  0
   10.9097   11.8051   18.4804 C   0  0  0  0  0  0  0  0  0  0  0  0
   11.2280   12.9135   17.5669 C   0  0  0  0  0  0  0  0  0  0  0  0
   12.3782    5.4231   20.7777 C   0  0  0  0  0  0  0  0  0  0  0  0
    7.7365    4.6508   21.6987 C   0  0  0  0  0  0  0  0  0  0  0  0
   13.0186   11.0102   18.0020 C   0  0  0  0  0  0  0  0  0  0  0  0
    8.6628    5.7088   21.8871 N   0  0  0  0  0  0  0  0  0  0  0  0
    5.6516    3.5258   21.9140 C   0  0  0  0  0  0  0  0  0  0  0  0
   11.5863    9.6815   19.4539 C   0  0  0  0  0  0  0  0  0  0  0  0
   12.9648    4.1543   20.9205 C   0  0  0  0  0  0  0  0  0  0  0  0
    8.2089    3.6265   20.8929 C   0  0  0  0  0  0  0  0  0  0  0  0
    7.3827    2.5724   20.5432 C   0  0  0  0  0  0  0  0  0  0  0  0
   11.1529    7.2750   20.8025 C   0  0  0  0  0  0  0  0  0  0  0  0
   10.2573    8.3215   20.9827 C   0  0  0  0  0  0  0  0  0  0  0  0
   11.1606    5.9378   21.2366 N   0  0  0  0  0  0  0  0  0  0  0  0
    9.8932   11.6736   19.0677 O   0  0  0  0  0  0  0  0  0  0  0  0
    6.4470    4.5850   22.2321 C   0  0  0  0  0  0  0  0  0  0  0  0
    8.4619    6.9895   22.2968 C   0  0  0  0  0  0  0  0  0  0  0  0
   12.2747    7.5102   20.0420 C   0  0  0  0  0  0  0  0  0  0  0  0
   14.2544    6.2142   19.4191 C   0  0  0  0  0  0  0  0  0  0  0  0
   13.0695    6.3705   20.0375 N   0  0  0  0  0  0  0  0  0  0  0  0
    9.1913    8.0876   21.8361 N   0  0  0  0  0  0  0  0  0  0  0  0
   10.4739    9.4813   20.2889 C   0  0  0  0  0  0  0  0  0  0  0  0
    7.5551    7.1270   23.1200 O   0  0  0  0  0  0  0  0  0  0  0  0
  1 11  4  0
  1 21  4  0
  2  4  1  0
  2  8  1  0
  2 11  1  0
  3 10  4  0
  3 14  4  0
  4  5  1  0
  4 18  2  0
  6 12  1  0
  6 17  4  0
  6 23  4  0
  7  9  1  0
  7 13  4  0
  7 19  4  0
  9 20  1  0
 10 19  4  0
 11 25  4  0
 13 14  4  0
 15 16  4  0
 15 17  4  0
 15 21  4  0
 16 24  1  0
 16 25  4  0
 20 24  1  0
 20 26  2  0
 21 23  4  0
 22 23  1  0
M  END
$$$$

 Created by Python create_sdf_string function

 26 28  0  0  0  0  0  0  0  0999 V2000
   12.4616    8.6700   19.4180 N   0  0  0  0  0  0  0  0  0  0  0  0
   11.8329   10.8148   18.6769 N   0  0  0  0  0  0  0  0  0  0  0  0
    6.1021    2.5564   21.0678 C   0  0  0  0  0  0  0  0  0  0  0  0
   10.9097   11.8051   18.4804 C   0  0  0  0  0  0  0  0  0  0  0  0
   11.2280   12.9135   17.5669 C   0  0  0  0  0  0  0  0  0  0  0  0
   12.3782    5.4231   20.7777 C   0  0  0  0  0  0  0  0  0  0  0  0
    7.7365    4.6508   21.6987 C   0  0  0  0  0  0  0  0  0  0  0  0
   13.0186   11.0102   18.0020 C   0  0  0  0  0  0  0  0  0  0  0  0
    8.6628    5.7088   21.8871 N   0  0  0  0  0  0  0  0  0  0  0  0
    5.6516    3.5258   21.9140 C   0  0  0  0  0  0  0  0  0  0  0  0
   11.5863    9.6815   19.4539 C   0  0  0  0  0  0  0  0  0  0  0  0
   12.9648    4.1543   20.9205 C   0  0  0  0  0  0  0  0  0  0  0  0
    8.2089    3.6265   20.8929 C   0  0  0  0  0  0  0  0  0  0  0  0
    7.3827    2.5724   20.5432 C   0  0  0  0  0  0  0  0  0  0  0  0
   11.1529    7.2750   20.8025 C   0  0  0  0  0  0  0  0  0  0  0  0
   10.2573    8.3215   20.9827 C   0  0  0  0  0  0  0  0  0  0  0  0
   11.1606    5.9378   21.2366 N   0  0  0  0  0  0  0  0  0  0  0  0
    9.8932   11.6736   19.0677 O   0  0  0  0  0  0  0  0  0  0  0  0
    6.4470    4.5850   22.2321 C   0  0  0  0  0  0  0  0  0  0  0  0
    8.4619    6.9895   22.2968 C   0  0  0  0  0  0  0  0  0  0  0  0
   12.2747    7.5102   20.0420 C   0  0  0  0  0  0  0  0  0  0  0  0
   14.2544    6.2142   19.4191 C   0  0  0  0  0  0  0  0  0  0  0  0
   13.0695    6.3705   20.0375 N   0  0  0  0  0  0  0  0  0  0  0  0
    9.1913    8.0876   21.8361 N   0  0  0  0  0  0  0  0  0  0  0  0
   10.4739    9.4813   20.2889 C   0  0  0  0  0  0  0  0  0  0  0  0
    7.5551    7.1270   23.1200 O   0  0  0  0  0  0  0  0  0  0  0  0
  1 11  4  0
  1 21  4  0
  2  4  1  0
  2  8  1  0
  2 11  1  0
  3 10  4  0
  3 14  4  0
  4  5  1  0
  4 18  2  0
  6 12  1  0
  6 17  4  0
  6 23  4  0
  7  9  1  0
  7 13  4  0
  7 19  4  0
  9 20  1  0
 10 19  4  0
 11 25  4  0
 13 14  4  0
 15 16  4  0
 15 17  4  0
 15 21  4  0
 16 24  1  0
 16 25  4  0
 20 24  1  0
 20 26  2  0
 21 23  4  0
 22 23  1  0
M  END
$$$$

 Created by Python create_sdf_string function

 26 28  0  0  0  0  0  0  0  0999 V2000
   12.4616    8.6700   19.4180 N   0  0  0  0  0  0  0  0  0  0  0  0
   11.8329   10.8148   18.6769 N   0  0  0  0  0  0  0  0  0  0  0  0
    6.1021    2.5564   21.0678 C   0  0  0  0  0  0  0  0  0  0  0  0
   10.9097   11.8051   18.4804 C   0  0  0  0  0  0  0  0  0  0  0  0
   11.2280   12.9135   17.5669 C   0  0  0  0  0  0  0  0  0  0  0  0
   12.3782    5.4231   20.7777 C   0  0  0  0  0  0  0  0  0  0  0  0
    7.7365    4.6508   21.6987 C   0  0  0  0  0  0  0  0  0  0  0  0
   13.0186   11.0102   18.0020 C   0  0  0  0  0  0  0  0  0  0  0  0
    8.6628    5.7088   21.8871 N   0  0  0  0  0  0  0  0  0  0  0  0
    5.6516    3.5258   21.9140 C   0  0  0  0  0  0  0  0  0  0  0  0
   11.5863    9.6815   19.4539 C   0  0  0  0  0  0  0  0  0  0  0  0
   12.9648    4.1543   20.9205 C   0  0  0  0  0  0  0  0  0  0  0  0
    8.2089    3.6265   20.8929 C   0  0  0  0  0  0  0  0  0  0  0  0
    7.3827    2.5724   20.5432 C   0  0  0  0  0  0  0  0  0  0  0  0
   11.1529    7.2750   20.8025 C   0  0  0  0  0  0  0  0  0  0  0  0
   10.2573    8.3215   20.9827 C   0  0  0  0  0  0  0  0  0  0  0  0
   11.1606    5.9378   21.2366 N   0  0  0  0  0  0  0  0  0  0  0  0
    9.8932   11.6736   19.0677 O   0  0  0  0  0  0  0  0  0  0  0  0
    6.4470    4.5850   22.2321 C   0  0  0  0  0  0  0  0  0  0  0  0
    8.4619    6.9895   22.2968 C   0  0  0  0  0  0  0  0  0  0  0  0
   12.2747    7.5102   20.0420 C   0  0  0  0  0  0  0  0  0  0  0  0
   14.2544    6.2142   19.4191 C   0  0  0  0  0  0  0  0  0  0  0  0
   13.0695    6.3705   20.0375 N   0  0  0  0  0  0  0  0  0  0  0  0
    9.1913    8.0876   21.8361 N   0  0  0  0  0  0  0  0  0  0  0  0
   10.4739    9.4813   20.2889 C   0  0  0  0  0  0  0  0  0  0  0  0
    7.5551    7.1270   23.1200 O   0  0  0  0  0  0  0  0  0  0  0  0
  1 11  4  0
  1 21  4  0
  2  4  1  0
  2  8  1  0
  2 11  1  0
  3 10  4  0
  3 14  4  0
  4  5  1  0
  4 18  2  0
  6 12  1  0
  6 17  4  0
  6 23  4  0
  7  9  1  0
  7 13  4  0
  7 19  4  0
  9 20  1  0
 10 19  4  0
 11 25  4  0
 13 14  4  0
 15 16  4  0
 15 17  4  0
 15 21  4  0
 16 24  1  0
 16 25  4  0
 20 24  1  0
 20 26  2  0
 21 23  4  0
 22 23  1  0
M  END
$$$$

 Created by Python create_sdf_string function

 26 28  0  0  0  0  0  0  0  0999 V2000
   12.4616    8.6700   19.4180 N   0  0  0  0  0  0  0  0  0  0  0  0
   11.8329   10.8148   18.6769 N   0  0  0  0  0  0  0  0  0  0  0  0
    6.1021    2.5564   21.0678 C   0  0  0  0  0  0  0  0  0  0  0  0
   10.9097   11.8051   18.4804 C   0  0  0  0  0  0  0  0  0  0  0  0
   11.2280   12.9135   17.5669 C   0  0  0  0  0  0  0  0  0  0  0  0
   12.3782    5.4231   20.7777 C   0  0  0  0  0  0  0  0  0  0  0  0
    7.7365    4.6508   21.6987 C   0  0  0  0  0  0  0  0  0  0  0  0
   13.0186   11.0102   18.0020 C   0  0  0  0  0  0  0  0  0  0  0  0
    8.6628    5.7088   21.8871 N   0  0  0  0  0  0  0  0  0  0  0  0
    5.6516    3.5258   21.9140 C   0  0  0  0  0  0  0  0  0  0  0  0
   11.5863    9.6815   19.4539 C   0  0  0  0  0  0  0  0  0  0  0  0
   12.9648    4.1543   20.9205 C   0  0  0  0  0  0  0  0  0  0  0  0
    8.2089    3.6265   20.8929 C   0  0  0  0  0  0  0  0  0  0  0  0
    7.3827    2.5724   20.5432 C   0  0  0  0  0  0  0  0  0  0  0  0
   11.1529    7.2750   20.8025 C   0  0  0  0  0  0  0  0  0  0  0  0
   10.2573    8.3215   20.9827 C   0  0  0  0  0  0  0  0  0  0  0  0
   11.1606    5.9378   21.2366 N   0  0  0  0  0  0  0  0  0  0  0  0
    9.8932   11.6736   19.0677 O   0  0  0  0  0  0  0  0  0  0  0  0
    6.4470    4.5850   22.2321 C   0  0  0  0  0  0  0  0  0  0  0  0
    8.4619    6.9895   22.2968 C   0  0  0  0  0  0  0  0  0  0  0  0
   12.2747    7.5102   20.0420 C   0  0  0  0  0  0  0  0  0  0  0  0
   14.2544    6.2142   19.4191 C   0  0  0  0  0  0  0  0  0  0  0  0
   13.0695    6.3705   20.0375 N   0  0  0  0  0  0  0  0  0  0  0  0
    9.1913    8.0876   21.8361 N   0  0  0  0  0  0  0  0  0  0  0  0
   10.4739    9.4813   20.2889 C   0  0  0  0  0  0  0  0  0  0  0  0
    7.5551    7.1270   23.1200 O   0  0  0  0  0  0  0  0  0  0  0  0
  1 11  4  0
  1 21  4  0
  2  4  1  0
  2  8  1  0
  2 11  1  0
  3 10  4  0
  3 14  4  0
  4  5  1  0
  4 18  2  0
  6 12  1  0
  6 17  4  0
  6 23  4  0
  7  9  1  0
  7 13  4  0
  7 19  4  0
  9 20  1  0
 10 19  4  0
 11 25  4  0
 13 14  4  0
 15 16  4  0
 15 17  4  0
 15 21  4  0
 16 24  1  0
 16 25  4  0
 20 24  1  0
 20 26  2  0
 21 23  4  0
 22 23  1  0
M  END
$$$$

 Created by Python create_sdf_string function

 26 28  0  0  0  0  0  0  0  0999 V2000
   12.4616    8.6700   19.4180 N   0  0  0  0  0  0  0  0  0  0  0  0
   11.8329   10.8148   18.6769 N   0  0  0  0  0  0  0  0  0  0  0  0
    6.1021    2.5564   21.0678 C   0  0  0  0  0  0  0  0  0  0  0  0
   10.9097   11.8051   18.4804 C   0  0  0  0  0  0  0  0  0  0  0  0
   11.2280   12.9135   17.5669 C   0  0  0  0  0  0  0  0  0  0  0  0
   12.3782    5.4231   20.7777 C   0  0  0  0  0  0  0  0  0  0  0  0
    7.7365    4.6508   21.6987 C   0  0  0  0  0  0  0  0  0  0  0  0
   13.0186   11.0102   18.0020 C   0  0  0  0  0  0  0  0  0  0  0  0
    8.6628    5.7088   21.8871 N   0  0  0  0  0  0  0  0  0  0  0  0
    5.6516    3.5258   21.9140 C   0  0  0  0  0  0  0  0  0  0  0  0
   11.5863    9.6815   19.4539 C   0  0  0  0  0  0  0  0  0  0  0  0
   12.9648    4.1543   20.9205 C   0  0  0  0  0  0  0  0  0  0  0  0
    8.2089    3.6265   20.8929 C   0  0  0  0  0  0  0  0  0  0  0  0
    7.3827    2.5724   20.5432 C   0  0  0  0  0  0  0  0  0  0  0  0
   11.1529    7.2750   20.8025 C   0  0  0  0  0  0  0  0  0  0  0  0
   10.2573    8.3215   20.9827 C   0  0  0  0  0  0  0  0  0  0  0  0
   11.1606    5.9378   21.2366 N   0  0  0  0  0  0  0  0  0  0  0  0
    9.8932   11.6736   19.0677 O   0  0  0  0  0  0  0  0  0  0  0  0
    6.4470    4.5850   22.2321 C   0  0  0  0  0  0  0  0  0  0  0  0
    8.4619    6.9895   22.2968 C   0  0  0  0  0  0  0  0  0  0  0  0
   12.2747    7.5102   20.0420 C   0  0  0  0  0  0  0  0  0  0  0  0
   14.2544    6.2142   19.4191 C   0  0  0  0  0  0  0  0  0  0  0  0
   13.0695    6.3705   20.0375 N   0  0  0  0  0  0  0  0  0  0  0  0
    9.1913    8.0876   21.8361 N   0  0  0  0  0  0  0  0  0  0  0  0
   10.4739    9.4813   20.2889 C   0  0  0  0  0  0  0  0  0  0  0  0
    7.5551    7.1270   23.1200 O   0  0  0  0  0  0  0  0  0  0  0  0
  1 11  4  0
  1 21  4  0
  2  4  1  0
  2  8  1  0
  2 11  1  0
  3 10  4  0
  3 14  4  0
  4  5  1  0
  4 18  2  0
  6 12  1  0
  6 17  4  0
  6 23  4  0
  7  9  1  0
  7 13  4  0
  7 19  4  0
  9 20  1  0
 10 19  4  0
 11 25  4  0
 13 14  4  0
 15 16  4  0
 15 17  4  0
 15 21  4  0
 16 24  1  0
 16 25  4  0
 20 24  1  0
 20 26  2  0
 21 23  4  0
 22 23  1  0
M  END
$$$$

 Created by Python create_sdf_string function

 26 28  0  0  0  0  0  0  0  0999 V2000
   12.4616    8.6700   19.4180 N   0  0  0  0  0  0  0  0  0  0  0  0
   11.8329   10.8148   18.6769 N   0  0  0  0  0  0  0  0  0  0  0  0
    6.1021    2.5564   21.0678 C   0  0  0  0  0  0  0  0  0  0  0  0
   10.9097   11.8051   18.4804 C   0  0  0  0  0  0  0  0  0  0  0  0
   11.2280   12.9135   17.5669 C   0  0  0  0  0  0  0  0  0  0  0  0
   12.3782    5.4231   20.7777 C   0  0  0  0  0  0  0  0  0  0  0  0
    7.7365    4.6508   21.6987 C   0  0  0  0  0  0  0  0  0  0  0  0
   13.0186   11.0102   18.0020 C   0  0  0  0  0  0  0  0  0  0  0  0
    8.6628    5.7088   21.8871 N   0  0  0  0  0  0  0  0  0  0  0  0
    5.6516    3.5258   21.9140 C   0  0  0  0  0  0  0  0  0  0  0  0
   11.5863    9.6815   19.4539 C   0  0  0  0  0  0  0  0  0  0  0  0
   12.9648    4.1543   20.9205 C   0  0  0  0  0  0  0  0  0  0  0  0
    8.2089    3.6265   20.8929 C   0  0  0  0  0  0  0  0  0  0  0  0
    7.3827    2.5724   20.5432 C   0  0  0  0  0  0  0  0  0  0  0  0
   11.1529    7.2750   20.8025 C   0  0  0  0  0  0  0  0  0  0  0  0
   10.2573    8.3215   20.9827 C   0  0  0  0  0  0  0  0  0  0  0  0
   11.1606    5.9378   21.2366 N   0  0  0  0  0  0  0  0  0  0  0  0
    9.8932   11.6736   19.0677 O   0  0  0  0  0  0  0  0  0  0  0  0
    6.4470    4.5850   22.2321 C   0  0  0  0  0  0  0  0  0  0  0  0
    8.4619    6.9895   22.2968 C   0  0  0  0  0  0  0  0  0  0  0  0
   12.2747    7.5102   20.0420 C   0  0  0  0  0  0  0  0  0  0  0  0
   14.2544    6.2142   19.4191 C   0  0  0  0  0  0  0  0  0  0  0  0
   13.0695    6.3705   20.0375 N   0  0  0  0  0  0  0  0  0  0  0  0
    9.1913    8.0876   21.8361 N   0  0  0  0  0  0  0  0  0  0  0  0
   10.4739    9.4813   20.2889 C   0  0  0  0  0  0  0  0  0  0  0  0
    7.5551    7.1270   23.1200 O   0  0  0  0  0  0  0  0  0  0  0  0
  1 11  4  0
  1 21  4  0
  2  4  1  0
  2  8  1  0
  2 11  1  0
  3 10  4  0
  3 14  4  0
  4  5  1  0
  4 18  2  0
  6 12  1  0
  6 17  4  0
  6 23  4  0
  7  9  1  0
  7 13  4  0
  7 19  4  0
  9 20  1  0
 10 19  4  0
 11 25  4  0
 13 14  4  0
 15 16  4  0
 15 17  4  0
 15 21  4  0
 16 24  1  0
 16 25  4  0
 20 24  1  0
 20 26  2  0
 21 23  4  0
 22 23  1  0
M  END
$$$$

 Created by Python create_sdf_string function

 26 28  0  0  0  0  0  0  0  0999 V2000
   12.4616    8.6700   19.4180 N   0  0  0  0  0  0  0  0  0  0  0  0
   11.8329   10.8148   18.6769 N   0  0  0  0  0  0  0  0  0  0  0  0
    6.1021    2.5564   21.0678 C   0  0  0  0  0  0  0  0  0  0  0  0
   10.9097   11.8051   18.4804 C   0  0  0  0  0  0  0  0  0  0  0  0
   11.2280   12.9135   17.5669 C   0  0  0  0  0  0  0  0  0  0  0  0
   12.3782    5.4231   20.7777 C   0  0  0  0  0  0  0  0  0  0  0  0
    7.7365    4.6508   21.6987 C   0  0  0  0  0  0  0  0  0  0  0  0
   13.0186   11.0102   18.0020 C   0  0  0  0  0  0  0  0  0  0  0  0
    8.6628    5.7088   21.8871 N   0  0  0  0  0  0  0  0  0  0  0  0
    5.6516    3.5258   21.9140 C   0  0  0  0  0  0  0  0  0  0  0  0
   11.5863    9.6815   19.4539 C   0  0  0  0  0  0  0  0  0  0  0  0
   12.9648    4.1543   20.9205 C   0  0  0  0  0  0  0  0  0  0  0  0
    8.2089    3.6265   20.8929 C   0  0  0  0  0  0  0  0  0  0  0  0
    7.3827    2.5724   20.5432 C   0  0  0  0  0  0  0  0  0  0  0  0
   11.1529    7.2750   20.8025 C   0  0  0  0  0  0  0  0  0  0  0  0
   10.2573    8.3215   20.9827 C   0  0  0  0  0  0  0  0  0  0  0  0
   11.1606    5.9378   21.2366 N   0  0  0  0  0  0  0  0  0  0  0  0
    9.8932   11.6736   19.0677 O   0  0  0  0  0  0  0  0  0  0  0  0
    6.4470    4.5850   22.2321 C   0  0  0  0  0  0  0  0  0  0  0  0
    8.4619    6.9895   22.2968 C   0  0  0  0  0  0  0  0  0  0  0  0
   12.2747    7.5102   20.0420 C   0  0  0  0  0  0  0  0  0  0  0  0
   14.2544    6.2142   19.4191 C   0  0  0  0  0  0  0  0  0  0  0  0
   13.0695    6.3705   20.0375 N   0  0  0  0  0  0  0  0  0  0  0  0
    9.1913    8.0876   21.8361 N   0  0  0  0  0  0  0  0  0  0  0  0
   10.4739    9.4813   20.2889 C   0  0  0  0  0  0  0  0  0  0  0  0
    7.5551    7.1270   23.1200 O   0  0  0  0  0  0  0  0  0  0  0  0
  1 11  4  0
  1 21  4  0
  2  4  1  0
  2  8  1  0
  2 11  1  0
  3 10  4  0
  3 14  4  0
  4  5  1  0
  4 18  2  0
  6 12  1  0
  6 17  4  0
  6 23  4  0
  7  9  1  0
  7 13  4  0
  7 19  4  0
  9 20  1  0
 10 19  4  0
 11 25  4  0
 13 14  4  0
 15 16  4  0
 15 17  4  0
 15 21  4  0
 16 24  1  0
 16 25  4  0
 20 24  1  0
 20 26  2  0
 21 23  4  0
 22 23  1  0
M  END
$$$$

 Created by Python create_sdf_string function

 26 28  0  0  0  0  0  0  0  0999 V2000
   12.4616    8.6700   19.4180 N   0  0  0  0  0  0  0  0  0  0  0  0
   11.8329   10.8148   18.6769 N   0  0  0  0  0  0  0  0  0  0  0  0
    6.1021    2.5564   21.0678 C   0  0  0  0  0  0  0  0  0  0  0  0
   10.9097   11.8051   18.4804 C   0  0  0  0  0  0  0  0  0  0  0  0
   11.2280   12.9135   17.5669 C   0  0  0  0  0  0  0  0  0  0  0  0
   12.3782    5.4231   20.7777 C   0  0  0  0  0  0  0  0  0  0  0  0
    7.7365    4.6508   21.6987 C   0  0  0  0  0  0  0  0  0  0  0  0
   13.0186   11.0102   18.0020 C   0  0  0  0  0  0  0  0  0  0  0  0
    8.6628    5.7088   21.8871 N   0  0  0  0  0  0  0  0  0  0  0  0
    5.6516    3.5258   21.9140 C   0  0  0  0  0  0  0  0  0  0  0  0
   11.5863    9.6815   19.4539 C   0  0  0  0  0  0  0  0  0  0  0  0
   12.9648    4.1543   20.9205 C   0  0  0  0  0  0  0  0  0  0  0  0
    8.2089    3.6265   20.8929 C   0  0  0  0  0  0  0  0  0  0  0  0
    7.3827    2.5724   20.5432 C   0  0  0  0  0  0  0  0  0  0  0  0
   11.1529    7.2750   20.8025 C   0  0  0  0  0  0  0  0  0  0  0  0
   10.2573    8.3215   20.9827 C   0  0  0  0  0  0  0  0  0  0  0  0
   11.1606    5.9378   21.2366 N   0  0  0  0  0  0  0  0  0  0  0  0
    9.8932   11.6736   19.0677 O   0  0  0  0  0  0  0  0  0  0  0  0
    6.4470    4.5850   22.2321 C   0  0  0  0  0  0  0  0  0  0  0  0
    8.4619    6.9895   22.2968 C   0  0  0  0  0  0  0  0  0  0  0  0
   12.2747    7.5102   20.0420 C   0  0  0  0  0  0  0  0  0  0  0  0
   14.2544    6.2142   19.4191 C   0  0  0  0  0  0  0  0  0  0  0  0
   13.0695    6.3705   20.0375 N   0  0  0  0  0  0  0  0  0  0  0  0
    9.1913    8.0876   21.8361 N   0  0  0  0  0  0  0  0  0  0  0  0
   10.4739    9.4813   20.2889 C   0  0  0  0  0  0  0  0  0  0  0  0
    7.5551    7.1270   23.1200 O   0  0  0  0  0  0  0  0  0  0  0  0
  1 11  4  0
  1 21  4  0
  2  4  1  0
  2  8  1  0
  2 11  1  0
  3 10  4  0
  3 14  4  0
  4  5  1  0
  4 18  2  0
  6 12  1  0
  6 17  4  0
  6 23  4  0
  7  9  1  0
  7 13  4  0
  7 19  4  0
  9 20  1  0
 10 19  4  0
 11 25  4  0
 13 14  4  0
 15 16  4  0
 15 17  4  0
 15 21  4  0
 16 24  1  0
 16 25  4  0
 20 24  1  0
 20 26  2  0
 21 23  4  0
 22 23  1  0
M  END
$$$$

 Created by Python create_sdf_string function

 26 28  0  0  0  0  0  0  0  0999 V2000
   12.4616    8.6700   19.4180 N   0  0  0  0  0  0  0  0  0  0  0  0
   11.8329   10.8148   18.6769 N   0  0  0  0  0  0  0  0  0  0  0  0
    6.1021    2.5564   21.0678 C   0  0  0  0  0  0  0  0  0  0  0  0
   10.9097   11.8051   18.4804 C   0  0  0  0  0  0  0  0  0  0  0  0
   11.2280   12.9135   17.5669 C   0  0  0  0  0  0  0  0  0  0  0  0
   12.3782    5.4231   20.7777 C   0  0  0  0  0  0  0  0  0  0  0  0
    7.7365    4.6508   21.6987 C   0  0  0  0  0  0  0  0  0  0  0  0
   13.0186   11.0102   18.0020 C   0  0  0  0  0  0  0  0  0  0  0  0
    8.6628    5.7088   21.8871 N   0  0  0  0  0  0  0  0  0  0  0  0
    5.6516    3.5258   21.9140 C   0  0  0  0  0  0  0  0  0  0  0  0
   11.5863    9.6815   19.4539 C   0  0  0  0  0  0  0  0  0  0  0  0
   12.9648    4.1543   20.9205 C   0  0  0  0  0  0  0  0  0  0  0  0
    8.2089    3.6265   20.8929 C   0  0  0  0  0  0  0  0  0  0  0  0
    7.3827    2.5724   20.5432 C   0  0  0  0  0  0  0  0  0  0  0  0
   11.1529    7.2750   20.8025 C   0  0  0  0  0  0  0  0  0  0  0  0
   10.2573    8.3215   20.9827 C   0  0  0  0  0  0  0  0  0  0  0  0
   11.1606    5.9378   21.2366 N   0  0  0  0  0  0  0  0  0  0  0  0
    9.8932   11.6736   19.0677 O   0  0  0  0  0  0  0  0  0  0  0  0
    6.4470    4.5850   22.2321 C   0  0  0  0  0  0  0  0  0  0  0  0
    8.4619    6.9895   22.2968 C   0  0  0  0  0  0  0  0  0  0  0  0
   12.2747    7.5102   20.0420 C   0  0  0  0  0  0  0  0  0  0  0  0
   14.2544    6.2142   19.4191 C   0  0  0  0  0  0  0  0  0  0  0  0
   13.0695    6.3705   20.0375 N   0  0  0  0  0  0  0  0  0  0  0  0
    9.1913    8.0876   21.8361 N   0  0  0  0  0  0  0  0  0  0  0  0
   10.4739    9.4813   20.2889 C   0  0  0  0  0  0  0  0  0  0  0  0
    7.5551    7.1270   23.1200 O   0  0  0  0  0  0  0  0  0  0  0  0
  1 11  4  0
  1 21  4  0
  2  4  1  0
  2  8  1  0
  2 11  1  0
  3 10  4  0
  3 14  4  0
  4  5  1  0
  4 18  2  0
  6 12  1  0
  6 17  4  0
  6 23  4  0
  7  9  1  0
  7 13  4  0
  7 19  4  0
  9 20  1  0
 10 19  4  0
 11 25  4  0
 13 14  4  0
 15 16  4  0
 15 17  4  0
 15 21  4  0
 16 24  1  0
 16 25  4  0
 20 24  1  0
 20 26  2  0
 21 23  4  0
 22 23  1  0
M  END
$$$$

 Created by Python create_sdf_string function

 26 28  0  0  0  0  0  0  0  0999 V2000
   12.4616    8.6700   19.4180 N   0  0  0  0  0  0  0  0  0  0  0  0
   11.8329   10.8148   18.6769 N   0  0  0  0  0  0  0  0  0  0  0  0
    6.1021    2.5564   21.0678 C   0  0  0  0  0  0  0  0  0  0  0  0
   10.9097   11.8051   18.4804 C   0  0  0  0  0  0  0  0  0  0  0  0
   11.2280   12.9135   17.5669 C   0  0  0  0  0  0  0  0  0  0  0  0
   12.3782    5.4231   20.7777 C   0  0  0  0  0  0  0  0  0  0  0  0
    7.7365    4.6508   21.6987 C   0  0  0  0  0  0  0  0  0  0  0  0
   13.0186   11.0102   18.0020 C   0  0  0  0  0  0  0  0  0  0  0  0
    8.6628    5.7088   21.8871 N   0  0  0  0  0  0  0  0  0  0  0  0
    5.6516    3.5258   21.9140 C   0  0  0  0  0  0  0  0  0  0  0  0
   11.5863    9.6815   19.4539 C   0  0  0  0  0  0  0  0  0  0  0  0
   12.9648    4.1543   20.9205 C   0  0  0  0  0  0  0  0  0  0  0  0
    8.2089    3.6265   20.8929 C   0  0  0  0  0  0  0  0  0  0  0  0
    7.3827    2.5724   20.5432 C   0  0  0  0  0  0  0  0  0  0  0  0
   11.1529    7.2750   20.8025 C   0  0  0  0  0  0  0  0  0  0  0  0
   10.2573    8.3215   20.9827 C   0  0  0  0  0  0  0  0  0  0  0  0
   11.1606    5.9378   21.2366 N   0  0  0  0  0  0  0  0  0  0  0  0
    9.8932   11.6736   19.0677 O   0  0  0  0  0  0  0  0  0  0  0  0
    6.4470    4.5850   22.2321 C   0  0  0  0  0  0  0  0  0  0  0  0
    8.4619    6.9895   22.2968 C   0  0  0  0  0  0  0  0  0  0  0  0
   12.2747    7.5102   20.0420 C   0  0  0  0  0  0  0  0  0  0  0  0
   14.2544    6.2142   19.4191 C   0  0  0  0  0  0  0  0  0  0  0  0
   13.0695    6.3705   20.0375 N   0  0  0  0  0  0  0  0  0  0  0  0
    9.1913    8.0876   21.8361 N   0  0  0  0  0  0  0  0  0  0  0  0
   10.4739    9.4813   20.2889 C   0  0  0  0  0  0  0  0  0  0  0  0
    7.5551    7.1270   23.1200 O   0  0  0  0  0  0  0  0  0  0  0  0
  1 11  4  0
  1 21  4  0
  2  4  1  0
  2  8  1  0
  2 11  1  0
  3 10  4  0
  3 14  4  0
  4  5  1  0
  4 18  2  0
  6 12  1  0
  6 17  4  0
  6 23  4  0
  7  9  1  0
  7 13  4  0
  7 19  4  0
  9 20  1  0
 10 19  4  0
 11 25  4  0
 13 14  4  0
 15 16  4  0
 15 17  4  0
 15 21  4  0
 16 24  1  0
 16 25  4  0
 20 24  1  0
 20 26  2  0
 21 23  4  0
 22 23  1  0
M  END
$$$$

 Created by Python create_sdf_string function

 26 28  0  0  0  0  0  0  0  0999 V2000
   12.4616    8.6700   19.4180 N   0  0  0  0  0  0  0  0  0  0  0  0
   11.8329   10.8148   18.6769 N   0  0  0  0  0  0  0  0  0  0  0  0
    6.1021    2.5564   21.0678 C   0  0  0  0  0  0  0  0  0  0  0  0
   10.9097   11.8051   18.4804 C   0  0  0  0  0  0  0  0  0  0  0  0
   11.2280   12.9135   17.5669 C   0  0  0  0  0  0  0  0  0  0  0  0
   12.3782    5.4231   20.7777 C   0  0  0  0  0  0  0  0  0  0  0  0
    7.7365    4.6508   21.6987 C   0  0  0  0  0  0  0  0  0  0  0  0
   13.0186   11.0102   18.0020 C   0  0  0  0  0  0  0  0  0  0  0  0
    8.6628    5.7088   21.8871 N   0  0  0  0  0  0  0  0  0  0  0  0
    5.6516    3.5258   21.9140 C   0  0  0  0  0  0  0  0  0  0  0  0
   11.5863    9.6815   19.4539 C   0  0  0  0  0  0  0  0  0  0  0  0
   12.9648    4.1543   20.9205 C   0  0  0  0  0  0  0  0  0  0  0  0
    8.2089    3.6265   20.8929 C   0  0  0  0  0  0  0  0  0  0  0  0
    7.3827    2.5724   20.5432 C   0  0  0  0  0  0  0  0  0  0  0  0
   11.1529    7.2750   20.8025 C   0  0  0  0  0  0  0  0  0  0  0  0
   10.2573    8.3215   20.9827 C   0  0  0  0  0  0  0  0  0  0  0  0
   11.1606    5.9378   21.2366 N   0  0  0  0  0  0  0  0  0  0  0  0
    9.8932   11.6736   19.0677 O   0  0  0  0  0  0  0  0  0  0  0  0
    6.4470    4.5850   22.2321 C   0  0  0  0  0  0  0  0  0  0  0  0
    8.4619    6.9895   22.2968 C   0  0  0  0  0  0  0  0  0  0  0  0
   12.2747    7.5102   20.0420 C   0  0  0  0  0  0  0  0  0  0  0  0
   14.2544    6.2142   19.4191 C   0  0  0  0  0  0  0  0  0  0  0  0
   13.0695    6.3705   20.0375 N   0  0  0  0  0  0  0  0  0  0  0  0
    9.1913    8.0876   21.8361 N   0  0  0  0  0  0  0  0  0  0  0  0
   10.4739    9.4813   20.2889 C   0  0  0  0  0  0  0  0  0  0  0  0
    7.5551    7.1270   23.1200 O   0  0  0  0  0  0  0  0  0  0  0  0
  1 11  4  0
  1 21  4  0
  2  4  1  0
  2  8  1  0
  2 11  1  0
  3 10  4  0
  3 14  4  0
  4  5  1  0
  4 18  2  0
  6 12  1  0
  6 17  4  0
  6 23  4  0
  7  9  1  0
  7 13  4  0
  7 19  4  0
  9 20  1  0
 10 19  4  0
 11 25  4  0
 13 14  4  0
 15 16  4  0
 15 17  4  0
 15 21  4  0
 16 24  1  0
 16 25  4  0
 20 24  1  0
 20 26  2  0
 21 23  4  0
 22 23  1  0
M  END
$$$$

 Created by Python create_sdf_string function

 26 28  0  0  0  0  0  0  0  0999 V2000
   12.4616    8.6700   19.4180 N   0  0  0  0  0  0  0  0  0  0  0  0
   11.8329   10.8148   18.6769 N   0  0  0  0  0  0  0  0  0  0  0  0
    6.1021    2.5564   21.0678 C   0  0  0  0  0  0  0  0  0  0  0  0
   10.9097   11.8051   18.4804 C   0  0  0  0  0  0  0  0  0  0  0  0
   11.2280   12.9135   17.5669 C   0  0  0  0  0  0  0  0  0  0  0  0
   12.3782    5.4231   20.7777 C   0  0  0  0  0  0  0  0  0  0  0  0
    7.7365    4.6508   21.6987 C   0  0  0  0  0  0  0  0  0  0  0  0
   13.0186   11.0102   18.0020 C   0  0  0  0  0  0  0  0  0  0  0  0
    8.6628    5.7088   21.8871 N   0  0  0  0  0  0  0  0  0  0  0  0
    5.6516    3.5258   21.9140 C   0  0  0  0  0  0  0  0  0  0  0  0
   11.5863    9.6815   19.4539 C   0  0  0  0  0  0  0  0  0  0  0  0
   12.9648    4.1543   20.9205 C   0  0  0  0  0  0  0  0  0  0  0  0
    8.2089    3.6265   20.8929 C   0  0  0  0  0  0  0  0  0  0  0  0
    7.3827    2.5724   20.5432 C   0  0  0  0  0  0  0  0  0  0  0  0
   11.1529    7.2750   20.8025 C   0  0  0  0  0  0  0  0  0  0  0  0
   10.2573    8.3215   20.9827 C   0  0  0  0  0  0  0  0  0  0  0  0
   11.1606    5.9378   21.2366 N   0  0  0  0  0  0  0  0  0  0  0  0
    9.8932   11.6736   19.0677 O   0  0  0  0  0  0  0  0  0  0  0  0
    6.4470    4.5850   22.2321 C   0  0  0  0  0  0  0  0  0  0  0  0
    8.4619    6.9895   22.2968 C   0  0  0  0  0  0  0  0  0  0  0  0
   12.2747    7.5102   20.0420 C   0  0  0  0  0  0  0  0  0  0  0  0
   14.2544    6.2142   19.4191 C   0  0  0  0  0  0  0  0  0  0  0  0
   13.0695    6.3705   20.0375 N   0  0  0  0  0  0  0  0  0  0  0  0
    9.1913    8.0876   21.8361 N   0  0  0  0  0  0  0  0  0  0  0  0
   10.4739    9.4813   20.2889 C   0  0  0  0  0  0  0  0  0  0  0  0
    7.5551    7.1270   23.1200 O   0  0  0  0  0  0  0  0  0  0  0  0
  1 11  4  0
  1 21  4  0
  2  4  1  0
  2  8  1  0
  2 11  1  0
  3 10  4  0
  3 14  4  0
  4  5  1  0
  4 18  2  0
  6 12  1  0
  6 17  4  0
  6 23  4  0
  7  9  1  0
  7 13  4  0
  7 19  4  0
  9 20  1  0
 10 19  4  0
 11 25  4  0
 13 14  4  0
 15 16  4  0
 15 17  4  0
 15 21  4  0
 16 24  1  0
 16 25  4  0
 20 24  1  0
 20 26  2  0
 21 23  4  0
 22 23  1  0
M  END
$$$$

 Created by Python create_sdf_string function

 26 28  0  0  0  0  0  0  0  0999 V2000
   12.4616    8.6700   19.4180 N   0  0  0  0  0  0  0  0  0  0  0  0
   11.8329   10.8148   18.6769 N   0  0  0  0  0  0  0  0  0  0  0  0
    6.1021    2.5564   21.0678 C   0  0  0  0  0  0  0  0  0  0  0  0
   10.9097   11.8051   18.4804 C   0  0  0  0  0  0  0  0  0  0  0  0
   11.2280   12.9135   17.5669 C   0  0  0  0  0  0  0  0  0  0  0  0
   12.3782    5.4231   20.7777 C   0  0  0  0  0  0  0  0  0  0  0  0
    7.7365    4.6508   21.6987 C   0  0  0  0  0  0  0  0  0  0  0  0
   13.0186   11.0102   18.0020 C   0  0  0  0  0  0  0  0  0  0  0  0
    8.6628    5.7088   21.8871 N   0  0  0  0  0  0  0  0  0  0  0  0
    5.6516    3.5258   21.9140 C   0  0  0  0  0  0  0  0  0  0  0  0
   11.5863    9.6815   19.4539 C   0  0  0  0  0  0  0  0  0  0  0  0
   12.9648    4.1543   20.9205 C   0  0  0  0  0  0  0  0  0  0  0  0
    8.2089    3.6265   20.8929 C   0  0  0  0  0  0  0  0  0  0  0  0
    7.3827    2.5724   20.5432 C   0  0  0  0  0  0  0  0  0  0  0  0
   11.1529    7.2750   20.8025 C   0  0  0  0  0  0  0  0  0  0  0  0
   10.2573    8.3215   20.9827 C   0  0  0  0  0  0  0  0  0  0  0  0
   11.1606    5.9378   21.2366 N   0  0  0  0  0  0  0  0  0  0  0  0
    9.8932   11.6736   19.0677 O   0  0  0  0  0  0  0  0  0  0  0  0
    6.4470    4.5850   22.2321 C   0  0  0  0  0  0  0  0  0  0  0  0
    8.4619    6.9895   22.2968 C   0  0  0  0  0  0  0  0  0  0  0  0
   12.2747    7.5102   20.0420 C   0  0  0  0  0  0  0  0  0  0  0  0
   14.2544    6.2142   19.4191 C   0  0  0  0  0  0  0  0  0  0  0  0
   13.0695    6.3705   20.0375 N   0  0  0  0  0  0  0  0  0  0  0  0
    9.1913    8.0876   21.8361 N   0  0  0  0  0  0  0  0  0  0  0  0
   10.4739    9.4813   20.2889 C   0  0  0  0  0  0  0  0  0  0  0  0
    7.5551    7.1270   23.1200 O   0  0  0  0  0  0  0  0  0  0  0  0
  1 11  4  0
  1 21  4  0
  2  4  1  0
  2  8  1  0
  2 11  1  0
  3 10  4  0
  3 14  4  0
  4  5  1  0
  4 18  2  0
  6 12  1  0
  6 17  4  0
  6 23  4  0
  7  9  1  0
  7 13  4  0
  7 19  4  0
  9 20  1  0
 10 19  4  0
 11 25  4  0
 13 14  4  0
 15 16  4  0
 15 17  4  0
 15 21  4  0
 16 24  1  0
 16 25  4  0
 20 24  1  0
 20 26  2  0
 21 23  4  0
 22 23  1  0
M  END
$$$$

 Created by Python create_sdf_string function

 26 28  0  0  0  0  0  0  0  0999 V2000
   12.4616    8.6700   19.4180 N   0  0  0  0  0  0  0  0  0  0  0  0
   11.8329   10.8148   18.6769 N   0  0  0  0  0  0  0  0  0  0  0  0
    6.1021    2.5564   21.0678 C   0  0  0  0  0  0  0  0  0  0  0  0
   10.9097   11.8051   18.4804 C   0  0  0  0  0  0  0  0  0  0  0  0
   11.2280   12.9135   17.5669 C   0  0  0  0  0  0  0  0  0  0  0  0
   12.3782    5.4231   20.7777 C   0  0  0  0  0  0  0  0  0  0  0  0
    7.7365    4.6508   21.6987 C   0  0  0  0  0  0  0  0  0  0  0  0
   13.0186   11.0102   18.0020 C   0  0  0  0  0  0  0  0  0  0  0  0
    8.6628    5.7088   21.8871 N   0  0  0  0  0  0  0  0  0  0  0  0
    5.6516    3.5258   21.9140 C   0  0  0  0  0  0  0  0  0  0  0  0
   11.5863    9.6815   19.4539 C   0  0  0  0  0  0  0  0  0  0  0  0
   12.9648    4.1543   20.9205 C   0  0  0  0  0  0  0  0  0  0  0  0
    8.2089    3.6265   20.8929 C   0  0  0  0  0  0  0  0  0  0  0  0
    7.3827    2.5724   20.5432 C   0  0  0  0  0  0  0  0  0  0  0  0
   11.1529    7.2750   20.8025 C   0  0  0  0  0  0  0  0  0  0  0  0
   10.2573    8.3215   20.9827 C   0  0  0  0  0  0  0  0  0  0  0  0
   11.1606    5.9378   21.2366 N   0  0  0  0  0  0  0  0  0  0  0  0
    9.8932   11.6736   19.0677 O   0  0  0  0  0  0  0  0  0  0  0  0
    6.4470    4.5850   22.2321 C   0  0  0  0  0  0  0  0  0  0  0  0
    8.4619    6.9895   22.2968 C   0  0  0  0  0  0  0  0  0  0  0  0
   12.2747    7.5102   20.0420 C   0  0  0  0  0  0  0  0  0  0  0  0
   14.2544    6.2142   19.4191 C   0  0  0  0  0  0  0  0  0  0  0  0
   13.0695    6.3705   20.0375 N   0  0  0  0  0  0  0  0  0  0  0  0
    9.1913    8.0876   21.8361 N   0  0  0  0  0  0  0  0  0  0  0  0
   10.4739    9.4813   20.2889 C   0  0  0  0  0  0  0  0  0  0  0  0
    7.5551    7.1270   23.1200 O   0  0  0  0  0  0  0  0  0  0  0  0
  1 11  4  0
  1 21  4  0
  2  4  1  0
  2  8  1  0
  2 11  1  0
  3 10  4  0
  3 14  4  0
  4  5  1  0
  4 18  2  0
  6 12  1  0
  6 17  4  0
  6 23  4  0
  7  9  1  0
  7 13  4  0
  7 19  4  0
  9 20  1  0
 10 19  4  0
 11 25  4  0
 13 14  4  0
 15 16  4  0
 15 17  4  0
 15 21  4  0
 16 24  1  0
 16 25  4  0
 20 24  1  0
 20 26  2  0
 21 23  4  0
 22 23  1  0
M  END
$$$$

 Created by Python create_sdf_string function

 26 28  0  0  0  0  0  0  0  0999 V2000
   12.4616    8.6700   19.4180 N   0  0  0  0  0  0  0  0  0  0  0  0
   11.8329   10.8148   18.6769 N   0  0  0  0  0  0  0  0  0  0  0  0
    6.1021    2.5564   21.0678 C   0  0  0  0  0  0  0  0  0  0  0  0
   10.9097   11.8051   18.4804 C   0  0  0  0  0  0  0  0  0  0  0  0
   11.2280   12.9135   17.5669 C   0  0  0  0  0  0  0  0  0  0  0  0
   12.3782    5.4231   20.7777 C   0  0  0  0  0  0  0  0  0  0  0  0
    7.7365    4.6508   21.6987 C   0  0  0  0  0  0  0  0  0  0  0  0
   13.0186   11.0102   18.0020 C   0  0  0  0  0  0  0  0  0  0  0  0
    8.6628    5.7088   21.8871 N   0  0  0  0  0  0  0  0  0  0  0  0
    5.6516    3.5258   21.9140 C   0  0  0  0  0  0  0  0  0  0  0  0
   11.5863    9.6815   19.4539 C   0  0  0  0  0  0  0  0  0  0  0  0
   12.9648    4.1543   20.9205 C   0  0  0  0  0  0  0  0  0  0  0  0
    8.2089    3.6265   20.8929 C   0  0  0  0  0  0  0  0  0  0  0  0
    7.3827    2.5724   20.5432 C   0  0  0  0  0  0  0  0  0  0  0  0
   11.1529    7.2750   20.8025 C   0  0  0  0  0  0  0  0  0  0  0  0
   10.2573    8.3215   20.9827 C   0  0  0  0  0  0  0  0  0  0  0  0
   11.1606    5.9378   21.2366 N   0  0  0  0  0  0  0  0  0  0  0  0
    9.8932   11.6736   19.0677 O   0  0  0  0  0  0  0  0  0  0  0  0
    6.4470    4.5850   22.2321 C   0  0  0  0  0  0  0  0  0  0  0  0
    8.4619    6.9895   22.2968 C   0  0  0  0  0  0  0  0  0  0  0  0
   12.2747    7.5102   20.0420 C   0  0  0  0  0  0  0  0  0  0  0  0
   14.2544    6.2142   19.4191 C   0  0  0  0  0  0  0  0  0  0  0  0
   13.0695    6.3705   20.0375 N   0  0  0  0  0  0  0  0  0  0  0  0
    9.1913    8.0876   21.8361 N   0  0  0  0  0  0  0  0  0  0  0  0
   10.4739    9.4813   20.2889 C   0  0  0  0  0  0  0  0  0  0  0  0
    7.5551    7.1270   23.1200 O   0  0  0  0  0  0  0  0  0  0  0  0
  1 11  4  0
  1 21  4  0
  2  4  1  0
  2  8  1  0
  2 11  1  0
  3 10  4  0
  3 14  4  0
  4  5  1  0
  4 18  2  0
  6 12  1  0
  6 17  4  0
  6 23  4  0
  7  9  1  0
  7 13  4  0
  7 19  4  0
  9 20  1  0
 10 19  4  0
 11 25  4  0
 13 14  4  0
 15 16  4  0
 15 17  4  0
 15 21  4  0
 16 24  1  0
 16 25  4  0
 20 24  1  0
 20 26  2  0
 21 23  4  0
 22 23  1  0
M  END
$$$$

 Created by Python create_sdf_string function

 26 28  0  0  0  0  0  0  0  0999 V2000
   12.4616    8.6700   19.4180 N   0  0  0  0  0  0  0  0  0  0  0  0
   11.8329   10.8148   18.6769 N   0  0  0  0  0  0  0  0  0  0  0  0
    6.1021    2.5564   21.0678 C   0  0  0  0  0  0  0  0  0  0  0  0
   10.9097   11.8051   18.4804 C   0  0  0  0  0  0  0  0  0  0  0  0
   11.2280   12.9135   17.5669 C   0  0  0  0  0  0  0  0  0  0  0  0
   12.3782    5.4231   20.7777 C   0  0  0  0  0  0  0  0  0  0  0  0
    7.7365    4.6508   21.6987 C   0  0  0  0  0  0  0  0  0  0  0  0
   13.0186   11.0102   18.0020 C   0  0  0  0  0  0  0  0  0  0  0  0
    8.6628    5.7088   21.8871 N   0  0  0  0  0  0  0  0  0  0  0  0
    5.6516    3.5258   21.9140 C   0  0  0  0  0  0  0  0  0  0  0  0
   11.5863    9.6815   19.4539 C   0  0  0  0  0  0  0  0  0  0  0  0
   12.9648    4.1543   20.9205 C   0  0  0  0  0  0  0  0  0  0  0  0
    8.2089    3.6265   20.8929 C   0  0  0  0  0  0  0  0  0  0  0  0
    7.3827    2.5724   20.5432 C   0  0  0  0  0  0  0  0  0  0  0  0
   11.1529    7.2750   20.8025 C   0  0  0  0  0  0  0  0  0  0  0  0
   10.2573    8.3215   20.9827 C   0  0  0  0  0  0  0  0  0  0  0  0
   11.1606    5.9378   21.2366 N   0  0  0  0  0  0  0  0  0  0  0  0
    9.8932   11.6736   19.0677 O   0  0  0  0  0  0  0  0  0  0  0  0
    6.4470    4.5850   22.2321 C   0  0  0  0  0  0  0  0  0  0  0  0
    8.4619    6.9895   22.2968 C   0  0  0  0  0  0  0  0  0  0  0  0
   12.2747    7.5102   20.0420 C   0  0  0  0  0  0  0  0  0  0  0  0
   14.2544    6.2142   19.4191 C   0  0  0  0  0  0  0  0  0  0  0  0
   13.0695    6.3705   20.0375 N   0  0  0  0  0  0  0  0  0  0  0  0
    9.1913    8.0876   21.8361 N   0  0  0  0  0  0  0  0  0  0  0  0
   10.4739    9.4813   20.2889 C   0  0  0  0  0  0  0  0  0  0  0  0
    7.5551    7.1270   23.1200 O   0  0  0  0  0  0  0  0  0  0  0  0
  1 11  4  0
  1 21  4  0
  2  4  1  0
  2  8  1  0
  2 11  1  0
  3 10  4  0
  3 14  4  0
  4  5  1  0
  4 18  2  0
  6 12  1  0
  6 17  4  0
  6 23  4  0
  7  9  1  0
  7 13  4  0
  7 19  4  0
  9 20  1  0
 10 19  4  0
 11 25  4  0
 13 14  4  0
 15 16  4  0
 15 17  4  0
 15 21  4  0
 16 24  1  0
 16 25  4  0
 20 24  1  0
 20 26  2  0
 21 23  4  0
 22 23  1  0
M  END
$$$$

 Created by Python create_sdf_string function

 26 28  0  0  0  0  0  0  0  0999 V2000
   12.4616    8.6700   19.4180 N   0  0  0  0  0  0  0  0  0  0  0  0
   11.8329   10.8148   18.6769 N   0  0  0  0  0  0  0  0  0  0  0  0
    6.1021    2.5564   21.0678 C   0  0  0  0  0  0  0  0  0  0  0  0
   10.9097   11.8051   18.4804 C   0  0  0  0  0  0  0  0  0  0  0  0
   11.2280   12.9135   17.5669 C   0  0  0  0  0  0  0  0  0  0  0  0
   12.3782    5.4231   20.7777 C   0  0  0  0  0  0  0  0  0  0  0  0
    7.7365    4.6508   21.6987 C   0  0  0  0  0  0  0  0  0  0  0  0
   13.0186   11.0102   18.0020 C   0  0  0  0  0  0  0  0  0  0  0  0
    8.6628    5.7088   21.8871 N   0  0  0  0  0  0  0  0  0  0  0  0
    5.6516    3.5258   21.9140 C   0  0  0  0  0  0  0  0  0  0  0  0
   11.5863    9.6815   19.4539 C   0  0  0  0  0  0  0  0  0  0  0  0
   12.9648    4.1543   20.9205 C   0  0  0  0  0  0  0  0  0  0  0  0
    8.2089    3.6265   20.8929 C   0  0  0  0  0  0  0  0  0  0  0  0
    7.3827    2.5724   20.5432 C   0  0  0  0  0  0  0  0  0  0  0  0
   11.1529    7.2750   20.8025 C   0  0  0  0  0  0  0  0  0  0  0  0
   10.2573    8.3215   20.9827 C   0  0  0  0  0  0  0  0  0  0  0  0
   11.1606    5.9378   21.2366 N   0  0  0  0  0  0  0  0  0  0  0  0
    9.8932   11.6736   19.0677 O   0  0  0  0  0  0  0  0  0  0  0  0
    6.4470    4.5850   22.2321 C   0  0  0  0  0  0  0  0  0  0  0  0
    8.4619    6.9895   22.2968 C   0  0  0  0  0  0  0  0  0  0  0  0
   12.2747    7.5102   20.0420 C   0  0  0  0  0  0  0  0  0  0  0  0
   14.2544    6.2142   19.4191 C   0  0  0  0  0  0  0  0  0  0  0  0
   13.0695    6.3705   20.0375 N   0  0  0  0  0  0  0  0  0  0  0  0
    9.1913    8.0876   21.8361 N   0  0  0  0  0  0  0  0  0  0  0  0
   10.4739    9.4813   20.2889 C   0  0  0  0  0  0  0  0  0  0  0  0
    7.5551    7.1270   23.1200 O   0  0  0  0  0  0  0  0  0  0  0  0
  1 11  4  0
  1 21  4  0
  2  4  1  0
  2  8  1  0
  2 11  1  0
  3 10  4  0
  3 14  4  0
  4  5  1  0
  4 18  2  0
  6 12  1  0
  6 17  4  0
  6 23  4  0
  7  9  1  0
  7 13  4  0
  7 19  4  0
  9 20  1  0
 10 19  4  0
 11 25  4  0
 13 14  4  0
 15 16  4  0
 15 17  4  0
 15 21  4  0
 16 24  1  0
 16 25  4  0
 20 24  1  0
 20 26  2  0
 21 23  4  0
 22 23  1  0
M  END
$$$$

 Created by Python create_sdf_string function

 26 28  0  0  0  0  0  0  0  0999 V2000
   12.4616    8.6700   19.4180 N   0  0  0  0  0  0  0  0  0  0  0  0
   11.8329   10.8148   18.6769 N   0  0  0  0  0  0  0  0  0  0  0  0
    6.1021    2.5564   21.0678 C   0  0  0  0  0  0  0  0  0  0  0  0
   10.9097   11.8051   18.4804 C   0  0  0  0  0  0  0  0  0  0  0  0
   11.2280   12.9135   17.5669 C   0  0  0  0  0  0  0  0  0  0  0  0
   12.3782    5.4231   20.7777 C   0  0  0  0  0  0  0  0  0  0  0  0
    7.7365    4.6508   21.6987 C   0  0  0  0  0  0  0  0  0  0  0  0
   13.0186   11.0102   18.0020 C   0  0  0  0  0  0  0  0  0  0  0  0
    8.6628    5.7088   21.8871 N   0  0  0  0  0  0  0  0  0  0  0  0
    5.6516    3.5258   21.9140 C   0  0  0  0  0  0  0  0  0  0  0  0
   11.5863    9.6815   19.4539 C   0  0  0  0  0  0  0  0  0  0  0  0
   12.9648    4.1543   20.9205 C   0  0  0  0  0  0  0  0  0  0  0  0
    8.2089    3.6265   20.8929 C   0  0  0  0  0  0  0  0  0  0  0  0
    7.3827    2.5724   20.5432 C   0  0  0  0  0  0  0  0  0  0  0  0
   11.1529    7.2750   20.8025 C   0  0  0  0  0  0  0  0  0  0  0  0
   10.2573    8.3215   20.9827 C   0  0  0  0  0  0  0  0  0  0  0  0
   11.1606    5.9378   21.2366 N   0  0  0  0  0  0  0  0  0  0  0  0
    9.8932   11.6736   19.0677 O   0  0  0  0  0  0  0  0  0  0  0  0
    6.4470    4.5850   22.2321 C   0  0  0  0  0  0  0  0  0  0  0  0
    8.4619    6.9895   22.2968 C   0  0  0  0  0  0  0  0  0  0  0  0
   12.2747    7.5102   20.0420 C   0  0  0  0  0  0  0  0  0  0  0  0
   14.2544    6.2142   19.4191 C   0  0  0  0  0  0  0  0  0  0  0  0
   13.0695    6.3705   20.0375 N   0  0  0  0  0  0  0  0  0  0  0  0
    9.1913    8.0876   21.8361 N   0  0  0  0  0  0  0  0  0  0  0  0
   10.4739    9.4813   20.2889 C   0  0  0  0  0  0  0  0  0  0  0  0
    7.5551    7.1270   23.1200 O   0  0  0  0  0  0  0  0  0  0  0  0
  1 11  4  0
  1 21  4  0
  2  4  1  0
  2  8  1  0
  2 11  1  0
  3 10  4  0
  3 14  4  0
  4  5  1  0
  4 18  2  0
  6 12  1  0
  6 17  4  0
  6 23  4  0
  7  9  1  0
  7 13  4  0
  7 19  4  0
  9 20  1  0
 10 19  4  0
 11 25  4  0
 13 14  4  0
 15 16  4  0
 15 17  4  0
 15 21  4  0
 16 24  1  0
 16 25  4  0
 20 24  1  0
 20 26  2  0
 21 23  4  0
 22 23  1  0
M  END
$$$$

 Created by Python create_sdf_string function

 26 28  0  0  0  0  0  0  0  0999 V2000
   12.4616    8.6700   19.4180 N   0  0  0  0  0  0  0  0  0  0  0  0
   11.8329   10.8148   18.6769 N   0  0  0  0  0  0  0  0  0  0  0  0
    6.1021    2.5564   21.0678 C   0  0  0  0  0  0  0  0  0  0  0  0
   10.9097   11.8051   18.4804 C   0  0  0  0  0  0  0  0  0  0  0  0
   11.2280   12.9135   17.5669 C   0  0  0  0  0  0  0  0  0  0  0  0
   12.3782    5.4231   20.7777 C   0  0  0  0  0  0  0  0  0  0  0  0
    7.7365    4.6508   21.6987 C   0  0  0  0  0  0  0  0  0  0  0  0
   13.0186   11.0102   18.0020 C   0  0  0  0  0  0  0  0  0  0  0  0
    8.6628    5.7088   21.8871 N   0  0  0  0  0  0  0  0  0  0  0  0
    5.6516    3.5258   21.9140 C   0  0  0  0  0  0  0  0  0  0  0  0
   11.5863    9.6815   19.4539 C   0  0  0  0  0  0  0  0  0  0  0  0
   12.9648    4.1543   20.9205 C   0  0  0  0  0  0  0  0  0  0  0  0
    8.2089    3.6265   20.8929 C   0  0  0  0  0  0  0  0  0  0  0  0
    7.3827    2.5724   20.5432 C   0  0  0  0  0  0  0  0  0  0  0  0
   11.1529    7.2750   20.8025 C   0  0  0  0  0  0  0  0  0  0  0  0
   10.2573    8.3215   20.9827 C   0  0  0  0  0  0  0  0  0  0  0  0
   11.1606    5.9378   21.2366 N   0  0  0  0  0  0  0  0  0  0  0  0
    9.8932   11.6736   19.0677 O   0  0  0  0  0  0  0  0  0  0  0  0
    6.4470    4.5850   22.2321 C   0  0  0  0  0  0  0  0  0  0  0  0
    8.4619    6.9895   22.2968 C   0  0  0  0  0  0  0  0  0  0  0  0
   12.2747    7.5102   20.0420 C   0  0  0  0  0  0  0  0  0  0  0  0
   14.2544    6.2142   19.4191 C   0  0  0  0  0  0  0  0  0  0  0  0
   13.0695    6.3705   20.0375 N   0  0  0  0  0  0  0  0  0  0  0  0
    9.1913    8.0876   21.8361 N   0  0  0  0  0  0  0  0  0  0  0  0
   10.4739    9.4813   20.2889 C   0  0  0  0  0  0  0  0  0  0  0  0
    7.5551    7.1270   23.1200 O   0  0  0  0  0  0  0  0  0  0  0  0
  1 11  4  0
  1 21  4  0
  2  4  1  0
  2  8  1  0
  2 11  1  0
  3 10  4  0
  3 14  4  0
  4  5  1  0
  4 18  2  0
  6 12  1  0
  6 17  4  0
  6 23  4  0
  7  9  1  0
  7 13  4  0
  7 19  4  0
  9 20  1  0
 10 19  4  0
 11 25  4  0
 13 14  4  0
 15 16  4  0
 15 17  4  0
 15 21  4  0
 16 24  1  0
 16 25  4  0
 20 24  1  0
 20 26  2  0
 21 23  4  0
 22 23  1  0
M  END
$$$$

 Created by Python create_sdf_string function

 26 28  0  0  0  0  0  0  0  0999 V2000
   12.4616    8.6700   19.4180 N   0  0  0  0  0  0  0  0  0  0  0  0
   11.8329   10.8148   18.6769 N   0  0  0  0  0  0  0  0  0  0  0  0
    6.1021    2.5564   21.0678 C   0  0  0  0  0  0  0  0  0  0  0  0
   10.9097   11.8051   18.4804 C   0  0  0  0  0  0  0  0  0  0  0  0
   11.2280   12.9135   17.5669 C   0  0  0  0  0  0  0  0  0  0  0  0
   12.3782    5.4231   20.7777 C   0  0  0  0  0  0  0  0  0  0  0  0
    7.7365    4.6508   21.6987 C   0  0  0  0  0  0  0  0  0  0  0  0
   13.0186   11.0102   18.0020 C   0  0  0  0  0  0  0  0  0  0  0  0
    8.6628    5.7088   21.8871 N   0  0  0  0  0  0  0  0  0  0  0  0
    5.6516    3.5258   21.9140 C   0  0  0  0  0  0  0  0  0  0  0  0
   11.5863    9.6815   19.4539 C   0  0  0  0  0  0  0  0  0  0  0  0
   12.9648    4.1543   20.9205 C   0  0  0  0  0  0  0  0  0  0  0  0
    8.2089    3.6265   20.8929 C   0  0  0  0  0  0  0  0  0  0  0  0
    7.3827    2.5724   20.5432 C   0  0  0  0  0  0  0  0  0  0  0  0
   11.1529    7.2750   20.8025 C   0  0  0  0  0  0  0  0  0  0  0  0
   10.2573    8.3215   20.9827 C   0  0  0  0  0  0  0  0  0  0  0  0
   11.1606    5.9378   21.2366 N   0  0  0  0  0  0  0  0  0  0  0  0
    9.8932   11.6736   19.0677 O   0  0  0  0  0  0  0  0  0  0  0  0
    6.4470    4.5850   22.2321 C   0  0  0  0  0  0  0  0  0  0  0  0
    8.4619    6.9895   22.2968 C   0  0  0  0  0  0  0  0  0  0  0  0
   12.2747    7.5102   20.0420 C   0  0  0  0  0  0  0  0  0  0  0  0
   14.2544    6.2142   19.4191 C   0  0  0  0  0  0  0  0  0  0  0  0
   13.0695    6.3705   20.0375 N   0  0  0  0  0  0  0  0  0  0  0  0
    9.1913    8.0876   21.8361 N   0  0  0  0  0  0  0  0  0  0  0  0
   10.4739    9.4813   20.2889 C   0  0  0  0  0  0  0  0  0  0  0  0
    7.5551    7.1270   23.1200 O   0  0  0  0  0  0  0  0  0  0  0  0
  1 11  4  0
  1 21  4  0
  2  4  1  0
  2  8  1  0
  2 11  1  0
  3 10  4  0
  3 14  4  0
  4  5  1  0
  4 18  2  0
  6 12  1  0
  6 17  4  0
  6 23  4  0
  7  9  1  0
  7 13  4  0
  7 19  4  0
  9 20  1  0
 10 19  4  0
 11 25  4  0
 13 14  4  0
 15 16  4  0
 15 17  4  0
 15 21  4  0
 16 24  1  0
 16 25  4  0
 20 24  1  0
 20 26  2  0
 21 23  4  0
 22 23  1  0
M  END
$$$$

 Created by Python create_sdf_string function

 26 28  0  0  0  0  0  0  0  0999 V2000
   12.4616    8.6700   19.4180 N   0  0  0  0  0  0  0  0  0  0  0  0
   11.8329   10.8148   18.6769 N   0  0  0  0  0  0  0  0  0  0  0  0
    6.1021    2.5564   21.0678 C   0  0  0  0  0  0  0  0  0  0  0  0
   10.9097   11.8051   18.4804 C   0  0  0  0  0  0  0  0  0  0  0  0
   11.2280   12.9135   17.5669 C   0  0  0  0  0  0  0  0  0  0  0  0
   12.3782    5.4231   20.7777 C   0  0  0  0  0  0  0  0  0  0  0  0
    7.7365    4.6508   21.6987 C   0  0  0  0  0  0  0  0  0  0  0  0
   13.0186   11.0102   18.0020 C   0  0  0  0  0  0  0  0  0  0  0  0
    8.6628    5.7088   21.8871 N   0  0  0  0  0  0  0  0  0  0  0  0
    5.6516    3.5258   21.9140 C   0  0  0  0  0  0  0  0  0  0  0  0
   11.5863    9.6815   19.4539 C   0  0  0  0  0  0  0  0  0  0  0  0
   12.9648    4.1543   20.9205 C   0  0  0  0  0  0  0  0  0  0  0  0
    8.2089    3.6265   20.8929 C   0  0  0  0  0  0  0  0  0  0  0  0
    7.3827    2.5724   20.5432 C   0  0  0  0  0  0  0  0  0  0  0  0
   11.1529    7.2750   20.8025 C   0  0  0  0  0  0  0  0  0  0  0  0
   10.2573    8.3215   20.9827 C   0  0  0  0  0  0  0  0  0  0  0  0
   11.1606    5.9378   21.2366 N   0  0  0  0  0  0  0  0  0  0  0  0
    9.8932   11.6736   19.0677 O   0  0  0  0  0  0  0  0  0  0  0  0
    6.4470    4.5850   22.2321 C   0  0  0  0  0  0  0  0  0  0  0  0
    8.4619    6.9895   22.2968 C   0  0  0  0  0  0  0  0  0  0  0  0
   12.2747    7.5102   20.0420 C   0  0  0  0  0  0  0  0  0  0  0  0
   14.2544    6.2142   19.4191 C   0  0  0  0  0  0  0  0  0  0  0  0
   13.0695    6.3705   20.0375 N   0  0  0  0  0  0  0  0  0  0  0  0
    9.1913    8.0876   21.8361 N   0  0  0  0  0  0  0  0  0  0  0  0
   10.4739    9.4813   20.2889 C   0  0  0  0  0  0  0  0  0  0  0  0
    7.5551    7.1270   23.1200 O   0  0  0  0  0  0  0  0  0  0  0  0
  1 11  4  0
  1 21  4  0
  2  4  1  0
  2  8  1  0
  2 11  1  0
  3 10  4  0
  3 14  4  0
  4  5  1  0
  4 18  2  0
  6 12  1  0
  6 17  4  0
  6 23  4  0
  7  9  1  0
  7 13  4  0
  7 19  4  0
  9 20  1  0
 10 19  4  0
 11 25  4  0
 13 14  4  0
 15 16  4  0
 15 17  4  0
 15 21  4  0
 16 24  1  0
 16 25  4  0
 20 24  1  0
 20 26  2  0
 21 23  4  0
 22 23  1  0
M  END
$$$$

 Created by Python create_sdf_string function

 26 28  0  0  0  0  0  0  0  0999 V2000
   12.4616    8.6700   19.4180 N   0  0  0  0  0  0  0  0  0  0  0  0
   11.8329   10.8148   18.6769 N   0  0  0  0  0  0  0  0  0  0  0  0
    6.1021    2.5564   21.0678 C   0  0  0  0  0  0  0  0  0  0  0  0
   10.9097   11.8051   18.4804 C   0  0  0  0  0  0  0  0  0  0  0  0
   11.2280   12.9135   17.5669 C   0  0  0  0  0  0  0  0  0  0  0  0
   12.3782    5.4231   20.7777 C   0  0  0  0  0  0  0  0  0  0  0  0
    7.7365    4.6508   21.6987 C   0  0  0  0  0  0  0  0  0  0  0  0
   13.0186   11.0102   18.0020 C   0  0  0  0  0  0  0  0  0  0  0  0
    8.6628    5.7088   21.8871 N   0  0  0  0  0  0  0  0  0  0  0  0
    5.6516    3.5258   21.9140 C   0  0  0  0  0  0  0  0  0  0  0  0
   11.5863    9.6815   19.4539 C   0  0  0  0  0  0  0  0  0  0  0  0
   12.9648    4.1543   20.9205 C   0  0  0  0  0  0  0  0  0  0  0  0
    8.2089    3.6265   20.8929 C   0  0  0  0  0  0  0  0  0  0  0  0
    7.3827    2.5724   20.5432 C   0  0  0  0  0  0  0  0  0  0  0  0
   11.1529    7.2750   20.8025 C   0  0  0  0  0  0  0  0  0  0  0  0
   10.2573    8.3215   20.9827 C   0  0  0  0  0  0  0  0  0  0  0  0
   11.1606    5.9378   21.2366 N   0  0  0  0  0  0  0  0  0  0  0  0
    9.8932   11.6736   19.0677 O   0  0  0  0  0  0  0  0  0  0  0  0
    6.4470    4.5850   22.2321 C   0  0  0  0  0  0  0  0  0  0  0  0
    8.4619    6.9895   22.2968 C   0  0  0  0  0  0  0  0  0  0  0  0
   12.2747    7.5102   20.0420 C   0  0  0  0  0  0  0  0  0  0  0  0
   14.2544    6.2142   19.4191 C   0  0  0  0  0  0  0  0  0  0  0  0
   13.0695    6.3705   20.0375 N   0  0  0  0  0  0  0  0  0  0  0  0
    9.1913    8.0876   21.8361 N   0  0  0  0  0  0  0  0  0  0  0  0
   10.4739    9.4813   20.2889 C   0  0  0  0  0  0  0  0  0  0  0  0
    7.5551    7.1270   23.1200 O   0  0  0  0  0  0  0  0  0  0  0  0
  1 11  4  0
  1 21  4  0
  2  4  1  0
  2  8  1  0
  2 11  1  0
  3 10  4  0
  3 14  4  0
  4  5  1  0
  4 18  2  0
  6 12  1  0
  6 17  4  0
  6 23  4  0
  7  9  1  0
  7 13  4  0
  7 19  4  0
  9 20  1  0
 10 19  4  0
 11 25  4  0
 13 14  4  0
 15 16  4  0
 15 17  4  0
 15 21  4  0
 16 24  1  0
 16 25  4  0
 20 24  1  0
 20 26  2  0
 21 23  4  0
 22 23  1  0
M  END
$$$$

 Created by Python create_sdf_string function

 26 28  0  0  0  0  0  0  0  0999 V2000
   12.4616    8.6700   19.4180 N   0  0  0  0  0  0  0  0  0  0  0  0
   11.8329   10.8148   18.6769 N   0  0  0  0  0  0  0  0  0  0  0  0
    6.1021    2.5564   21.0678 C   0  0  0  0  0  0  0  0  0  0  0  0
   10.9097   11.8051   18.4804 C   0  0  0  0  0  0  0  0  0  0  0  0
   11.2280   12.9135   17.5669 C   0  0  0  0  0  0  0  0  0  0  0  0
   12.3782    5.4231   20.7777 C   0  0  0  0  0  0  0  0  0  0  0  0
    7.7365    4.6508   21.6987 C   0  0  0  0  0  0  0  0  0  0  0  0
   13.0186   11.0102   18.0020 C   0  0  0  0  0  0  0  0  0  0  0  0
    8.6628    5.7088   21.8871 N   0  0  0  0  0  0  0  0  0  0  0  0
    5.6516    3.5258   21.9140 C   0  0  0  0  0  0  0  0  0  0  0  0
   11.5863    9.6815   19.4539 C   0  0  0  0  0  0  0  0  0  0  0  0
   12.9648    4.1543   20.9205 C   0  0  0  0  0  0  0  0  0  0  0  0
    8.2089    3.6265   20.8929 C   0  0  0  0  0  0  0  0  0  0  0  0
    7.3827    2.5724   20.5432 C   0  0  0  0  0  0  0  0  0  0  0  0
   11.1529    7.2750   20.8025 C   0  0  0  0  0  0  0  0  0  0  0  0
   10.2573    8.3215   20.9827 C   0  0  0  0  0  0  0  0  0  0  0  0
   11.1606    5.9378   21.2366 N   0  0  0  0  0  0  0  0  0  0  0  0
    9.8932   11.6736   19.0677 O   0  0  0  0  0  0  0  0  0  0  0  0
    6.4470    4.5850   22.2321 C   0  0  0  0  0  0  0  0  0  0  0  0
    8.4619    6.9895   22.2968 C   0  0  0  0  0  0  0  0  0  0  0  0
   12.2747    7.5102   20.0420 C   0  0  0  0  0  0  0  0  0  0  0  0
   14.2544    6.2142   19.4191 C   0  0  0  0  0  0  0  0  0  0  0  0
   13.0695    6.3705   20.0375 N   0  0  0  0  0  0  0  0  0  0  0  0
    9.1913    8.0876   21.8361 N   0  0  0  0  0  0  0  0  0  0  0  0
   10.4739    9.4813   20.2889 C   0  0  0  0  0  0  0  0  0  0  0  0
    7.5551    7.1270   23.1200 O   0  0  0  0  0  0  0  0  0  0  0  0
  1 11  4  0
  1 21  4  0
  2  4  1  0
  2  8  1  0
  2 11  1  0
  3 10  4  0
  3 14  4  0
  4  5  1  0
  4 18  2  0
  6 12  1  0
  6 17  4  0
  6 23  4  0
  7  9  1  0
  7 13  4  0
  7 19  4  0
  9 20  1  0
 10 19  4  0
 11 25  4  0
 13 14  4  0
 15 16  4  0
 15 17  4  0
 15 21  4  0
 16 24  1  0
 16 25  4  0
 20 24  1  0
 20 26  2  0
 21 23  4  0
 22 23  1  0
M  END
$$$$

 Created by Python create_sdf_string function

 26 28  0  0  0  0  0  0  0  0999 V2000
   12.4616    8.6700   19.4180 N   0  0  0  0  0  0  0  0  0  0  0  0
   11.8329   10.8148   18.6769 N   0  0  0  0  0  0  0  0  0  0  0  0
    6.1021    2.5564   21.0678 C   0  0  0  0  0  0  0  0  0  0  0  0
   10.9097   11.8051   18.4804 C   0  0  0  0  0  0  0  0  0  0  0  0
   11.2280   12.9135   17.5669 C   0  0  0  0  0  0  0  0  0  0  0  0
   12.3782    5.4231   20.7777 C   0  0  0  0  0  0  0  0  0  0  0  0
    7.7365    4.6508   21.6987 C   0  0  0  0  0  0  0  0  0  0  0  0
   13.0186   11.0102   18.0020 C   0  0  0  0  0  0  0  0  0  0  0  0
    8.6628    5.7088   21.8871 N   0  0  0  0  0  0  0  0  0  0  0  0
    5.6516    3.5258   21.9140 C   0  0  0  0  0  0  0  0  0  0  0  0
   11.5863    9.6815   19.4539 C   0  0  0  0  0  0  0  0  0  0  0  0
   12.9648    4.1543   20.9205 C   0  0  0  0  0  0  0  0  0  0  0  0
    8.2089    3.6265   20.8929 C   0  0  0  0  0  0  0  0  0  0  0  0
    7.3827    2.5724   20.5432 C   0  0  0  0  0  0  0  0  0  0  0  0
   11.1529    7.2750   20.8025 C   0  0  0  0  0  0  0  0  0  0  0  0
   10.2573    8.3215   20.9827 C   0  0  0  0  0  0  0  0  0  0  0  0
   11.1606    5.9378   21.2366 N   0  0  0  0  0  0  0  0  0  0  0  0
    9.8932   11.6736   19.0677 O   0  0  0  0  0  0  0  0  0  0  0  0
    6.4470    4.5850   22.2321 C   0  0  0  0  0  0  0  0  0  0  0  0
    8.4619    6.9895   22.2968 C   0  0  0  0  0  0  0  0  0  0  0  0
   12.2747    7.5102   20.0420 C   0  0  0  0  0  0  0  0  0  0  0  0
   14.2544    6.2142   19.4191 C   0  0  0  0  0  0  0  0  0  0  0  0
   13.0695    6.3705   20.0375 N   0  0  0  0  0  0  0  0  0  0  0  0
    9.1913    8.0876   21.8361 N   0  0  0  0  0  0  0  0  0  0  0  0
   10.4739    9.4813   20.2889 C   0  0  0  0  0  0  0  0  0  0  0  0
    7.5551    7.1270   23.1200 O   0  0  0  0  0  0  0  0  0  0  0  0
  1 11  4  0
  1 21  4  0
  2  4  1  0
  2  8  1  0
  2 11  1  0
  3 10  4  0
  3 14  4  0
  4  5  1  0
  4 18  2  0
  6 12  1  0
  6 17  4  0
  6 23  4  0
  7  9  1  0
  7 13  4  0
  7 19  4  0
  9 20  1  0
 10 19  4  0
 11 25  4  0
 13 14  4  0
 15 16  4  0
 15 17  4  0
 15 21  4  0
 16 24  1  0
 16 25  4  0
 20 24  1  0
 20 26  2  0
 21 23  4  0
 22 23  1  0
M  END
$$$$

 Created by Python create_sdf_string function

 26 28  0  0  0  0  0  0  0  0999 V2000
   12.4616    8.6700   19.4180 N   0  0  0  0  0  0  0  0  0  0  0  0
   11.8329   10.8148   18.6769 N   0  0  0  0  0  0  0  0  0  0  0  0
    6.1021    2.5564   21.0678 C   0  0  0  0  0  0  0  0  0  0  0  0
   10.9097   11.8051   18.4804 C   0  0  0  0  0  0  0  0  0  0  0  0
   11.2280   12.9135   17.5669 C   0  0  0  0  0  0  0  0  0  0  0  0
   12.3782    5.4231   20.7777 C   0  0  0  0  0  0  0  0  0  0  0  0
    7.7365    4.6508   21.6987 C   0  0  0  0  0  0  0  0  0  0  0  0
   13.0186   11.0102   18.0020 C   0  0  0  0  0  0  0  0  0  0  0  0
    8.6628    5.7088   21.8871 N   0  0  0  0  0  0  0  0  0  0  0  0
    5.6516    3.5258   21.9140 C   0  0  0  0  0  0  0  0  0  0  0  0
   11.5863    9.6815   19.4539 C   0  0  0  0  0  0  0  0  0  0  0  0
   12.9648    4.1543   20.9205 C   0  0  0  0  0  0  0  0  0  0  0  0
    8.2089    3.6265   20.8929 C   0  0  0  0  0  0  0  0  0  0  0  0
    7.3827    2.5724   20.5432 C   0  0  0  0  0  0  0  0  0  0  0  0
   11.1529    7.2750   20.8025 C   0  0  0  0  0  0  0  0  0  0  0  0
   10.2573    8.3215   20.9827 C   0  0  0  0  0  0  0  0  0  0  0  0
   11.1606    5.9378   21.2366 N   0  0  0  0  0  0  0  0  0  0  0  0
    9.8932   11.6736   19.0677 O   0  0  0  0  0  0  0  0  0  0  0  0
    6.4470    4.5850   22.2321 C   0  0  0  0  0  0  0  0  0  0  0  0
    8.4619    6.9895   22.2968 C   0  0  0  0  0  0  0  0  0  0  0  0
   12.2747    7.5102   20.0420 C   0  0  0  0  0  0  0  0  0  0  0  0
   14.2544    6.2142   19.4191 C   0  0  0  0  0  0  0  0  0  0  0  0
   13.0695    6.3705   20.0375 N   0  0  0  0  0  0  0  0  0  0  0  0
    9.1913    8.0876   21.8361 N   0  0  0  0  0  0  0  0  0  0  0  0
   10.4739    9.4813   20.2889 C   0  0  0  0  0  0  0  0  0  0  0  0
    7.5551    7.1270   23.1200 O   0  0  0  0  0  0  0  0  0  0  0  0
  1 11  4  0
  1 21  4  0
  2  4  1  0
  2  8  1  0
  2 11  1  0
  3 10  4  0
  3 14  4  0
  4  5  1  0
  4 18  2  0
  6 12  1  0
  6 17  4  0
  6 23  4  0
  7  9  1  0
  7 13  4  0
  7 19  4  0
  9 20  1  0
 10 19  4  0
 11 25  4  0
 13 14  4  0
 15 16  4  0
 15 17  4  0
 15 21  4  0
 16 24  1  0
 16 25  4  0
 20 24  1  0
 20 26  2  0
 21 23  4  0
 22 23  1  0
M  END
$$$$

 Created by Python create_sdf_string function

 26 28  0  0  0  0  0  0  0  0999 V2000
   12.4616    8.6700   19.4180 N   0  0  0  0  0  0  0  0  0  0  0  0
   11.8329   10.8148   18.6769 N   0  0  0  0  0  0  0  0  0  0  0  0
    6.1021    2.5564   21.0678 C   0  0  0  0  0  0  0  0  0  0  0  0
   10.9097   11.8051   18.4804 C   0  0  0  0  0  0  0  0  0  0  0  0
   11.2280   12.9135   17.5669 C   0  0  0  0  0  0  0  0  0  0  0  0
   12.3782    5.4231   20.7777 C   0  0  0  0  0  0  0  0  0  0  0  0
    7.7365    4.6508   21.6987 C   0  0  0  0  0  0  0  0  0  0  0  0
   13.0186   11.0102   18.0020 C   0  0  0  0  0  0  0  0  0  0  0  0
    8.6628    5.7088   21.8871 N   0  0  0  0  0  0  0  0  0  0  0  0
    5.6516    3.5258   21.9140 C   0  0  0  0  0  0  0  0  0  0  0  0
   11.5863    9.6815   19.4539 C   0  0  0  0  0  0  0  0  0  0  0  0
   12.9648    4.1543   20.9205 C   0  0  0  0  0  0  0  0  0  0  0  0
    8.2089    3.6265   20.8929 C   0  0  0  0  0  0  0  0  0  0  0  0
    7.3827    2.5724   20.5432 C   0  0  0  0  0  0  0  0  0  0  0  0
   11.1529    7.2750   20.8025 C   0  0  0  0  0  0  0  0  0  0  0  0
   10.2573    8.3215   20.9827 C   0  0  0  0  0  0  0  0  0  0  0  0
   11.1606    5.9378   21.2366 N   0  0  0  0  0  0  0  0  0  0  0  0
    9.8932   11.6736   19.0677 O   0  0  0  0  0  0  0  0  0  0  0  0
    6.4470    4.5850   22.2321 C   0  0  0  0  0  0  0  0  0  0  0  0
    8.4619    6.9895   22.2968 C   0  0  0  0  0  0  0  0  0  0  0  0
   12.2747    7.5102   20.0420 C   0  0  0  0  0  0  0  0  0  0  0  0
   14.2544    6.2142   19.4191 C   0  0  0  0  0  0  0  0  0  0  0  0
   13.0695    6.3705   20.0375 N   0  0  0  0  0  0  0  0  0  0  0  0
    9.1913    8.0876   21.8361 N   0  0  0  0  0  0  0  0  0  0  0  0
   10.4739    9.4813   20.2889 C   0  0  0  0  0  0  0  0  0  0  0  0
    7.5551    7.1270   23.1200 O   0  0  0  0  0  0  0  0  0  0  0  0
  1 11  4  0
  1 21  4  0
  2  4  1  0
  2  8  1  0
  2 11  1  0
  3 10  4  0
  3 14  4  0
  4  5  1  0
  4 18  2  0
  6 12  1  0
  6 17  4  0
  6 23  4  0
  7  9  1  0
  7 13  4  0
  7 19  4  0
  9 20  1  0
 10 19  4  0
 11 25  4  0
 13 14  4  0
 15 16  4  0
 15 17  4  0
 15 21  4  0
 16 24  1  0
 16 25  4  0
 20 24  1  0
 20 26  2  0
 21 23  4  0
 22 23  1  0
M  END
$$$$

 Created by Python create_sdf_string function

 26 28  0  0  0  0  0  0  0  0999 V2000
   12.4616    8.6700   19.4180 N   0  0  0  0  0  0  0  0  0  0  0  0
   11.8329   10.8148   18.6769 N   0  0  0  0  0  0  0  0  0  0  0  0
    6.1021    2.5564   21.0678 C   0  0  0  0  0  0  0  0  0  0  0  0
   10.9097   11.8051   18.4804 C   0  0  0  0  0  0  0  0  0  0  0  0
   11.2280   12.9135   17.5669 C   0  0  0  0  0  0  0  0  0  0  0  0
   12.3782    5.4231   20.7777 C   0  0  0  0  0  0  0  0  0  0  0  0
    7.7365    4.6508   21.6987 C   0  0  0  0  0  0  0  0  0  0  0  0
   13.0186   11.0102   18.0020 C   0  0  0  0  0  0  0  0  0  0  0  0
    8.6628    5.7088   21.8871 N   0  0  0  0  0  0  0  0  0  0  0  0
    5.6516    3.5258   21.9140 C   0  0  0  0  0  0  0  0  0  0  0  0
   11.5863    9.6815   19.4539 C   0  0  0  0  0  0  0  0  0  0  0  0
   12.9648    4.1543   20.9205 C   0  0  0  0  0  0  0  0  0  0  0  0
    8.2089    3.6265   20.8929 C   0  0  0  0  0  0  0  0  0  0  0  0
    7.3827    2.5724   20.5432 C   0  0  0  0  0  0  0  0  0  0  0  0
   11.1529    7.2750   20.8025 C   0  0  0  0  0  0  0  0  0  0  0  0
   10.2573    8.3215   20.9827 C   0  0  0  0  0  0  0  0  0  0  0  0
   11.1606    5.9378   21.2366 N   0  0  0  0  0  0  0  0  0  0  0  0
    9.8932   11.6736   19.0677 O   0  0  0  0  0  0  0  0  0  0  0  0
    6.4470    4.5850   22.2321 C   0  0  0  0  0  0  0  0  0  0  0  0
    8.4619    6.9895   22.2968 C   0  0  0  0  0  0  0  0  0  0  0  0
   12.2747    7.5102   20.0420 C   0  0  0  0  0  0  0  0  0  0  0  0
   14.2544    6.2142   19.4191 C   0  0  0  0  0  0  0  0  0  0  0  0
   13.0695    6.3705   20.0375 N   0  0  0  0  0  0  0  0  0  0  0  0
    9.1913    8.0876   21.8361 N   0  0  0  0  0  0  0  0  0  0  0  0
   10.4739    9.4813   20.2889 C   0  0  0  0  0  0  0  0  0  0  0  0
    7.5551    7.1270   23.1200 O   0  0  0  0  0  0  0  0  0  0  0  0
  1 11  4  0
  1 21  4  0
  2  4  1  0
  2  8  1  0
  2 11  1  0
  3 10  4  0
  3 14  4  0
  4  5  1  0
  4 18  2  0
  6 12  1  0
  6 17  4  0
  6 23  4  0
  7  9  1  0
  7 13  4  0
  7 19  4  0
  9 20  1  0
 10 19  4  0
 11 25  4  0
 13 14  4  0
 15 16  4  0
 15 17  4  0
 15 21  4  0
 16 24  1  0
 16 25  4  0
 20 24  1  0
 20 26  2  0
 21 23  4  0
 22 23  1  0
M  END
$$$$

 Created by Python create_sdf_string function

 26 28  0  0  0  0  0  0  0  0999 V2000
   12.4616    8.6700   19.4180 N   0  0  0  0  0  0  0  0  0  0  0  0
   11.8329   10.8148   18.6769 N   0  0  0  0  0  0  0  0  0  0  0  0
    6.1021    2.5564   21.0678 C   0  0  0  0  0  0  0  0  0  0  0  0
   10.9097   11.8051   18.4804 C   0  0  0  0  0  0  0  0  0  0  0  0
   11.2280   12.9135   17.5669 C   0  0  0  0  0  0  0  0  0  0  0  0
   12.3782    5.4231   20.7777 C   0  0  0  0  0  0  0  0  0  0  0  0
    7.7365    4.6508   21.6987 C   0  0  0  0  0  0  0  0  0  0  0  0
   13.0186   11.0102   18.0020 C   0  0  0  0  0  0  0  0  0  0  0  0
    8.6628    5.7088   21.8871 N   0  0  0  0  0  0  0  0  0  0  0  0
    5.6516    3.5258   21.9140 C   0  0  0  0  0  0  0  0  0  0  0  0
   11.5863    9.6815   19.4539 C   0  0  0  0  0  0  0  0  0  0  0  0
   12.9648    4.1543   20.9205 C   0  0  0  0  0  0  0  0  0  0  0  0
    8.2089    3.6265   20.8929 C   0  0  0  0  0  0  0  0  0  0  0  0
    7.3827    2.5724   20.5432 C   0  0  0  0  0  0  0  0  0  0  0  0
   11.1529    7.2750   20.8025 C   0  0  0  0  0  0  0  0  0  0  0  0
   10.2573    8.3215   20.9827 C   0  0  0  0  0  0  0  0  0  0  0  0
   11.1606    5.9378   21.2366 N   0  0  0  0  0  0  0  0  0  0  0  0
    9.8932   11.6736   19.0677 O   0  0  0  0  0  0  0  0  0  0  0  0
    6.4470    4.5850   22.2321 C   0  0  0  0  0  0  0  0  0  0  0  0
    8.4619    6.9895   22.2968 C   0  0  0  0  0  0  0  0  0  0  0  0
   12.2747    7.5102   20.0420 C   0  0  0  0  0  0  0  0  0  0  0  0
   14.2544    6.2142   19.4191 C   0  0  0  0  0  0  0  0  0  0  0  0
   13.0695    6.3705   20.0375 N   0  0  0  0  0  0  0  0  0  0  0  0
    9.1913    8.0876   21.8361 N   0  0  0  0  0  0  0  0  0  0  0  0
   10.4739    9.4813   20.2889 C   0  0  0  0  0  0  0  0  0  0  0  0
    7.5551    7.1270   23.1200 O   0  0  0  0  0  0  0  0  0  0  0  0
  1 11  4  0
  1 21  4  0
  2  4  1  0
  2  8  1  0
  2 11  1  0
  3 10  4  0
  3 14  4  0
  4  5  1  0
  4 18  2  0
  6 12  1  0
  6 17  4  0
  6 23  4  0
  7  9  1  0
  7 13  4  0
  7 19  4  0
  9 20  1  0
 10 19  4  0
 11 25  4  0
 13 14  4  0
 15 16  4  0
 15 17  4  0
 15 21  4  0
 16 24  1  0
 16 25  4  0
 20 24  1  0
 20 26  2  0
 21 23  4  0
 22 23  1  0
M  END
$$$$

 Created by Python create_sdf_string function

 26 28  0  0  0  0  0  0  0  0999 V2000
   12.4616    8.6700   19.4180 N   0  0  0  0  0  0  0  0  0  0  0  0
   11.8329   10.8148   18.6769 N   0  0  0  0  0  0  0  0  0  0  0  0
    6.1021    2.5564   21.0678 C   0  0  0  0  0  0  0  0  0  0  0  0
   10.9097   11.8051   18.4804 C   0  0  0  0  0  0  0  0  0  0  0  0
   11.2280   12.9135   17.5669 C   0  0  0  0  0  0  0  0  0  0  0  0
   12.3782    5.4231   20.7777 C   0  0  0  0  0  0  0  0  0  0  0  0
    7.7365    4.6508   21.6987 C   0  0  0  0  0  0  0  0  0  0  0  0
   13.0186   11.0102   18.0020 C   0  0  0  0  0  0  0  0  0  0  0  0
    8.6628    5.7088   21.8871 N   0  0  0  0  0  0  0  0  0  0  0  0
    5.6516    3.5258   21.9140 C   0  0  0  0  0  0  0  0  0  0  0  0
   11.5863    9.6815   19.4539 C   0  0  0  0  0  0  0  0  0  0  0  0
   12.9648    4.1543   20.9205 C   0  0  0  0  0  0  0  0  0  0  0  0
    8.2089    3.6265   20.8929 C   0  0  0  0  0  0  0  0  0  0  0  0
    7.3827    2.5724   20.5432 C   0  0  0  0  0  0  0  0  0  0  0  0
   11.1529    7.2750   20.8025 C   0  0  0  0  0  0  0  0  0  0  0  0
   10.2573    8.3215   20.9827 C   0  0  0  0  0  0  0  0  0  0  0  0
   11.1606    5.9378   21.2366 N   0  0  0  0  0  0  0  0  0  0  0  0
    9.8932   11.6736   19.0677 O   0  0  0  0  0  0  0  0  0  0  0  0
    6.4470    4.5850   22.2321 C   0  0  0  0  0  0  0  0  0  0  0  0
    8.4619    6.9895   22.2968 C   0  0  0  0  0  0  0  0  0  0  0  0
   12.2747    7.5102   20.0420 C   0  0  0  0  0  0  0  0  0  0  0  0
   14.2544    6.2142   19.4191 C   0  0  0  0  0  0  0  0  0  0  0  0
   13.0695    6.3705   20.0375 N   0  0  0  0  0  0  0  0  0  0  0  0
    9.1913    8.0876   21.8361 N   0  0  0  0  0  0  0  0  0  0  0  0
   10.4739    9.4813   20.2889 C   0  0  0  0  0  0  0  0  0  0  0  0
    7.5551    7.1270   23.1200 O   0  0  0  0  0  0  0  0  0  0  0  0
  1 11  4  0
  1 21  4  0
  2  4  1  0
  2  8  1  0
  2 11  1  0
  3 10  4  0
  3 14  4  0
  4  5  1  0
  4 18  2  0
  6 12  1  0
  6 17  4  0
  6 23  4  0
  7  9  1  0
  7 13  4  0
  7 19  4  0
  9 20  1  0
 10 19  4  0
 11 25  4  0
 13 14  4  0
 15 16  4  0
 15 17  4  0
 15 21  4  0
 16 24  1  0
 16 25  4  0
 20 24  1  0
 20 26  2  0
 21 23  4  0
 22 23  1  0
M  END
$$$$

 Created by Python create_sdf_string function

 26 28  0  0  0  0  0  0  0  0999 V2000
   12.4616    8.6700   19.4180 N   0  0  0  0  0  0  0  0  0  0  0  0
   11.8329   10.8148   18.6769 N   0  0  0  0  0  0  0  0  0  0  0  0
    6.1021    2.5564   21.0678 C   0  0  0  0  0  0  0  0  0  0  0  0
   10.9097   11.8051   18.4804 C   0  0  0  0  0  0  0  0  0  0  0  0
   11.2280   12.9135   17.5669 C   0  0  0  0  0  0  0  0  0  0  0  0
   12.3782    5.4231   20.7777 C   0  0  0  0  0  0  0  0  0  0  0  0
    7.7365    4.6508   21.6987 C   0  0  0  0  0  0  0  0  0  0  0  0
   13.0186   11.0102   18.0020 C   0  0  0  0  0  0  0  0  0  0  0  0
    8.6628    5.7088   21.8871 N   0  0  0  0  0  0  0  0  0  0  0  0
    5.6516    3.5258   21.9140 C   0  0  0  0  0  0  0  0  0  0  0  0
   11.5863    9.6815   19.4539 C   0  0  0  0  0  0  0  0  0  0  0  0
   12.9648    4.1543   20.9205 C   0  0  0  0  0  0  0  0  0  0  0  0
    8.2089    3.6265   20.8929 C   0  0  0  0  0  0  0  0  0  0  0  0
    7.3827    2.5724   20.5432 C   0  0  0  0  0  0  0  0  0  0  0  0
   11.1529    7.2750   20.8025 C   0  0  0  0  0  0  0  0  0  0  0  0
   10.2573    8.3215   20.9827 C   0  0  0  0  0  0  0  0  0  0  0  0
   11.1606    5.9378   21.2366 N   0  0  0  0  0  0  0  0  0  0  0  0
    9.8932   11.6736   19.0677 O   0  0  0  0  0  0  0  0  0  0  0  0
    6.4470    4.5850   22.2321 C   0  0  0  0  0  0  0  0  0  0  0  0
    8.4619    6.9895   22.2968 C   0  0  0  0  0  0  0  0  0  0  0  0
   12.2747    7.5102   20.0420 C   0  0  0  0  0  0  0  0  0  0  0  0
   14.2544    6.2142   19.4191 C   0  0  0  0  0  0  0  0  0  0  0  0
   13.0695    6.3705   20.0375 N   0  0  0  0  0  0  0  0  0  0  0  0
    9.1913    8.0876   21.8361 N   0  0  0  0  0  0  0  0  0  0  0  0
   10.4739    9.4813   20.2889 C   0  0  0  0  0  0  0  0  0  0  0  0
    7.5551    7.1270   23.1200 O   0  0  0  0  0  0  0  0  0  0  0  0
  1 11  4  0
  1 21  4  0
  2  4  1  0
  2  8  1  0
  2 11  1  0
  3 10  4  0
  3 14  4  0
  4  5  1  0
  4 18  2  0
  6 12  1  0
  6 17  4  0
  6 23  4  0
  7  9  1  0
  7 13  4  0
  7 19  4  0
  9 20  1  0
 10 19  4  0
 11 25  4  0
 13 14  4  0
 15 16  4  0
 15 17  4  0
 15 21  4  0
 16 24  1  0
 16 25  4  0
 20 24  1  0
 20 26  2  0
 21 23  4  0
 22 23  1  0
M  END
$$$$

 Created by Python create_sdf_string function

 26 28  0  0  0  0  0  0  0  0999 V2000
   12.4616    8.6700   19.4180 N   0  0  0  0  0  0  0  0  0  0  0  0
   11.8329   10.8148   18.6769 N   0  0  0  0  0  0  0  0  0  0  0  0
    6.1021    2.5564   21.0678 C   0  0  0  0  0  0  0  0  0  0  0  0
   10.9097   11.8051   18.4804 C   0  0  0  0  0  0  0  0  0  0  0  0
   11.2280   12.9135   17.5669 C   0  0  0  0  0  0  0  0  0  0  0  0
   12.3782    5.4231   20.7777 C   0  0  0  0  0  0  0  0  0  0  0  0
    7.7365    4.6508   21.6987 C   0  0  0  0  0  0  0  0  0  0  0  0
   13.0186   11.0102   18.0020 C   0  0  0  0  0  0  0  0  0  0  0  0
    8.6628    5.7088   21.8871 N   0  0  0  0  0  0  0  0  0  0  0  0
    5.6516    3.5258   21.9140 C   0  0  0  0  0  0  0  0  0  0  0  0
   11.5863    9.6815   19.4539 C   0  0  0  0  0  0  0  0  0  0  0  0
   12.9648    4.1543   20.9205 C   0  0  0  0  0  0  0  0  0  0  0  0
    8.2089    3.6265   20.8929 C   0  0  0  0  0  0  0  0  0  0  0  0
    7.3827    2.5724   20.5432 C   0  0  0  0  0  0  0  0  0  0  0  0
   11.1529    7.2750   20.8025 C   0  0  0  0  0  0  0  0  0  0  0  0
   10.2573    8.3215   20.9827 C   0  0  0  0  0  0  0  0  0  0  0  0
   11.1606    5.9378   21.2366 N   0  0  0  0  0  0  0  0  0  0  0  0
    9.8932   11.6736   19.0677 O   0  0  0  0  0  0  0  0  0  0  0  0
    6.4470    4.5850   22.2321 C   0  0  0  0  0  0  0  0  0  0  0  0
    8.4619    6.9895   22.2968 C   0  0  0  0  0  0  0  0  0  0  0  0
   12.2747    7.5102   20.0420 C   0  0  0  0  0  0  0  0  0  0  0  0
   14.2544    6.2142   19.4191 C   0  0  0  0  0  0  0  0  0  0  0  0
   13.0695    6.3705   20.0375 N   0  0  0  0  0  0  0  0  0  0  0  0
    9.1913    8.0876   21.8361 N   0  0  0  0  0  0  0  0  0  0  0  0
   10.4739    9.4813   20.2889 C   0  0  0  0  0  0  0  0  0  0  0  0
    7.5551    7.1270   23.1200 O   0  0  0  0  0  0  0  0  0  0  0  0
  1 11  4  0
  1 21  4  0
  2  4  1  0
  2  8  1  0
  2 11  1  0
  3 10  4  0
  3 14  4  0
  4  5  1  0
  4 18  2  0
  6 12  1  0
  6 17  4  0
  6 23  4  0
  7  9  1  0
  7 13  4  0
  7 19  4  0
  9 20  1  0
 10 19  4  0
 11 25  4  0
 13 14  4  0
 15 16  4  0
 15 17  4  0
 15 21  4  0
 16 24  1  0
 16 25  4  0
 20 24  1  0
 20 26  2  0
 21 23  4  0
 22 23  1  0
M  END
$$$$

 Created by Python create_sdf_string function

 26 28  0  0  0  0  0  0  0  0999 V2000
   12.4616    8.6700   19.4180 N   0  0  0  0  0  0  0  0  0  0  0  0
   11.8329   10.8148   18.6769 N   0  0  0  0  0  0  0  0  0  0  0  0
    6.1021    2.5564   21.0678 C   0  0  0  0  0  0  0  0  0  0  0  0
   10.9097   11.8051   18.4804 C   0  0  0  0  0  0  0  0  0  0  0  0
   11.2280   12.9135   17.5669 C   0  0  0  0  0  0  0  0  0  0  0  0
   12.3782    5.4231   20.7777 C   0  0  0  0  0  0  0  0  0  0  0  0
    7.7365    4.6508   21.6987 C   0  0  0  0  0  0  0  0  0  0  0  0
   13.0186   11.0102   18.0020 C   0  0  0  0  0  0  0  0  0  0  0  0
    8.6628    5.7088   21.8871 N   0  0  0  0  0  0  0  0  0  0  0  0
    5.6516    3.5258   21.9140 C   0  0  0  0  0  0  0  0  0  0  0  0
   11.5863    9.6815   19.4539 C   0  0  0  0  0  0  0  0  0  0  0  0
   12.9648    4.1543   20.9205 C   0  0  0  0  0  0  0  0  0  0  0  0
    8.2089    3.6265   20.8929 C   0  0  0  0  0  0  0  0  0  0  0  0
    7.3827    2.5724   20.5432 C   0  0  0  0  0  0  0  0  0  0  0  0
   11.1529    7.2750   20.8025 C   0  0  0  0  0  0  0  0  0  0  0  0
   10.2573    8.3215   20.9827 C   0  0  0  0  0  0  0  0  0  0  0  0
   11.1606    5.9378   21.2366 N   0  0  0  0  0  0  0  0  0  0  0  0
    9.8932   11.6736   19.0677 O   0  0  0  0  0  0  0  0  0  0  0  0
    6.4470    4.5850   22.2321 C   0  0  0  0  0  0  0  0  0  0  0  0
    8.4619    6.9895   22.2968 C   0  0  0  0  0  0  0  0  0  0  0  0
   12.2747    7.5102   20.0420 C   0  0  0  0  0  0  0  0  0  0  0  0
   14.2544    6.2142   19.4191 C   0  0  0  0  0  0  0  0  0  0  0  0
   13.0695    6.3705   20.0375 N   0  0  0  0  0  0  0  0  0  0  0  0
    9.1913    8.0876   21.8361 N   0  0  0  0  0  0  0  0  0  0  0  0
   10.4739    9.4813   20.2889 C   0  0  0  0  0  0  0  0  0  0  0  0
    7.5551    7.1270   23.1200 O   0  0  0  0  0  0  0  0  0  0  0  0
  1 11  4  0
  1 21  4  0
  2  4  1  0
  2  8  1  0
  2 11  1  0
  3 10  4  0
  3 14  4  0
  4  5  1  0
  4 18  2  0
  6 12  1  0
  6 17  4  0
  6 23  4  0
  7  9  1  0
  7 13  4  0
  7 19  4  0
  9 20  1  0
 10 19  4  0
 11 25  4  0
 13 14  4  0
 15 16  4  0
 15 17  4  0
 15 21  4  0
 16 24  1  0
 16 25  4  0
 20 24  1  0
 20 26  2  0
 21 23  4  0
 22 23  1  0
M  END
$$$$

 Created by Python create_sdf_string function

 26 28  0  0  0  0  0  0  0  0999 V2000
   12.4616    8.6700   19.4180 N   0  0  0  0  0  0  0  0  0  0  0  0
   11.8329   10.8148   18.6769 N   0  0  0  0  0  0  0  0  0  0  0  0
    6.1021    2.5564   21.0678 C   0  0  0  0  0  0  0  0  0  0  0  0
   10.9097   11.8051   18.4804 C   0  0  0  0  0  0  0  0  0  0  0  0
   11.2280   12.9135   17.5669 C   0  0  0  0  0  0  0  0  0  0  0  0
   12.3782    5.4231   20.7777 C   0  0  0  0  0  0  0  0  0  0  0  0
    7.7365    4.6508   21.6987 C   0  0  0  0  0  0  0  0  0  0  0  0
   13.0186   11.0102   18.0020 C   0  0  0  0  0  0  0  0  0  0  0  0
    8.6628    5.7088   21.8871 N   0  0  0  0  0  0  0  0  0  0  0  0
    5.6516    3.5258   21.9140 C   0  0  0  0  0  0  0  0  0  0  0  0
   11.5863    9.6815   19.4539 C   0  0  0  0  0  0  0  0  0  0  0  0
   12.9648    4.1543   20.9205 C   0  0  0  0  0  0  0  0  0  0  0  0
    8.2089    3.6265   20.8929 C   0  0  0  0  0  0  0  0  0  0  0  0
    7.3827    2.5724   20.5432 C   0  0  0  0  0  0  0  0  0  0  0  0
   11.1529    7.2750   20.8025 C   0  0  0  0  0  0  0  0  0  0  0  0
   10.2573    8.3215   20.9827 C   0  0  0  0  0  0  0  0  0  0  0  0
   11.1606    5.9378   21.2366 N   0  0  0  0  0  0  0  0  0  0  0  0
    9.8932   11.6736   19.0677 O   0  0  0  0  0  0  0  0  0  0  0  0
    6.4470    4.5850   22.2321 C   0  0  0  0  0  0  0  0  0  0  0  0
    8.4619    6.9895   22.2968 C   0  0  0  0  0  0  0  0  0  0  0  0
   12.2747    7.5102   20.0420 C   0  0  0  0  0  0  0  0  0  0  0  0
   14.2544    6.2142   19.4191 C   0  0  0  0  0  0  0  0  0  0  0  0
   13.0695    6.3705   20.0375 N   0  0  0  0  0  0  0  0  0  0  0  0
    9.1913    8.0876   21.8361 N   0  0  0  0  0  0  0  0  0  0  0  0
   10.4739    9.4813   20.2889 C   0  0  0  0  0  0  0  0  0  0  0  0
    7.5551    7.1270   23.1200 O   0  0  0  0  0  0  0  0  0  0  0  0
  1 11  4  0
  1 21  4  0
  2  4  1  0
  2  8  1  0
  2 11  1  0
  3 10  4  0
  3 14  4  0
  4  5  1  0
  4 18  2  0
  6 12  1  0
  6 17  4  0
  6 23  4  0
  7  9  1  0
  7 13  4  0
  7 19  4  0
  9 20  1  0
 10 19  4  0
 11 25  4  0
 13 14  4  0
 15 16  4  0
 15 17  4  0
 15 21  4  0
 16 24  1  0
 16 25  4  0
 20 24  1  0
 20 26  2  0
 21 23  4  0
 22 23  1  0
M  END
$$$$

 Created by Python create_sdf_string function

 26 28  0  0  0  0  0  0  0  0999 V2000
   12.4616    8.6700   19.4180 N   0  0  0  0  0  0  0  0  0  0  0  0
   11.8329   10.8148   18.6769 N   0  0  0  0  0  0  0  0  0  0  0  0
    6.1021    2.5564   21.0678 C   0  0  0  0  0  0  0  0  0  0  0  0
   10.9097   11.8051   18.4804 C   0  0  0  0  0  0  0  0  0  0  0  0
   11.2280   12.9135   17.5669 C   0  0  0  0  0  0  0  0  0  0  0  0
   12.3782    5.4231   20.7777 C   0  0  0  0  0  0  0  0  0  0  0  0
    7.7365    4.6508   21.6987 C   0  0  0  0  0  0  0  0  0  0  0  0
   13.0186   11.0102   18.0020 C   0  0  0  0  0  0  0  0  0  0  0  0
    8.6628    5.7088   21.8871 N   0  0  0  0  0  0  0  0  0  0  0  0
    5.6516    3.5258   21.9140 C   0  0  0  0  0  0  0  0  0  0  0  0
   11.5863    9.6815   19.4539 C   0  0  0  0  0  0  0  0  0  0  0  0
   12.9648    4.1543   20.9205 C   0  0  0  0  0  0  0  0  0  0  0  0
    8.2089    3.6265   20.8929 C   0  0  0  0  0  0  0  0  0  0  0  0
    7.3827    2.5724   20.5432 C   0  0  0  0  0  0  0  0  0  0  0  0
   11.1529    7.2750   20.8025 C   0  0  0  0  0  0  0  0  0  0  0  0
   10.2573    8.3215   20.9827 C   0  0  0  0  0  0  0  0  0  0  0  0
   11.1606    5.9378   21.2366 N   0  0  0  0  0  0  0  0  0  0  0  0
    9.8932   11.6736   19.0677 O   0  0  0  0  0  0  0  0  0  0  0  0
    6.4470    4.5850   22.2321 C   0  0  0  0  0  0  0  0  0  0  0  0
    8.4619    6.9895   22.2968 C   0  0  0  0  0  0  0  0  0  0  0  0
   12.2747    7.5102   20.0420 C   0  0  0  0  0  0  0  0  0  0  0  0
   14.2544    6.2142   19.4191 C   0  0  0  0  0  0  0  0  0  0  0  0
   13.0695    6.3705   20.0375 N   0  0  0  0  0  0  0  0  0  0  0  0
    9.1913    8.0876   21.8361 N   0  0  0  0  0  0  0  0  0  0  0  0
   10.4739    9.4813   20.2889 C   0  0  0  0  0  0  0  0  0  0  0  0
    7.5551    7.1270   23.1200 O   0  0  0  0  0  0  0  0  0  0  0  0
  1 11  4  0
  1 21  4  0
  2  4  1  0
  2  8  1  0
  2 11  1  0
  3 10  4  0
  3 14  4  0
  4  5  1  0
  4 18  2  0
  6 12  1  0
  6 17  4  0
  6 23  4  0
  7  9  1  0
  7 13  4  0
  7 19  4  0
  9 20  1  0
 10 19  4  0
 11 25  4  0
 13 14  4  0
 15 16  4  0
 15 17  4  0
 15 21  4  0
 16 24  1  0
 16 25  4  0
 20 24  1  0
 20 26  2  0
 21 23  4  0
 22 23  1  0
M  END
$$$$

 Created by Python create_sdf_string function

 26 28  0  0  0  0  0  0  0  0999 V2000
   12.4616    8.6700   19.4180 N   0  0  0  0  0  0  0  0  0  0  0  0
   11.8329   10.8148   18.6769 N   0  0  0  0  0  0  0  0  0  0  0  0
    6.1021    2.5564   21.0678 C   0  0  0  0  0  0  0  0  0  0  0  0
   10.9097   11.8051   18.4804 C   0  0  0  0  0  0  0  0  0  0  0  0
   11.2280   12.9135   17.5669 C   0  0  0  0  0  0  0  0  0  0  0  0
   12.3782    5.4231   20.7777 C   0  0  0  0  0  0  0  0  0  0  0  0
    7.7365    4.6508   21.6987 C   0  0  0  0  0  0  0  0  0  0  0  0
   13.0186   11.0102   18.0020 C   0  0  0  0  0  0  0  0  0  0  0  0
    8.6628    5.7088   21.8871 N   0  0  0  0  0  0  0  0  0  0  0  0
    5.6516    3.5258   21.9140 C   0  0  0  0  0  0  0  0  0  0  0  0
   11.5863    9.6815   19.4539 C   0  0  0  0  0  0  0  0  0  0  0  0
   12.9648    4.1543   20.9205 C   0  0  0  0  0  0  0  0  0  0  0  0
    8.2089    3.6265   20.8929 C   0  0  0  0  0  0  0  0  0  0  0  0
    7.3827    2.5724   20.5432 C   0  0  0  0  0  0  0  0  0  0  0  0
   11.1529    7.2750   20.8025 C   0  0  0  0  0  0  0  0  0  0  0  0
   10.2573    8.3215   20.9827 C   0  0  0  0  0  0  0  0  0  0  0  0
   11.1606    5.9378   21.2366 N   0  0  0  0  0  0  0  0  0  0  0  0
    9.8932   11.6736   19.0677 O   0  0  0  0  0  0  0  0  0  0  0  0
    6.4470    4.5850   22.2321 C   0  0  0  0  0  0  0  0  0  0  0  0
    8.4619    6.9895   22.2968 C   0  0  0  0  0  0  0  0  0  0  0  0
   12.2747    7.5102   20.0420 C   0  0  0  0  0  0  0  0  0  0  0  0
   14.2544    6.2142   19.4191 C   0  0  0  0  0  0  0  0  0  0  0  0
   13.0695    6.3705   20.0375 N   0  0  0  0  0  0  0  0  0  0  0  0
    9.1913    8.0876   21.8361 N   0  0  0  0  0  0  0  0  0  0  0  0
   10.4739    9.4813   20.2889 C   0  0  0  0  0  0  0  0  0  0  0  0
    7.5551    7.1270   23.1200 O   0  0  0  0  0  0  0  0  0  0  0  0
  1 11  4  0
  1 21  4  0
  2  4  1  0
  2  8  1  0
  2 11  1  0
  3 10  4  0
  3 14  4  0
  4  5  1  0
  4 18  2  0
  6 12  1  0
  6 17  4  0
  6 23  4  0
  7  9  1  0
  7 13  4  0
  7 19  4  0
  9 20  1  0
 10 19  4  0
 11 25  4  0
 13 14  4  0
 15 16  4  0
 15 17  4  0
 15 21  4  0
 16 24  1  0
 16 25  4  0
 20 24  1  0
 20 26  2  0
 21 23  4  0
 22 23  1  0
M  END
$$$$

 Created by Python create_sdf_string function

 26 28  0  0  0  0  0  0  0  0999 V2000
   12.4616    8.6700   19.4180 N   0  0  0  0  0  0  0  0  0  0  0  0
   11.8329   10.8148   18.6769 N   0  0  0  0  0  0  0  0  0  0  0  0
    6.1021    2.5564   21.0678 C   0  0  0  0  0  0  0  0  0  0  0  0
   10.9097   11.8051   18.4804 C   0  0  0  0  0  0  0  0  0  0  0  0
   11.2280   12.9135   17.5669 C   0  0  0  0  0  0  0  0  0  0  0  0
   12.3782    5.4231   20.7777 C   0  0  0  0  0  0  0  0  0  0  0  0
    7.7365    4.6508   21.6987 C   0  0  0  0  0  0  0  0  0  0  0  0
   13.0186   11.0102   18.0020 C   0  0  0  0  0  0  0  0  0  0  0  0
    8.6628    5.7088   21.8871 N   0  0  0  0  0  0  0  0  0  0  0  0
    5.6516    3.5258   21.9140 C   0  0  0  0  0  0  0  0  0  0  0  0
   11.5863    9.6815   19.4539 C   0  0  0  0  0  0  0  0  0  0  0  0
   12.9648    4.1543   20.9205 C   0  0  0  0  0  0  0  0  0  0  0  0
    8.2089    3.6265   20.8929 C   0  0  0  0  0  0  0  0  0  0  0  0
    7.3827    2.5724   20.5432 C   0  0  0  0  0  0  0  0  0  0  0  0
   11.1529    7.2750   20.8025 C   0  0  0  0  0  0  0  0  0  0  0  0
   10.2573    8.3215   20.9827 C   0  0  0  0  0  0  0  0  0  0  0  0
   11.1606    5.9378   21.2366 N   0  0  0  0  0  0  0  0  0  0  0  0
    9.8932   11.6736   19.0677 O   0  0  0  0  0  0  0  0  0  0  0  0
    6.4470    4.5850   22.2321 C   0  0  0  0  0  0  0  0  0  0  0  0
    8.4619    6.9895   22.2968 C   0  0  0  0  0  0  0  0  0  0  0  0
   12.2747    7.5102   20.0420 C   0  0  0  0  0  0  0  0  0  0  0  0
   14.2544    6.2142   19.4191 C   0  0  0  0  0  0  0  0  0  0  0  0
   13.0695    6.3705   20.0375 N   0  0  0  0  0  0  0  0  0  0  0  0
    9.1913    8.0876   21.8361 N   0  0  0  0  0  0  0  0  0  0  0  0
   10.4739    9.4813   20.2889 C   0  0  0  0  0  0  0  0  0  0  0  0
    7.5551    7.1270   23.1200 O   0  0  0  0  0  0  0  0  0  0  0  0
  1 11  4  0
  1 21  4  0
  2  4  1  0
  2  8  1  0
  2 11  1  0
  3 10  4  0
  3 14  4  0
  4  5  1  0
  4 18  2  0
  6 12  1  0
  6 17  4  0
  6 23  4  0
  7  9  1  0
  7 13  4  0
  7 19  4  0
  9 20  1  0
 10 19  4  0
 11 25  4  0
 13 14  4  0
 15 16  4  0
 15 17  4  0
 15 21  4  0
 16 24  1  0
 16 25  4  0
 20 24  1  0
 20 26  2  0
 21 23  4  0
 22 23  1  0
M  END
$$$$

 Created by Python create_sdf_string function

 26 28  0  0  0  0  0  0  0  0999 V2000
   12.4616    8.6700   19.4180 N   0  0  0  0  0  0  0  0  0  0  0  0
   11.8329   10.8148   18.6769 N   0  0  0  0  0  0  0  0  0  0  0  0
    6.1021    2.5564   21.0678 C   0  0  0  0  0  0  0  0  0  0  0  0
   10.9097   11.8051   18.4804 C   0  0  0  0  0  0  0  0  0  0  0  0
   11.2280   12.9135   17.5669 C   0  0  0  0  0  0  0  0  0  0  0  0
   12.3782    5.4231   20.7777 C   0  0  0  0  0  0  0  0  0  0  0  0
    7.7365    4.6508   21.6987 C   0  0  0  0  0  0  0  0  0  0  0  0
   13.0186   11.0102   18.0020 C   0  0  0  0  0  0  0  0  0  0  0  0
    8.6628    5.7088   21.8871 N   0  0  0  0  0  0  0  0  0  0  0  0
    5.6516    3.5258   21.9140 C   0  0  0  0  0  0  0  0  0  0  0  0
   11.5863    9.6815   19.4539 C   0  0  0  0  0  0  0  0  0  0  0  0
   12.9648    4.1543   20.9205 C   0  0  0  0  0  0  0  0  0  0  0  0
    8.2089    3.6265   20.8929 C   0  0  0  0  0  0  0  0  0  0  0  0
    7.3827    2.5724   20.5432 C   0  0  0  0  0  0  0  0  0  0  0  0
   11.1529    7.2750   20.8025 C   0  0  0  0  0  0  0  0  0  0  0  0
   10.2573    8.3215   20.9827 C   0  0  0  0  0  0  0  0  0  0  0  0
   11.1606    5.9378   21.2366 N   0  0  0  0  0  0  0  0  0  0  0  0
    9.8932   11.6736   19.0677 O   0  0  0  0  0  0  0  0  0  0  0  0
    6.4470    4.5850   22.2321 C   0  0  0  0  0  0  0  0  0  0  0  0
    8.4619    6.9895   22.2968 C   0  0  0  0  0  0  0  0  0  0  0  0
   12.2747    7.5102   20.0420 C   0  0  0  0  0  0  0  0  0  0  0  0
   14.2544    6.2142   19.4191 C   0  0  0  0  0  0  0  0  0  0  0  0
   13.0695    6.3705   20.0375 N   0  0  0  0  0  0  0  0  0  0  0  0
    9.1913    8.0876   21.8361 N   0  0  0  0  0  0  0  0  0  0  0  0
   10.4739    9.4813   20.2889 C   0  0  0  0  0  0  0  0  0  0  0  0
    7.5551    7.1270   23.1200 O   0  0  0  0  0  0  0  0  0  0  0  0
  1 11  4  0
  1 21  4  0
  2  4  1  0
  2  8  1  0
  2 11  1  0
  3 10  4  0
  3 14  4  0
  4  5  1  0
  4 18  2  0
  6 12  1  0
  6 17  4  0
  6 23  4  0
  7  9  1  0
  7 13  4  0
  7 19  4  0
  9 20  1  0
 10 19  4  0
 11 25  4  0
 13 14  4  0
 15 16  4  0
 15 17  4  0
 15 21  4  0
 16 24  1  0
 16 25  4  0
 20 24  1  0
 20 26  2  0
 21 23  4  0
 22 23  1  0
M  END
$$$$

 Created by Python create_sdf_string function

 26 28  0  0  0  0  0  0  0  0999 V2000
   12.4616    8.6700   19.4180 N   0  0  0  0  0  0  0  0  0  0  0  0
   11.8329   10.8148   18.6769 N   0  0  0  0  0  0  0  0  0  0  0  0
    6.1021    2.5564   21.0678 C   0  0  0  0  0  0  0  0  0  0  0  0
   10.9097   11.8051   18.4804 C   0  0  0  0  0  0  0  0  0  0  0  0
   11.2280   12.9135   17.5669 C   0  0  0  0  0  0  0  0  0  0  0  0
   12.3782    5.4231   20.7777 C   0  0  0  0  0  0  0  0  0  0  0  0
    7.7365    4.6508   21.6987 C   0  0  0  0  0  0  0  0  0  0  0  0
   13.0186   11.0102   18.0020 C   0  0  0  0  0  0  0  0  0  0  0  0
    8.6628    5.7088   21.8871 N   0  0  0  0  0  0  0  0  0  0  0  0
    5.6516    3.5258   21.9140 C   0  0  0  0  0  0  0  0  0  0  0  0
   11.5863    9.6815   19.4539 C   0  0  0  0  0  0  0  0  0  0  0  0
   12.9648    4.1543   20.9205 C   0  0  0  0  0  0  0  0  0  0  0  0
    8.2089    3.6265   20.8929 C   0  0  0  0  0  0  0  0  0  0  0  0
    7.3827    2.5724   20.5432 C   0  0  0  0  0  0  0  0  0  0  0  0
   11.1529    7.2750   20.8025 C   0  0  0  0  0  0  0  0  0  0  0  0
   10.2573    8.3215   20.9827 C   0  0  0  0  0  0  0  0  0  0  0  0
   11.1606    5.9378   21.2366 N   0  0  0  0  0  0  0  0  0  0  0  0
    9.8932   11.6736   19.0677 O   0  0  0  0  0  0  0  0  0  0  0  0
    6.4470    4.5850   22.2321 C   0  0  0  0  0  0  0  0  0  0  0  0
    8.4619    6.9895   22.2968 C   0  0  0  0  0  0  0  0  0  0  0  0
   12.2747    7.5102   20.0420 C   0  0  0  0  0  0  0  0  0  0  0  0
   14.2544    6.2142   19.4191 C   0  0  0  0  0  0  0  0  0  0  0  0
   13.0695    6.3705   20.0375 N   0  0  0  0  0  0  0  0  0  0  0  0
    9.1913    8.0876   21.8361 N   0  0  0  0  0  0  0  0  0  0  0  0
   10.4739    9.4813   20.2889 C   0  0  0  0  0  0  0  0  0  0  0  0
    7.5551    7.1270   23.1200 O   0  0  0  0  0  0  0  0  0  0  0  0
  1 11  4  0
  1 21  4  0
  2  4  1  0
  2  8  1  0
  2 11  1  0
  3 10  4  0
  3 14  4  0
  4  5  1  0
  4 18  2  0
  6 12  1  0
  6 17  4  0
  6 23  4  0
  7  9  1  0
  7 13  4  0
  7 19  4  0
  9 20  1  0
 10 19  4  0
 11 25  4  0
 13 14  4  0
 15 16  4  0
 15 17  4  0
 15 21  4  0
 16 24  1  0
 16 25  4  0
 20 24  1  0
 20 26  2  0
 21 23  4  0
 22 23  1  0
M  END
$$$$

 Created by Python create_sdf_string function

 26 28  0  0  0  0  0  0  0  0999 V2000
   12.4616    8.6700   19.4180 N   0  0  0  0  0  0  0  0  0  0  0  0
   11.8329   10.8148   18.6769 N   0  0  0  0  0  0  0  0  0  0  0  0
    6.1021    2.5564   21.0678 C   0  0  0  0  0  0  0  0  0  0  0  0
   10.9097   11.8051   18.4804 C   0  0  0  0  0  0  0  0  0  0  0  0
   11.2280   12.9135   17.5669 C   0  0  0  0  0  0  0  0  0  0  0  0
   12.3782    5.4231   20.7777 C   0  0  0  0  0  0  0  0  0  0  0  0
    7.7365    4.6508   21.6987 C   0  0  0  0  0  0  0  0  0  0  0  0
   13.0186   11.0102   18.0020 C   0  0  0  0  0  0  0  0  0  0  0  0
    8.6628    5.7088   21.8871 N   0  0  0  0  0  0  0  0  0  0  0  0
    5.6516    3.5258   21.9140 C   0  0  0  0  0  0  0  0  0  0  0  0
   11.5863    9.6815   19.4539 C   0  0  0  0  0  0  0  0  0  0  0  0
   12.9648    4.1543   20.9205 C   0  0  0  0  0  0  0  0  0  0  0  0
    8.2089    3.6265   20.8929 C   0  0  0  0  0  0  0  0  0  0  0  0
    7.3827    2.5724   20.5432 C   0  0  0  0  0  0  0  0  0  0  0  0
   11.1529    7.2750   20.8025 C   0  0  0  0  0  0  0  0  0  0  0  0
   10.2573    8.3215   20.9827 C   0  0  0  0  0  0  0  0  0  0  0  0
   11.1606    5.9378   21.2366 N   0  0  0  0  0  0  0  0  0  0  0  0
    9.8932   11.6736   19.0677 O   0  0  0  0  0  0  0  0  0  0  0  0
    6.4470    4.5850   22.2321 C   0  0  0  0  0  0  0  0  0  0  0  0
    8.4619    6.9895   22.2968 C   0  0  0  0  0  0  0  0  0  0  0  0
   12.2747    7.5102   20.0420 C   0  0  0  0  0  0  0  0  0  0  0  0
   14.2544    6.2142   19.4191 C   0  0  0  0  0  0  0  0  0  0  0  0
   13.0695    6.3705   20.0375 N   0  0  0  0  0  0  0  0  0  0  0  0
    9.1913    8.0876   21.8361 N   0  0  0  0  0  0  0  0  0  0  0  0
   10.4739    9.4813   20.2889 C   0  0  0  0  0  0  0  0  0  0  0  0
    7.5551    7.1270   23.1200 O   0  0  0  0  0  0  0  0  0  0  0  0
  1 11  4  0
  1 21  4  0
  2  4  1  0
  2  8  1  0
  2 11  1  0
  3 10  4  0
  3 14  4  0
  4  5  1  0
  4 18  2  0
  6 12  1  0
  6 17  4  0
  6 23  4  0
  7  9  1  0
  7 13  4  0
  7 19  4  0
  9 20  1  0
 10 19  4  0
 11 25  4  0
 13 14  4  0
 15 16  4  0
 15 17  4  0
 15 21  4  0
 16 24  1  0
 16 25  4  0
 20 24  1  0
 20 26  2  0
 21 23  4  0
 22 23  1  0
M  END
$$$$

 Created by Python create_sdf_string function

 26 28  0  0  0  0  0  0  0  0999 V2000
   12.4616    8.6700   19.4180 N   0  0  0  0  0  0  0  0  0  0  0  0
   11.8329   10.8148   18.6769 N   0  0  0  0  0  0  0  0  0  0  0  0
    6.1021    2.5564   21.0678 C   0  0  0  0  0  0  0  0  0  0  0  0
   10.9097   11.8051   18.4804 C   0  0  0  0  0  0  0  0  0  0  0  0
   11.2280   12.9135   17.5669 C   0  0  0  0  0  0  0  0  0  0  0  0
   12.3782    5.4231   20.7777 C   0  0  0  0  0  0  0  0  0  0  0  0
    7.7365    4.6508   21.6987 C   0  0  0  0  0  0  0  0  0  0  0  0
   13.0186   11.0102   18.0020 C   0  0  0  0  0  0  0  0  0  0  0  0
    8.6628    5.7088   21.8871 N   0  0  0  0  0  0  0  0  0  0  0  0
    5.6516    3.5258   21.9140 C   0  0  0  0  0  0  0  0  0  0  0  0
   11.5863    9.6815   19.4539 C   0  0  0  0  0  0  0  0  0  0  0  0
   12.9648    4.1543   20.9205 C   0  0  0  0  0  0  0  0  0  0  0  0
    8.2089    3.6265   20.8929 C   0  0  0  0  0  0  0  0  0  0  0  0
    7.3827    2.5724   20.5432 C   0  0  0  0  0  0  0  0  0  0  0  0
   11.1529    7.2750   20.8025 C   0  0  0  0  0  0  0  0  0  0  0  0
   10.2573    8.3215   20.9827 C   0  0  0  0  0  0  0  0  0  0  0  0
   11.1606    5.9378   21.2366 N   0  0  0  0  0  0  0  0  0  0  0  0
    9.8932   11.6736   19.0677 O   0  0  0  0  0  0  0  0  0  0  0  0
    6.4470    4.5850   22.2321 C   0  0  0  0  0  0  0  0  0  0  0  0
    8.4619    6.9895   22.2968 C   0  0  0  0  0  0  0  0  0  0  0  0
   12.2747    7.5102   20.0420 C   0  0  0  0  0  0  0  0  0  0  0  0
   14.2544    6.2142   19.4191 C   0  0  0  0  0  0  0  0  0  0  0  0
   13.0695    6.3705   20.0375 N   0  0  0  0  0  0  0  0  0  0  0  0
    9.1913    8.0876   21.8361 N   0  0  0  0  0  0  0  0  0  0  0  0
   10.4739    9.4813   20.2889 C   0  0  0  0  0  0  0  0  0  0  0  0
    7.5551    7.1270   23.1200 O   0  0  0  0  0  0  0  0  0  0  0  0
  1 11  4  0
  1 21  4  0
  2  4  1  0
  2  8  1  0
  2 11  1  0
  3 10  4  0
  3 14  4  0
  4  5  1  0
  4 18  2  0
  6 12  1  0
  6 17  4  0
  6 23  4  0
  7  9  1  0
  7 13  4  0
  7 19  4  0
  9 20  1  0
 10 19  4  0
 11 25  4  0
 13 14  4  0
 15 16  4  0
 15 17  4  0
 15 21  4  0
 16 24  1  0
 16 25  4  0
 20 24  1  0
 20 26  2  0
 21 23  4  0
 22 23  1  0
M  END
$$$$

 Created by Python create_sdf_string function

 26 28  0  0  0  0  0  0  0  0999 V2000
   12.4616    8.6700   19.4180 N   0  0  0  0  0  0  0  0  0  0  0  0
   11.8329   10.8148   18.6769 N   0  0  0  0  0  0  0  0  0  0  0  0
    6.1021    2.5564   21.0678 C   0  0  0  0  0  0  0  0  0  0  0  0
   10.9097   11.8051   18.4804 C   0  0  0  0  0  0  0  0  0  0  0  0
   11.2280   12.9135   17.5669 C   0  0  0  0  0  0  0  0  0  0  0  0
   12.3782    5.4231   20.7777 C   0  0  0  0  0  0  0  0  0  0  0  0
    7.7365    4.6508   21.6987 C   0  0  0  0  0  0  0  0  0  0  0  0
   13.0186   11.0102   18.0020 C   0  0  0  0  0  0  0  0  0  0  0  0
    8.6628    5.7088   21.8871 N   0  0  0  0  0  0  0  0  0  0  0  0
    5.6516    3.5258   21.9140 C   0  0  0  0  0  0  0  0  0  0  0  0
   11.5863    9.6815   19.4539 C   0  0  0  0  0  0  0  0  0  0  0  0
   12.9648    4.1543   20.9205 C   0  0  0  0  0  0  0  0  0  0  0  0
    8.2089    3.6265   20.8929 C   0  0  0  0  0  0  0  0  0  0  0  0
    7.3827    2.5724   20.5432 C   0  0  0  0  0  0  0  0  0  0  0  0
   11.1529    7.2750   20.8025 C   0  0  0  0  0  0  0  0  0  0  0  0
   10.2573    8.3215   20.9827 C   0  0  0  0  0  0  0  0  0  0  0  0
   11.1606    5.9378   21.2366 N   0  0  0  0  0  0  0  0  0  0  0  0
    9.8932   11.6736   19.0677 O   0  0  0  0  0  0  0  0  0  0  0  0
    6.4470    4.5850   22.2321 C   0  0  0  0  0  0  0  0  0  0  0  0
    8.4619    6.9895   22.2968 C   0  0  0  0  0  0  0  0  0  0  0  0
   12.2747    7.5102   20.0420 C   0  0  0  0  0  0  0  0  0  0  0  0
   14.2544    6.2142   19.4191 C   0  0  0  0  0  0  0  0  0  0  0  0
   13.0695    6.3705   20.0375 N   0  0  0  0  0  0  0  0  0  0  0  0
    9.1913    8.0876   21.8361 N   0  0  0  0  0  0  0  0  0  0  0  0
   10.4739    9.4813   20.2889 C   0  0  0  0  0  0  0  0  0  0  0  0
    7.5551    7.1270   23.1200 O   0  0  0  0  0  0  0  0  0  0  0  0
  1 11  4  0
  1 21  4  0
  2  4  1  0
  2  8  1  0
  2 11  1  0
  3 10  4  0
  3 14  4  0
  4  5  1  0
  4 18  2  0
  6 12  1  0
  6 17  4  0
  6 23  4  0
  7  9  1  0
  7 13  4  0
  7 19  4  0
  9 20  1  0
 10 19  4  0
 11 25  4  0
 13 14  4  0
 15 16  4  0
 15 17  4  0
 15 21  4  0
 16 24  1  0
 16 25  4  0
 20 24  1  0
 20 26  2  0
 21 23  4  0
 22 23  1  0
M  END
$$$$

 Created by Python create_sdf_string function

 26 28  0  0  0  0  0  0  0  0999 V2000
   12.4616    8.6700   19.4180 N   0  0  0  0  0  0  0  0  0  0  0  0
   11.8329   10.8148   18.6769 N   0  0  0  0  0  0  0  0  0  0  0  0
    6.1021    2.5564   21.0678 C   0  0  0  0  0  0  0  0  0  0  0  0
   10.9097   11.8051   18.4804 C   0  0  0  0  0  0  0  0  0  0  0  0
   11.2280   12.9135   17.5669 C   0  0  0  0  0  0  0  0  0  0  0  0
   12.3782    5.4231   20.7777 C   0  0  0  0  0  0  0  0  0  0  0  0
    7.7365    4.6508   21.6987 C   0  0  0  0  0  0  0  0  0  0  0  0
   13.0186   11.0102   18.0020 C   0  0  0  0  0  0  0  0  0  0  0  0
    8.6628    5.7088   21.8871 N   0  0  0  0  0  0  0  0  0  0  0  0
    5.6516    3.5258   21.9140 C   0  0  0  0  0  0  0  0  0  0  0  0
   11.5863    9.6815   19.4539 C   0  0  0  0  0  0  0  0  0  0  0  0
   12.9648    4.1543   20.9205 C   0  0  0  0  0  0  0  0  0  0  0  0
    8.2089    3.6265   20.8929 C   0  0  0  0  0  0  0  0  0  0  0  0
    7.3827    2.5724   20.5432 C   0  0  0  0  0  0  0  0  0  0  0  0
   11.1529    7.2750   20.8025 C   0  0  0  0  0  0  0  0  0  0  0  0
   10.2573    8.3215   20.9827 C   0  0  0  0  0  0  0  0  0  0  0  0
   11.1606    5.9378   21.2366 N   0  0  0  0  0  0  0  0  0  0  0  0
    9.8932   11.6736   19.0677 O   0  0  0  0  0  0  0  0  0  0  0  0
    6.4470    4.5850   22.2321 C   0  0  0  0  0  0  0  0  0  0  0  0
    8.4619    6.9895   22.2968 C   0  0  0  0  0  0  0  0  0  0  0  0
   12.2747    7.5102   20.0420 C   0  0  0  0  0  0  0  0  0  0  0  0
   14.2544    6.2142   19.4191 C   0  0  0  0  0  0  0  0  0  0  0  0
   13.0695    6.3705   20.0375 N   0  0  0  0  0  0  0  0  0  0  0  0
    9.1913    8.0876   21.8361 N   0  0  0  0  0  0  0  0  0  0  0  0
   10.4739    9.4813   20.2889 C   0  0  0  0  0  0  0  0  0  0  0  0
    7.5551    7.1270   23.1200 O   0  0  0  0  0  0  0  0  0  0  0  0
  1 11  4  0
  1 21  4  0
  2  4  1  0
  2  8  1  0
  2 11  1  0
  3 10  4  0
  3 14  4  0
  4  5  1  0
  4 18  2  0
  6 12  1  0
  6 17  4  0
  6 23  4  0
  7  9  1  0
  7 13  4  0
  7 19  4  0
  9 20  1  0
 10 19  4  0
 11 25  4  0
 13 14  4  0
 15 16  4  0
 15 17  4  0
 15 21  4  0
 16 24  1  0
 16 25  4  0
 20 24  1  0
 20 26  2  0
 21 23  4  0
 22 23  1  0
M  END
$$$$

 Created by Python create_sdf_string function

 26 28  0  0  0  0  0  0  0  0999 V2000
   12.4616    8.6700   19.4180 N   0  0  0  0  0  0  0  0  0  0  0  0
   11.8329   10.8148   18.6769 N   0  0  0  0  0  0  0  0  0  0  0  0
    6.1021    2.5564   21.0678 C   0  0  0  0  0  0  0  0  0  0  0  0
   10.9097   11.8051   18.4804 C   0  0  0  0  0  0  0  0  0  0  0  0
   11.2280   12.9135   17.5669 C   0  0  0  0  0  0  0  0  0  0  0  0
   12.3782    5.4231   20.7777 C   0  0  0  0  0  0  0  0  0  0  0  0
    7.7365    4.6508   21.6987 C   0  0  0  0  0  0  0  0  0  0  0  0
   13.0186   11.0102   18.0020 C   0  0  0  0  0  0  0  0  0  0  0  0
    8.6628    5.7088   21.8871 N   0  0  0  0  0  0  0  0  0  0  0  0
    5.6516    3.5258   21.9140 C   0  0  0  0  0  0  0  0  0  0  0  0
   11.5863    9.6815   19.4539 C   0  0  0  0  0  0  0  0  0  0  0  0
   12.9648    4.1543   20.9205 C   0  0  0  0  0  0  0  0  0  0  0  0
    8.2089    3.6265   20.8929 C   0  0  0  0  0  0  0  0  0  0  0  0
    7.3827    2.5724   20.5432 C   0  0  0  0  0  0  0  0  0  0  0  0
   11.1529    7.2750   20.8025 C   0  0  0  0  0  0  0  0  0  0  0  0
   10.2573    8.3215   20.9827 C   0  0  0  0  0  0  0  0  0  0  0  0
   11.1606    5.9378   21.2366 N   0  0  0  0  0  0  0  0  0  0  0  0
    9.8932   11.6736   19.0677 O   0  0  0  0  0  0  0  0  0  0  0  0
    6.4470    4.5850   22.2321 C   0  0  0  0  0  0  0  0  0  0  0  0
    8.4619    6.9895   22.2968 C   0  0  0  0  0  0  0  0  0  0  0  0
   12.2747    7.5102   20.0420 C   0  0  0  0  0  0  0  0  0  0  0  0
   14.2544    6.2142   19.4191 C   0  0  0  0  0  0  0  0  0  0  0  0
   13.0695    6.3705   20.0375 N   0  0  0  0  0  0  0  0  0  0  0  0
    9.1913    8.0876   21.8361 N   0  0  0  0  0  0  0  0  0  0  0  0
   10.4739    9.4813   20.2889 C   0  0  0  0  0  0  0  0  0  0  0  0
    7.5551    7.1270   23.1200 O   0  0  0  0  0  0  0  0  0  0  0  0
  1 11  4  0
  1 21  4  0
  2  4  1  0
  2  8  1  0
  2 11  1  0
  3 10  4  0
  3 14  4  0
  4  5  1  0
  4 18  2  0
  6 12  1  0
  6 17  4  0
  6 23  4  0
  7  9  1  0
  7 13  4  0
  7 19  4  0
  9 20  1  0
 10 19  4  0
 11 25  4  0
 13 14  4  0
 15 16  4  0
 15 17  4  0
 15 21  4  0
 16 24  1  0
 16 25  4  0
 20 24  1  0
 20 26  2  0
 21 23  4  0
 22 23  1  0
M  END
$$$$

 Created by Python create_sdf_string function

 26 28  0  0  0  0  0  0  0  0999 V2000
   12.4616    8.6700   19.4180 N   0  0  0  0  0  0  0  0  0  0  0  0
   11.8329   10.8148   18.6769 N   0  0  0  0  0  0  0  0  0  0  0  0
    6.1021    2.5564   21.0678 C   0  0  0  0  0  0  0  0  0  0  0  0
   10.9097   11.8051   18.4804 C   0  0  0  0  0  0  0  0  0  0  0  0
   11.2280   12.9135   17.5669 C   0  0  0  0  0  0  0  0  0  0  0  0
   12.3782    5.4231   20.7777 C   0  0  0  0  0  0  0  0  0  0  0  0
    7.7365    4.6508   21.6987 C   0  0  0  0  0  0  0  0  0  0  0  0
   13.0186   11.0102   18.0020 C   0  0  0  0  0  0  0  0  0  0  0  0
    8.6628    5.7088   21.8871 N   0  0  0  0  0  0  0  0  0  0  0  0
    5.6516    3.5258   21.9140 C   0  0  0  0  0  0  0  0  0  0  0  0
   11.5863    9.6815   19.4539 C   0  0  0  0  0  0  0  0  0  0  0  0
   12.9648    4.1543   20.9205 C   0  0  0  0  0  0  0  0  0  0  0  0
    8.2089    3.6265   20.8929 C   0  0  0  0  0  0  0  0  0  0  0  0
    7.3827    2.5724   20.5432 C   0  0  0  0  0  0  0  0  0  0  0  0
   11.1529    7.2750   20.8025 C   0  0  0  0  0  0  0  0  0  0  0  0
   10.2573    8.3215   20.9827 C   0  0  0  0  0  0  0  0  0  0  0  0
   11.1606    5.9378   21.2366 N   0  0  0  0  0  0  0  0  0  0  0  0
    9.8932   11.6736   19.0677 O   0  0  0  0  0  0  0  0  0  0  0  0
    6.4470    4.5850   22.2321 C   0  0  0  0  0  0  0  0  0  0  0  0
    8.4619    6.9895   22.2968 C   0  0  0  0  0  0  0  0  0  0  0  0
   12.2747    7.5102   20.0420 C   0  0  0  0  0  0  0  0  0  0  0  0
   14.2544    6.2142   19.4191 C   0  0  0  0  0  0  0  0  0  0  0  0
   13.0695    6.3705   20.0375 N   0  0  0  0  0  0  0  0  0  0  0  0
    9.1913    8.0876   21.8361 N   0  0  0  0  0  0  0  0  0  0  0  0
   10.4739    9.4813   20.2889 C   0  0  0  0  0  0  0  0  0  0  0  0
    7.5551    7.1270   23.1200 O   0  0  0  0  0  0  0  0  0  0  0  0
  1 11  4  0
  1 21  4  0
  2  4  1  0
  2  8  1  0
  2 11  1  0
  3 10  4  0
  3 14  4  0
  4  5  1  0
  4 18  2  0
  6 12  1  0
  6 17  4  0
  6 23  4  0
  7  9  1  0
  7 13  4  0
  7 19  4  0
  9 20  1  0
 10 19  4  0
 11 25  4  0
 13 14  4  0
 15 16  4  0
 15 17  4  0
 15 21  4  0
 16 24  1  0
 16 25  4  0
 20 24  1  0
 20 26  2  0
 21 23  4  0
 22 23  1  0
M  END
$$$$

 Created by Python create_sdf_string function

 26 28  0  0  0  0  0  0  0  0999 V2000
   12.4616    8.6700   19.4180 N   0  0  0  0  0  0  0  0  0  0  0  0
   11.8329   10.8148   18.6769 N   0  0  0  0  0  0  0  0  0  0  0  0
    6.1021    2.5564   21.0678 C   0  0  0  0  0  0  0  0  0  0  0  0
   10.9097   11.8051   18.4804 C   0  0  0  0  0  0  0  0  0  0  0  0
   11.2280   12.9135   17.5669 C   0  0  0  0  0  0  0  0  0  0  0  0
   12.3782    5.4231   20.7777 C   0  0  0  0  0  0  0  0  0  0  0  0
    7.7365    4.6508   21.6987 C   0  0  0  0  0  0  0  0  0  0  0  0
   13.0186   11.0102   18.0020 C   0  0  0  0  0  0  0  0  0  0  0  0
    8.6628    5.7088   21.8871 N   0  0  0  0  0  0  0  0  0  0  0  0
    5.6516    3.5258   21.9140 C   0  0  0  0  0  0  0  0  0  0  0  0
   11.5863    9.6815   19.4539 C   0  0  0  0  0  0  0  0  0  0  0  0
   12.9648    4.1543   20.9205 C   0  0  0  0  0  0  0  0  0  0  0  0
    8.2089    3.6265   20.8929 C   0  0  0  0  0  0  0  0  0  0  0  0
    7.3827    2.5724   20.5432 C   0  0  0  0  0  0  0  0  0  0  0  0
   11.1529    7.2750   20.8025 C   0  0  0  0  0  0  0  0  0  0  0  0
   10.2573    8.3215   20.9827 C   0  0  0  0  0  0  0  0  0  0  0  0
   11.1606    5.9378   21.2366 N   0  0  0  0  0  0  0  0  0  0  0  0
    9.8932   11.6736   19.0677 O   0  0  0  0  0  0  0  0  0  0  0  0
    6.4470    4.5850   22.2321 C   0  0  0  0  0  0  0  0  0  0  0  0
    8.4619    6.9895   22.2968 C   0  0  0  0  0  0  0  0  0  0  0  0
   12.2747    7.5102   20.0420 C   0  0  0  0  0  0  0  0  0  0  0  0
   14.2544    6.2142   19.4191 C   0  0  0  0  0  0  0  0  0  0  0  0
   13.0695    6.3705   20.0375 N   0  0  0  0  0  0  0  0  0  0  0  0
    9.1913    8.0876   21.8361 N   0  0  0  0  0  0  0  0  0  0  0  0
   10.4739    9.4813   20.2889 C   0  0  0  0  0  0  0  0  0  0  0  0
    7.5551    7.1270   23.1200 O   0  0  0  0  0  0  0  0  0  0  0  0
  1 11  4  0
  1 21  4  0
  2  4  1  0
  2  8  1  0
  2 11  1  0
  3 10  4  0
  3 14  4  0
  4  5  1  0
  4 18  2  0
  6 12  1  0
  6 17  4  0
  6 23  4  0
  7  9  1  0
  7 13  4  0
  7 19  4  0
  9 20  1  0
 10 19  4  0
 11 25  4  0
 13 14  4  0
 15 16  4  0
 15 17  4  0
 15 21  4  0
 16 24  1  0
 16 25  4  0
 20 24  1  0
 20 26  2  0
 21 23  4  0
 22 23  1  0
M  END
$$$$

 Created by Python create_sdf_string function

 26 28  0  0  0  0  0  0  0  0999 V2000
   12.4616    8.6700   19.4180 N   0  0  0  0  0  0  0  0  0  0  0  0
   11.8329   10.8148   18.6769 N   0  0  0  0  0  0  0  0  0  0  0  0
    6.1021    2.5564   21.0678 C   0  0  0  0  0  0  0  0  0  0  0  0
   10.9097   11.8051   18.4804 C   0  0  0  0  0  0  0  0  0  0  0  0
   11.2280   12.9135   17.5669 C   0  0  0  0  0  0  0  0  0  0  0  0
   12.3782    5.4231   20.7777 C   0  0  0  0  0  0  0  0  0  0  0  0
    7.7365    4.6508   21.6987 C   0  0  0  0  0  0  0  0  0  0  0  0
   13.0186   11.0102   18.0020 C   0  0  0  0  0  0  0  0  0  0  0  0
    8.6628    5.7088   21.8871 N   0  0  0  0  0  0  0  0  0  0  0  0
    5.6516    3.5258   21.9140 C   0  0  0  0  0  0  0  0  0  0  0  0
   11.5863    9.6815   19.4539 C   0  0  0  0  0  0  0  0  0  0  0  0
   12.9648    4.1543   20.9205 C   0  0  0  0  0  0  0  0  0  0  0  0
    8.2089    3.6265   20.8929 C   0  0  0  0  0  0  0  0  0  0  0  0
    7.3827    2.5724   20.5432 C   0  0  0  0  0  0  0  0  0  0  0  0
   11.1529    7.2750   20.8025 C   0  0  0  0  0  0  0  0  0  0  0  0
   10.2573    8.3215   20.9827 C   0  0  0  0  0  0  0  0  0  0  0  0
   11.1606    5.9378   21.2366 N   0  0  0  0  0  0  0  0  0  0  0  0
    9.8932   11.6736   19.0677 O   0  0  0  0  0  0  0  0  0  0  0  0
    6.4470    4.5850   22.2321 C   0  0  0  0  0  0  0  0  0  0  0  0
    8.4619    6.9895   22.2968 C   0  0  0  0  0  0  0  0  0  0  0  0
   12.2747    7.5102   20.0420 C   0  0  0  0  0  0  0  0  0  0  0  0
   14.2544    6.2142   19.4191 C   0  0  0  0  0  0  0  0  0  0  0  0
   13.0695    6.3705   20.0375 N   0  0  0  0  0  0  0  0  0  0  0  0
    9.1913    8.0876   21.8361 N   0  0  0  0  0  0  0  0  0  0  0  0
   10.4739    9.4813   20.2889 C   0  0  0  0  0  0  0  0  0  0  0  0
    7.5551    7.1270   23.1200 O   0  0  0  0  0  0  0  0  0  0  0  0
  1 11  4  0
  1 21  4  0
  2  4  1  0
  2  8  1  0
  2 11  1  0
  3 10  4  0
  3 14  4  0
  4  5  1  0
  4 18  2  0
  6 12  1  0
  6 17  4  0
  6 23  4  0
  7  9  1  0
  7 13  4  0
  7 19  4  0
  9 20  1  0
 10 19  4  0
 11 25  4  0
 13 14  4  0
 15 16  4  0
 15 17  4  0
 15 21  4  0
 16 24  1  0
 16 25  4  0
 20 24  1  0
 20 26  2  0
 21 23  4  0
 22 23  1  0
M  END
$$$$

 Created by Python create_sdf_string function

 26 28  0  0  0  0  0  0  0  0999 V2000
   12.4616    8.6700   19.4180 N   0  0  0  0  0  0  0  0  0  0  0  0
   11.8329   10.8148   18.6769 N   0  0  0  0  0  0  0  0  0  0  0  0
    6.1021    2.5564   21.0678 C   0  0  0  0  0  0  0  0  0  0  0  0
   10.9097   11.8051   18.4804 C   0  0  0  0  0  0  0  0  0  0  0  0
   11.2280   12.9135   17.5669 C   0  0  0  0  0  0  0  0  0  0  0  0
   12.3782    5.4231   20.7777 C   0  0  0  0  0  0  0  0  0  0  0  0
    7.7365    4.6508   21.6987 C   0  0  0  0  0  0  0  0  0  0  0  0
   13.0186   11.0102   18.0020 C   0  0  0  0  0  0  0  0  0  0  0  0
    8.6628    5.7088   21.8871 N   0  0  0  0  0  0  0  0  0  0  0  0
    5.6516    3.5258   21.9140 C   0  0  0  0  0  0  0  0  0  0  0  0
   11.5863    9.6815   19.4539 C   0  0  0  0  0  0  0  0  0  0  0  0
   12.9648    4.1543   20.9205 C   0  0  0  0  0  0  0  0  0  0  0  0
    8.2089    3.6265   20.8929 C   0  0  0  0  0  0  0  0  0  0  0  0
    7.3827    2.5724   20.5432 C   0  0  0  0  0  0  0  0  0  0  0  0
   11.1529    7.2750   20.8025 C   0  0  0  0  0  0  0  0  0  0  0  0
   10.2573    8.3215   20.9827 C   0  0  0  0  0  0  0  0  0  0  0  0
   11.1606    5.9378   21.2366 N   0  0  0  0  0  0  0  0  0  0  0  0
    9.8932   11.6736   19.0677 O   0  0  0  0  0  0  0  0  0  0  0  0
    6.4470    4.5850   22.2321 C   0  0  0  0  0  0  0  0  0  0  0  0
    8.4619    6.9895   22.2968 C   0  0  0  0  0  0  0  0  0  0  0  0
   12.2747    7.5102   20.0420 C   0  0  0  0  0  0  0  0  0  0  0  0
   14.2544    6.2142   19.4191 C   0  0  0  0  0  0  0  0  0  0  0  0
   13.0695    6.3705   20.0375 N   0  0  0  0  0  0  0  0  0  0  0  0
    9.1913    8.0876   21.8361 N   0  0  0  0  0  0  0  0  0  0  0  0
   10.4739    9.4813   20.2889 C   0  0  0  0  0  0  0  0  0  0  0  0
    7.5551    7.1270   23.1200 O   0  0  0  0  0  0  0  0  0  0  0  0
  1 11  4  0
  1 21  4  0
  2  4  1  0
  2  8  1  0
  2 11  1  0
  3 10  4  0
  3 14  4  0
  4  5  1  0
  4 18  2  0
  6 12  1  0
  6 17  4  0
  6 23  4  0
  7  9  1  0
  7 13  4  0
  7 19  4  0
  9 20  1  0
 10 19  4  0
 11 25  4  0
 13 14  4  0
 15 16  4  0
 15 17  4  0
 15 21  4  0
 16 24  1  0
 16 25  4  0
 20 24  1  0
 20 26  2  0
 21 23  4  0
 22 23  1  0
M  END
$$$$

 Created by Python create_sdf_string function

 26 28  0  0  0  0  0  0  0  0999 V2000
   12.4616    8.6700   19.4180 N   0  0  0  0  0  0  0  0  0  0  0  0
   11.8329   10.8148   18.6769 N   0  0  0  0  0  0  0  0  0  0  0  0
    6.1021    2.5564   21.0678 C   0  0  0  0  0  0  0  0  0  0  0  0
   10.9097   11.8051   18.4804 C   0  0  0  0  0  0  0  0  0  0  0  0
   11.2280   12.9135   17.5669 C   0  0  0  0  0  0  0  0  0  0  0  0
   12.3782    5.4231   20.7777 C   0  0  0  0  0  0  0  0  0  0  0  0
    7.7365    4.6508   21.6987 C   0  0  0  0  0  0  0  0  0  0  0  0
   13.0186   11.0102   18.0020 C   0  0  0  0  0  0  0  0  0  0  0  0
    8.6628    5.7088   21.8871 N   0  0  0  0  0  0  0  0  0  0  0  0
    5.6516    3.5258   21.9140 C   0  0  0  0  0  0  0  0  0  0  0  0
   11.5863    9.6815   19.4539 C   0  0  0  0  0  0  0  0  0  0  0  0
   12.9648    4.1543   20.9205 C   0  0  0  0  0  0  0  0  0  0  0  0
    8.2089    3.6265   20.8929 C   0  0  0  0  0  0  0  0  0  0  0  0
    7.3827    2.5724   20.5432 C   0  0  0  0  0  0  0  0  0  0  0  0
   11.1529    7.2750   20.8025 C   0  0  0  0  0  0  0  0  0  0  0  0
   10.2573    8.3215   20.9827 C   0  0  0  0  0  0  0  0  0  0  0  0
   11.1606    5.9378   21.2366 N   0  0  0  0  0  0  0  0  0  0  0  0
    9.8932   11.6736   19.0677 O   0  0  0  0  0  0  0  0  0  0  0  0
    6.4470    4.5850   22.2321 C   0  0  0  0  0  0  0  0  0  0  0  0
    8.4619    6.9895   22.2968 C   0  0  0  0  0  0  0  0  0  0  0  0
   12.2747    7.5102   20.0420 C   0  0  0  0  0  0  0  0  0  0  0  0
   14.2544    6.2142   19.4191 C   0  0  0  0  0  0  0  0  0  0  0  0
   13.0695    6.3705   20.0375 N   0  0  0  0  0  0  0  0  0  0  0  0
    9.1913    8.0876   21.8361 N   0  0  0  0  0  0  0  0  0  0  0  0
   10.4739    9.4813   20.2889 C   0  0  0  0  0  0  0  0  0  0  0  0
    7.5551    7.1270   23.1200 O   0  0  0  0  0  0  0  0  0  0  0  0
  1 11  4  0
  1 21  4  0
  2  4  1  0
  2  8  1  0
  2 11  1  0
  3 10  4  0
  3 14  4  0
  4  5  1  0
  4 18  2  0
  6 12  1  0
  6 17  4  0
  6 23  4  0
  7  9  1  0
  7 13  4  0
  7 19  4  0
  9 20  1  0
 10 19  4  0
 11 25  4  0
 13 14  4  0
 15 16  4  0
 15 17  4  0
 15 21  4  0
 16 24  1  0
 16 25  4  0
 20 24  1  0
 20 26  2  0
 21 23  4  0
 22 23  1  0
M  END
$$$$

 Created by Python create_sdf_string function

 26 28  0  0  0  0  0  0  0  0999 V2000
   12.4616    8.6700   19.4180 N   0  0  0  0  0  0  0  0  0  0  0  0
   11.8329   10.8148   18.6769 N   0  0  0  0  0  0  0  0  0  0  0  0
    6.1021    2.5564   21.0678 C   0  0  0  0  0  0  0  0  0  0  0  0
   10.9097   11.8051   18.4804 C   0  0  0  0  0  0  0  0  0  0  0  0
   11.2280   12.9135   17.5669 C   0  0  0  0  0  0  0  0  0  0  0  0
   12.3782    5.4231   20.7777 C   0  0  0  0  0  0  0  0  0  0  0  0
    7.7365    4.6508   21.6987 C   0  0  0  0  0  0  0  0  0  0  0  0
   13.0186   11.0102   18.0020 C   0  0  0  0  0  0  0  0  0  0  0  0
    8.6628    5.7088   21.8871 N   0  0  0  0  0  0  0  0  0  0  0  0
    5.6516    3.5258   21.9140 C   0  0  0  0  0  0  0  0  0  0  0  0
   11.5863    9.6815   19.4539 C   0  0  0  0  0  0  0  0  0  0  0  0
   12.9648    4.1543   20.9205 C   0  0  0  0  0  0  0  0  0  0  0  0
    8.2089    3.6265   20.8929 C   0  0  0  0  0  0  0  0  0  0  0  0
    7.3827    2.5724   20.5432 C   0  0  0  0  0  0  0  0  0  0  0  0
   11.1529    7.2750   20.8025 C   0  0  0  0  0  0  0  0  0  0  0  0
   10.2573    8.3215   20.9827 C   0  0  0  0  0  0  0  0  0  0  0  0
   11.1606    5.9378   21.2366 N   0  0  0  0  0  0  0  0  0  0  0  0
    9.8932   11.6736   19.0677 O   0  0  0  0  0  0  0  0  0  0  0  0
    6.4470    4.5850   22.2321 C   0  0  0  0  0  0  0  0  0  0  0  0
    8.4619    6.9895   22.2968 C   0  0  0  0  0  0  0  0  0  0  0  0
   12.2747    7.5102   20.0420 C   0  0  0  0  0  0  0  0  0  0  0  0
   14.2544    6.2142   19.4191 C   0  0  0  0  0  0  0  0  0  0  0  0
   13.0695    6.3705   20.0375 N   0  0  0  0  0  0  0  0  0  0  0  0
    9.1913    8.0876   21.8361 N   0  0  0  0  0  0  0  0  0  0  0  0
   10.4739    9.4813   20.2889 C   0  0  0  0  0  0  0  0  0  0  0  0
    7.5551    7.1270   23.1200 O   0  0  0  0  0  0  0  0  0  0  0  0
  1 11  4  0
  1 21  4  0
  2  4  1  0
  2  8  1  0
  2 11  1  0
  3 10  4  0
  3 14  4  0
  4  5  1  0
  4 18  2  0
  6 12  1  0
  6 17  4  0
  6 23  4  0
  7  9  1  0
  7 13  4  0
  7 19  4  0
  9 20  1  0
 10 19  4  0
 11 25  4  0
 13 14  4  0
 15 16  4  0
 15 17  4  0
 15 21  4  0
 16 24  1  0
 16 25  4  0
 20 24  1  0
 20 26  2  0
 21 23  4  0
 22 23  1  0
M  END
$$$$

 Created by Python create_sdf_string function

 26 28  0  0  0  0  0  0  0  0999 V2000
   12.4616    8.6700   19.4180 N   0  0  0  0  0  0  0  0  0  0  0  0
   11.8329   10.8148   18.6769 N   0  0  0  0  0  0  0  0  0  0  0  0
    6.1021    2.5564   21.0678 C   0  0  0  0  0  0  0  0  0  0  0  0
   10.9097   11.8051   18.4804 C   0  0  0  0  0  0  0  0  0  0  0  0
   11.2280   12.9135   17.5669 C   0  0  0  0  0  0  0  0  0  0  0  0
   12.3782    5.4231   20.7777 C   0  0  0  0  0  0  0  0  0  0  0  0
    7.7365    4.6508   21.6987 C   0  0  0  0  0  0  0  0  0  0  0  0
   13.0186   11.0102   18.0020 C   0  0  0  0  0  0  0  0  0  0  0  0
    8.6628    5.7088   21.8871 N   0  0  0  0  0  0  0  0  0  0  0  0
    5.6516    3.5258   21.9140 C   0  0  0  0  0  0  0  0  0  0  0  0
   11.5863    9.6815   19.4539 C   0  0  0  0  0  0  0  0  0  0  0  0
   12.9648    4.1543   20.9205 C   0  0  0  0  0  0  0  0  0  0  0  0
    8.2089    3.6265   20.8929 C   0  0  0  0  0  0  0  0  0  0  0  0
    7.3827    2.5724   20.5432 C   0  0  0  0  0  0  0  0  0  0  0  0
   11.1529    7.2750   20.8025 C   0  0  0  0  0  0  0  0  0  0  0  0
   10.2573    8.3215   20.9827 C   0  0  0  0  0  0  0  0  0  0  0  0
   11.1606    5.9378   21.2366 N   0  0  0  0  0  0  0  0  0  0  0  0
    9.8932   11.6736   19.0677 O   0  0  0  0  0  0  0  0  0  0  0  0
    6.4470    4.5850   22.2321 C   0  0  0  0  0  0  0  0  0  0  0  0
    8.4619    6.9895   22.2968 C   0  0  0  0  0  0  0  0  0  0  0  0
   12.2747    7.5102   20.0420 C   0  0  0  0  0  0  0  0  0  0  0  0
   14.2544    6.2142   19.4191 C   0  0  0  0  0  0  0  0  0  0  0  0
   13.0695    6.3705   20.0375 N   0  0  0  0  0  0  0  0  0  0  0  0
    9.1913    8.0876   21.8361 N   0  0  0  0  0  0  0  0  0  0  0  0
   10.4739    9.4813   20.2889 C   0  0  0  0  0  0  0  0  0  0  0  0
    7.5551    7.1270   23.1200 O   0  0  0  0  0  0  0  0  0  0  0  0
  1 11  4  0
  1 21  4  0
  2  4  1  0
  2  8  1  0
  2 11  1  0
  3 10  4  0
  3 14  4  0
  4  5  1  0
  4 18  2  0
  6 12  1  0
  6 17  4  0
  6 23  4  0
  7  9  1  0
  7 13  4  0
  7 19  4  0
  9 20  1  0
 10 19  4  0
 11 25  4  0
 13 14  4  0
 15 16  4  0
 15 17  4  0
 15 21  4  0
 16 24  1  0
 16 25  4  0
 20 24  1  0
 20 26  2  0
 21 23  4  0
 22 23  1  0
M  END
$$$$

 Created by Python create_sdf_string function

 26 28  0  0  0  0  0  0  0  0999 V2000
   12.4616    8.6700   19.4180 N   0  0  0  0  0  0  0  0  0  0  0  0
   11.8329   10.8148   18.6769 N   0  0  0  0  0  0  0  0  0  0  0  0
    6.1021    2.5564   21.0678 C   0  0  0  0  0  0  0  0  0  0  0  0
   10.9097   11.8051   18.4804 C   0  0  0  0  0  0  0  0  0  0  0  0
   11.2280   12.9135   17.5669 C   0  0  0  0  0  0  0  0  0  0  0  0
   12.3782    5.4231   20.7777 C   0  0  0  0  0  0  0  0  0  0  0  0
    7.7365    4.6508   21.6987 C   0  0  0  0  0  0  0  0  0  0  0  0
   13.0186   11.0102   18.0020 C   0  0  0  0  0  0  0  0  0  0  0  0
    8.6628    5.7088   21.8871 N   0  0  0  0  0  0  0  0  0  0  0  0
    5.6516    3.5258   21.9140 C   0  0  0  0  0  0  0  0  0  0  0  0
   11.5863    9.6815   19.4539 C   0  0  0  0  0  0  0  0  0  0  0  0
   12.9648    4.1543   20.9205 C   0  0  0  0  0  0  0  0  0  0  0  0
    8.2089    3.6265   20.8929 C   0  0  0  0  0  0  0  0  0  0  0  0
    7.3827    2.5724   20.5432 C   0  0  0  0  0  0  0  0  0  0  0  0
   11.1529    7.2750   20.8025 C   0  0  0  0  0  0  0  0  0  0  0  0
   10.2573    8.3215   20.9827 C   0  0  0  0  0  0  0  0  0  0  0  0
   11.1606    5.9378   21.2366 N   0  0  0  0  0  0  0  0  0  0  0  0
    9.8932   11.6736   19.0677 O   0  0  0  0  0  0  0  0  0  0  0  0
    6.4470    4.5850   22.2321 C   0  0  0  0  0  0  0  0  0  0  0  0
    8.4619    6.9895   22.2968 C   0  0  0  0  0  0  0  0  0  0  0  0
   12.2747    7.5102   20.0420 C   0  0  0  0  0  0  0  0  0  0  0  0
   14.2544    6.2142   19.4191 C   0  0  0  0  0  0  0  0  0  0  0  0
   13.0695    6.3705   20.0375 N   0  0  0  0  0  0  0  0  0  0  0  0
    9.1913    8.0876   21.8361 N   0  0  0  0  0  0  0  0  0  0  0  0
   10.4739    9.4813   20.2889 C   0  0  0  0  0  0  0  0  0  0  0  0
    7.5551    7.1270   23.1200 O   0  0  0  0  0  0  0  0  0  0  0  0
  1 11  4  0
  1 21  4  0
  2  4  1  0
  2  8  1  0
  2 11  1  0
  3 10  4  0
  3 14  4  0
  4  5  1  0
  4 18  2  0
  6 12  1  0
  6 17  4  0
  6 23  4  0
  7  9  1  0
  7 13  4  0
  7 19  4  0
  9 20  1  0
 10 19  4  0
 11 25  4  0
 13 14  4  0
 15 16  4  0
 15 17  4  0
 15 21  4  0
 16 24  1  0
 16 25  4  0
 20 24  1  0
 20 26  2  0
 21 23  4  0
 22 23  1  0
M  END
$$$$

 Created by Python create_sdf_string function

 26 28  0  0  0  0  0  0  0  0999 V2000
   12.4616    8.6700   19.4180 N   0  0  0  0  0  0  0  0  0  0  0  0
   11.8329   10.8148   18.6769 N   0  0  0  0  0  0  0  0  0  0  0  0
    6.1021    2.5564   21.0678 C   0  0  0  0  0  0  0  0  0  0  0  0
   10.9097   11.8051   18.4804 C   0  0  0  0  0  0  0  0  0  0  0  0
   11.2280   12.9135   17.5669 C   0  0  0  0  0  0  0  0  0  0  0  0
   12.3782    5.4231   20.7777 C   0  0  0  0  0  0  0  0  0  0  0  0
    7.7365    4.6508   21.6987 C   0  0  0  0  0  0  0  0  0  0  0  0
   13.0186   11.0102   18.0020 C   0  0  0  0  0  0  0  0  0  0  0  0
    8.6628    5.7088   21.8871 N   0  0  0  0  0  0  0  0  0  0  0  0
    5.6516    3.5258   21.9140 C   0  0  0  0  0  0  0  0  0  0  0  0
   11.5863    9.6815   19.4539 C   0  0  0  0  0  0  0  0  0  0  0  0
   12.9648    4.1543   20.9205 C   0  0  0  0  0  0  0  0  0  0  0  0
    8.2089    3.6265   20.8929 C   0  0  0  0  0  0  0  0  0  0  0  0
    7.3827    2.5724   20.5432 C   0  0  0  0  0  0  0  0  0  0  0  0
   11.1529    7.2750   20.8025 C   0  0  0  0  0  0  0  0  0  0  0  0
   10.2573    8.3215   20.9827 C   0  0  0  0  0  0  0  0  0  0  0  0
   11.1606    5.9378   21.2366 N   0  0  0  0  0  0  0  0  0  0  0  0
    9.8932   11.6736   19.0677 O   0  0  0  0  0  0  0  0  0  0  0  0
    6.4470    4.5850   22.2321 C   0  0  0  0  0  0  0  0  0  0  0  0
    8.4619    6.9895   22.2968 C   0  0  0  0  0  0  0  0  0  0  0  0
   12.2747    7.5102   20.0420 C   0  0  0  0  0  0  0  0  0  0  0  0
   14.2544    6.2142   19.4191 C   0  0  0  0  0  0  0  0  0  0  0  0
   13.0695    6.3705   20.0375 N   0  0  0  0  0  0  0  0  0  0  0  0
    9.1913    8.0876   21.8361 N   0  0  0  0  0  0  0  0  0  0  0  0
   10.4739    9.4813   20.2889 C   0  0  0  0  0  0  0  0  0  0  0  0
    7.5551    7.1270   23.1200 O   0  0  0  0  0  0  0  0  0  0  0  0
  1 11  4  0
  1 21  4  0
  2  4  1  0
  2  8  1  0
  2 11  1  0
  3 10  4  0
  3 14  4  0
  4  5  1  0
  4 18  2  0
  6 12  1  0
  6 17  4  0
  6 23  4  0
  7  9  1  0
  7 13  4  0
  7 19  4  0
  9 20  1  0
 10 19  4  0
 11 25  4  0
 13 14  4  0
 15 16  4  0
 15 17  4  0
 15 21  4  0
 16 24  1  0
 16 25  4  0
 20 24  1  0
 20 26  2  0
 21 23  4  0
 22 23  1  0
M  END
$$$$

 Created by Python create_sdf_string function

 26 28  0  0  0  0  0  0  0  0999 V2000
   12.4616    8.6700   19.4180 N   0  0  0  0  0  0  0  0  0  0  0  0
   11.8329   10.8148   18.6769 N   0  0  0  0  0  0  0  0  0  0  0  0
    6.1021    2.5564   21.0678 C   0  0  0  0  0  0  0  0  0  0  0  0
   10.9097   11.8051   18.4804 C   0  0  0  0  0  0  0  0  0  0  0  0
   11.2280   12.9135   17.5669 C   0  0  0  0  0  0  0  0  0  0  0  0
   12.3782    5.4231   20.7777 C   0  0  0  0  0  0  0  0  0  0  0  0
    7.7365    4.6508   21.6987 C   0  0  0  0  0  0  0  0  0  0  0  0
   13.0186   11.0102   18.0020 C   0  0  0  0  0  0  0  0  0  0  0  0
    8.6628    5.7088   21.8871 N   0  0  0  0  0  0  0  0  0  0  0  0
    5.6516    3.5258   21.9140 C   0  0  0  0  0  0  0  0  0  0  0  0
   11.5863    9.6815   19.4539 C   0  0  0  0  0  0  0  0  0  0  0  0
   12.9648    4.1543   20.9205 C   0  0  0  0  0  0  0  0  0  0  0  0
    8.2089    3.6265   20.8929 C   0  0  0  0  0  0  0  0  0  0  0  0
    7.3827    2.5724   20.5432 C   0  0  0  0  0  0  0  0  0  0  0  0
   11.1529    7.2750   20.8025 C   0  0  0  0  0  0  0  0  0  0  0  0
   10.2573    8.3215   20.9827 C   0  0  0  0  0  0  0  0  0  0  0  0
   11.1606    5.9378   21.2366 N   0  0  0  0  0  0  0  0  0  0  0  0
    9.8932   11.6736   19.0677 O   0  0  0  0  0  0  0  0  0  0  0  0
    6.4470    4.5850   22.2321 C   0  0  0  0  0  0  0  0  0  0  0  0
    8.4619    6.9895   22.2968 C   0  0  0  0  0  0  0  0  0  0  0  0
   12.2747    7.5102   20.0420 C   0  0  0  0  0  0  0  0  0  0  0  0
   14.2544    6.2142   19.4191 C   0  0  0  0  0  0  0  0  0  0  0  0
   13.0695    6.3705   20.0375 N   0  0  0  0  0  0  0  0  0  0  0  0
    9.1913    8.0876   21.8361 N   0  0  0  0  0  0  0  0  0  0  0  0
   10.4739    9.4813   20.2889 C   0  0  0  0  0  0  0  0  0  0  0  0
    7.5551    7.1270   23.1200 O   0  0  0  0  0  0  0  0  0  0  0  0
  1 11  4  0
  1 21  4  0
  2  4  1  0
  2  8  1  0
  2 11  1  0
  3 10  4  0
  3 14  4  0
  4  5  1  0
  4 18  2  0
  6 12  1  0
  6 17  4  0
  6 23  4  0
  7  9  1  0
  7 13  4  0
  7 19  4  0
  9 20  1  0
 10 19  4  0
 11 25  4  0
 13 14  4  0
 15 16  4  0
 15 17  4  0
 15 21  4  0
 16 24  1  0
 16 25  4  0
 20 24  1  0
 20 26  2  0
 21 23  4  0
 22 23  1  0
M  END
$$$$

 Created by Python create_sdf_string function

 26 28  0  0  0  0  0  0  0  0999 V2000
   12.4616    8.6700   19.4180 N   0  0  0  0  0  0  0  0  0  0  0  0
   11.8329   10.8148   18.6769 N   0  0  0  0  0  0  0  0  0  0  0  0
    6.1021    2.5564   21.0678 C   0  0  0  0  0  0  0  0  0  0  0  0
   10.9097   11.8051   18.4804 C   0  0  0  0  0  0  0  0  0  0  0  0
   11.2280   12.9135   17.5669 C   0  0  0  0  0  0  0  0  0  0  0  0
   12.3782    5.4231   20.7777 C   0  0  0  0  0  0  0  0  0  0  0  0
    7.7365    4.6508   21.6987 C   0  0  0  0  0  0  0  0  0  0  0  0
   13.0186   11.0102   18.0020 C   0  0  0  0  0  0  0  0  0  0  0  0
    8.6628    5.7088   21.8871 N   0  0  0  0  0  0  0  0  0  0  0  0
    5.6516    3.5258   21.9140 C   0  0  0  0  0  0  0  0  0  0  0  0
   11.5863    9.6815   19.4539 C   0  0  0  0  0  0  0  0  0  0  0  0
   12.9648    4.1543   20.9205 C   0  0  0  0  0  0  0  0  0  0  0  0
    8.2089    3.6265   20.8929 C   0  0  0  0  0  0  0  0  0  0  0  0
    7.3827    2.5724   20.5432 C   0  0  0  0  0  0  0  0  0  0  0  0
   11.1529    7.2750   20.8025 C   0  0  0  0  0  0  0  0  0  0  0  0
   10.2573    8.3215   20.9827 C   0  0  0  0  0  0  0  0  0  0  0  0
   11.1606    5.9378   21.2366 N   0  0  0  0  0  0  0  0  0  0  0  0
    9.8932   11.6736   19.0677 O   0  0  0  0  0  0  0  0  0  0  0  0
    6.4470    4.5850   22.2321 C   0  0  0  0  0  0  0  0  0  0  0  0
    8.4619    6.9895   22.2968 C   0  0  0  0  0  0  0  0  0  0  0  0
   12.2747    7.5102   20.0420 C   0  0  0  0  0  0  0  0  0  0  0  0
   14.2544    6.2142   19.4191 C   0  0  0  0  0  0  0  0  0  0  0  0
   13.0695    6.3705   20.0375 N   0  0  0  0  0  0  0  0  0  0  0  0
    9.1913    8.0876   21.8361 N   0  0  0  0  0  0  0  0  0  0  0  0
   10.4739    9.4813   20.2889 C   0  0  0  0  0  0  0  0  0  0  0  0
    7.5551    7.1270   23.1200 O   0  0  0  0  0  0  0  0  0  0  0  0
  1 11  4  0
  1 21  4  0
  2  4  1  0
  2  8  1  0
  2 11  1  0
  3 10  4  0
  3 14  4  0
  4  5  1  0
  4 18  2  0
  6 12  1  0
  6 17  4  0
  6 23  4  0
  7  9  1  0
  7 13  4  0
  7 19  4  0
  9 20  1  0
 10 19  4  0
 11 25  4  0
 13 14  4  0
 15 16  4  0
 15 17  4  0
 15 21  4  0
 16 24  1  0
 16 25  4  0
 20 24  1  0
 20 26  2  0
 21 23  4  0
 22 23  1  0
M  END
$$$$

 Created by Python create_sdf_string function

 26 28  0  0  0  0  0  0  0  0999 V2000
   12.4616    8.6700   19.4180 N   0  0  0  0  0  0  0  0  0  0  0  0
   11.8329   10.8148   18.6769 N   0  0  0  0  0  0  0  0  0  0  0  0
    6.1021    2.5564   21.0678 C   0  0  0  0  0  0  0  0  0  0  0  0
   10.9097   11.8051   18.4804 C   0  0  0  0  0  0  0  0  0  0  0  0
   11.2280   12.9135   17.5669 C   0  0  0  0  0  0  0  0  0  0  0  0
   12.3782    5.4231   20.7777 C   0  0  0  0  0  0  0  0  0  0  0  0
    7.7365    4.6508   21.6987 C   0  0  0  0  0  0  0  0  0  0  0  0
   13.0186   11.0102   18.0020 C   0  0  0  0  0  0  0  0  0  0  0  0
    8.6628    5.7088   21.8871 N   0  0  0  0  0  0  0  0  0  0  0  0
    5.6516    3.5258   21.9140 C   0  0  0  0  0  0  0  0  0  0  0  0
   11.5863    9.6815   19.4539 C   0  0  0  0  0  0  0  0  0  0  0  0
   12.9648    4.1543   20.9205 C   0  0  0  0  0  0  0  0  0  0  0  0
    8.2089    3.6265   20.8929 C   0  0  0  0  0  0  0  0  0  0  0  0
    7.3827    2.5724   20.5432 C   0  0  0  0  0  0  0  0  0  0  0  0
   11.1529    7.2750   20.8025 C   0  0  0  0  0  0  0  0  0  0  0  0
   10.2573    8.3215   20.9827 C   0  0  0  0  0  0  0  0  0  0  0  0
   11.1606    5.9378   21.2366 N   0  0  0  0  0  0  0  0  0  0  0  0
    9.8932   11.6736   19.0677 O   0  0  0  0  0  0  0  0  0  0  0  0
    6.4470    4.5850   22.2321 C   0  0  0  0  0  0  0  0  0  0  0  0
    8.4619    6.9895   22.2968 C   0  0  0  0  0  0  0  0  0  0  0  0
   12.2747    7.5102   20.0420 C   0  0  0  0  0  0  0  0  0  0  0  0
   14.2544    6.2142   19.4191 C   0  0  0  0  0  0  0  0  0  0  0  0
   13.0695    6.3705   20.0375 N   0  0  0  0  0  0  0  0  0  0  0  0
    9.1913    8.0876   21.8361 N   0  0  0  0  0  0  0  0  0  0  0  0
   10.4739    9.4813   20.2889 C   0  0  0  0  0  0  0  0  0  0  0  0
    7.5551    7.1270   23.1200 O   0  0  0  0  0  0  0  0  0  0  0  0
  1 11  4  0
  1 21  4  0
  2  4  1  0
  2  8  1  0
  2 11  1  0
  3 10  4  0
  3 14  4  0
  4  5  1  0
  4 18  2  0
  6 12  1  0
  6 17  4  0
  6 23  4  0
  7  9  1  0
  7 13  4  0
  7 19  4  0
  9 20  1  0
 10 19  4  0
 11 25  4  0
 13 14  4  0
 15 16  4  0
 15 17  4  0
 15 21  4  0
 16 24  1  0
 16 25  4  0
 20 24  1  0
 20 26  2  0
 21 23  4  0
 22 23  1  0
M  END
$$$$

 Created by Python create_sdf_string function

 26 28  0  0  0  0  0  0  0  0999 V2000
   12.4616    8.6700   19.4180 N   0  0  0  0  0  0  0  0  0  0  0  0
   11.8329   10.8148   18.6769 N   0  0  0  0  0  0  0  0  0  0  0  0
    6.1021    2.5564   21.0678 C   0  0  0  0  0  0  0  0  0  0  0  0
   10.9097   11.8051   18.4804 C   0  0  0  0  0  0  0  0  0  0  0  0
   11.2280   12.9135   17.5669 C   0  0  0  0  0  0  0  0  0  0  0  0
   12.3782    5.4231   20.7777 C   0  0  0  0  0  0  0  0  0  0  0  0
    7.7365    4.6508   21.6987 C   0  0  0  0  0  0  0  0  0  0  0  0
   13.0186   11.0102   18.0020 C   0  0  0  0  0  0  0  0  0  0  0  0
    8.6628    5.7088   21.8871 N   0  0  0  0  0  0  0  0  0  0  0  0
    5.6516    3.5258   21.9140 C   0  0  0  0  0  0  0  0  0  0  0  0
   11.5863    9.6815   19.4539 C   0  0  0  0  0  0  0  0  0  0  0  0
   12.9648    4.1543   20.9205 C   0  0  0  0  0  0  0  0  0  0  0  0
    8.2089    3.6265   20.8929 C   0  0  0  0  0  0  0  0  0  0  0  0
    7.3827    2.5724   20.5432 C   0  0  0  0  0  0  0  0  0  0  0  0
   11.1529    7.2750   20.8025 C   0  0  0  0  0  0  0  0  0  0  0  0
   10.2573    8.3215   20.9827 C   0  0  0  0  0  0  0  0  0  0  0  0
   11.1606    5.9378   21.2366 N   0  0  0  0  0  0  0  0  0  0  0  0
    9.8932   11.6736   19.0677 O   0  0  0  0  0  0  0  0  0  0  0  0
    6.4470    4.5850   22.2321 C   0  0  0  0  0  0  0  0  0  0  0  0
    8.4619    6.9895   22.2968 C   0  0  0  0  0  0  0  0  0  0  0  0
   12.2747    7.5102   20.0420 C   0  0  0  0  0  0  0  0  0  0  0  0
   14.2544    6.2142   19.4191 C   0  0  0  0  0  0  0  0  0  0  0  0
   13.0695    6.3705   20.0375 N   0  0  0  0  0  0  0  0  0  0  0  0
    9.1913    8.0876   21.8361 N   0  0  0  0  0  0  0  0  0  0  0  0
   10.4739    9.4813   20.2889 C   0  0  0  0  0  0  0  0  0  0  0  0
    7.5551    7.1270   23.1200 O   0  0  0  0  0  0  0  0  0  0  0  0
  1 11  4  0
  1 21  4  0
  2  4  1  0
  2  8  1  0
  2 11  1  0
  3 10  4  0
  3 14  4  0
  4  5  1  0
  4 18  2  0
  6 12  1  0
  6 17  4  0
  6 23  4  0
  7  9  1  0
  7 13  4  0
  7 19  4  0
  9 20  1  0
 10 19  4  0
 11 25  4  0
 13 14  4  0
 15 16  4  0
 15 17  4  0
 15 21  4  0
 16 24  1  0
 16 25  4  0
 20 24  1  0
 20 26  2  0
 21 23  4  0
 22 23  1  0
M  END
$$$$

 Created by Python create_sdf_string function

 26 28  0  0  0  0  0  0  0  0999 V2000
   12.4616    8.6700   19.4180 N   0  0  0  0  0  0  0  0  0  0  0  0
   11.8329   10.8148   18.6769 N   0  0  0  0  0  0  0  0  0  0  0  0
    6.1021    2.5564   21.0678 C   0  0  0  0  0  0  0  0  0  0  0  0
   10.9097   11.8051   18.4804 C   0  0  0  0  0  0  0  0  0  0  0  0
   11.2280   12.9135   17.5669 C   0  0  0  0  0  0  0  0  0  0  0  0
   12.3782    5.4231   20.7777 C   0  0  0  0  0  0  0  0  0  0  0  0
    7.7365    4.6508   21.6987 C   0  0  0  0  0  0  0  0  0  0  0  0
   13.0186   11.0102   18.0020 C   0  0  0  0  0  0  0  0  0  0  0  0
    8.6628    5.7088   21.8871 N   0  0  0  0  0  0  0  0  0  0  0  0
    5.6516    3.5258   21.9140 C   0  0  0  0  0  0  0  0  0  0  0  0
   11.5863    9.6815   19.4539 C   0  0  0  0  0  0  0  0  0  0  0  0
   12.9648    4.1543   20.9205 C   0  0  0  0  0  0  0  0  0  0  0  0
    8.2089    3.6265   20.8929 C   0  0  0  0  0  0  0  0  0  0  0  0
    7.3827    2.5724   20.5432 C   0  0  0  0  0  0  0  0  0  0  0  0
   11.1529    7.2750   20.8025 C   0  0  0  0  0  0  0  0  0  0  0  0
   10.2573    8.3215   20.9827 C   0  0  0  0  0  0  0  0  0  0  0  0
   11.1606    5.9378   21.2366 N   0  0  0  0  0  0  0  0  0  0  0  0
    9.8932   11.6736   19.0677 O   0  0  0  0  0  0  0  0  0  0  0  0
    6.4470    4.5850   22.2321 C   0  0  0  0  0  0  0  0  0  0  0  0
    8.4619    6.9895   22.2968 C   0  0  0  0  0  0  0  0  0  0  0  0
   12.2747    7.5102   20.0420 C   0  0  0  0  0  0  0  0  0  0  0  0
   14.2544    6.2142   19.4191 C   0  0  0  0  0  0  0  0  0  0  0  0
   13.0695    6.3705   20.0375 N   0  0  0  0  0  0  0  0  0  0  0  0
    9.1913    8.0876   21.8361 N   0  0  0  0  0  0  0  0  0  0  0  0
   10.4739    9.4813   20.2889 C   0  0  0  0  0  0  0  0  0  0  0  0
    7.5551    7.1270   23.1200 O   0  0  0  0  0  0  0  0  0  0  0  0
  1 11  4  0
  1 21  4  0
  2  4  1  0
  2  8  1  0
  2 11  1  0
  3 10  4  0
  3 14  4  0
  4  5  1  0
  4 18  2  0
  6 12  1  0
  6 17  4  0
  6 23  4  0
  7  9  1  0
  7 13  4  0
  7 19  4  0
  9 20  1  0
 10 19  4  0
 11 25  4  0
 13 14  4  0
 15 16  4  0
 15 17  4  0
 15 21  4  0
 16 24  1  0
 16 25  4  0
 20 24  1  0
 20 26  2  0
 21 23  4  0
 22 23  1  0
M  END
$$$$

 Created by Python create_sdf_string function

 26 28  0  0  0  0  0  0  0  0999 V2000
   12.4616    8.6700   19.4180 N   0  0  0  0  0  0  0  0  0  0  0  0
   11.8329   10.8148   18.6769 N   0  0  0  0  0  0  0  0  0  0  0  0
    6.1021    2.5564   21.0678 C   0  0  0  0  0  0  0  0  0  0  0  0
   10.9097   11.8051   18.4804 C   0  0  0  0  0  0  0  0  0  0  0  0
   11.2280   12.9135   17.5669 C   0  0  0  0  0  0  0  0  0  0  0  0
   12.3782    5.4231   20.7777 C   0  0  0  0  0  0  0  0  0  0  0  0
    7.7365    4.6508   21.6987 C   0  0  0  0  0  0  0  0  0  0  0  0
   13.0186   11.0102   18.0020 C   0  0  0  0  0  0  0  0  0  0  0  0
    8.6628    5.7088   21.8871 N   0  0  0  0  0  0  0  0  0  0  0  0
    5.6516    3.5258   21.9140 C   0  0  0  0  0  0  0  0  0  0  0  0
   11.5863    9.6815   19.4539 C   0  0  0  0  0  0  0  0  0  0  0  0
   12.9648    4.1543   20.9205 C   0  0  0  0  0  0  0  0  0  0  0  0
    8.2089    3.6265   20.8929 C   0  0  0  0  0  0  0  0  0  0  0  0
    7.3827    2.5724   20.5432 C   0  0  0  0  0  0  0  0  0  0  0  0
   11.1529    7.2750   20.8025 C   0  0  0  0  0  0  0  0  0  0  0  0
   10.2573    8.3215   20.9827 C   0  0  0  0  0  0  0  0  0  0  0  0
   11.1606    5.9378   21.2366 N   0  0  0  0  0  0  0  0  0  0  0  0
    9.8932   11.6736   19.0677 O   0  0  0  0  0  0  0  0  0  0  0  0
    6.4470    4.5850   22.2321 C   0  0  0  0  0  0  0  0  0  0  0  0
    8.4619    6.9895   22.2968 C   0  0  0  0  0  0  0  0  0  0  0  0
   12.2747    7.5102   20.0420 C   0  0  0  0  0  0  0  0  0  0  0  0
   14.2544    6.2142   19.4191 C   0  0  0  0  0  0  0  0  0  0  0  0
   13.0695    6.3705   20.0375 N   0  0  0  0  0  0  0  0  0  0  0  0
    9.1913    8.0876   21.8361 N   0  0  0  0  0  0  0  0  0  0  0  0
   10.4739    9.4813   20.2889 C   0  0  0  0  0  0  0  0  0  0  0  0
    7.5551    7.1270   23.1200 O   0  0  0  0  0  0  0  0  0  0  0  0
  1 11  4  0
  1 21  4  0
  2  4  1  0
  2  8  1  0
  2 11  1  0
  3 10  4  0
  3 14  4  0
  4  5  1  0
  4 18  2  0
  6 12  1  0
  6 17  4  0
  6 23  4  0
  7  9  1  0
  7 13  4  0
  7 19  4  0
  9 20  1  0
 10 19  4  0
 11 25  4  0
 13 14  4  0
 15 16  4  0
 15 17  4  0
 15 21  4  0
 16 24  1  0
 16 25  4  0
 20 24  1  0
 20 26  2  0
 21 23  4  0
 22 23  1  0
M  END
$$$$

 Created by Python create_sdf_string function

 26 28  0  0  0  0  0  0  0  0999 V2000
   12.4616    8.6700   19.4180 N   0  0  0  0  0  0  0  0  0  0  0  0
   11.8329   10.8148   18.6769 N   0  0  0  0  0  0  0  0  0  0  0  0
    6.1021    2.5564   21.0678 C   0  0  0  0  0  0  0  0  0  0  0  0
   10.9097   11.8051   18.4804 C   0  0  0  0  0  0  0  0  0  0  0  0
   11.2280   12.9135   17.5669 C   0  0  0  0  0  0  0  0  0  0  0  0
   12.3782    5.4231   20.7777 C   0  0  0  0  0  0  0  0  0  0  0  0
    7.7365    4.6508   21.6987 C   0  0  0  0  0  0  0  0  0  0  0  0
   13.0186   11.0102   18.0020 C   0  0  0  0  0  0  0  0  0  0  0  0
    8.6628    5.7088   21.8871 N   0  0  0  0  0  0  0  0  0  0  0  0
    5.6516    3.5258   21.9140 C   0  0  0  0  0  0  0  0  0  0  0  0
   11.5863    9.6815   19.4539 C   0  0  0  0  0  0  0  0  0  0  0  0
   12.9648    4.1543   20.9205 C   0  0  0  0  0  0  0  0  0  0  0  0
    8.2089    3.6265   20.8929 C   0  0  0  0  0  0  0  0  0  0  0  0
    7.3827    2.5724   20.5432 C   0  0  0  0  0  0  0  0  0  0  0  0
   11.1529    7.2750   20.8025 C   0  0  0  0  0  0  0  0  0  0  0  0
   10.2573    8.3215   20.9827 C   0  0  0  0  0  0  0  0  0  0  0  0
   11.1606    5.9378   21.2366 N   0  0  0  0  0  0  0  0  0  0  0  0
    9.8932   11.6736   19.0677 O   0  0  0  0  0  0  0  0  0  0  0  0
    6.4470    4.5850   22.2321 C   0  0  0  0  0  0  0  0  0  0  0  0
    8.4619    6.9895   22.2968 C   0  0  0  0  0  0  0  0  0  0  0  0
   12.2747    7.5102   20.0420 C   0  0  0  0  0  0  0  0  0  0  0  0
   14.2544    6.2142   19.4191 C   0  0  0  0  0  0  0  0  0  0  0  0
   13.0695    6.3705   20.0375 N   0  0  0  0  0  0  0  0  0  0  0  0
    9.1913    8.0876   21.8361 N   0  0  0  0  0  0  0  0  0  0  0  0
   10.4739    9.4813   20.2889 C   0  0  0  0  0  0  0  0  0  0  0  0
    7.5551    7.1270   23.1200 O   0  0  0  0  0  0  0  0  0  0  0  0
  1 11  4  0
  1 21  4  0
  2  4  1  0
  2  8  1  0
  2 11  1  0
  3 10  4  0
  3 14  4  0
  4  5  1  0
  4 18  2  0
  6 12  1  0
  6 17  4  0
  6 23  4  0
  7  9  1  0
  7 13  4  0
  7 19  4  0
  9 20  1  0
 10 19  4  0
 11 25  4  0
 13 14  4  0
 15 16  4  0
 15 17  4  0
 15 21  4  0
 16 24  1  0
 16 25  4  0
 20 24  1  0
 20 26  2  0
 21 23  4  0
 22 23  1  0
M  END
$$$$

 Created by Python create_sdf_string function

 26 28  0  0  0  0  0  0  0  0999 V2000
   12.4616    8.6700   19.4180 N   0  0  0  0  0  0  0  0  0  0  0  0
   11.8329   10.8148   18.6769 N   0  0  0  0  0  0  0  0  0  0  0  0
    6.1021    2.5564   21.0678 C   0  0  0  0  0  0  0  0  0  0  0  0
   10.9097   11.8051   18.4804 C   0  0  0  0  0  0  0  0  0  0  0  0
   11.2280   12.9135   17.5669 C   0  0  0  0  0  0  0  0  0  0  0  0
   12.3782    5.4231   20.7777 C   0  0  0  0  0  0  0  0  0  0  0  0
    7.7365    4.6508   21.6987 C   0  0  0  0  0  0  0  0  0  0  0  0
   13.0186   11.0102   18.0020 C   0  0  0  0  0  0  0  0  0  0  0  0
    8.6628    5.7088   21.8871 N   0  0  0  0  0  0  0  0  0  0  0  0
    5.6516    3.5258   21.9140 C   0  0  0  0  0  0  0  0  0  0  0  0
   11.5863    9.6815   19.4539 C   0  0  0  0  0  0  0  0  0  0  0  0
   12.9648    4.1543   20.9205 C   0  0  0  0  0  0  0  0  0  0  0  0
    8.2089    3.6265   20.8929 C   0  0  0  0  0  0  0  0  0  0  0  0
    7.3827    2.5724   20.5432 C   0  0  0  0  0  0  0  0  0  0  0  0
   11.1529    7.2750   20.8025 C   0  0  0  0  0  0  0  0  0  0  0  0
   10.2573    8.3215   20.9827 C   0  0  0  0  0  0  0  0  0  0  0  0
   11.1606    5.9378   21.2366 N   0  0  0  0  0  0  0  0  0  0  0  0
    9.8932   11.6736   19.0677 O   0  0  0  0  0  0  0  0  0  0  0  0
    6.4470    4.5850   22.2321 C   0  0  0  0  0  0  0  0  0  0  0  0
    8.4619    6.9895   22.2968 C   0  0  0  0  0  0  0  0  0  0  0  0
   12.2747    7.5102   20.0420 C   0  0  0  0  0  0  0  0  0  0  0  0
   14.2544    6.2142   19.4191 C   0  0  0  0  0  0  0  0  0  0  0  0
   13.0695    6.3705   20.0375 N   0  0  0  0  0  0  0  0  0  0  0  0
    9.1913    8.0876   21.8361 N   0  0  0  0  0  0  0  0  0  0  0  0
   10.4739    9.4813   20.2889 C   0  0  0  0  0  0  0  0  0  0  0  0
    7.5551    7.1270   23.1200 O   0  0  0  0  0  0  0  0  0  0  0  0
  1 11  4  0
  1 21  4  0
  2  4  1  0
  2  8  1  0
  2 11  1  0
  3 10  4  0
  3 14  4  0
  4  5  1  0
  4 18  2  0
  6 12  1  0
  6 17  4  0
  6 23  4  0
  7  9  1  0
  7 13  4  0
  7 19  4  0
  9 20  1  0
 10 19  4  0
 11 25  4  0
 13 14  4  0
 15 16  4  0
 15 17  4  0
 15 21  4  0
 16 24  1  0
 16 25  4  0
 20 24  1  0
 20 26  2  0
 21 23  4  0
 22 23  1  0
M  END
$$$$

 Created by Python create_sdf_string function

 26 28  0  0  0  0  0  0  0  0999 V2000
   12.4616    8.6700   19.4180 N   0  0  0  0  0  0  0  0  0  0  0  0
   11.8329   10.8148   18.6769 N   0  0  0  0  0  0  0  0  0  0  0  0
    6.1021    2.5564   21.0678 C   0  0  0  0  0  0  0  0  0  0  0  0
   10.9097   11.8051   18.4804 C   0  0  0  0  0  0  0  0  0  0  0  0
   11.2280   12.9135   17.5669 C   0  0  0  0  0  0  0  0  0  0  0  0
   12.3782    5.4231   20.7777 C   0  0  0  0  0  0  0  0  0  0  0  0
    7.7365    4.6508   21.6987 C   0  0  0  0  0  0  0  0  0  0  0  0
   13.0186   11.0102   18.0020 C   0  0  0  0  0  0  0  0  0  0  0  0
    8.6628    5.7088   21.8871 N   0  0  0  0  0  0  0  0  0  0  0  0
    5.6516    3.5258   21.9140 C   0  0  0  0  0  0  0  0  0  0  0  0
   11.5863    9.6815   19.4539 C   0  0  0  0  0  0  0  0  0  0  0  0
   12.9648    4.1543   20.9205 C   0  0  0  0  0  0  0  0  0  0  0  0
    8.2089    3.6265   20.8929 C   0  0  0  0  0  0  0  0  0  0  0  0
    7.3827    2.5724   20.5432 C   0  0  0  0  0  0  0  0  0  0  0  0
   11.1529    7.2750   20.8025 C   0  0  0  0  0  0  0  0  0  0  0  0
   10.2573    8.3215   20.9827 C   0  0  0  0  0  0  0  0  0  0  0  0
   11.1606    5.9378   21.2366 N   0  0  0  0  0  0  0  0  0  0  0  0
    9.8932   11.6736   19.0677 O   0  0  0  0  0  0  0  0  0  0  0  0
    6.4470    4.5850   22.2321 C   0  0  0  0  0  0  0  0  0  0  0  0
    8.4619    6.9895   22.2968 C   0  0  0  0  0  0  0  0  0  0  0  0
   12.2747    7.5102   20.0420 C   0  0  0  0  0  0  0  0  0  0  0  0
   14.2544    6.2142   19.4191 C   0  0  0  0  0  0  0  0  0  0  0  0
   13.0695    6.3705   20.0375 N   0  0  0  0  0  0  0  0  0  0  0  0
    9.1913    8.0876   21.8361 N   0  0  0  0  0  0  0  0  0  0  0  0
   10.4739    9.4813   20.2889 C   0  0  0  0  0  0  0  0  0  0  0  0
    7.5551    7.1270   23.1200 O   0  0  0  0  0  0  0  0  0  0  0  0
  1 11  4  0
  1 21  4  0
  2  4  1  0
  2  8  1  0
  2 11  1  0
  3 10  4  0
  3 14  4  0
  4  5  1  0
  4 18  2  0
  6 12  1  0
  6 17  4  0
  6 23  4  0
  7  9  1  0
  7 13  4  0
  7 19  4  0
  9 20  1  0
 10 19  4  0
 11 25  4  0
 13 14  4  0
 15 16  4  0
 15 17  4  0
 15 21  4  0
 16 24  1  0
 16 25  4  0
 20 24  1  0
 20 26  2  0
 21 23  4  0
 22 23  1  0
M  END
$$$$

 Created by Python create_sdf_string function

 26 28  0  0  0  0  0  0  0  0999 V2000
   12.4616    8.6700   19.4180 N   0  0  0  0  0  0  0  0  0  0  0  0
   11.8329   10.8148   18.6769 N   0  0  0  0  0  0  0  0  0  0  0  0
    6.1021    2.5564   21.0678 C   0  0  0  0  0  0  0  0  0  0  0  0
   10.9097   11.8051   18.4804 C   0  0  0  0  0  0  0  0  0  0  0  0
   11.2280   12.9135   17.5669 C   0  0  0  0  0  0  0  0  0  0  0  0
   12.3782    5.4231   20.7777 C   0  0  0  0  0  0  0  0  0  0  0  0
    7.7365    4.6508   21.6987 C   0  0  0  0  0  0  0  0  0  0  0  0
   13.0186   11.0102   18.0020 C   0  0  0  0  0  0  0  0  0  0  0  0
    8.6628    5.7088   21.8871 N   0  0  0  0  0  0  0  0  0  0  0  0
    5.6516    3.5258   21.9140 C   0  0  0  0  0  0  0  0  0  0  0  0
   11.5863    9.6815   19.4539 C   0  0  0  0  0  0  0  0  0  0  0  0
   12.9648    4.1543   20.9205 C   0  0  0  0  0  0  0  0  0  0  0  0
    8.2089    3.6265   20.8929 C   0  0  0  0  0  0  0  0  0  0  0  0
    7.3827    2.5724   20.5432 C   0  0  0  0  0  0  0  0  0  0  0  0
   11.1529    7.2750   20.8025 C   0  0  0  0  0  0  0  0  0  0  0  0
   10.2573    8.3215   20.9827 C   0  0  0  0  0  0  0  0  0  0  0  0
   11.1606    5.9378   21.2366 N   0  0  0  0  0  0  0  0  0  0  0  0
    9.8932   11.6736   19.0677 O   0  0  0  0  0  0  0  0  0  0  0  0
    6.4470    4.5850   22.2321 C   0  0  0  0  0  0  0  0  0  0  0  0
    8.4619    6.9895   22.2968 C   0  0  0  0  0  0  0  0  0  0  0  0
   12.2747    7.5102   20.0420 C   0  0  0  0  0  0  0  0  0  0  0  0
   14.2544    6.2142   19.4191 C   0  0  0  0  0  0  0  0  0  0  0  0
   13.0695    6.3705   20.0375 N   0  0  0  0  0  0  0  0  0  0  0  0
    9.1913    8.0876   21.8361 N   0  0  0  0  0  0  0  0  0  0  0  0
   10.4739    9.4813   20.2889 C   0  0  0  0  0  0  0  0  0  0  0  0
    7.5551    7.1270   23.1200 O   0  0  0  0  0  0  0  0  0  0  0  0
  1 11  4  0
  1 21  4  0
  2  4  1  0
  2  8  1  0
  2 11  1  0
  3 10  4  0
  3 14  4  0
  4  5  1  0
  4 18  2  0
  6 12  1  0
  6 17  4  0
  6 23  4  0
  7  9  1  0
  7 13  4  0
  7 19  4  0
  9 20  1  0
 10 19  4  0
 11 25  4  0
 13 14  4  0
 15 16  4  0
 15 17  4  0
 15 21  4  0
 16 24  1  0
 16 25  4  0
 20 24  1  0
 20 26  2  0
 21 23  4  0
 22 23  1  0
M  END
$$$$

 Created by Python create_sdf_string function

 26 28  0  0  0  0  0  0  0  0999 V2000
   12.4616    8.6700   19.4180 N   0  0  0  0  0  0  0  0  0  0  0  0
   11.8329   10.8148   18.6769 N   0  0  0  0  0  0  0  0  0  0  0  0
    6.1021    2.5564   21.0678 C   0  0  0  0  0  0  0  0  0  0  0  0
   10.9097   11.8051   18.4804 C   0  0  0  0  0  0  0  0  0  0  0  0
   11.2280   12.9135   17.5669 C   0  0  0  0  0  0  0  0  0  0  0  0
   12.3782    5.4231   20.7777 C   0  0  0  0  0  0  0  0  0  0  0  0
    7.7365    4.6508   21.6987 C   0  0  0  0  0  0  0  0  0  0  0  0
   13.0186   11.0102   18.0020 C   0  0  0  0  0  0  0  0  0  0  0  0
    8.6628    5.7088   21.8871 N   0  0  0  0  0  0  0  0  0  0  0  0
    5.6516    3.5258   21.9140 C   0  0  0  0  0  0  0  0  0  0  0  0
   11.5863    9.6815   19.4539 C   0  0  0  0  0  0  0  0  0  0  0  0
   12.9648    4.1543   20.9205 C   0  0  0  0  0  0  0  0  0  0  0  0
    8.2089    3.6265   20.8929 C   0  0  0  0  0  0  0  0  0  0  0  0
    7.3827    2.5724   20.5432 C   0  0  0  0  0  0  0  0  0  0  0  0
   11.1529    7.2750   20.8025 C   0  0  0  0  0  0  0  0  0  0  0  0
   10.2573    8.3215   20.9827 C   0  0  0  0  0  0  0  0  0  0  0  0
   11.1606    5.9378   21.2366 N   0  0  0  0  0  0  0  0  0  0  0  0
    9.8932   11.6736   19.0677 O   0  0  0  0  0  0  0  0  0  0  0  0
    6.4470    4.5850   22.2321 C   0  0  0  0  0  0  0  0  0  0  0  0
    8.4619    6.9895   22.2968 C   0  0  0  0  0  0  0  0  0  0  0  0
   12.2747    7.5102   20.0420 C   0  0  0  0  0  0  0  0  0  0  0  0
   14.2544    6.2142   19.4191 C   0  0  0  0  0  0  0  0  0  0  0  0
   13.0695    6.3705   20.0375 N   0  0  0  0  0  0  0  0  0  0  0  0
    9.1913    8.0876   21.8361 N   0  0  0  0  0  0  0  0  0  0  0  0
   10.4739    9.4813   20.2889 C   0  0  0  0  0  0  0  0  0  0  0  0
    7.5551    7.1270   23.1200 O   0  0  0  0  0  0  0  0  0  0  0  0
  1 11  4  0
  1 21  4  0
  2  4  1  0
  2  8  1  0
  2 11  1  0
  3 10  4  0
  3 14  4  0
  4  5  1  0
  4 18  2  0
  6 12  1  0
  6 17  4  0
  6 23  4  0
  7  9  1  0
  7 13  4  0
  7 19  4  0
  9 20  1  0
 10 19  4  0
 11 25  4  0
 13 14  4  0
 15 16  4  0
 15 17  4  0
 15 21  4  0
 16 24  1  0
 16 25  4  0
 20 24  1  0
 20 26  2  0
 21 23  4  0
 22 23  1  0
M  END
$$$$

 Created by Python create_sdf_string function

 26 28  0  0  0  0  0  0  0  0999 V2000
   12.4616    8.6700   19.4180 N   0  0  0  0  0  0  0  0  0  0  0  0
   11.8329   10.8148   18.6769 N   0  0  0  0  0  0  0  0  0  0  0  0
    6.1021    2.5564   21.0678 C   0  0  0  0  0  0  0  0  0  0  0  0
   10.9097   11.8051   18.4804 C   0  0  0  0  0  0  0  0  0  0  0  0
   11.2280   12.9135   17.5669 C   0  0  0  0  0  0  0  0  0  0  0  0
   12.3782    5.4231   20.7777 C   0  0  0  0  0  0  0  0  0  0  0  0
    7.7365    4.6508   21.6987 C   0  0  0  0  0  0  0  0  0  0  0  0
   13.0186   11.0102   18.0020 C   0  0  0  0  0  0  0  0  0  0  0  0
    8.6628    5.7088   21.8871 N   0  0  0  0  0  0  0  0  0  0  0  0
    5.6516    3.5258   21.9140 C   0  0  0  0  0  0  0  0  0  0  0  0
   11.5863    9.6815   19.4539 C   0  0  0  0  0  0  0  0  0  0  0  0
   12.9648    4.1543   20.9205 C   0  0  0  0  0  0  0  0  0  0  0  0
    8.2089    3.6265   20.8929 C   0  0  0  0  0  0  0  0  0  0  0  0
    7.3827    2.5724   20.5432 C   0  0  0  0  0  0  0  0  0  0  0  0
   11.1529    7.2750   20.8025 C   0  0  0  0  0  0  0  0  0  0  0  0
   10.2573    8.3215   20.9827 C   0  0  0  0  0  0  0  0  0  0  0  0
   11.1606    5.9378   21.2366 N   0  0  0  0  0  0  0  0  0  0  0  0
    9.8932   11.6736   19.0677 O   0  0  0  0  0  0  0  0  0  0  0  0
    6.4470    4.5850   22.2321 C   0  0  0  0  0  0  0  0  0  0  0  0
    8.4619    6.9895   22.2968 C   0  0  0  0  0  0  0  0  0  0  0  0
   12.2747    7.5102   20.0420 C   0  0  0  0  0  0  0  0  0  0  0  0
   14.2544    6.2142   19.4191 C   0  0  0  0  0  0  0  0  0  0  0  0
   13.0695    6.3705   20.0375 N   0  0  0  0  0  0  0  0  0  0  0  0
    9.1913    8.0876   21.8361 N   0  0  0  0  0  0  0  0  0  0  0  0
   10.4739    9.4813   20.2889 C   0  0  0  0  0  0  0  0  0  0  0  0
    7.5551    7.1270   23.1200 O   0  0  0  0  0  0  0  0  0  0  0  0
  1 11  4  0
  1 21  4  0
  2  4  1  0
  2  8  1  0
  2 11  1  0
  3 10  4  0
  3 14  4  0
  4  5  1  0
  4 18  2  0
  6 12  1  0
  6 17  4  0
  6 23  4  0
  7  9  1  0
  7 13  4  0
  7 19  4  0
  9 20  1  0
 10 19  4  0
 11 25  4  0
 13 14  4  0
 15 16  4  0
 15 17  4  0
 15 21  4  0
 16 24  1  0
 16 25  4  0
 20 24  1  0
 20 26  2  0
 21 23  4  0
 22 23  1  0
M  END
$$$$

 Created by Python create_sdf_string function

 26 28  0  0  0  0  0  0  0  0999 V2000
   12.4616    8.6700   19.4180 N   0  0  0  0  0  0  0  0  0  0  0  0
   11.8329   10.8148   18.6769 N   0  0  0  0  0  0  0  0  0  0  0  0
    6.1021    2.5564   21.0678 C   0  0  0  0  0  0  0  0  0  0  0  0
   10.9097   11.8051   18.4804 C   0  0  0  0  0  0  0  0  0  0  0  0
   11.2280   12.9135   17.5669 C   0  0  0  0  0  0  0  0  0  0  0  0
   12.3782    5.4231   20.7777 C   0  0  0  0  0  0  0  0  0  0  0  0
    7.7365    4.6508   21.6987 C   0  0  0  0  0  0  0  0  0  0  0  0
   13.0186   11.0102   18.0020 C   0  0  0  0  0  0  0  0  0  0  0  0
    8.6628    5.7088   21.8871 N   0  0  0  0  0  0  0  0  0  0  0  0
    5.6516    3.5258   21.9140 C   0  0  0  0  0  0  0  0  0  0  0  0
   11.5863    9.6815   19.4539 C   0  0  0  0  0  0  0  0  0  0  0  0
   12.9648    4.1543   20.9205 C   0  0  0  0  0  0  0  0  0  0  0  0
    8.2089    3.6265   20.8929 C   0  0  0  0  0  0  0  0  0  0  0  0
    7.3827    2.5724   20.5432 C   0  0  0  0  0  0  0  0  0  0  0  0
   11.1529    7.2750   20.8025 C   0  0  0  0  0  0  0  0  0  0  0  0
   10.2573    8.3215   20.9827 C   0  0  0  0  0  0  0  0  0  0  0  0
   11.1606    5.9378   21.2366 N   0  0  0  0  0  0  0  0  0  0  0  0
    9.8932   11.6736   19.0677 O   0  0  0  0  0  0  0  0  0  0  0  0
    6.4470    4.5850   22.2321 C   0  0  0  0  0  0  0  0  0  0  0  0
    8.4619    6.9895   22.2968 C   0  0  0  0  0  0  0  0  0  0  0  0
   12.2747    7.5102   20.0420 C   0  0  0  0  0  0  0  0  0  0  0  0
   14.2544    6.2142   19.4191 C   0  0  0  0  0  0  0  0  0  0  0  0
   13.0695    6.3705   20.0375 N   0  0  0  0  0  0  0  0  0  0  0  0
    9.1913    8.0876   21.8361 N   0  0  0  0  0  0  0  0  0  0  0  0
   10.4739    9.4813   20.2889 C   0  0  0  0  0  0  0  0  0  0  0  0
    7.5551    7.1270   23.1200 O   0  0  0  0  0  0  0  0  0  0  0  0
  1 11  4  0
  1 21  4  0
  2  4  1  0
  2  8  1  0
  2 11  1  0
  3 10  4  0
  3 14  4  0
  4  5  1  0
  4 18  2  0
  6 12  1  0
  6 17  4  0
  6 23  4  0
  7  9  1  0
  7 13  4  0
  7 19  4  0
  9 20  1  0
 10 19  4  0
 11 25  4  0
 13 14  4  0
 15 16  4  0
 15 17  4  0
 15 21  4  0
 16 24  1  0
 16 25  4  0
 20 24  1  0
 20 26  2  0
 21 23  4  0
 22 23  1  0
M  END
$$$$

 Created by Python create_sdf_string function

 26 28  0  0  0  0  0  0  0  0999 V2000
   12.4616    8.6700   19.4180 N   0  0  0  0  0  0  0  0  0  0  0  0
   11.8329   10.8148   18.6769 N   0  0  0  0  0  0  0  0  0  0  0  0
    6.1021    2.5564   21.0678 C   0  0  0  0  0  0  0  0  0  0  0  0
   10.9097   11.8051   18.4804 C   0  0  0  0  0  0  0  0  0  0  0  0
   11.2280   12.9135   17.5669 C   0  0  0  0  0  0  0  0  0  0  0  0
   12.3782    5.4231   20.7777 C   0  0  0  0  0  0  0  0  0  0  0  0
    7.7365    4.6508   21.6987 C   0  0  0  0  0  0  0  0  0  0  0  0
   13.0186   11.0102   18.0020 C   0  0  0  0  0  0  0  0  0  0  0  0
    8.6628    5.7088   21.8871 N   0  0  0  0  0  0  0  0  0  0  0  0
    5.6516    3.5258   21.9140 C   0  0  0  0  0  0  0  0  0  0  0  0
   11.5863    9.6815   19.4539 C   0  0  0  0  0  0  0  0  0  0  0  0
   12.9648    4.1543   20.9205 C   0  0  0  0  0  0  0  0  0  0  0  0
    8.2089    3.6265   20.8929 C   0  0  0  0  0  0  0  0  0  0  0  0
    7.3827    2.5724   20.5432 C   0  0  0  0  0  0  0  0  0  0  0  0
   11.1529    7.2750   20.8025 C   0  0  0  0  0  0  0  0  0  0  0  0
   10.2573    8.3215   20.9827 C   0  0  0  0  0  0  0  0  0  0  0  0
   11.1606    5.9378   21.2366 N   0  0  0  0  0  0  0  0  0  0  0  0
    9.8932   11.6736   19.0677 O   0  0  0  0  0  0  0  0  0  0  0  0
    6.4470    4.5850   22.2321 C   0  0  0  0  0  0  0  0  0  0  0  0
    8.4619    6.9895   22.2968 C   0  0  0  0  0  0  0  0  0  0  0  0
   12.2747    7.5102   20.0420 C   0  0  0  0  0  0  0  0  0  0  0  0
   14.2544    6.2142   19.4191 C   0  0  0  0  0  0  0  0  0  0  0  0
   13.0695    6.3705   20.0375 N   0  0  0  0  0  0  0  0  0  0  0  0
    9.1913    8.0876   21.8361 N   0  0  0  0  0  0  0  0  0  0  0  0
   10.4739    9.4813   20.2889 C   0  0  0  0  0  0  0  0  0  0  0  0
    7.5551    7.1270   23.1200 O   0  0  0  0  0  0  0  0  0  0  0  0
  1 11  4  0
  1 21  4  0
  2  4  1  0
  2  8  1  0
  2 11  1  0
  3 10  4  0
  3 14  4  0
  4  5  1  0
  4 18  2  0
  6 12  1  0
  6 17  4  0
  6 23  4  0
  7  9  1  0
  7 13  4  0
  7 19  4  0
  9 20  1  0
 10 19  4  0
 11 25  4  0
 13 14  4  0
 15 16  4  0
 15 17  4  0
 15 21  4  0
 16 24  1  0
 16 25  4  0
 20 24  1  0
 20 26  2  0
 21 23  4  0
 22 23  1  0
M  END
$$$$

 Created by Python create_sdf_string function

 26 28  0  0  0  0  0  0  0  0999 V2000
   12.4616    8.6700   19.4180 N   0  0  0  0  0  0  0  0  0  0  0  0
   11.8329   10.8148   18.6769 N   0  0  0  0  0  0  0  0  0  0  0  0
    6.1021    2.5564   21.0678 C   0  0  0  0  0  0  0  0  0  0  0  0
   10.9097   11.8051   18.4804 C   0  0  0  0  0  0  0  0  0  0  0  0
   11.2280   12.9135   17.5669 C   0  0  0  0  0  0  0  0  0  0  0  0
   12.3782    5.4231   20.7777 C   0  0  0  0  0  0  0  0  0  0  0  0
    7.7365    4.6508   21.6987 C   0  0  0  0  0  0  0  0  0  0  0  0
   13.0186   11.0102   18.0020 C   0  0  0  0  0  0  0  0  0  0  0  0
    8.6628    5.7088   21.8871 N   0  0  0  0  0  0  0  0  0  0  0  0
    5.6516    3.5258   21.9140 C   0  0  0  0  0  0  0  0  0  0  0  0
   11.5863    9.6815   19.4539 C   0  0  0  0  0  0  0  0  0  0  0  0
   12.9648    4.1543   20.9205 C   0  0  0  0  0  0  0  0  0  0  0  0
    8.2089    3.6265   20.8929 C   0  0  0  0  0  0  0  0  0  0  0  0
    7.3827    2.5724   20.5432 C   0  0  0  0  0  0  0  0  0  0  0  0
   11.1529    7.2750   20.8025 C   0  0  0  0  0  0  0  0  0  0  0  0
   10.2573    8.3215   20.9827 C   0  0  0  0  0  0  0  0  0  0  0  0
   11.1606    5.9378   21.2366 N   0  0  0  0  0  0  0  0  0  0  0  0
    9.8932   11.6736   19.0677 O   0  0  0  0  0  0  0  0  0  0  0  0
    6.4470    4.5850   22.2321 C   0  0  0  0  0  0  0  0  0  0  0  0
    8.4619    6.9895   22.2968 C   0  0  0  0  0  0  0  0  0  0  0  0
   12.2747    7.5102   20.0420 C   0  0  0  0  0  0  0  0  0  0  0  0
   14.2544    6.2142   19.4191 C   0  0  0  0  0  0  0  0  0  0  0  0
   13.0695    6.3705   20.0375 N   0  0  0  0  0  0  0  0  0  0  0  0
    9.1913    8.0876   21.8361 N   0  0  0  0  0  0  0  0  0  0  0  0
   10.4739    9.4813   20.2889 C   0  0  0  0  0  0  0  0  0  0  0  0
    7.5551    7.1270   23.1200 O   0  0  0  0  0  0  0  0  0  0  0  0
  1 11  4  0
  1 21  4  0
  2  4  1  0
  2  8  1  0
  2 11  1  0
  3 10  4  0
  3 14  4  0
  4  5  1  0
  4 18  2  0
  6 12  1  0
  6 17  4  0
  6 23  4  0
  7  9  1  0
  7 13  4  0
  7 19  4  0
  9 20  1  0
 10 19  4  0
 11 25  4  0
 13 14  4  0
 15 16  4  0
 15 17  4  0
 15 21  4  0
 16 24  1  0
 16 25  4  0
 20 24  1  0
 20 26  2  0
 21 23  4  0
 22 23  1  0
M  END
$$$$

 Created by Python create_sdf_string function

 26 28  0  0  0  0  0  0  0  0999 V2000
   12.4616    8.6700   19.4180 N   0  0  0  0  0  0  0  0  0  0  0  0
   11.8329   10.8148   18.6769 N   0  0  0  0  0  0  0  0  0  0  0  0
    6.1021    2.5564   21.0678 C   0  0  0  0  0  0  0  0  0  0  0  0
   10.9097   11.8051   18.4804 C   0  0  0  0  0  0  0  0  0  0  0  0
   11.2280   12.9135   17.5669 C   0  0  0  0  0  0  0  0  0  0  0  0
   12.3782    5.4231   20.7777 C   0  0  0  0  0  0  0  0  0  0  0  0
    7.7365    4.6508   21.6987 C   0  0  0  0  0  0  0  0  0  0  0  0
   13.0186   11.0102   18.0020 C   0  0  0  0  0  0  0  0  0  0  0  0
    8.6628    5.7088   21.8871 N   0  0  0  0  0  0  0  0  0  0  0  0
    5.6516    3.5258   21.9140 C   0  0  0  0  0  0  0  0  0  0  0  0
   11.5863    9.6815   19.4539 C   0  0  0  0  0  0  0  0  0  0  0  0
   12.9648    4.1543   20.9205 C   0  0  0  0  0  0  0  0  0  0  0  0
    8.2089    3.6265   20.8929 C   0  0  0  0  0  0  0  0  0  0  0  0
    7.3827    2.5724   20.5432 C   0  0  0  0  0  0  0  0  0  0  0  0
   11.1529    7.2750   20.8025 C   0  0  0  0  0  0  0  0  0  0  0  0
   10.2573    8.3215   20.9827 C   0  0  0  0  0  0  0  0  0  0  0  0
   11.1606    5.9378   21.2366 N   0  0  0  0  0  0  0  0  0  0  0  0
    9.8932   11.6736   19.0677 O   0  0  0  0  0  0  0  0  0  0  0  0
    6.4470    4.5850   22.2321 C   0  0  0  0  0  0  0  0  0  0  0  0
    8.4619    6.9895   22.2968 C   0  0  0  0  0  0  0  0  0  0  0  0
   12.2747    7.5102   20.0420 C   0  0  0  0  0  0  0  0  0  0  0  0
   14.2544    6.2142   19.4191 C   0  0  0  0  0  0  0  0  0  0  0  0
   13.0695    6.3705   20.0375 N   0  0  0  0  0  0  0  0  0  0  0  0
    9.1913    8.0876   21.8361 N   0  0  0  0  0  0  0  0  0  0  0  0
   10.4739    9.4813   20.2889 C   0  0  0  0  0  0  0  0  0  0  0  0
    7.5551    7.1270   23.1200 O   0  0  0  0  0  0  0  0  0  0  0  0
  1 11  4  0
  1 21  4  0
  2  4  1  0
  2  8  1  0
  2 11  1  0
  3 10  4  0
  3 14  4  0
  4  5  1  0
  4 18  2  0
  6 12  1  0
  6 17  4  0
  6 23  4  0
  7  9  1  0
  7 13  4  0
  7 19  4  0
  9 20  1  0
 10 19  4  0
 11 25  4  0
 13 14  4  0
 15 16  4  0
 15 17  4  0
 15 21  4  0
 16 24  1  0
 16 25  4  0
 20 24  1  0
 20 26  2  0
 21 23  4  0
 22 23  1  0
M  END
$$$$

 Created by Python create_sdf_string function

 26 28  0  0  0  0  0  0  0  0999 V2000
   12.4616    8.6700   19.4180 N   0  0  0  0  0  0  0  0  0  0  0  0
   11.8329   10.8148   18.6769 N   0  0  0  0  0  0  0  0  0  0  0  0
    6.1021    2.5564   21.0678 C   0  0  0  0  0  0  0  0  0  0  0  0
   10.9097   11.8051   18.4804 C   0  0  0  0  0  0  0  0  0  0  0  0
   11.2280   12.9135   17.5669 C   0  0  0  0  0  0  0  0  0  0  0  0
   12.3782    5.4231   20.7777 C   0  0  0  0  0  0  0  0  0  0  0  0
    7.7365    4.6508   21.6987 C   0  0  0  0  0  0  0  0  0  0  0  0
   13.0186   11.0102   18.0020 C   0  0  0  0  0  0  0  0  0  0  0  0
    8.6628    5.7088   21.8871 N   0  0  0  0  0  0  0  0  0  0  0  0
    5.6516    3.5258   21.9140 C   0  0  0  0  0  0  0  0  0  0  0  0
   11.5863    9.6815   19.4539 C   0  0  0  0  0  0  0  0  0  0  0  0
   12.9648    4.1543   20.9205 C   0  0  0  0  0  0  0  0  0  0  0  0
    8.2089    3.6265   20.8929 C   0  0  0  0  0  0  0  0  0  0  0  0
    7.3827    2.5724   20.5432 C   0  0  0  0  0  0  0  0  0  0  0  0
   11.1529    7.2750   20.8025 C   0  0  0  0  0  0  0  0  0  0  0  0
   10.2573    8.3215   20.9827 C   0  0  0  0  0  0  0  0  0  0  0  0
   11.1606    5.9378   21.2366 N   0  0  0  0  0  0  0  0  0  0  0  0
    9.8932   11.6736   19.0677 O   0  0  0  0  0  0  0  0  0  0  0  0
    6.4470    4.5850   22.2321 C   0  0  0  0  0  0  0  0  0  0  0  0
    8.4619    6.9895   22.2968 C   0  0  0  0  0  0  0  0  0  0  0  0
   12.2747    7.5102   20.0420 C   0  0  0  0  0  0  0  0  0  0  0  0
   14.2544    6.2142   19.4191 C   0  0  0  0  0  0  0  0  0  0  0  0
   13.0695    6.3705   20.0375 N   0  0  0  0  0  0  0  0  0  0  0  0
    9.1913    8.0876   21.8361 N   0  0  0  0  0  0  0  0  0  0  0  0
   10.4739    9.4813   20.2889 C   0  0  0  0  0  0  0  0  0  0  0  0
    7.5551    7.1270   23.1200 O   0  0  0  0  0  0  0  0  0  0  0  0
  1 11  4  0
  1 21  4  0
  2  4  1  0
  2  8  1  0
  2 11  1  0
  3 10  4  0
  3 14  4  0
  4  5  1  0
  4 18  2  0
  6 12  1  0
  6 17  4  0
  6 23  4  0
  7  9  1  0
  7 13  4  0
  7 19  4  0
  9 20  1  0
 10 19  4  0
 11 25  4  0
 13 14  4  0
 15 16  4  0
 15 17  4  0
 15 21  4  0
 16 24  1  0
 16 25  4  0
 20 24  1  0
 20 26  2  0
 21 23  4  0
 22 23  1  0
M  END
$$$$

 Created by Python create_sdf_string function

 26 28  0  0  0  0  0  0  0  0999 V2000
   12.4616    8.6700   19.4180 N   0  0  0  0  0  0  0  0  0  0  0  0
   11.8329   10.8148   18.6769 N   0  0  0  0  0  0  0  0  0  0  0  0
    6.1021    2.5564   21.0678 C   0  0  0  0  0  0  0  0  0  0  0  0
   10.9097   11.8051   18.4804 C   0  0  0  0  0  0  0  0  0  0  0  0
   11.2280   12.9135   17.5669 C   0  0  0  0  0  0  0  0  0  0  0  0
   12.3782    5.4231   20.7777 C   0  0  0  0  0  0  0  0  0  0  0  0
    7.7365    4.6508   21.6987 C   0  0  0  0  0  0  0  0  0  0  0  0
   13.0186   11.0102   18.0020 C   0  0  0  0  0  0  0  0  0  0  0  0
    8.6628    5.7088   21.8871 N   0  0  0  0  0  0  0  0  0  0  0  0
    5.6516    3.5258   21.9140 C   0  0  0  0  0  0  0  0  0  0  0  0
   11.5863    9.6815   19.4539 C   0  0  0  0  0  0  0  0  0  0  0  0
   12.9648    4.1543   20.9205 C   0  0  0  0  0  0  0  0  0  0  0  0
    8.2089    3.6265   20.8929 C   0  0  0  0  0  0  0  0  0  0  0  0
    7.3827    2.5724   20.5432 C   0  0  0  0  0  0  0  0  0  0  0  0
   11.1529    7.2750   20.8025 C   0  0  0  0  0  0  0  0  0  0  0  0
   10.2573    8.3215   20.9827 C   0  0  0  0  0  0  0  0  0  0  0  0
   11.1606    5.9378   21.2366 N   0  0  0  0  0  0  0  0  0  0  0  0
    9.8932   11.6736   19.0677 O   0  0  0  0  0  0  0  0  0  0  0  0
    6.4470    4.5850   22.2321 C   0  0  0  0  0  0  0  0  0  0  0  0
    8.4619    6.9895   22.2968 C   0  0  0  0  0  0  0  0  0  0  0  0
   12.2747    7.5102   20.0420 C   0  0  0  0  0  0  0  0  0  0  0  0
   14.2544    6.2142   19.4191 C   0  0  0  0  0  0  0  0  0  0  0  0
   13.0695    6.3705   20.0375 N   0  0  0  0  0  0  0  0  0  0  0  0
    9.1913    8.0876   21.8361 N   0  0  0  0  0  0  0  0  0  0  0  0
   10.4739    9.4813   20.2889 C   0  0  0  0  0  0  0  0  0  0  0  0
    7.5551    7.1270   23.1200 O   0  0  0  0  0  0  0  0  0  0  0  0
  1 11  4  0
  1 21  4  0
  2  4  1  0
  2  8  1  0
  2 11  1  0
  3 10  4  0
  3 14  4  0
  4  5  1  0
  4 18  2  0
  6 12  1  0
  6 17  4  0
  6 23  4  0
  7  9  1  0
  7 13  4  0
  7 19  4  0
  9 20  1  0
 10 19  4  0
 11 25  4  0
 13 14  4  0
 15 16  4  0
 15 17  4  0
 15 21  4  0
 16 24  1  0
 16 25  4  0
 20 24  1  0
 20 26  2  0
 21 23  4  0
 22 23  1  0
M  END
$$$$

 Created by Python create_sdf_string function

 26 28  0  0  0  0  0  0  0  0999 V2000
   12.4616    8.6700   19.4180 N   0  0  0  0  0  0  0  0  0  0  0  0
   11.8329   10.8148   18.6769 N   0  0  0  0  0  0  0  0  0  0  0  0
    6.1021    2.5564   21.0678 C   0  0  0  0  0  0  0  0  0  0  0  0
   10.9097   11.8051   18.4804 C   0  0  0  0  0  0  0  0  0  0  0  0
   11.2280   12.9135   17.5669 C   0  0  0  0  0  0  0  0  0  0  0  0
   12.3782    5.4231   20.7777 C   0  0  0  0  0  0  0  0  0  0  0  0
    7.7365    4.6508   21.6987 C   0  0  0  0  0  0  0  0  0  0  0  0
   13.0186   11.0102   18.0020 C   0  0  0  0  0  0  0  0  0  0  0  0
    8.6628    5.7088   21.8871 N   0  0  0  0  0  0  0  0  0  0  0  0
    5.6516    3.5258   21.9140 C   0  0  0  0  0  0  0  0  0  0  0  0
   11.5863    9.6815   19.4539 C   0  0  0  0  0  0  0  0  0  0  0  0
   12.9648    4.1543   20.9205 C   0  0  0  0  0  0  0  0  0  0  0  0
    8.2089    3.6265   20.8929 C   0  0  0  0  0  0  0  0  0  0  0  0
    7.3827    2.5724   20.5432 C   0  0  0  0  0  0  0  0  0  0  0  0
   11.1529    7.2750   20.8025 C   0  0  0  0  0  0  0  0  0  0  0  0
   10.2573    8.3215   20.9827 C   0  0  0  0  0  0  0  0  0  0  0  0
   11.1606    5.9378   21.2366 N   0  0  0  0  0  0  0  0  0  0  0  0
    9.8932   11.6736   19.0677 O   0  0  0  0  0  0  0  0  0  0  0  0
    6.4470    4.5850   22.2321 C   0  0  0  0  0  0  0  0  0  0  0  0
    8.4619    6.9895   22.2968 C   0  0  0  0  0  0  0  0  0  0  0  0
   12.2747    7.5102   20.0420 C   0  0  0  0  0  0  0  0  0  0  0  0
   14.2544    6.2142   19.4191 C   0  0  0  0  0  0  0  0  0  0  0  0
   13.0695    6.3705   20.0375 N   0  0  0  0  0  0  0  0  0  0  0  0
    9.1913    8.0876   21.8361 N   0  0  0  0  0  0  0  0  0  0  0  0
   10.4739    9.4813   20.2889 C   0  0  0  0  0  0  0  0  0  0  0  0
    7.5551    7.1270   23.1200 O   0  0  0  0  0  0  0  0  0  0  0  0
  1 11  4  0
  1 21  4  0
  2  4  1  0
  2  8  1  0
  2 11  1  0
  3 10  4  0
  3 14  4  0
  4  5  1  0
  4 18  2  0
  6 12  1  0
  6 17  4  0
  6 23  4  0
  7  9  1  0
  7 13  4  0
  7 19  4  0
  9 20  1  0
 10 19  4  0
 11 25  4  0
 13 14  4  0
 15 16  4  0
 15 17  4  0
 15 21  4  0
 16 24  1  0
 16 25  4  0
 20 24  1  0
 20 26  2  0
 21 23  4  0
 22 23  1  0
M  END
$$$$

 Created by Python create_sdf_string function

 26 28  0  0  0  0  0  0  0  0999 V2000
   12.4616    8.6700   19.4180 N   0  0  0  0  0  0  0  0  0  0  0  0
   11.8329   10.8148   18.6769 N   0  0  0  0  0  0  0  0  0  0  0  0
    6.1021    2.5564   21.0678 C   0  0  0  0  0  0  0  0  0  0  0  0
   10.9097   11.8051   18.4804 C   0  0  0  0  0  0  0  0  0  0  0  0
   11.2280   12.9135   17.5669 C   0  0  0  0  0  0  0  0  0  0  0  0
   12.3782    5.4231   20.7777 C   0  0  0  0  0  0  0  0  0  0  0  0
    7.7365    4.6508   21.6987 C   0  0  0  0  0  0  0  0  0  0  0  0
   13.0186   11.0102   18.0020 C   0  0  0  0  0  0  0  0  0  0  0  0
    8.6628    5.7088   21.8871 N   0  0  0  0  0  0  0  0  0  0  0  0
    5.6516    3.5258   21.9140 C   0  0  0  0  0  0  0  0  0  0  0  0
   11.5863    9.6815   19.4539 C   0  0  0  0  0  0  0  0  0  0  0  0
   12.9648    4.1543   20.9205 C   0  0  0  0  0  0  0  0  0  0  0  0
    8.2089    3.6265   20.8929 C   0  0  0  0  0  0  0  0  0  0  0  0
    7.3827    2.5724   20.5432 C   0  0  0  0  0  0  0  0  0  0  0  0
   11.1529    7.2750   20.8025 C   0  0  0  0  0  0  0  0  0  0  0  0
   10.2573    8.3215   20.9827 C   0  0  0  0  0  0  0  0  0  0  0  0
   11.1606    5.9378   21.2366 N   0  0  0  0  0  0  0  0  0  0  0  0
    9.8932   11.6736   19.0677 O   0  0  0  0  0  0  0  0  0  0  0  0
    6.4470    4.5850   22.2321 C   0  0  0  0  0  0  0  0  0  0  0  0
    8.4619    6.9895   22.2968 C   0  0  0  0  0  0  0  0  0  0  0  0
   12.2747    7.5102   20.0420 C   0  0  0  0  0  0  0  0  0  0  0  0
   14.2544    6.2142   19.4191 C   0  0  0  0  0  0  0  0  0  0  0  0
   13.0695    6.3705   20.0375 N   0  0  0  0  0  0  0  0  0  0  0  0
    9.1913    8.0876   21.8361 N   0  0  0  0  0  0  0  0  0  0  0  0
   10.4739    9.4813   20.2889 C   0  0  0  0  0  0  0  0  0  0  0  0
    7.5551    7.1270   23.1200 O   0  0  0  0  0  0  0  0  0  0  0  0
  1 11  4  0
  1 21  4  0
  2  4  1  0
  2  8  1  0
  2 11  1  0
  3 10  4  0
  3 14  4  0
  4  5  1  0
  4 18  2  0
  6 12  1  0
  6 17  4  0
  6 23  4  0
  7  9  1  0
  7 13  4  0
  7 19  4  0
  9 20  1  0
 10 19  4  0
 11 25  4  0
 13 14  4  0
 15 16  4  0
 15 17  4  0
 15 21  4  0
 16 24  1  0
 16 25  4  0
 20 24  1  0
 20 26  2  0
 21 23  4  0
 22 23  1  0
M  END
$$$$

 Created by Python create_sdf_string function

 26 28  0  0  0  0  0  0  0  0999 V2000
   12.4616    8.6700   19.4180 N   0  0  0  0  0  0  0  0  0  0  0  0
   11.8329   10.8148   18.6769 N   0  0  0  0  0  0  0  0  0  0  0  0
    6.1021    2.5564   21.0678 C   0  0  0  0  0  0  0  0  0  0  0  0
   10.9097   11.8051   18.4804 C   0  0  0  0  0  0  0  0  0  0  0  0
   11.2280   12.9135   17.5669 C   0  0  0  0  0  0  0  0  0  0  0  0
   12.3782    5.4231   20.7777 C   0  0  0  0  0  0  0  0  0  0  0  0
    7.7365    4.6508   21.6987 C   0  0  0  0  0  0  0  0  0  0  0  0
   13.0186   11.0102   18.0020 C   0  0  0  0  0  0  0  0  0  0  0  0
    8.6628    5.7088   21.8871 N   0  0  0  0  0  0  0  0  0  0  0  0
    5.6516    3.5258   21.9140 C   0  0  0  0  0  0  0  0  0  0  0  0
   11.5863    9.6815   19.4539 C   0  0  0  0  0  0  0  0  0  0  0  0
   12.9648    4.1543   20.9205 C   0  0  0  0  0  0  0  0  0  0  0  0
    8.2089    3.6265   20.8929 C   0  0  0  0  0  0  0  0  0  0  0  0
    7.3827    2.5724   20.5432 C   0  0  0  0  0  0  0  0  0  0  0  0
   11.1529    7.2750   20.8025 C   0  0  0  0  0  0  0  0  0  0  0  0
   10.2573    8.3215   20.9827 C   0  0  0  0  0  0  0  0  0  0  0  0
   11.1606    5.9378   21.2366 N   0  0  0  0  0  0  0  0  0  0  0  0
    9.8932   11.6736   19.0677 O   0  0  0  0  0  0  0  0  0  0  0  0
    6.4470    4.5850   22.2321 C   0  0  0  0  0  0  0  0  0  0  0  0
    8.4619    6.9895   22.2968 C   0  0  0  0  0  0  0  0  0  0  0  0
   12.2747    7.5102   20.0420 C   0  0  0  0  0  0  0  0  0  0  0  0
   14.2544    6.2142   19.4191 C   0  0  0  0  0  0  0  0  0  0  0  0
   13.0695    6.3705   20.0375 N   0  0  0  0  0  0  0  0  0  0  0  0
    9.1913    8.0876   21.8361 N   0  0  0  0  0  0  0  0  0  0  0  0
   10.4739    9.4813   20.2889 C   0  0  0  0  0  0  0  0  0  0  0  0
    7.5551    7.1270   23.1200 O   0  0  0  0  0  0  0  0  0  0  0  0
  1 11  4  0
  1 21  4  0
  2  4  1  0
  2  8  1  0
  2 11  1  0
  3 10  4  0
  3 14  4  0
  4  5  1  0
  4 18  2  0
  6 12  1  0
  6 17  4  0
  6 23  4  0
  7  9  1  0
  7 13  4  0
  7 19  4  0
  9 20  1  0
 10 19  4  0
 11 25  4  0
 13 14  4  0
 15 16  4  0
 15 17  4  0
 15 21  4  0
 16 24  1  0
 16 25  4  0
 20 24  1  0
 20 26  2  0
 21 23  4  0
 22 23  1  0
M  END
$$$$

 Created by Python create_sdf_string function

 26 28  0  0  0  0  0  0  0  0999 V2000
   12.4616    8.6700   19.4180 N   0  0  0  0  0  0  0  0  0  0  0  0
   11.8329   10.8148   18.6769 N   0  0  0  0  0  0  0  0  0  0  0  0
    6.1021    2.5564   21.0678 C   0  0  0  0  0  0  0  0  0  0  0  0
   10.9097   11.8051   18.4804 C   0  0  0  0  0  0  0  0  0  0  0  0
   11.2280   12.9135   17.5669 C   0  0  0  0  0  0  0  0  0  0  0  0
   12.3782    5.4231   20.7777 C   0  0  0  0  0  0  0  0  0  0  0  0
    7.7365    4.6508   21.6987 C   0  0  0  0  0  0  0  0  0  0  0  0
   13.0186   11.0102   18.0020 C   0  0  0  0  0  0  0  0  0  0  0  0
    8.6628    5.7088   21.8871 N   0  0  0  0  0  0  0  0  0  0  0  0
    5.6516    3.5258   21.9140 C   0  0  0  0  0  0  0  0  0  0  0  0
   11.5863    9.6815   19.4539 C   0  0  0  0  0  0  0  0  0  0  0  0
   12.9648    4.1543   20.9205 C   0  0  0  0  0  0  0  0  0  0  0  0
    8.2089    3.6265   20.8929 C   0  0  0  0  0  0  0  0  0  0  0  0
    7.3827    2.5724   20.5432 C   0  0  0  0  0  0  0  0  0  0  0  0
   11.1529    7.2750   20.8025 C   0  0  0  0  0  0  0  0  0  0  0  0
   10.2573    8.3215   20.9827 C   0  0  0  0  0  0  0  0  0  0  0  0
   11.1606    5.9378   21.2366 N   0  0  0  0  0  0  0  0  0  0  0  0
    9.8932   11.6736   19.0677 O   0  0  0  0  0  0  0  0  0  0  0  0
    6.4470    4.5850   22.2321 C   0  0  0  0  0  0  0  0  0  0  0  0
    8.4619    6.9895   22.2968 C   0  0  0  0  0  0  0  0  0  0  0  0
   12.2747    7.5102   20.0420 C   0  0  0  0  0  0  0  0  0  0  0  0
   14.2544    6.2142   19.4191 C   0  0  0  0  0  0  0  0  0  0  0  0
   13.0695    6.3705   20.0375 N   0  0  0  0  0  0  0  0  0  0  0  0
    9.1913    8.0876   21.8361 N   0  0  0  0  0  0  0  0  0  0  0  0
   10.4739    9.4813   20.2889 C   0  0  0  0  0  0  0  0  0  0  0  0
    7.5551    7.1270   23.1200 O   0  0  0  0  0  0  0  0  0  0  0  0
  1 11  4  0
  1 21  4  0
  2  4  1  0
  2  8  1  0
  2 11  1  0
  3 10  4  0
  3 14  4  0
  4  5  1  0
  4 18  2  0
  6 12  1  0
  6 17  4  0
  6 23  4  0
  7  9  1  0
  7 13  4  0
  7 19  4  0
  9 20  1  0
 10 19  4  0
 11 25  4  0
 13 14  4  0
 15 16  4  0
 15 17  4  0
 15 21  4  0
 16 24  1  0
 16 25  4  0
 20 24  1  0
 20 26  2  0
 21 23  4  0
 22 23  1  0
M  END
$$$$

 Created by Python create_sdf_string function

 26 28  0  0  0  0  0  0  0  0999 V2000
   12.4616    8.6700   19.4180 N   0  0  0  0  0  0  0  0  0  0  0  0
   11.8329   10.8148   18.6769 N   0  0  0  0  0  0  0  0  0  0  0  0
    6.1021    2.5564   21.0678 C   0  0  0  0  0  0  0  0  0  0  0  0
   10.9097   11.8051   18.4804 C   0  0  0  0  0  0  0  0  0  0  0  0
   11.2280   12.9135   17.5669 C   0  0  0  0  0  0  0  0  0  0  0  0
   12.3782    5.4231   20.7777 C   0  0  0  0  0  0  0  0  0  0  0  0
    7.7365    4.6508   21.6987 C   0  0  0  0  0  0  0  0  0  0  0  0
   13.0186   11.0102   18.0020 C   0  0  0  0  0  0  0  0  0  0  0  0
    8.6628    5.7088   21.8871 N   0  0  0  0  0  0  0  0  0  0  0  0
    5.6516    3.5258   21.9140 C   0  0  0  0  0  0  0  0  0  0  0  0
   11.5863    9.6815   19.4539 C   0  0  0  0  0  0  0  0  0  0  0  0
   12.9648    4.1543   20.9205 C   0  0  0  0  0  0  0  0  0  0  0  0
    8.2089    3.6265   20.8929 C   0  0  0  0  0  0  0  0  0  0  0  0
    7.3827    2.5724   20.5432 C   0  0  0  0  0  0  0  0  0  0  0  0
   11.1529    7.2750   20.8025 C   0  0  0  0  0  0  0  0  0  0  0  0
   10.2573    8.3215   20.9827 C   0  0  0  0  0  0  0  0  0  0  0  0
   11.1606    5.9378   21.2366 N   0  0  0  0  0  0  0  0  0  0  0  0
    9.8932   11.6736   19.0677 O   0  0  0  0  0  0  0  0  0  0  0  0
    6.4470    4.5850   22.2321 C   0  0  0  0  0  0  0  0  0  0  0  0
    8.4619    6.9895   22.2968 C   0  0  0  0  0  0  0  0  0  0  0  0
   12.2747    7.5102   20.0420 C   0  0  0  0  0  0  0  0  0  0  0  0
   14.2544    6.2142   19.4191 C   0  0  0  0  0  0  0  0  0  0  0  0
   13.0695    6.3705   20.0375 N   0  0  0  0  0  0  0  0  0  0  0  0
    9.1913    8.0876   21.8361 N   0  0  0  0  0  0  0  0  0  0  0  0
   10.4739    9.4813   20.2889 C   0  0  0  0  0  0  0  0  0  0  0  0
    7.5551    7.1270   23.1200 O   0  0  0  0  0  0  0  0  0  0  0  0
  1 11  4  0
  1 21  4  0
  2  4  1  0
  2  8  1  0
  2 11  1  0
  3 10  4  0
  3 14  4  0
  4  5  1  0
  4 18  2  0
  6 12  1  0
  6 17  4  0
  6 23  4  0
  7  9  1  0
  7 13  4  0
  7 19  4  0
  9 20  1  0
 10 19  4  0
 11 25  4  0
 13 14  4  0
 15 16  4  0
 15 17  4  0
 15 21  4  0
 16 24  1  0
 16 25  4  0
 20 24  1  0
 20 26  2  0
 21 23  4  0
 22 23  1  0
M  END
$$$$

 Created by Python create_sdf_string function

 26 28  0  0  0  0  0  0  0  0999 V2000
   12.4616    8.6700   19.4180 N   0  0  0  0  0  0  0  0  0  0  0  0
   11.8329   10.8148   18.6769 N   0  0  0  0  0  0  0  0  0  0  0  0
    6.1021    2.5564   21.0678 C   0  0  0  0  0  0  0  0  0  0  0  0
   10.9097   11.8051   18.4804 C   0  0  0  0  0  0  0  0  0  0  0  0
   11.2280   12.9135   17.5669 C   0  0  0  0  0  0  0  0  0  0  0  0
   12.3782    5.4231   20.7777 C   0  0  0  0  0  0  0  0  0  0  0  0
    7.7365    4.6508   21.6987 C   0  0  0  0  0  0  0  0  0  0  0  0
   13.0186   11.0102   18.0020 C   0  0  0  0  0  0  0  0  0  0  0  0
    8.6628    5.7088   21.8871 N   0  0  0  0  0  0  0  0  0  0  0  0
    5.6516    3.5258   21.9140 C   0  0  0  0  0  0  0  0  0  0  0  0
   11.5863    9.6815   19.4539 C   0  0  0  0  0  0  0  0  0  0  0  0
   12.9648    4.1543   20.9205 C   0  0  0  0  0  0  0  0  0  0  0  0
    8.2089    3.6265   20.8929 C   0  0  0  0  0  0  0  0  0  0  0  0
    7.3827    2.5724   20.5432 C   0  0  0  0  0  0  0  0  0  0  0  0
   11.1529    7.2750   20.8025 C   0  0  0  0  0  0  0  0  0  0  0  0
   10.2573    8.3215   20.9827 C   0  0  0  0  0  0  0  0  0  0  0  0
   11.1606    5.9378   21.2366 N   0  0  0  0  0  0  0  0  0  0  0  0
    9.8932   11.6736   19.0677 O   0  0  0  0  0  0  0  0  0  0  0  0
    6.4470    4.5850   22.2321 C   0  0  0  0  0  0  0  0  0  0  0  0
    8.4619    6.9895   22.2968 C   0  0  0  0  0  0  0  0  0  0  0  0
   12.2747    7.5102   20.0420 C   0  0  0  0  0  0  0  0  0  0  0  0
   14.2544    6.2142   19.4191 C   0  0  0  0  0  0  0  0  0  0  0  0
   13.0695    6.3705   20.0375 N   0  0  0  0  0  0  0  0  0  0  0  0
    9.1913    8.0876   21.8361 N   0  0  0  0  0  0  0  0  0  0  0  0
   10.4739    9.4813   20.2889 C   0  0  0  0  0  0  0  0  0  0  0  0
    7.5551    7.1270   23.1200 O   0  0  0  0  0  0  0  0  0  0  0  0
  1 11  4  0
  1 21  4  0
  2  4  1  0
  2  8  1  0
  2 11  1  0
  3 10  4  0
  3 14  4  0
  4  5  1  0
  4 18  2  0
  6 12  1  0
  6 17  4  0
  6 23  4  0
  7  9  1  0
  7 13  4  0
  7 19  4  0
  9 20  1  0
 10 19  4  0
 11 25  4  0
 13 14  4  0
 15 16  4  0
 15 17  4  0
 15 21  4  0
 16 24  1  0
 16 25  4  0
 20 24  1  0
 20 26  2  0
 21 23  4  0
 22 23  1  0
M  END
$$$$

 Created by Python create_sdf_string function

 26 28  0  0  0  0  0  0  0  0999 V2000
   12.4616    8.6700   19.4180 N   0  0  0  0  0  0  0  0  0  0  0  0
   11.8329   10.8148   18.6769 N   0  0  0  0  0  0  0  0  0  0  0  0
    6.1021    2.5564   21.0678 C   0  0  0  0  0  0  0  0  0  0  0  0
   10.9097   11.8051   18.4804 C   0  0  0  0  0  0  0  0  0  0  0  0
   11.2280   12.9135   17.5669 C   0  0  0  0  0  0  0  0  0  0  0  0
   12.3782    5.4231   20.7777 C   0  0  0  0  0  0  0  0  0  0  0  0
    7.7365    4.6508   21.6987 C   0  0  0  0  0  0  0  0  0  0  0  0
   13.0186   11.0102   18.0020 C   0  0  0  0  0  0  0  0  0  0  0  0
    8.6628    5.7088   21.8871 N   0  0  0  0  0  0  0  0  0  0  0  0
    5.6516    3.5258   21.9140 C   0  0  0  0  0  0  0  0  0  0  0  0
   11.5863    9.6815   19.4539 C   0  0  0  0  0  0  0  0  0  0  0  0
   12.9648    4.1543   20.9205 C   0  0  0  0  0  0  0  0  0  0  0  0
    8.2089    3.6265   20.8929 C   0  0  0  0  0  0  0  0  0  0  0  0
    7.3827    2.5724   20.5432 C   0  0  0  0  0  0  0  0  0  0  0  0
   11.1529    7.2750   20.8025 C   0  0  0  0  0  0  0  0  0  0  0  0
   10.2573    8.3215   20.9827 C   0  0  0  0  0  0  0  0  0  0  0  0
   11.1606    5.9378   21.2366 N   0  0  0  0  0  0  0  0  0  0  0  0
    9.8932   11.6736   19.0677 O   0  0  0  0  0  0  0  0  0  0  0  0
    6.4470    4.5850   22.2321 C   0  0  0  0  0  0  0  0  0  0  0  0
    8.4619    6.9895   22.2968 C   0  0  0  0  0  0  0  0  0  0  0  0
   12.2747    7.5102   20.0420 C   0  0  0  0  0  0  0  0  0  0  0  0
   14.2544    6.2142   19.4191 C   0  0  0  0  0  0  0  0  0  0  0  0
   13.0695    6.3705   20.0375 N   0  0  0  0  0  0  0  0  0  0  0  0
    9.1913    8.0876   21.8361 N   0  0  0  0  0  0  0  0  0  0  0  0
   10.4739    9.4813   20.2889 C   0  0  0  0  0  0  0  0  0  0  0  0
    7.5551    7.1270   23.1200 O   0  0  0  0  0  0  0  0  0  0  0  0
  1 11  4  0
  1 21  4  0
  2  4  1  0
  2  8  1  0
  2 11  1  0
  3 10  4  0
  3 14  4  0
  4  5  1  0
  4 18  2  0
  6 12  1  0
  6 17  4  0
  6 23  4  0
  7  9  1  0
  7 13  4  0
  7 19  4  0
  9 20  1  0
 10 19  4  0
 11 25  4  0
 13 14  4  0
 15 16  4  0
 15 17  4  0
 15 21  4  0
 16 24  1  0
 16 25  4  0
 20 24  1  0
 20 26  2  0
 21 23  4  0
 22 23  1  0
M  END
$$$$

 Created by Python create_sdf_string function

 26 28  0  0  0  0  0  0  0  0999 V2000
   12.4616    8.6700   19.4180 N   0  0  0  0  0  0  0  0  0  0  0  0
   11.8329   10.8148   18.6769 N   0  0  0  0  0  0  0  0  0  0  0  0
    6.1021    2.5564   21.0678 C   0  0  0  0  0  0  0  0  0  0  0  0
   10.9097   11.8051   18.4804 C   0  0  0  0  0  0  0  0  0  0  0  0
   11.2280   12.9135   17.5669 C   0  0  0  0  0  0  0  0  0  0  0  0
   12.3782    5.4231   20.7777 C   0  0  0  0  0  0  0  0  0  0  0  0
    7.7365    4.6508   21.6987 C   0  0  0  0  0  0  0  0  0  0  0  0
   13.0186   11.0102   18.0020 C   0  0  0  0  0  0  0  0  0  0  0  0
    8.6628    5.7088   21.8871 N   0  0  0  0  0  0  0  0  0  0  0  0
    5.6516    3.5258   21.9140 C   0  0  0  0  0  0  0  0  0  0  0  0
   11.5863    9.6815   19.4539 C   0  0  0  0  0  0  0  0  0  0  0  0
   12.9648    4.1543   20.9205 C   0  0  0  0  0  0  0  0  0  0  0  0
    8.2089    3.6265   20.8929 C   0  0  0  0  0  0  0  0  0  0  0  0
    7.3827    2.5724   20.5432 C   0  0  0  0  0  0  0  0  0  0  0  0
   11.1529    7.2750   20.8025 C   0  0  0  0  0  0  0  0  0  0  0  0
   10.2573    8.3215   20.9827 C   0  0  0  0  0  0  0  0  0  0  0  0
   11.1606    5.9378   21.2366 N   0  0  0  0  0  0  0  0  0  0  0  0
    9.8932   11.6736   19.0677 O   0  0  0  0  0  0  0  0  0  0  0  0
    6.4470    4.5850   22.2321 C   0  0  0  0  0  0  0  0  0  0  0  0
    8.4619    6.9895   22.2968 C   0  0  0  0  0  0  0  0  0  0  0  0
   12.2747    7.5102   20.0420 C   0  0  0  0  0  0  0  0  0  0  0  0
   14.2544    6.2142   19.4191 C   0  0  0  0  0  0  0  0  0  0  0  0
   13.0695    6.3705   20.0375 N   0  0  0  0  0  0  0  0  0  0  0  0
    9.1913    8.0876   21.8361 N   0  0  0  0  0  0  0  0  0  0  0  0
   10.4739    9.4813   20.2889 C   0  0  0  0  0  0  0  0  0  0  0  0
    7.5551    7.1270   23.1200 O   0  0  0  0  0  0  0  0  0  0  0  0
  1 11  4  0
  1 21  4  0
  2  4  1  0
  2  8  1  0
  2 11  1  0
  3 10  4  0
  3 14  4  0
  4  5  1  0
  4 18  2  0
  6 12  1  0
  6 17  4  0
  6 23  4  0
  7  9  1  0
  7 13  4  0
  7 19  4  0
  9 20  1  0
 10 19  4  0
 11 25  4  0
 13 14  4  0
 15 16  4  0
 15 17  4  0
 15 21  4  0
 16 24  1  0
 16 25  4  0
 20 24  1  0
 20 26  2  0
 21 23  4  0
 22 23  1  0
M  END
$$$$

 Created by Python create_sdf_string function

 26 28  0  0  0  0  0  0  0  0999 V2000
   12.4616    8.6700   19.4180 N   0  0  0  0  0  0  0  0  0  0  0  0
   11.8329   10.8148   18.6769 N   0  0  0  0  0  0  0  0  0  0  0  0
    6.1021    2.5564   21.0678 C   0  0  0  0  0  0  0  0  0  0  0  0
   10.9097   11.8051   18.4804 C   0  0  0  0  0  0  0  0  0  0  0  0
   11.2280   12.9135   17.5669 C   0  0  0  0  0  0  0  0  0  0  0  0
   12.3782    5.4231   20.7777 C   0  0  0  0  0  0  0  0  0  0  0  0
    7.7365    4.6508   21.6987 C   0  0  0  0  0  0  0  0  0  0  0  0
   13.0186   11.0102   18.0020 C   0  0  0  0  0  0  0  0  0  0  0  0
    8.6628    5.7088   21.8871 N   0  0  0  0  0  0  0  0  0  0  0  0
    5.6516    3.5258   21.9140 C   0  0  0  0  0  0  0  0  0  0  0  0
   11.5863    9.6815   19.4539 C   0  0  0  0  0  0  0  0  0  0  0  0
   12.9648    4.1543   20.9205 C   0  0  0  0  0  0  0  0  0  0  0  0
    8.2089    3.6265   20.8929 C   0  0  0  0  0  0  0  0  0  0  0  0
    7.3827    2.5724   20.5432 C   0  0  0  0  0  0  0  0  0  0  0  0
   11.1529    7.2750   20.8025 C   0  0  0  0  0  0  0  0  0  0  0  0
   10.2573    8.3215   20.9827 C   0  0  0  0  0  0  0  0  0  0  0  0
   11.1606    5.9378   21.2366 N   0  0  0  0  0  0  0  0  0  0  0  0
    9.8932   11.6736   19.0677 O   0  0  0  0  0  0  0  0  0  0  0  0
    6.4470    4.5850   22.2321 C   0  0  0  0  0  0  0  0  0  0  0  0
    8.4619    6.9895   22.2968 C   0  0  0  0  0  0  0  0  0  0  0  0
   12.2747    7.5102   20.0420 C   0  0  0  0  0  0  0  0  0  0  0  0
   14.2544    6.2142   19.4191 C   0  0  0  0  0  0  0  0  0  0  0  0
   13.0695    6.3705   20.0375 N   0  0  0  0  0  0  0  0  0  0  0  0
    9.1913    8.0876   21.8361 N   0  0  0  0  0  0  0  0  0  0  0  0
   10.4739    9.4813   20.2889 C   0  0  0  0  0  0  0  0  0  0  0  0
    7.5551    7.1270   23.1200 O   0  0  0  0  0  0  0  0  0  0  0  0
  1 11  4  0
  1 21  4  0
  2  4  1  0
  2  8  1  0
  2 11  1  0
  3 10  4  0
  3 14  4  0
  4  5  1  0
  4 18  2  0
  6 12  1  0
  6 17  4  0
  6 23  4  0
  7  9  1  0
  7 13  4  0
  7 19  4  0
  9 20  1  0
 10 19  4  0
 11 25  4  0
 13 14  4  0
 15 16  4  0
 15 17  4  0
 15 21  4  0
 16 24  1  0
 16 25  4  0
 20 24  1  0
 20 26  2  0
 21 23  4  0
 22 23  1  0
M  END
$$$$

 Created by Python create_sdf_string function

 26 28  0  0  0  0  0  0  0  0999 V2000
   12.4616    8.6700   19.4180 N   0  0  0  0  0  0  0  0  0  0  0  0
   11.8329   10.8148   18.6769 N   0  0  0  0  0  0  0  0  0  0  0  0
    6.1021    2.5564   21.0678 C   0  0  0  0  0  0  0  0  0  0  0  0
   10.9097   11.8051   18.4804 C   0  0  0  0  0  0  0  0  0  0  0  0
   11.2280   12.9135   17.5669 C   0  0  0  0  0  0  0  0  0  0  0  0
   12.3782    5.4231   20.7777 C   0  0  0  0  0  0  0  0  0  0  0  0
    7.7365    4.6508   21.6987 C   0  0  0  0  0  0  0  0  0  0  0  0
   13.0186   11.0102   18.0020 C   0  0  0  0  0  0  0  0  0  0  0  0
    8.6628    5.7088   21.8871 N   0  0  0  0  0  0  0  0  0  0  0  0
    5.6516    3.5258   21.9140 C   0  0  0  0  0  0  0  0  0  0  0  0
   11.5863    9.6815   19.4539 C   0  0  0  0  0  0  0  0  0  0  0  0
   12.9648    4.1543   20.9205 C   0  0  0  0  0  0  0  0  0  0  0  0
    8.2089    3.6265   20.8929 C   0  0  0  0  0  0  0  0  0  0  0  0
    7.3827    2.5724   20.5432 C   0  0  0  0  0  0  0  0  0  0  0  0
   11.1529    7.2750   20.8025 C   0  0  0  0  0  0  0  0  0  0  0  0
   10.2573    8.3215   20.9827 C   0  0  0  0  0  0  0  0  0  0  0  0
   11.1606    5.9378   21.2366 N   0  0  0  0  0  0  0  0  0  0  0  0
    9.8932   11.6736   19.0677 O   0  0  0  0  0  0  0  0  0  0  0  0
    6.4470    4.5850   22.2321 C   0  0  0  0  0  0  0  0  0  0  0  0
    8.4619    6.9895   22.2968 C   0  0  0  0  0  0  0  0  0  0  0  0
   12.2747    7.5102   20.0420 C   0  0  0  0  0  0  0  0  0  0  0  0
   14.2544    6.2142   19.4191 C   0  0  0  0  0  0  0  0  0  0  0  0
   13.0695    6.3705   20.0375 N   0  0  0  0  0  0  0  0  0  0  0  0
    9.1913    8.0876   21.8361 N   0  0  0  0  0  0  0  0  0  0  0  0
   10.4739    9.4813   20.2889 C   0  0  0  0  0  0  0  0  0  0  0  0
    7.5551    7.1270   23.1200 O   0  0  0  0  0  0  0  0  0  0  0  0
  1 11  4  0
  1 21  4  0
  2  4  1  0
  2  8  1  0
  2 11  1  0
  3 10  4  0
  3 14  4  0
  4  5  1  0
  4 18  2  0
  6 12  1  0
  6 17  4  0
  6 23  4  0
  7  9  1  0
  7 13  4  0
  7 19  4  0
  9 20  1  0
 10 19  4  0
 11 25  4  0
 13 14  4  0
 15 16  4  0
 15 17  4  0
 15 21  4  0
 16 24  1  0
 16 25  4  0
 20 24  1  0
 20 26  2  0
 21 23  4  0
 22 23  1  0
M  END
$$$$

 Created by Python create_sdf_string function

 26 28  0  0  0  0  0  0  0  0999 V2000
   12.4616    8.6700   19.4180 N   0  0  0  0  0  0  0  0  0  0  0  0
   11.8329   10.8148   18.6769 N   0  0  0  0  0  0  0  0  0  0  0  0
    6.1021    2.5564   21.0678 C   0  0  0  0  0  0  0  0  0  0  0  0
   10.9097   11.8051   18.4804 C   0  0  0  0  0  0  0  0  0  0  0  0
   11.2280   12.9135   17.5669 C   0  0  0  0  0  0  0  0  0  0  0  0
   12.3782    5.4231   20.7777 C   0  0  0  0  0  0  0  0  0  0  0  0
    7.7365    4.6508   21.6987 C   0  0  0  0  0  0  0  0  0  0  0  0
   13.0186   11.0102   18.0020 C   0  0  0  0  0  0  0  0  0  0  0  0
    8.6628    5.7088   21.8871 N   0  0  0  0  0  0  0  0  0  0  0  0
    5.6516    3.5258   21.9140 C   0  0  0  0  0  0  0  0  0  0  0  0
   11.5863    9.6815   19.4539 C   0  0  0  0  0  0  0  0  0  0  0  0
   12.9648    4.1543   20.9205 C   0  0  0  0  0  0  0  0  0  0  0  0
    8.2089    3.6265   20.8929 C   0  0  0  0  0  0  0  0  0  0  0  0
    7.3827    2.5724   20.5432 C   0  0  0  0  0  0  0  0  0  0  0  0
   11.1529    7.2750   20.8025 C   0  0  0  0  0  0  0  0  0  0  0  0
   10.2573    8.3215   20.9827 C   0  0  0  0  0  0  0  0  0  0  0  0
   11.1606    5.9378   21.2366 N   0  0  0  0  0  0  0  0  0  0  0  0
    9.8932   11.6736   19.0677 O   0  0  0  0  0  0  0  0  0  0  0  0
    6.4470    4.5850   22.2321 C   0  0  0  0  0  0  0  0  0  0  0  0
    8.4619    6.9895   22.2968 C   0  0  0  0  0  0  0  0  0  0  0  0
   12.2747    7.5102   20.0420 C   0  0  0  0  0  0  0  0  0  0  0  0
   14.2544    6.2142   19.4191 C   0  0  0  0  0  0  0  0  0  0  0  0
   13.0695    6.3705   20.0375 N   0  0  0  0  0  0  0  0  0  0  0  0
    9.1913    8.0876   21.8361 N   0  0  0  0  0  0  0  0  0  0  0  0
   10.4739    9.4813   20.2889 C   0  0  0  0  0  0  0  0  0  0  0  0
    7.5551    7.1270   23.1200 O   0  0  0  0  0  0  0  0  0  0  0  0
  1 11  4  0
  1 21  4  0
  2  4  1  0
  2  8  1  0
  2 11  1  0
  3 10  4  0
  3 14  4  0
  4  5  1  0
  4 18  2  0
  6 12  1  0
  6 17  4  0
  6 23  4  0
  7  9  1  0
  7 13  4  0
  7 19  4  0
  9 20  1  0
 10 19  4  0
 11 25  4  0
 13 14  4  0
 15 16  4  0
 15 17  4  0
 15 21  4  0
 16 24  1  0
 16 25  4  0
 20 24  1  0
 20 26  2  0
 21 23  4  0
 22 23  1  0
M  END
$$$$

 Created by Python create_sdf_string function

 26 28  0  0  0  0  0  0  0  0999 V2000
   12.4616    8.6700   19.4180 N   0  0  0  0  0  0  0  0  0  0  0  0
   11.8329   10.8148   18.6769 N   0  0  0  0  0  0  0  0  0  0  0  0
    6.1021    2.5564   21.0678 C   0  0  0  0  0  0  0  0  0  0  0  0
   10.9097   11.8051   18.4804 C   0  0  0  0  0  0  0  0  0  0  0  0
   11.2280   12.9135   17.5669 C   0  0  0  0  0  0  0  0  0  0  0  0
   12.3782    5.4231   20.7777 C   0  0  0  0  0  0  0  0  0  0  0  0
    7.7365    4.6508   21.6987 C   0  0  0  0  0  0  0  0  0  0  0  0
   13.0186   11.0102   18.0020 C   0  0  0  0  0  0  0  0  0  0  0  0
    8.6628    5.7088   21.8871 N   0  0  0  0  0  0  0  0  0  0  0  0
    5.6516    3.5258   21.9140 C   0  0  0  0  0  0  0  0  0  0  0  0
   11.5863    9.6815   19.4539 C   0  0  0  0  0  0  0  0  0  0  0  0
   12.9648    4.1543   20.9205 C   0  0  0  0  0  0  0  0  0  0  0  0
    8.2089    3.6265   20.8929 C   0  0  0  0  0  0  0  0  0  0  0  0
    7.3827    2.5724   20.5432 C   0  0  0  0  0  0  0  0  0  0  0  0
   11.1529    7.2750   20.8025 C   0  0  0  0  0  0  0  0  0  0  0  0
   10.2573    8.3215   20.9827 C   0  0  0  0  0  0  0  0  0  0  0  0
   11.1606    5.9378   21.2366 N   0  0  0  0  0  0  0  0  0  0  0  0
    9.8932   11.6736   19.0677 O   0  0  0  0  0  0  0  0  0  0  0  0
    6.4470    4.5850   22.2321 C   0  0  0  0  0  0  0  0  0  0  0  0
    8.4619    6.9895   22.2968 C   0  0  0  0  0  0  0  0  0  0  0  0
   12.2747    7.5102   20.0420 C   0  0  0  0  0  0  0  0  0  0  0  0
   14.2544    6.2142   19.4191 C   0  0  0  0  0  0  0  0  0  0  0  0
   13.0695    6.3705   20.0375 N   0  0  0  0  0  0  0  0  0  0  0  0
    9.1913    8.0876   21.8361 N   0  0  0  0  0  0  0  0  0  0  0  0
   10.4739    9.4813   20.2889 C   0  0  0  0  0  0  0  0  0  0  0  0
    7.5551    7.1270   23.1200 O   0  0  0  0  0  0  0  0  0  0  0  0
  1 11  4  0
  1 21  4  0
  2  4  1  0
  2  8  1  0
  2 11  1  0
  3 10  4  0
  3 14  4  0
  4  5  1  0
  4 18  2  0
  6 12  1  0
  6 17  4  0
  6 23  4  0
  7  9  1  0
  7 13  4  0
  7 19  4  0
  9 20  1  0
 10 19  4  0
 11 25  4  0
 13 14  4  0
 15 16  4  0
 15 17  4  0
 15 21  4  0
 16 24  1  0
 16 25  4  0
 20 24  1  0
 20 26  2  0
 21 23  4  0
 22 23  1  0
M  END
$$$$

 Created by Python create_sdf_string function

 26 28  0  0  0  0  0  0  0  0999 V2000
   12.4616    8.6700   19.4180 N   0  0  0  0  0  0  0  0  0  0  0  0
   11.8329   10.8148   18.6769 N   0  0  0  0  0  0  0  0  0  0  0  0
    6.1021    2.5564   21.0678 C   0  0  0  0  0  0  0  0  0  0  0  0
   10.9097   11.8051   18.4804 C   0  0  0  0  0  0  0  0  0  0  0  0
   11.2280   12.9135   17.5669 C   0  0  0  0  0  0  0  0  0  0  0  0
   12.3782    5.4231   20.7777 C   0  0  0  0  0  0  0  0  0  0  0  0
    7.7365    4.6508   21.6987 C   0  0  0  0  0  0  0  0  0  0  0  0
   13.0186   11.0102   18.0020 C   0  0  0  0  0  0  0  0  0  0  0  0
    8.6628    5.7088   21.8871 N   0  0  0  0  0  0  0  0  0  0  0  0
    5.6516    3.5258   21.9140 C   0  0  0  0  0  0  0  0  0  0  0  0
   11.5863    9.6815   19.4539 C   0  0  0  0  0  0  0  0  0  0  0  0
   12.9648    4.1543   20.9205 C   0  0  0  0  0  0  0  0  0  0  0  0
    8.2089    3.6265   20.8929 C   0  0  0  0  0  0  0  0  0  0  0  0
    7.3827    2.5724   20.5432 C   0  0  0  0  0  0  0  0  0  0  0  0
   11.1529    7.2750   20.8025 C   0  0  0  0  0  0  0  0  0  0  0  0
   10.2573    8.3215   20.9827 C   0  0  0  0  0  0  0  0  0  0  0  0
   11.1606    5.9378   21.2366 N   0  0  0  0  0  0  0  0  0  0  0  0
    9.8932   11.6736   19.0677 O   0  0  0  0  0  0  0  0  0  0  0  0
    6.4470    4.5850   22.2321 C   0  0  0  0  0  0  0  0  0  0  0  0
    8.4619    6.9895   22.2968 C   0  0  0  0  0  0  0  0  0  0  0  0
   12.2747    7.5102   20.0420 C   0  0  0  0  0  0  0  0  0  0  0  0
   14.2544    6.2142   19.4191 C   0  0  0  0  0  0  0  0  0  0  0  0
   13.0695    6.3705   20.0375 N   0  0  0  0  0  0  0  0  0  0  0  0
    9.1913    8.0876   21.8361 N   0  0  0  0  0  0  0  0  0  0  0  0
   10.4739    9.4813   20.2889 C   0  0  0  0  0  0  0  0  0  0  0  0
    7.5551    7.1270   23.1200 O   0  0  0  0  0  0  0  0  0  0  0  0
  1 11  4  0
  1 21  4  0
  2  4  1  0
  2  8  1  0
  2 11  1  0
  3 10  4  0
  3 14  4  0
  4  5  1  0
  4 18  2  0
  6 12  1  0
  6 17  4  0
  6 23  4  0
  7  9  1  0
  7 13  4  0
  7 19  4  0
  9 20  1  0
 10 19  4  0
 11 25  4  0
 13 14  4  0
 15 16  4  0
 15 17  4  0
 15 21  4  0
 16 24  1  0
 16 25  4  0
 20 24  1  0
 20 26  2  0
 21 23  4  0
 22 23  1  0
M  END
$$$$

 Created by Python create_sdf_string function

 26 28  0  0  0  0  0  0  0  0999 V2000
   12.4616    8.6700   19.4180 N   0  0  0  0  0  0  0  0  0  0  0  0
   11.8329   10.8148   18.6769 N   0  0  0  0  0  0  0  0  0  0  0  0
    6.1021    2.5564   21.0678 C   0  0  0  0  0  0  0  0  0  0  0  0
   10.9097   11.8051   18.4804 C   0  0  0  0  0  0  0  0  0  0  0  0
   11.2280   12.9135   17.5669 C   0  0  0  0  0  0  0  0  0  0  0  0
   12.3782    5.4231   20.7777 C   0  0  0  0  0  0  0  0  0  0  0  0
    7.7365    4.6508   21.6987 C   0  0  0  0  0  0  0  0  0  0  0  0
   13.0186   11.0102   18.0020 C   0  0  0  0  0  0  0  0  0  0  0  0
    8.6628    5.7088   21.8871 N   0  0  0  0  0  0  0  0  0  0  0  0
    5.6516    3.5258   21.9140 C   0  0  0  0  0  0  0  0  0  0  0  0
   11.5863    9.6815   19.4539 C   0  0  0  0  0  0  0  0  0  0  0  0
   12.9648    4.1543   20.9205 C   0  0  0  0  0  0  0  0  0  0  0  0
    8.2089    3.6265   20.8929 C   0  0  0  0  0  0  0  0  0  0  0  0
    7.3827    2.5724   20.5432 C   0  0  0  0  0  0  0  0  0  0  0  0
   11.1529    7.2750   20.8025 C   0  0  0  0  0  0  0  0  0  0  0  0
   10.2573    8.3215   20.9827 C   0  0  0  0  0  0  0  0  0  0  0  0
   11.1606    5.9378   21.2366 N   0  0  0  0  0  0  0  0  0  0  0  0
    9.8932   11.6736   19.0677 O   0  0  0  0  0  0  0  0  0  0  0  0
    6.4470    4.5850   22.2321 C   0  0  0  0  0  0  0  0  0  0  0  0
    8.4619    6.9895   22.2968 C   0  0  0  0  0  0  0  0  0  0  0  0
   12.2747    7.5102   20.0420 C   0  0  0  0  0  0  0  0  0  0  0  0
   14.2544    6.2142   19.4191 C   0  0  0  0  0  0  0  0  0  0  0  0
   13.0695    6.3705   20.0375 N   0  0  0  0  0  0  0  0  0  0  0  0
    9.1913    8.0876   21.8361 N   0  0  0  0  0  0  0  0  0  0  0  0
   10.4739    9.4813   20.2889 C   0  0  0  0  0  0  0  0  0  0  0  0
    7.5551    7.1270   23.1200 O   0  0  0  0  0  0  0  0  0  0  0  0
  1 11  4  0
  1 21  4  0
  2  4  1  0
  2  8  1  0
  2 11  1  0
  3 10  4  0
  3 14  4  0
  4  5  1  0
  4 18  2  0
  6 12  1  0
  6 17  4  0
  6 23  4  0
  7  9  1  0
  7 13  4  0
  7 19  4  0
  9 20  1  0
 10 19  4  0
 11 25  4  0
 13 14  4  0
 15 16  4  0
 15 17  4  0
 15 21  4  0
 16 24  1  0
 16 25  4  0
 20 24  1  0
 20 26  2  0
 21 23  4  0
 22 23  1  0
M  END
$$$$

 Created by Python create_sdf_string function

 26 28  0  0  0  0  0  0  0  0999 V2000
   12.4616    8.6700   19.4180 N   0  0  0  0  0  0  0  0  0  0  0  0
   11.8329   10.8148   18.6769 N   0  0  0  0  0  0  0  0  0  0  0  0
    6.1021    2.5564   21.0678 C   0  0  0  0  0  0  0  0  0  0  0  0
   10.9097   11.8051   18.4804 C   0  0  0  0  0  0  0  0  0  0  0  0
   11.2280   12.9135   17.5669 C   0  0  0  0  0  0  0  0  0  0  0  0
   12.3782    5.4231   20.7777 C   0  0  0  0  0  0  0  0  0  0  0  0
    7.7365    4.6508   21.6987 C   0  0  0  0  0  0  0  0  0  0  0  0
   13.0186   11.0102   18.0020 C   0  0  0  0  0  0  0  0  0  0  0  0
    8.6628    5.7088   21.8871 N   0  0  0  0  0  0  0  0  0  0  0  0
    5.6516    3.5258   21.9140 C   0  0  0  0  0  0  0  0  0  0  0  0
   11.5863    9.6815   19.4539 C   0  0  0  0  0  0  0  0  0  0  0  0
   12.9648    4.1543   20.9205 C   0  0  0  0  0  0  0  0  0  0  0  0
    8.2089    3.6265   20.8929 C   0  0  0  0  0  0  0  0  0  0  0  0
    7.3827    2.5724   20.5432 C   0  0  0  0  0  0  0  0  0  0  0  0
   11.1529    7.2750   20.8025 C   0  0  0  0  0  0  0  0  0  0  0  0
   10.2573    8.3215   20.9827 C   0  0  0  0  0  0  0  0  0  0  0  0
   11.1606    5.9378   21.2366 N   0  0  0  0  0  0  0  0  0  0  0  0
    9.8932   11.6736   19.0677 O   0  0  0  0  0  0  0  0  0  0  0  0
    6.4470    4.5850   22.2321 C   0  0  0  0  0  0  0  0  0  0  0  0
    8.4619    6.9895   22.2968 C   0  0  0  0  0  0  0  0  0  0  0  0
   12.2747    7.5102   20.0420 C   0  0  0  0  0  0  0  0  0  0  0  0
   14.2544    6.2142   19.4191 C   0  0  0  0  0  0  0  0  0  0  0  0
   13.0695    6.3705   20.0375 N   0  0  0  0  0  0  0  0  0  0  0  0
    9.1913    8.0876   21.8361 N   0  0  0  0  0  0  0  0  0  0  0  0
   10.4739    9.4813   20.2889 C   0  0  0  0  0  0  0  0  0  0  0  0
    7.5551    7.1270   23.1200 O   0  0  0  0  0  0  0  0  0  0  0  0
  1 11  4  0
  1 21  4  0
  2  4  1  0
  2  8  1  0
  2 11  1  0
  3 10  4  0
  3 14  4  0
  4  5  1  0
  4 18  2  0
  6 12  1  0
  6 17  4  0
  6 23  4  0
  7  9  1  0
  7 13  4  0
  7 19  4  0
  9 20  1  0
 10 19  4  0
 11 25  4  0
 13 14  4  0
 15 16  4  0
 15 17  4  0
 15 21  4  0
 16 24  1  0
 16 25  4  0
 20 24  1  0
 20 26  2  0
 21 23  4  0
 22 23  1  0
M  END
$$$$

 Created by Python create_sdf_string function

 26 28  0  0  0  0  0  0  0  0999 V2000
   12.4616    8.6700   19.4180 N   0  0  0  0  0  0  0  0  0  0  0  0
   11.8329   10.8148   18.6769 N   0  0  0  0  0  0  0  0  0  0  0  0
    6.1021    2.5564   21.0678 C   0  0  0  0  0  0  0  0  0  0  0  0
   10.9097   11.8051   18.4804 C   0  0  0  0  0  0  0  0  0  0  0  0
   11.2280   12.9135   17.5669 C   0  0  0  0  0  0  0  0  0  0  0  0
   12.3782    5.4231   20.7777 C   0  0  0  0  0  0  0  0  0  0  0  0
    7.7365    4.6508   21.6987 C   0  0  0  0  0  0  0  0  0  0  0  0
   13.0186   11.0102   18.0020 C   0  0  0  0  0  0  0  0  0  0  0  0
    8.6628    5.7088   21.8871 N   0  0  0  0  0  0  0  0  0  0  0  0
    5.6516    3.5258   21.9140 C   0  0  0  0  0  0  0  0  0  0  0  0
   11.5863    9.6815   19.4539 C   0  0  0  0  0  0  0  0  0  0  0  0
   12.9648    4.1543   20.9205 C   0  0  0  0  0  0  0  0  0  0  0  0
    8.2089    3.6265   20.8929 C   0  0  0  0  0  0  0  0  0  0  0  0
    7.3827    2.5724   20.5432 C   0  0  0  0  0  0  0  0  0  0  0  0
   11.1529    7.2750   20.8025 C   0  0  0  0  0  0  0  0  0  0  0  0
   10.2573    8.3215   20.9827 C   0  0  0  0  0  0  0  0  0  0  0  0
   11.1606    5.9378   21.2366 N   0  0  0  0  0  0  0  0  0  0  0  0
    9.8932   11.6736   19.0677 O   0  0  0  0  0  0  0  0  0  0  0  0
    6.4470    4.5850   22.2321 C   0  0  0  0  0  0  0  0  0  0  0  0
    8.4619    6.9895   22.2968 C   0  0  0  0  0  0  0  0  0  0  0  0
   12.2747    7.5102   20.0420 C   0  0  0  0  0  0  0  0  0  0  0  0
   14.2544    6.2142   19.4191 C   0  0  0  0  0  0  0  0  0  0  0  0
   13.0695    6.3705   20.0375 N   0  0  0  0  0  0  0  0  0  0  0  0
    9.1913    8.0876   21.8361 N   0  0  0  0  0  0  0  0  0  0  0  0
   10.4739    9.4813   20.2889 C   0  0  0  0  0  0  0  0  0  0  0  0
    7.5551    7.1270   23.1200 O   0  0  0  0  0  0  0  0  0  0  0  0
  1 11  4  0
  1 21  4  0
  2  4  1  0
  2  8  1  0
  2 11  1  0
  3 10  4  0
  3 14  4  0
  4  5  1  0
  4 18  2  0
  6 12  1  0
  6 17  4  0
  6 23  4  0
  7  9  1  0
  7 13  4  0
  7 19  4  0
  9 20  1  0
 10 19  4  0
 11 25  4  0
 13 14  4  0
 15 16  4  0
 15 17  4  0
 15 21  4  0
 16 24  1  0
 16 25  4  0
 20 24  1  0
 20 26  2  0
 21 23  4  0
 22 23  1  0
M  END
$$$$

 Created by Python create_sdf_string function

 26 28  0  0  0  0  0  0  0  0999 V2000
   12.4616    8.6700   19.4180 N   0  0  0  0  0  0  0  0  0  0  0  0
   11.8329   10.8148   18.6769 N   0  0  0  0  0  0  0  0  0  0  0  0
    6.1021    2.5564   21.0678 C   0  0  0  0  0  0  0  0  0  0  0  0
   10.9097   11.8051   18.4804 C   0  0  0  0  0  0  0  0  0  0  0  0
   11.2280   12.9135   17.5669 C   0  0  0  0  0  0  0  0  0  0  0  0
   12.3782    5.4231   20.7777 C   0  0  0  0  0  0  0  0  0  0  0  0
    7.7365    4.6508   21.6987 C   0  0  0  0  0  0  0  0  0  0  0  0
   13.0186   11.0102   18.0020 C   0  0  0  0  0  0  0  0  0  0  0  0
    8.6628    5.7088   21.8871 N   0  0  0  0  0  0  0  0  0  0  0  0
    5.6516    3.5258   21.9140 C   0  0  0  0  0  0  0  0  0  0  0  0
   11.5863    9.6815   19.4539 C   0  0  0  0  0  0  0  0  0  0  0  0
   12.9648    4.1543   20.9205 C   0  0  0  0  0  0  0  0  0  0  0  0
    8.2089    3.6265   20.8929 C   0  0  0  0  0  0  0  0  0  0  0  0
    7.3827    2.5724   20.5432 C   0  0  0  0  0  0  0  0  0  0  0  0
   11.1529    7.2750   20.8025 C   0  0  0  0  0  0  0  0  0  0  0  0
   10.2573    8.3215   20.9827 C   0  0  0  0  0  0  0  0  0  0  0  0
   11.1606    5.9378   21.2366 N   0  0  0  0  0  0  0  0  0  0  0  0
    9.8932   11.6736   19.0677 O   0  0  0  0  0  0  0  0  0  0  0  0
    6.4470    4.5850   22.2321 C   0  0  0  0  0  0  0  0  0  0  0  0
    8.4619    6.9895   22.2968 C   0  0  0  0  0  0  0  0  0  0  0  0
   12.2747    7.5102   20.0420 C   0  0  0  0  0  0  0  0  0  0  0  0
   14.2544    6.2142   19.4191 C   0  0  0  0  0  0  0  0  0  0  0  0
   13.0695    6.3705   20.0375 N   0  0  0  0  0  0  0  0  0  0  0  0
    9.1913    8.0876   21.8361 N   0  0  0  0  0  0  0  0  0  0  0  0
   10.4739    9.4813   20.2889 C   0  0  0  0  0  0  0  0  0  0  0  0
    7.5551    7.1270   23.1200 O   0  0  0  0  0  0  0  0  0  0  0  0
  1 11  4  0
  1 21  4  0
  2  4  1  0
  2  8  1  0
  2 11  1  0
  3 10  4  0
  3 14  4  0
  4  5  1  0
  4 18  2  0
  6 12  1  0
  6 17  4  0
  6 23  4  0
  7  9  1  0
  7 13  4  0
  7 19  4  0
  9 20  1  0
 10 19  4  0
 11 25  4  0
 13 14  4  0
 15 16  4  0
 15 17  4  0
 15 21  4  0
 16 24  1  0
 16 25  4  0
 20 24  1  0
 20 26  2  0
 21 23  4  0
 22 23  1  0
M  END
$$$$

 Created by Python create_sdf_string function

 26 28  0  0  0  0  0  0  0  0999 V2000
   12.4616    8.6700   19.4180 N   0  0  0  0  0  0  0  0  0  0  0  0
   11.8329   10.8148   18.6769 N   0  0  0  0  0  0  0  0  0  0  0  0
    6.1021    2.5564   21.0678 C   0  0  0  0  0  0  0  0  0  0  0  0
   10.9097   11.8051   18.4804 C   0  0  0  0  0  0  0  0  0  0  0  0
   11.2280   12.9135   17.5669 C   0  0  0  0  0  0  0  0  0  0  0  0
   12.3782    5.4231   20.7777 C   0  0  0  0  0  0  0  0  0  0  0  0
    7.7365    4.6508   21.6987 C   0  0  0  0  0  0  0  0  0  0  0  0
   13.0186   11.0102   18.0020 C   0  0  0  0  0  0  0  0  0  0  0  0
    8.6628    5.7088   21.8871 N   0  0  0  0  0  0  0  0  0  0  0  0
    5.6516    3.5258   21.9140 C   0  0  0  0  0  0  0  0  0  0  0  0
   11.5863    9.6815   19.4539 C   0  0  0  0  0  0  0  0  0  0  0  0
   12.9648    4.1543   20.9205 C   0  0  0  0  0  0  0  0  0  0  0  0
    8.2089    3.6265   20.8929 C   0  0  0  0  0  0  0  0  0  0  0  0
    7.3827    2.5724   20.5432 C   0  0  0  0  0  0  0  0  0  0  0  0
   11.1529    7.2750   20.8025 C   0  0  0  0  0  0  0  0  0  0  0  0
   10.2573    8.3215   20.9827 C   0  0  0  0  0  0  0  0  0  0  0  0
   11.1606    5.9378   21.2366 N   0  0  0  0  0  0  0  0  0  0  0  0
    9.8932   11.6736   19.0677 O   0  0  0  0  0  0  0  0  0  0  0  0
    6.4470    4.5850   22.2321 C   0  0  0  0  0  0  0  0  0  0  0  0
    8.4619    6.9895   22.2968 C   0  0  0  0  0  0  0  0  0  0  0  0
   12.2747    7.5102   20.0420 C   0  0  0  0  0  0  0  0  0  0  0  0
   14.2544    6.2142   19.4191 C   0  0  0  0  0  0  0  0  0  0  0  0
   13.0695    6.3705   20.0375 N   0  0  0  0  0  0  0  0  0  0  0  0
    9.1913    8.0876   21.8361 N   0  0  0  0  0  0  0  0  0  0  0  0
   10.4739    9.4813   20.2889 C   0  0  0  0  0  0  0  0  0  0  0  0
    7.5551    7.1270   23.1200 O   0  0  0  0  0  0  0  0  0  0  0  0
  1 11  4  0
  1 21  4  0
  2  4  1  0
  2  8  1  0
  2 11  1  0
  3 10  4  0
  3 14  4  0
  4  5  1  0
  4 18  2  0
  6 12  1  0
  6 17  4  0
  6 23  4  0
  7  9  1  0
  7 13  4  0
  7 19  4  0
  9 20  1  0
 10 19  4  0
 11 25  4  0
 13 14  4  0
 15 16  4  0
 15 17  4  0
 15 21  4  0
 16 24  1  0
 16 25  4  0
 20 24  1  0
 20 26  2  0
 21 23  4  0
 22 23  1  0
M  END
$$$$

 Created by Python create_sdf_string function

 26 28  0  0  0  0  0  0  0  0999 V2000
   12.4616    8.6700   19.4180 N   0  0  0  0  0  0  0  0  0  0  0  0
   11.8329   10.8148   18.6769 N   0  0  0  0  0  0  0  0  0  0  0  0
    6.1021    2.5564   21.0678 C   0  0  0  0  0  0  0  0  0  0  0  0
   10.9097   11.8051   18.4804 C   0  0  0  0  0  0  0  0  0  0  0  0
   11.2280   12.9135   17.5669 C   0  0  0  0  0  0  0  0  0  0  0  0
   12.3782    5.4231   20.7777 C   0  0  0  0  0  0  0  0  0  0  0  0
    7.7365    4.6508   21.6987 C   0  0  0  0  0  0  0  0  0  0  0  0
   13.0186   11.0102   18.0020 C   0  0  0  0  0  0  0  0  0  0  0  0
    8.6628    5.7088   21.8871 N   0  0  0  0  0  0  0  0  0  0  0  0
    5.6516    3.5258   21.9140 C   0  0  0  0  0  0  0  0  0  0  0  0
   11.5863    9.6815   19.4539 C   0  0  0  0  0  0  0  0  0  0  0  0
   12.9648    4.1543   20.9205 C   0  0  0  0  0  0  0  0  0  0  0  0
    8.2089    3.6265   20.8929 C   0  0  0  0  0  0  0  0  0  0  0  0
    7.3827    2.5724   20.5432 C   0  0  0  0  0  0  0  0  0  0  0  0
   11.1529    7.2750   20.8025 C   0  0  0  0  0  0  0  0  0  0  0  0
   10.2573    8.3215   20.9827 C   0  0  0  0  0  0  0  0  0  0  0  0
   11.1606    5.9378   21.2366 N   0  0  0  0  0  0  0  0  0  0  0  0
    9.8932   11.6736   19.0677 O   0  0  0  0  0  0  0  0  0  0  0  0
    6.4470    4.5850   22.2321 C   0  0  0  0  0  0  0  0  0  0  0  0
    8.4619    6.9895   22.2968 C   0  0  0  0  0  0  0  0  0  0  0  0
   12.2747    7.5102   20.0420 C   0  0  0  0  0  0  0  0  0  0  0  0
   14.2544    6.2142   19.4191 C   0  0  0  0  0  0  0  0  0  0  0  0
   13.0695    6.3705   20.0375 N   0  0  0  0  0  0  0  0  0  0  0  0
    9.1913    8.0876   21.8361 N   0  0  0  0  0  0  0  0  0  0  0  0
   10.4739    9.4813   20.2889 C   0  0  0  0  0  0  0  0  0  0  0  0
    7.5551    7.1270   23.1200 O   0  0  0  0  0  0  0  0  0  0  0  0
  1 11  4  0
  1 21  4  0
  2  4  1  0
  2  8  1  0
  2 11  1  0
  3 10  4  0
  3 14  4  0
  4  5  1  0
  4 18  2  0
  6 12  1  0
  6 17  4  0
  6 23  4  0
  7  9  1  0
  7 13  4  0
  7 19  4  0
  9 20  1  0
 10 19  4  0
 11 25  4  0
 13 14  4  0
 15 16  4  0
 15 17  4  0
 15 21  4  0
 16 24  1  0
 16 25  4  0
 20 24  1  0
 20 26  2  0
 21 23  4  0
 22 23  1  0
M  END
$$$$

 Created by Python create_sdf_string function

 26 28  0  0  0  0  0  0  0  0999 V2000
   12.4616    8.6700   19.4180 N   0  0  0  0  0  0  0  0  0  0  0  0
   11.8329   10.8148   18.6769 N   0  0  0  0  0  0  0  0  0  0  0  0
    6.1021    2.5564   21.0678 C   0  0  0  0  0  0  0  0  0  0  0  0
   10.9097   11.8051   18.4804 C   0  0  0  0  0  0  0  0  0  0  0  0
   11.2280   12.9135   17.5669 C   0  0  0  0  0  0  0  0  0  0  0  0
   12.3782    5.4231   20.7777 C   0  0  0  0  0  0  0  0  0  0  0  0
    7.7365    4.6508   21.6987 C   0  0  0  0  0  0  0  0  0  0  0  0
   13.0186   11.0102   18.0020 C   0  0  0  0  0  0  0  0  0  0  0  0
    8.6628    5.7088   21.8871 N   0  0  0  0  0  0  0  0  0  0  0  0
    5.6516    3.5258   21.9140 C   0  0  0  0  0  0  0  0  0  0  0  0
   11.5863    9.6815   19.4539 C   0  0  0  0  0  0  0  0  0  0  0  0
   12.9648    4.1543   20.9205 C   0  0  0  0  0  0  0  0  0  0  0  0
    8.2089    3.6265   20.8929 C   0  0  0  0  0  0  0  0  0  0  0  0
    7.3827    2.5724   20.5432 C   0  0  0  0  0  0  0  0  0  0  0  0
   11.1529    7.2750   20.8025 C   0  0  0  0  0  0  0  0  0  0  0  0
   10.2573    8.3215   20.9827 C   0  0  0  0  0  0  0  0  0  0  0  0
   11.1606    5.9378   21.2366 N   0  0  0  0  0  0  0  0  0  0  0  0
    9.8932   11.6736   19.0677 O   0  0  0  0  0  0  0  0  0  0  0  0
    6.4470    4.5850   22.2321 C   0  0  0  0  0  0  0  0  0  0  0  0
    8.4619    6.9895   22.2968 C   0  0  0  0  0  0  0  0  0  0  0  0
   12.2747    7.5102   20.0420 C   0  0  0  0  0  0  0  0  0  0  0  0
   14.2544    6.2142   19.4191 C   0  0  0  0  0  0  0  0  0  0  0  0
   13.0695    6.3705   20.0375 N   0  0  0  0  0  0  0  0  0  0  0  0
    9.1913    8.0876   21.8361 N   0  0  0  0  0  0  0  0  0  0  0  0
   10.4739    9.4813   20.2889 C   0  0  0  0  0  0  0  0  0  0  0  0
    7.5551    7.1270   23.1200 O   0  0  0  0  0  0  0  0  0  0  0  0
  1 11  4  0
  1 21  4  0
  2  4  1  0
  2  8  1  0
  2 11  1  0
  3 10  4  0
  3 14  4  0
  4  5  1  0
  4 18  2  0
  6 12  1  0
  6 17  4  0
  6 23  4  0
  7  9  1  0
  7 13  4  0
  7 19  4  0
  9 20  1  0
 10 19  4  0
 11 25  4  0
 13 14  4  0
 15 16  4  0
 15 17  4  0
 15 21  4  0
 16 24  1  0
 16 25  4  0
 20 24  1  0
 20 26  2  0
 21 23  4  0
 22 23  1  0
M  END
$$$$

 Created by Python create_sdf_string function

 26 28  0  0  0  0  0  0  0  0999 V2000
   12.4616    8.6700   19.4180 N   0  0  0  0  0  0  0  0  0  0  0  0
   11.8329   10.8148   18.6769 N   0  0  0  0  0  0  0  0  0  0  0  0
    6.1021    2.5564   21.0678 C   0  0  0  0  0  0  0  0  0  0  0  0
   10.9097   11.8051   18.4804 C   0  0  0  0  0  0  0  0  0  0  0  0
   11.2280   12.9135   17.5669 C   0  0  0  0  0  0  0  0  0  0  0  0
   12.3782    5.4231   20.7777 C   0  0  0  0  0  0  0  0  0  0  0  0
    7.7365    4.6508   21.6987 C   0  0  0  0  0  0  0  0  0  0  0  0
   13.0186   11.0102   18.0020 C   0  0  0  0  0  0  0  0  0  0  0  0
    8.6628    5.7088   21.8871 N   0  0  0  0  0  0  0  0  0  0  0  0
    5.6516    3.5258   21.9140 C   0  0  0  0  0  0  0  0  0  0  0  0
   11.5863    9.6815   19.4539 C   0  0  0  0  0  0  0  0  0  0  0  0
   12.9648    4.1543   20.9205 C   0  0  0  0  0  0  0  0  0  0  0  0
    8.2089    3.6265   20.8929 C   0  0  0  0  0  0  0  0  0  0  0  0
    7.3827    2.5724   20.5432 C   0  0  0  0  0  0  0  0  0  0  0  0
   11.1529    7.2750   20.8025 C   0  0  0  0  0  0  0  0  0  0  0  0
   10.2573    8.3215   20.9827 C   0  0  0  0  0  0  0  0  0  0  0  0
   11.1606    5.9378   21.2366 N   0  0  0  0  0  0  0  0  0  0  0  0
    9.8932   11.6736   19.0677 O   0  0  0  0  0  0  0  0  0  0  0  0
    6.4470    4.5850   22.2321 C   0  0  0  0  0  0  0  0  0  0  0  0
    8.4619    6.9895   22.2968 C   0  0  0  0  0  0  0  0  0  0  0  0
   12.2747    7.5102   20.0420 C   0  0  0  0  0  0  0  0  0  0  0  0
   14.2544    6.2142   19.4191 C   0  0  0  0  0  0  0  0  0  0  0  0
   13.0695    6.3705   20.0375 N   0  0  0  0  0  0  0  0  0  0  0  0
    9.1913    8.0876   21.8361 N   0  0  0  0  0  0  0  0  0  0  0  0
   10.4739    9.4813   20.2889 C   0  0  0  0  0  0  0  0  0  0  0  0
    7.5551    7.1270   23.1200 O   0  0  0  0  0  0  0  0  0  0  0  0
  1 11  4  0
  1 21  4  0
  2  4  1  0
  2  8  1  0
  2 11  1  0
  3 10  4  0
  3 14  4  0
  4  5  1  0
  4 18  2  0
  6 12  1  0
  6 17  4  0
  6 23  4  0
  7  9  1  0
  7 13  4  0
  7 19  4  0
  9 20  1  0
 10 19  4  0
 11 25  4  0
 13 14  4  0
 15 16  4  0
 15 17  4  0
 15 21  4  0
 16 24  1  0
 16 25  4  0
 20 24  1  0
 20 26  2  0
 21 23  4  0
 22 23  1  0
M  END
$$$$

 Created by Python create_sdf_string function

 26 28  0  0  0  0  0  0  0  0999 V2000
   12.4616    8.6700   19.4180 N   0  0  0  0  0  0  0  0  0  0  0  0
   11.8329   10.8148   18.6769 N   0  0  0  0  0  0  0  0  0  0  0  0
    6.1021    2.5564   21.0678 C   0  0  0  0  0  0  0  0  0  0  0  0
   10.9097   11.8051   18.4804 C   0  0  0  0  0  0  0  0  0  0  0  0
   11.2280   12.9135   17.5669 C   0  0  0  0  0  0  0  0  0  0  0  0
   12.3782    5.4231   20.7777 C   0  0  0  0  0  0  0  0  0  0  0  0
    7.7365    4.6508   21.6987 C   0  0  0  0  0  0  0  0  0  0  0  0
   13.0186   11.0102   18.0020 C   0  0  0  0  0  0  0  0  0  0  0  0
    8.6628    5.7088   21.8871 N   0  0  0  0  0  0  0  0  0  0  0  0
    5.6516    3.5258   21.9140 C   0  0  0  0  0  0  0  0  0  0  0  0
   11.5863    9.6815   19.4539 C   0  0  0  0  0  0  0  0  0  0  0  0
   12.9648    4.1543   20.9205 C   0  0  0  0  0  0  0  0  0  0  0  0
    8.2089    3.6265   20.8929 C   0  0  0  0  0  0  0  0  0  0  0  0
    7.3827    2.5724   20.5432 C   0  0  0  0  0  0  0  0  0  0  0  0
   11.1529    7.2750   20.8025 C   0  0  0  0  0  0  0  0  0  0  0  0
   10.2573    8.3215   20.9827 C   0  0  0  0  0  0  0  0  0  0  0  0
   11.1606    5.9378   21.2366 N   0  0  0  0  0  0  0  0  0  0  0  0
    9.8932   11.6736   19.0677 O   0  0  0  0  0  0  0  0  0  0  0  0
    6.4470    4.5850   22.2321 C   0  0  0  0  0  0  0  0  0  0  0  0
    8.4619    6.9895   22.2968 C   0  0  0  0  0  0  0  0  0  0  0  0
   12.2747    7.5102   20.0420 C   0  0  0  0  0  0  0  0  0  0  0  0
   14.2544    6.2142   19.4191 C   0  0  0  0  0  0  0  0  0  0  0  0
   13.0695    6.3705   20.0375 N   0  0  0  0  0  0  0  0  0  0  0  0
    9.1913    8.0876   21.8361 N   0  0  0  0  0  0  0  0  0  0  0  0
   10.4739    9.4813   20.2889 C   0  0  0  0  0  0  0  0  0  0  0  0
    7.5551    7.1270   23.1200 O   0  0  0  0  0  0  0  0  0  0  0  0
  1 11  4  0
  1 21  4  0
  2  4  1  0
  2  8  1  0
  2 11  1  0
  3 10  4  0
  3 14  4  0
  4  5  1  0
  4 18  2  0
  6 12  1  0
  6 17  4  0
  6 23  4  0
  7  9  1  0
  7 13  4  0
  7 19  4  0
  9 20  1  0
 10 19  4  0
 11 25  4  0
 13 14  4  0
 15 16  4  0
 15 17  4  0
 15 21  4  0
 16 24  1  0
 16 25  4  0
 20 24  1  0
 20 26  2  0
 21 23  4  0
 22 23  1  0
M  END
$$$$

 Created by Python create_sdf_string function

 26 28  0  0  0  0  0  0  0  0999 V2000
   12.4616    8.6700   19.4180 N   0  0  0  0  0  0  0  0  0  0  0  0
   11.8329   10.8148   18.6769 N   0  0  0  0  0  0  0  0  0  0  0  0
    6.1021    2.5564   21.0678 C   0  0  0  0  0  0  0  0  0  0  0  0
   10.9097   11.8051   18.4804 C   0  0  0  0  0  0  0  0  0  0  0  0
   11.2280   12.9135   17.5669 C   0  0  0  0  0  0  0  0  0  0  0  0
   12.3782    5.4231   20.7777 C   0  0  0  0  0  0  0  0  0  0  0  0
    7.7365    4.6508   21.6987 C   0  0  0  0  0  0  0  0  0  0  0  0
   13.0186   11.0102   18.0020 C   0  0  0  0  0  0  0  0  0  0  0  0
    8.6628    5.7088   21.8871 N   0  0  0  0  0  0  0  0  0  0  0  0
    5.6516    3.5258   21.9140 C   0  0  0  0  0  0  0  0  0  0  0  0
   11.5863    9.6815   19.4539 C   0  0  0  0  0  0  0  0  0  0  0  0
   12.9648    4.1543   20.9205 C   0  0  0  0  0  0  0  0  0  0  0  0
    8.2089    3.6265   20.8929 C   0  0  0  0  0  0  0  0  0  0  0  0
    7.3827    2.5724   20.5432 C   0  0  0  0  0  0  0  0  0  0  0  0
   11.1529    7.2750   20.8025 C   0  0  0  0  0  0  0  0  0  0  0  0
   10.2573    8.3215   20.9827 C   0  0  0  0  0  0  0  0  0  0  0  0
   11.1606    5.9378   21.2366 N   0  0  0  0  0  0  0  0  0  0  0  0
    9.8932   11.6736   19.0677 O   0  0  0  0  0  0  0  0  0  0  0  0
    6.4470    4.5850   22.2321 C   0  0  0  0  0  0  0  0  0  0  0  0
    8.4619    6.9895   22.2968 C   0  0  0  0  0  0  0  0  0  0  0  0
   12.2747    7.5102   20.0420 C   0  0  0  0  0  0  0  0  0  0  0  0
   14.2544    6.2142   19.4191 C   0  0  0  0  0  0  0  0  0  0  0  0
   13.0695    6.3705   20.0375 N   0  0  0  0  0  0  0  0  0  0  0  0
    9.1913    8.0876   21.8361 N   0  0  0  0  0  0  0  0  0  0  0  0
   10.4739    9.4813   20.2889 C   0  0  0  0  0  0  0  0  0  0  0  0
    7.5551    7.1270   23.1200 O   0  0  0  0  0  0  0  0  0  0  0  0
  1 11  4  0
  1 21  4  0
  2  4  1  0
  2  8  1  0
  2 11  1  0
  3 10  4  0
  3 14  4  0
  4  5  1  0
  4 18  2  0
  6 12  1  0
  6 17  4  0
  6 23  4  0
  7  9  1  0
  7 13  4  0
  7 19  4  0
  9 20  1  0
 10 19  4  0
 11 25  4  0
 13 14  4  0
 15 16  4  0
 15 17  4  0
 15 21  4  0
 16 24  1  0
 16 25  4  0
 20 24  1  0
 20 26  2  0
 21 23  4  0
 22 23  1  0
M  END
$$$$

 Created by Python create_sdf_string function

 26 28  0  0  0  0  0  0  0  0999 V2000
   12.4616    8.6700   19.4180 N   0  0  0  0  0  0  0  0  0  0  0  0
   11.8329   10.8148   18.6769 N   0  0  0  0  0  0  0  0  0  0  0  0
    6.1021    2.5564   21.0678 C   0  0  0  0  0  0  0  0  0  0  0  0
   10.9097   11.8051   18.4804 C   0  0  0  0  0  0  0  0  0  0  0  0
   11.2280   12.9135   17.5669 C   0  0  0  0  0  0  0  0  0  0  0  0
   12.3782    5.4231   20.7777 C   0  0  0  0  0  0  0  0  0  0  0  0
    7.7365    4.6508   21.6987 C   0  0  0  0  0  0  0  0  0  0  0  0
   13.0186   11.0102   18.0020 C   0  0  0  0  0  0  0  0  0  0  0  0
    8.6628    5.7088   21.8871 N   0  0  0  0  0  0  0  0  0  0  0  0
    5.6516    3.5258   21.9140 C   0  0  0  0  0  0  0  0  0  0  0  0
   11.5863    9.6815   19.4539 C   0  0  0  0  0  0  0  0  0  0  0  0
   12.9648    4.1543   20.9205 C   0  0  0  0  0  0  0  0  0  0  0  0
    8.2089    3.6265   20.8929 C   0  0  0  0  0  0  0  0  0  0  0  0
    7.3827    2.5724   20.5432 C   0  0  0  0  0  0  0  0  0  0  0  0
   11.1529    7.2750   20.8025 C   0  0  0  0  0  0  0  0  0  0  0  0
   10.2573    8.3215   20.9827 C   0  0  0  0  0  0  0  0  0  0  0  0
   11.1606    5.9378   21.2366 N   0  0  0  0  0  0  0  0  0  0  0  0
    9.8932   11.6736   19.0677 O   0  0  0  0  0  0  0  0  0  0  0  0
    6.4470    4.5850   22.2321 C   0  0  0  0  0  0  0  0  0  0  0  0
    8.4619    6.9895   22.2968 C   0  0  0  0  0  0  0  0  0  0  0  0
   12.2747    7.5102   20.0420 C   0  0  0  0  0  0  0  0  0  0  0  0
   14.2544    6.2142   19.4191 C   0  0  0  0  0  0  0  0  0  0  0  0
   13.0695    6.3705   20.0375 N   0  0  0  0  0  0  0  0  0  0  0  0
    9.1913    8.0876   21.8361 N   0  0  0  0  0  0  0  0  0  0  0  0
   10.4739    9.4813   20.2889 C   0  0  0  0  0  0  0  0  0  0  0  0
    7.5551    7.1270   23.1200 O   0  0  0  0  0  0  0  0  0  0  0  0
  1 11  4  0
  1 21  4  0
  2  4  1  0
  2  8  1  0
  2 11  1  0
  3 10  4  0
  3 14  4  0
  4  5  1  0
  4 18  2  0
  6 12  1  0
  6 17  4  0
  6 23  4  0
  7  9  1  0
  7 13  4  0
  7 19  4  0
  9 20  1  0
 10 19  4  0
 11 25  4  0
 13 14  4  0
 15 16  4  0
 15 17  4  0
 15 21  4  0
 16 24  1  0
 16 25  4  0
 20 24  1  0
 20 26  2  0
 21 23  4  0
 22 23  1  0
M  END
$$$$

 Created by Python create_sdf_string function

 26 28  0  0  0  0  0  0  0  0999 V2000
   12.4616    8.6700   19.4180 N   0  0  0  0  0  0  0  0  0  0  0  0
   11.8329   10.8148   18.6769 N   0  0  0  0  0  0  0  0  0  0  0  0
    6.1021    2.5564   21.0678 C   0  0  0  0  0  0  0  0  0  0  0  0
   10.9097   11.8051   18.4804 C   0  0  0  0  0  0  0  0  0  0  0  0
   11.2280   12.9135   17.5669 C   0  0  0  0  0  0  0  0  0  0  0  0
   12.3782    5.4231   20.7777 C   0  0  0  0  0  0  0  0  0  0  0  0
    7.7365    4.6508   21.6987 C   0  0  0  0  0  0  0  0  0  0  0  0
   13.0186   11.0102   18.0020 C   0  0  0  0  0  0  0  0  0  0  0  0
    8.6628    5.7088   21.8871 N   0  0  0  0  0  0  0  0  0  0  0  0
    5.6516    3.5258   21.9140 C   0  0  0  0  0  0  0  0  0  0  0  0
   11.5863    9.6815   19.4539 C   0  0  0  0  0  0  0  0  0  0  0  0
   12.9648    4.1543   20.9205 C   0  0  0  0  0  0  0  0  0  0  0  0
    8.2089    3.6265   20.8929 C   0  0  0  0  0  0  0  0  0  0  0  0
    7.3827    2.5724   20.5432 C   0  0  0  0  0  0  0  0  0  0  0  0
   11.1529    7.2750   20.8025 C   0  0  0  0  0  0  0  0  0  0  0  0
   10.2573    8.3215   20.9827 C   0  0  0  0  0  0  0  0  0  0  0  0
   11.1606    5.9378   21.2366 N   0  0  0  0  0  0  0  0  0  0  0  0
    9.8932   11.6736   19.0677 O   0  0  0  0  0  0  0  0  0  0  0  0
    6.4470    4.5850   22.2321 C   0  0  0  0  0  0  0  0  0  0  0  0
    8.4619    6.9895   22.2968 C   0  0  0  0  0  0  0  0  0  0  0  0
   12.2747    7.5102   20.0420 C   0  0  0  0  0  0  0  0  0  0  0  0
   14.2544    6.2142   19.4191 C   0  0  0  0  0  0  0  0  0  0  0  0
   13.0695    6.3705   20.0375 N   0  0  0  0  0  0  0  0  0  0  0  0
    9.1913    8.0876   21.8361 N   0  0  0  0  0  0  0  0  0  0  0  0
   10.4739    9.4813   20.2889 C   0  0  0  0  0  0  0  0  0  0  0  0
    7.5551    7.1270   23.1200 O   0  0  0  0  0  0  0  0  0  0  0  0
  1 11  4  0
  1 21  4  0
  2  4  1  0
  2  8  1  0
  2 11  1  0
  3 10  4  0
  3 14  4  0
  4  5  1  0
  4 18  2  0
  6 12  1  0
  6 17  4  0
  6 23  4  0
  7  9  1  0
  7 13  4  0
  7 19  4  0
  9 20  1  0
 10 19  4  0
 11 25  4  0
 13 14  4  0
 15 16  4  0
 15 17  4  0
 15 21  4  0
 16 24  1  0
 16 25  4  0
 20 24  1  0
 20 26  2  0
 21 23  4  0
 22 23  1  0
M  END
$$$$

 Created by Python create_sdf_string function

 26 28  0  0  0  0  0  0  0  0999 V2000
   12.4616    8.6700   19.4180 N   0  0  0  0  0  0  0  0  0  0  0  0
   11.8329   10.8148   18.6769 N   0  0  0  0  0  0  0  0  0  0  0  0
    6.1021    2.5564   21.0678 C   0  0  0  0  0  0  0  0  0  0  0  0
   10.9097   11.8051   18.4804 C   0  0  0  0  0  0  0  0  0  0  0  0
   11.2280   12.9135   17.5669 C   0  0  0  0  0  0  0  0  0  0  0  0
   12.3782    5.4231   20.7777 C   0  0  0  0  0  0  0  0  0  0  0  0
    7.7365    4.6508   21.6987 C   0  0  0  0  0  0  0  0  0  0  0  0
   13.0186   11.0102   18.0020 C   0  0  0  0  0  0  0  0  0  0  0  0
    8.6628    5.7088   21.8871 N   0  0  0  0  0  0  0  0  0  0  0  0
    5.6516    3.5258   21.9140 C   0  0  0  0  0  0  0  0  0  0  0  0
   11.5863    9.6815   19.4539 C   0  0  0  0  0  0  0  0  0  0  0  0
   12.9648    4.1543   20.9205 C   0  0  0  0  0  0  0  0  0  0  0  0
    8.2089    3.6265   20.8929 C   0  0  0  0  0  0  0  0  0  0  0  0
    7.3827    2.5724   20.5432 C   0  0  0  0  0  0  0  0  0  0  0  0
   11.1529    7.2750   20.8025 C   0  0  0  0  0  0  0  0  0  0  0  0
   10.2573    8.3215   20.9827 C   0  0  0  0  0  0  0  0  0  0  0  0
   11.1606    5.9378   21.2366 N   0  0  0  0  0  0  0  0  0  0  0  0
    9.8932   11.6736   19.0677 O   0  0  0  0  0  0  0  0  0  0  0  0
    6.4470    4.5850   22.2321 C   0  0  0  0  0  0  0  0  0  0  0  0
    8.4619    6.9895   22.2968 C   0  0  0  0  0  0  0  0  0  0  0  0
   12.2747    7.5102   20.0420 C   0  0  0  0  0  0  0  0  0  0  0  0
   14.2544    6.2142   19.4191 C   0  0  0  0  0  0  0  0  0  0  0  0
   13.0695    6.3705   20.0375 N   0  0  0  0  0  0  0  0  0  0  0  0
    9.1913    8.0876   21.8361 N   0  0  0  0  0  0  0  0  0  0  0  0
   10.4739    9.4813   20.2889 C   0  0  0  0  0  0  0  0  0  0  0  0
    7.5551    7.1270   23.1200 O   0  0  0  0  0  0  0  0  0  0  0  0
  1 11  4  0
  1 21  4  0
  2  4  1  0
  2  8  1  0
  2 11  1  0
  3 10  4  0
  3 14  4  0
  4  5  1  0
  4 18  2  0
  6 12  1  0
  6 17  4  0
  6 23  4  0
  7  9  1  0
  7 13  4  0
  7 19  4  0
  9 20  1  0
 10 19  4  0
 11 25  4  0
 13 14  4  0
 15 16  4  0
 15 17  4  0
 15 21  4  0
 16 24  1  0
 16 25  4  0
 20 24  1  0
 20 26  2  0
 21 23  4  0
 22 23  1  0
M  END
$$$$

 Created by Python create_sdf_string function

 26 28  0  0  0  0  0  0  0  0999 V2000
   12.4616    8.6700   19.4180 N   0  0  0  0  0  0  0  0  0  0  0  0
   11.8329   10.8148   18.6769 N   0  0  0  0  0  0  0  0  0  0  0  0
    6.1021    2.5564   21.0678 C   0  0  0  0  0  0  0  0  0  0  0  0
   10.9097   11.8051   18.4804 C   0  0  0  0  0  0  0  0  0  0  0  0
   11.2280   12.9135   17.5669 C   0  0  0  0  0  0  0  0  0  0  0  0
   12.3782    5.4231   20.7777 C   0  0  0  0  0  0  0  0  0  0  0  0
    7.7365    4.6508   21.6987 C   0  0  0  0  0  0  0  0  0  0  0  0
   13.0186   11.0102   18.0020 C   0  0  0  0  0  0  0  0  0  0  0  0
    8.6628    5.7088   21.8871 N   0  0  0  0  0  0  0  0  0  0  0  0
    5.6516    3.5258   21.9140 C   0  0  0  0  0  0  0  0  0  0  0  0
   11.5863    9.6815   19.4539 C   0  0  0  0  0  0  0  0  0  0  0  0
   12.9648    4.1543   20.9205 C   0  0  0  0  0  0  0  0  0  0  0  0
    8.2089    3.6265   20.8929 C   0  0  0  0  0  0  0  0  0  0  0  0
    7.3827    2.5724   20.5432 C   0  0  0  0  0  0  0  0  0  0  0  0
   11.1529    7.2750   20.8025 C   0  0  0  0  0  0  0  0  0  0  0  0
   10.2573    8.3215   20.9827 C   0  0  0  0  0  0  0  0  0  0  0  0
   11.1606    5.9378   21.2366 N   0  0  0  0  0  0  0  0  0  0  0  0
    9.8932   11.6736   19.0677 O   0  0  0  0  0  0  0  0  0  0  0  0
    6.4470    4.5850   22.2321 C   0  0  0  0  0  0  0  0  0  0  0  0
    8.4619    6.9895   22.2968 C   0  0  0  0  0  0  0  0  0  0  0  0
   12.2747    7.5102   20.0420 C   0  0  0  0  0  0  0  0  0  0  0  0
   14.2544    6.2142   19.4191 C   0  0  0  0  0  0  0  0  0  0  0  0
   13.0695    6.3705   20.0375 N   0  0  0  0  0  0  0  0  0  0  0  0
    9.1913    8.0876   21.8361 N   0  0  0  0  0  0  0  0  0  0  0  0
   10.4739    9.4813   20.2889 C   0  0  0  0  0  0  0  0  0  0  0  0
    7.5551    7.1270   23.1200 O   0  0  0  0  0  0  0  0  0  0  0  0
  1 11  4  0
  1 21  4  0
  2  4  1  0
  2  8  1  0
  2 11  1  0
  3 10  4  0
  3 14  4  0
  4  5  1  0
  4 18  2  0
  6 12  1  0
  6 17  4  0
  6 23  4  0
  7  9  1  0
  7 13  4  0
  7 19  4  0
  9 20  1  0
 10 19  4  0
 11 25  4  0
 13 14  4  0
 15 16  4  0
 15 17  4  0
 15 21  4  0
 16 24  1  0
 16 25  4  0
 20 24  1  0
 20 26  2  0
 21 23  4  0
 22 23  1  0
M  END
$$$$

 Created by Python create_sdf_string function

 26 28  0  0  0  0  0  0  0  0999 V2000
   12.4616    8.6700   19.4180 N   0  0  0  0  0  0  0  0  0  0  0  0
   11.8329   10.8148   18.6769 N   0  0  0  0  0  0  0  0  0  0  0  0
    6.1021    2.5564   21.0678 C   0  0  0  0  0  0  0  0  0  0  0  0
   10.9097   11.8051   18.4804 C   0  0  0  0  0  0  0  0  0  0  0  0
   11.2280   12.9135   17.5669 C   0  0  0  0  0  0  0  0  0  0  0  0
   12.3782    5.4231   20.7777 C   0  0  0  0  0  0  0  0  0  0  0  0
    7.7365    4.6508   21.6987 C   0  0  0  0  0  0  0  0  0  0  0  0
   13.0186   11.0102   18.0020 C   0  0  0  0  0  0  0  0  0  0  0  0
    8.6628    5.7088   21.8871 N   0  0  0  0  0  0  0  0  0  0  0  0
    5.6516    3.5258   21.9140 C   0  0  0  0  0  0  0  0  0  0  0  0
   11.5863    9.6815   19.4539 C   0  0  0  0  0  0  0  0  0  0  0  0
   12.9648    4.1543   20.9205 C   0  0  0  0  0  0  0  0  0  0  0  0
    8.2089    3.6265   20.8929 C   0  0  0  0  0  0  0  0  0  0  0  0
    7.3827    2.5724   20.5432 C   0  0  0  0  0  0  0  0  0  0  0  0
   11.1529    7.2750   20.8025 C   0  0  0  0  0  0  0  0  0  0  0  0
   10.2573    8.3215   20.9827 C   0  0  0  0  0  0  0  0  0  0  0  0
   11.1606    5.9378   21.2366 N   0  0  0  0  0  0  0  0  0  0  0  0
    9.8932   11.6736   19.0677 O   0  0  0  0  0  0  0  0  0  0  0  0
    6.4470    4.5850   22.2321 C   0  0  0  0  0  0  0  0  0  0  0  0
    8.4619    6.9895   22.2968 C   0  0  0  0  0  0  0  0  0  0  0  0
   12.2747    7.5102   20.0420 C   0  0  0  0  0  0  0  0  0  0  0  0
   14.2544    6.2142   19.4191 C   0  0  0  0  0  0  0  0  0  0  0  0
   13.0695    6.3705   20.0375 N   0  0  0  0  0  0  0  0  0  0  0  0
    9.1913    8.0876   21.8361 N   0  0  0  0  0  0  0  0  0  0  0  0
   10.4739    9.4813   20.2889 C   0  0  0  0  0  0  0  0  0  0  0  0
    7.5551    7.1270   23.1200 O   0  0  0  0  0  0  0  0  0  0  0  0
  1 11  4  0
  1 21  4  0
  2  4  1  0
  2  8  1  0
  2 11  1  0
  3 10  4  0
  3 14  4  0
  4  5  1  0
  4 18  2  0
  6 12  1  0
  6 17  4  0
  6 23  4  0
  7  9  1  0
  7 13  4  0
  7 19  4  0
  9 20  1  0
 10 19  4  0
 11 25  4  0
 13 14  4  0
 15 16  4  0
 15 17  4  0
 15 21  4  0
 16 24  1  0
 16 25  4  0
 20 24  1  0
 20 26  2  0
 21 23  4  0
 22 23  1  0
M  END
$$$$

 Created by Python create_sdf_string function

 26 28  0  0  0  0  0  0  0  0999 V2000
   12.4616    8.6700   19.4180 N   0  0  0  0  0  0  0  0  0  0  0  0
   11.8329   10.8148   18.6769 N   0  0  0  0  0  0  0  0  0  0  0  0
    6.1021    2.5564   21.0678 C   0  0  0  0  0  0  0  0  0  0  0  0
   10.9097   11.8051   18.4804 C   0  0  0  0  0  0  0  0  0  0  0  0
   11.2280   12.9135   17.5669 C   0  0  0  0  0  0  0  0  0  0  0  0
   12.3782    5.4231   20.7777 C   0  0  0  0  0  0  0  0  0  0  0  0
    7.7365    4.6508   21.6987 C   0  0  0  0  0  0  0  0  0  0  0  0
   13.0186   11.0102   18.0020 C   0  0  0  0  0  0  0  0  0  0  0  0
    8.6628    5.7088   21.8871 N   0  0  0  0  0  0  0  0  0  0  0  0
    5.6516    3.5258   21.9140 C   0  0  0  0  0  0  0  0  0  0  0  0
   11.5863    9.6815   19.4539 C   0  0  0  0  0  0  0  0  0  0  0  0
   12.9648    4.1543   20.9205 C   0  0  0  0  0  0  0  0  0  0  0  0
    8.2089    3.6265   20.8929 C   0  0  0  0  0  0  0  0  0  0  0  0
    7.3827    2.5724   20.5432 C   0  0  0  0  0  0  0  0  0  0  0  0
   11.1529    7.2750   20.8025 C   0  0  0  0  0  0  0  0  0  0  0  0
   10.2573    8.3215   20.9827 C   0  0  0  0  0  0  0  0  0  0  0  0
   11.1606    5.9378   21.2366 N   0  0  0  0  0  0  0  0  0  0  0  0
    9.8932   11.6736   19.0677 O   0  0  0  0  0  0  0  0  0  0  0  0
    6.4470    4.5850   22.2321 C   0  0  0  0  0  0  0  0  0  0  0  0
    8.4619    6.9895   22.2968 C   0  0  0  0  0  0  0  0  0  0  0  0
   12.2747    7.5102   20.0420 C   0  0  0  0  0  0  0  0  0  0  0  0
   14.2544    6.2142   19.4191 C   0  0  0  0  0  0  0  0  0  0  0  0
   13.0695    6.3705   20.0375 N   0  0  0  0  0  0  0  0  0  0  0  0
    9.1913    8.0876   21.8361 N   0  0  0  0  0  0  0  0  0  0  0  0
   10.4739    9.4813   20.2889 C   0  0  0  0  0  0  0  0  0  0  0  0
    7.5551    7.1270   23.1200 O   0  0  0  0  0  0  0  0  0  0  0  0
  1 11  4  0
  1 21  4  0
  2  4  1  0
  2  8  1  0
  2 11  1  0
  3 10  4  0
  3 14  4  0
  4  5  1  0
  4 18  2  0
  6 12  1  0
  6 17  4  0
  6 23  4  0
  7  9  1  0
  7 13  4  0
  7 19  4  0
  9 20  1  0
 10 19  4  0
 11 25  4  0
 13 14  4  0
 15 16  4  0
 15 17  4  0
 15 21  4  0
 16 24  1  0
 16 25  4  0
 20 24  1  0
 20 26  2  0
 21 23  4  0
 22 23  1  0
M  END
$$$$

 Created by Python create_sdf_string function

 26 28  0  0  0  0  0  0  0  0999 V2000
   12.4616    8.6700   19.4180 N   0  0  0  0  0  0  0  0  0  0  0  0
   11.8329   10.8148   18.6769 N   0  0  0  0  0  0  0  0  0  0  0  0
    6.1021    2.5564   21.0678 C   0  0  0  0  0  0  0  0  0  0  0  0
   10.9097   11.8051   18.4804 C   0  0  0  0  0  0  0  0  0  0  0  0
   11.2280   12.9135   17.5669 C   0  0  0  0  0  0  0  0  0  0  0  0
   12.3782    5.4231   20.7777 C   0  0  0  0  0  0  0  0  0  0  0  0
    7.7365    4.6508   21.6987 C   0  0  0  0  0  0  0  0  0  0  0  0
   13.0186   11.0102   18.0020 C   0  0  0  0  0  0  0  0  0  0  0  0
    8.6628    5.7088   21.8871 N   0  0  0  0  0  0  0  0  0  0  0  0
    5.6516    3.5258   21.9140 C   0  0  0  0  0  0  0  0  0  0  0  0
   11.5863    9.6815   19.4539 C   0  0  0  0  0  0  0  0  0  0  0  0
   12.9648    4.1543   20.9205 C   0  0  0  0  0  0  0  0  0  0  0  0
    8.2089    3.6265   20.8929 C   0  0  0  0  0  0  0  0  0  0  0  0
    7.3827    2.5724   20.5432 C   0  0  0  0  0  0  0  0  0  0  0  0
   11.1529    7.2750   20.8025 C   0  0  0  0  0  0  0  0  0  0  0  0
   10.2573    8.3215   20.9827 C   0  0  0  0  0  0  0  0  0  0  0  0
   11.1606    5.9378   21.2366 N   0  0  0  0  0  0  0  0  0  0  0  0
    9.8932   11.6736   19.0677 O   0  0  0  0  0  0  0  0  0  0  0  0
    6.4470    4.5850   22.2321 C   0  0  0  0  0  0  0  0  0  0  0  0
    8.4619    6.9895   22.2968 C   0  0  0  0  0  0  0  0  0  0  0  0
   12.2747    7.5102   20.0420 C   0  0  0  0  0  0  0  0  0  0  0  0
   14.2544    6.2142   19.4191 C   0  0  0  0  0  0  0  0  0  0  0  0
   13.0695    6.3705   20.0375 N   0  0  0  0  0  0  0  0  0  0  0  0
    9.1913    8.0876   21.8361 N   0  0  0  0  0  0  0  0  0  0  0  0
   10.4739    9.4813   20.2889 C   0  0  0  0  0  0  0  0  0  0  0  0
    7.5551    7.1270   23.1200 O   0  0  0  0  0  0  0  0  0  0  0  0
  1 11  4  0
  1 21  4  0
  2  4  1  0
  2  8  1  0
  2 11  1  0
  3 10  4  0
  3 14  4  0
  4  5  1  0
  4 18  2  0
  6 12  1  0
  6 17  4  0
  6 23  4  0
  7  9  1  0
  7 13  4  0
  7 19  4  0
  9 20  1  0
 10 19  4  0
 11 25  4  0
 13 14  4  0
 15 16  4  0
 15 17  4  0
 15 21  4  0
 16 24  1  0
 16 25  4  0
 20 24  1  0
 20 26  2  0
 21 23  4  0
 22 23  1  0
M  END
$$$$

 Created by Python create_sdf_string function

 26 28  0  0  0  0  0  0  0  0999 V2000
   12.4616    8.6700   19.4180 N   0  0  0  0  0  0  0  0  0  0  0  0
   11.8329   10.8148   18.6769 N   0  0  0  0  0  0  0  0  0  0  0  0
    6.1021    2.5564   21.0678 C   0  0  0  0  0  0  0  0  0  0  0  0
   10.9097   11.8051   18.4804 C   0  0  0  0  0  0  0  0  0  0  0  0
   11.2280   12.9135   17.5669 C   0  0  0  0  0  0  0  0  0  0  0  0
   12.3782    5.4231   20.7777 C   0  0  0  0  0  0  0  0  0  0  0  0
    7.7365    4.6508   21.6987 C   0  0  0  0  0  0  0  0  0  0  0  0
   13.0186   11.0102   18.0020 C   0  0  0  0  0  0  0  0  0  0  0  0
    8.6628    5.7088   21.8871 N   0  0  0  0  0  0  0  0  0  0  0  0
    5.6516    3.5258   21.9140 C   0  0  0  0  0  0  0  0  0  0  0  0
   11.5863    9.6815   19.4539 C   0  0  0  0  0  0  0  0  0  0  0  0
   12.9648    4.1543   20.9205 C   0  0  0  0  0  0  0  0  0  0  0  0
    8.2089    3.6265   20.8929 C   0  0  0  0  0  0  0  0  0  0  0  0
    7.3827    2.5724   20.5432 C   0  0  0  0  0  0  0  0  0  0  0  0
   11.1529    7.2750   20.8025 C   0  0  0  0  0  0  0  0  0  0  0  0
   10.2573    8.3215   20.9827 C   0  0  0  0  0  0  0  0  0  0  0  0
   11.1606    5.9378   21.2366 N   0  0  0  0  0  0  0  0  0  0  0  0
    9.8932   11.6736   19.0677 O   0  0  0  0  0  0  0  0  0  0  0  0
    6.4470    4.5850   22.2321 C   0  0  0  0  0  0  0  0  0  0  0  0
    8.4619    6.9895   22.2968 C   0  0  0  0  0  0  0  0  0  0  0  0
   12.2747    7.5102   20.0420 C   0  0  0  0  0  0  0  0  0  0  0  0
   14.2544    6.2142   19.4191 C   0  0  0  0  0  0  0  0  0  0  0  0
   13.0695    6.3705   20.0375 N   0  0  0  0  0  0  0  0  0  0  0  0
    9.1913    8.0876   21.8361 N   0  0  0  0  0  0  0  0  0  0  0  0
   10.4739    9.4813   20.2889 C   0  0  0  0  0  0  0  0  0  0  0  0
    7.5551    7.1270   23.1200 O   0  0  0  0  0  0  0  0  0  0  0  0
  1 11  4  0
  1 21  4  0
  2  4  1  0
  2  8  1  0
  2 11  1  0
  3 10  4  0
  3 14  4  0
  4  5  1  0
  4 18  2  0
  6 12  1  0
  6 17  4  0
  6 23  4  0
  7  9  1  0
  7 13  4  0
  7 19  4  0
  9 20  1  0
 10 19  4  0
 11 25  4  0
 13 14  4  0
 15 16  4  0
 15 17  4  0
 15 21  4  0
 16 24  1  0
 16 25  4  0
 20 24  1  0
 20 26  2  0
 21 23  4  0
 22 23  1  0
M  END
$$$$

 Created by Python create_sdf_string function

 26 28  0  0  0  0  0  0  0  0999 V2000
   12.4616    8.6700   19.4180 N   0  0  0  0  0  0  0  0  0  0  0  0
   11.8329   10.8148   18.6769 N   0  0  0  0  0  0  0  0  0  0  0  0
    6.1021    2.5564   21.0678 C   0  0  0  0  0  0  0  0  0  0  0  0
   10.9097   11.8051   18.4804 C   0  0  0  0  0  0  0  0  0  0  0  0
   11.2280   12.9135   17.5669 C   0  0  0  0  0  0  0  0  0  0  0  0
   12.3782    5.4231   20.7777 C   0  0  0  0  0  0  0  0  0  0  0  0
    7.7365    4.6508   21.6987 C   0  0  0  0  0  0  0  0  0  0  0  0
   13.0186   11.0102   18.0020 C   0  0  0  0  0  0  0  0  0  0  0  0
    8.6628    5.7088   21.8871 N   0  0  0  0  0  0  0  0  0  0  0  0
    5.6516    3.5258   21.9140 C   0  0  0  0  0  0  0  0  0  0  0  0
   11.5863    9.6815   19.4539 C   0  0  0  0  0  0  0  0  0  0  0  0
   12.9648    4.1543   20.9205 C   0  0  0  0  0  0  0  0  0  0  0  0
    8.2089    3.6265   20.8929 C   0  0  0  0  0  0  0  0  0  0  0  0
    7.3827    2.5724   20.5432 C   0  0  0  0  0  0  0  0  0  0  0  0
   11.1529    7.2750   20.8025 C   0  0  0  0  0  0  0  0  0  0  0  0
   10.2573    8.3215   20.9827 C   0  0  0  0  0  0  0  0  0  0  0  0
   11.1606    5.9378   21.2366 N   0  0  0  0  0  0  0  0  0  0  0  0
    9.8932   11.6736   19.0677 O   0  0  0  0  0  0  0  0  0  0  0  0
    6.4470    4.5850   22.2321 C   0  0  0  0  0  0  0  0  0  0  0  0
    8.4619    6.9895   22.2968 C   0  0  0  0  0  0  0  0  0  0  0  0
   12.2747    7.5102   20.0420 C   0  0  0  0  0  0  0  0  0  0  0  0
   14.2544    6.2142   19.4191 C   0  0  0  0  0  0  0  0  0  0  0  0
   13.0695    6.3705   20.0375 N   0  0  0  0  0  0  0  0  0  0  0  0
    9.1913    8.0876   21.8361 N   0  0  0  0  0  0  0  0  0  0  0  0
   10.4739    9.4813   20.2889 C   0  0  0  0  0  0  0  0  0  0  0  0
    7.5551    7.1270   23.1200 O   0  0  0  0  0  0  0  0  0  0  0  0
  1 11  4  0
  1 21  4  0
  2  4  1  0
  2  8  1  0
  2 11  1  0
  3 10  4  0
  3 14  4  0
  4  5  1  0
  4 18  2  0
  6 12  1  0
  6 17  4  0
  6 23  4  0
  7  9  1  0
  7 13  4  0
  7 19  4  0
  9 20  1  0
 10 19  4  0
 11 25  4  0
 13 14  4  0
 15 16  4  0
 15 17  4  0
 15 21  4  0
 16 24  1  0
 16 25  4  0
 20 24  1  0
 20 26  2  0
 21 23  4  0
 22 23  1  0
M  END
$$$$

 Created by Python create_sdf_string function

 26 28  0  0  0  0  0  0  0  0999 V2000
   12.4616    8.6700   19.4180 N   0  0  0  0  0  0  0  0  0  0  0  0
   11.8329   10.8148   18.6769 N   0  0  0  0  0  0  0  0  0  0  0  0
    6.1021    2.5564   21.0678 C   0  0  0  0  0  0  0  0  0  0  0  0
   10.9097   11.8051   18.4804 C   0  0  0  0  0  0  0  0  0  0  0  0
   11.2280   12.9135   17.5669 C   0  0  0  0  0  0  0  0  0  0  0  0
   12.3782    5.4231   20.7777 C   0  0  0  0  0  0  0  0  0  0  0  0
    7.7365    4.6508   21.6987 C   0  0  0  0  0  0  0  0  0  0  0  0
   13.0186   11.0102   18.0020 C   0  0  0  0  0  0  0  0  0  0  0  0
    8.6628    5.7088   21.8871 N   0  0  0  0  0  0  0  0  0  0  0  0
    5.6516    3.5258   21.9140 C   0  0  0  0  0  0  0  0  0  0  0  0
   11.5863    9.6815   19.4539 C   0  0  0  0  0  0  0  0  0  0  0  0
   12.9648    4.1543   20.9205 C   0  0  0  0  0  0  0  0  0  0  0  0
    8.2089    3.6265   20.8929 C   0  0  0  0  0  0  0  0  0  0  0  0
    7.3827    2.5724   20.5432 C   0  0  0  0  0  0  0  0  0  0  0  0
   11.1529    7.2750   20.8025 C   0  0  0  0  0  0  0  0  0  0  0  0
   10.2573    8.3215   20.9827 C   0  0  0  0  0  0  0  0  0  0  0  0
   11.1606    5.9378   21.2366 N   0  0  0  0  0  0  0  0  0  0  0  0
    9.8932   11.6736   19.0677 O   0  0  0  0  0  0  0  0  0  0  0  0
    6.4470    4.5850   22.2321 C   0  0  0  0  0  0  0  0  0  0  0  0
    8.4619    6.9895   22.2968 C   0  0  0  0  0  0  0  0  0  0  0  0
   12.2747    7.5102   20.0420 C   0  0  0  0  0  0  0  0  0  0  0  0
   14.2544    6.2142   19.4191 C   0  0  0  0  0  0  0  0  0  0  0  0
   13.0695    6.3705   20.0375 N   0  0  0  0  0  0  0  0  0  0  0  0
    9.1913    8.0876   21.8361 N   0  0  0  0  0  0  0  0  0  0  0  0
   10.4739    9.4813   20.2889 C   0  0  0  0  0  0  0  0  0  0  0  0
    7.5551    7.1270   23.1200 O   0  0  0  0  0  0  0  0  0  0  0  0
  1 11  4  0
  1 21  4  0
  2  4  1  0
  2  8  1  0
  2 11  1  0
  3 10  4  0
  3 14  4  0
  4  5  1  0
  4 18  2  0
  6 12  1  0
  6 17  4  0
  6 23  4  0
  7  9  1  0
  7 13  4  0
  7 19  4  0
  9 20  1  0
 10 19  4  0
 11 25  4  0
 13 14  4  0
 15 16  4  0
 15 17  4  0
 15 21  4  0
 16 24  1  0
 16 25  4  0
 20 24  1  0
 20 26  2  0
 21 23  4  0
 22 23  1  0
M  END
$$$$

 Created by Python create_sdf_string function

 26 28  0  0  0  0  0  0  0  0999 V2000
   12.4616    8.6700   19.4180 N   0  0  0  0  0  0  0  0  0  0  0  0
   11.8329   10.8148   18.6769 N   0  0  0  0  0  0  0  0  0  0  0  0
    6.1021    2.5564   21.0678 C   0  0  0  0  0  0  0  0  0  0  0  0
   10.9097   11.8051   18.4804 C   0  0  0  0  0  0  0  0  0  0  0  0
   11.2280   12.9135   17.5669 C   0  0  0  0  0  0  0  0  0  0  0  0
   12.3782    5.4231   20.7777 C   0  0  0  0  0  0  0  0  0  0  0  0
    7.7365    4.6508   21.6987 C   0  0  0  0  0  0  0  0  0  0  0  0
   13.0186   11.0102   18.0020 C   0  0  0  0  0  0  0  0  0  0  0  0
    8.6628    5.7088   21.8871 N   0  0  0  0  0  0  0  0  0  0  0  0
    5.6516    3.5258   21.9140 C   0  0  0  0  0  0  0  0  0  0  0  0
   11.5863    9.6815   19.4539 C   0  0  0  0  0  0  0  0  0  0  0  0
   12.9648    4.1543   20.9205 C   0  0  0  0  0  0  0  0  0  0  0  0
    8.2089    3.6265   20.8929 C   0  0  0  0  0  0  0  0  0  0  0  0
    7.3827    2.5724   20.5432 C   0  0  0  0  0  0  0  0  0  0  0  0
   11.1529    7.2750   20.8025 C   0  0  0  0  0  0  0  0  0  0  0  0
   10.2573    8.3215   20.9827 C   0  0  0  0  0  0  0  0  0  0  0  0
   11.1606    5.9378   21.2366 N   0  0  0  0  0  0  0  0  0  0  0  0
    9.8932   11.6736   19.0677 O   0  0  0  0  0  0  0  0  0  0  0  0
    6.4470    4.5850   22.2321 C   0  0  0  0  0  0  0  0  0  0  0  0
    8.4619    6.9895   22.2968 C   0  0  0  0  0  0  0  0  0  0  0  0
   12.2747    7.5102   20.0420 C   0  0  0  0  0  0  0  0  0  0  0  0
   14.2544    6.2142   19.4191 C   0  0  0  0  0  0  0  0  0  0  0  0
   13.0695    6.3705   20.0375 N   0  0  0  0  0  0  0  0  0  0  0  0
    9.1913    8.0876   21.8361 N   0  0  0  0  0  0  0  0  0  0  0  0
   10.4739    9.4813   20.2889 C   0  0  0  0  0  0  0  0  0  0  0  0
    7.5551    7.1270   23.1200 O   0  0  0  0  0  0  0  0  0  0  0  0
  1 11  4  0
  1 21  4  0
  2  4  1  0
  2  8  1  0
  2 11  1  0
  3 10  4  0
  3 14  4  0
  4  5  1  0
  4 18  2  0
  6 12  1  0
  6 17  4  0
  6 23  4  0
  7  9  1  0
  7 13  4  0
  7 19  4  0
  9 20  1  0
 10 19  4  0
 11 25  4  0
 13 14  4  0
 15 16  4  0
 15 17  4  0
 15 21  4  0
 16 24  1  0
 16 25  4  0
 20 24  1  0
 20 26  2  0
 21 23  4  0
 22 23  1  0
M  END
$$$$

 Created by Python create_sdf_string function

 26 28  0  0  0  0  0  0  0  0999 V2000
   12.4616    8.6700   19.4180 N   0  0  0  0  0  0  0  0  0  0  0  0
   11.8329   10.8148   18.6769 N   0  0  0  0  0  0  0  0  0  0  0  0
    6.1021    2.5564   21.0678 C   0  0  0  0  0  0  0  0  0  0  0  0
   10.9097   11.8051   18.4804 C   0  0  0  0  0  0  0  0  0  0  0  0
   11.2280   12.9135   17.5669 C   0  0  0  0  0  0  0  0  0  0  0  0
   12.3782    5.4231   20.7777 C   0  0  0  0  0  0  0  0  0  0  0  0
    7.7365    4.6508   21.6987 C   0  0  0  0  0  0  0  0  0  0  0  0
   13.0186   11.0102   18.0020 C   0  0  0  0  0  0  0  0  0  0  0  0
    8.6628    5.7088   21.8871 N   0  0  0  0  0  0  0  0  0  0  0  0
    5.6516    3.5258   21.9140 C   0  0  0  0  0  0  0  0  0  0  0  0
   11.5863    9.6815   19.4539 C   0  0  0  0  0  0  0  0  0  0  0  0
   12.9648    4.1543   20.9205 C   0  0  0  0  0  0  0  0  0  0  0  0
    8.2089    3.6265   20.8929 C   0  0  0  0  0  0  0  0  0  0  0  0
    7.3827    2.5724   20.5432 C   0  0  0  0  0  0  0  0  0  0  0  0
   11.1529    7.2750   20.8025 C   0  0  0  0  0  0  0  0  0  0  0  0
   10.2573    8.3215   20.9827 C   0  0  0  0  0  0  0  0  0  0  0  0
   11.1606    5.9378   21.2366 N   0  0  0  0  0  0  0  0  0  0  0  0
    9.8932   11.6736   19.0677 O   0  0  0  0  0  0  0  0  0  0  0  0
    6.4470    4.5850   22.2321 C   0  0  0  0  0  0  0  0  0  0  0  0
    8.4619    6.9895   22.2968 C   0  0  0  0  0  0  0  0  0  0  0  0
   12.2747    7.5102   20.0420 C   0  0  0  0  0  0  0  0  0  0  0  0
   14.2544    6.2142   19.4191 C   0  0  0  0  0  0  0  0  0  0  0  0
   13.0695    6.3705   20.0375 N   0  0  0  0  0  0  0  0  0  0  0  0
    9.1913    8.0876   21.8361 N   0  0  0  0  0  0  0  0  0  0  0  0
   10.4739    9.4813   20.2889 C   0  0  0  0  0  0  0  0  0  0  0  0
    7.5551    7.1270   23.1200 O   0  0  0  0  0  0  0  0  0  0  0  0
  1 11  4  0
  1 21  4  0
  2  4  1  0
  2  8  1  0
  2 11  1  0
  3 10  4  0
  3 14  4  0
  4  5  1  0
  4 18  2  0
  6 12  1  0
  6 17  4  0
  6 23  4  0
  7  9  1  0
  7 13  4  0
  7 19  4  0
  9 20  1  0
 10 19  4  0
 11 25  4  0
 13 14  4  0
 15 16  4  0
 15 17  4  0
 15 21  4  0
 16 24  1  0
 16 25  4  0
 20 24  1  0
 20 26  2  0
 21 23  4  0
 22 23  1  0
M  END
$$$$

 Created by Python create_sdf_string function

 26 28  0  0  0  0  0  0  0  0999 V2000
   12.4616    8.6700   19.4180 N   0  0  0  0  0  0  0  0  0  0  0  0
   11.8329   10.8148   18.6769 N   0  0  0  0  0  0  0  0  0  0  0  0
    6.1021    2.5564   21.0678 C   0  0  0  0  0  0  0  0  0  0  0  0
   10.9097   11.8051   18.4804 C   0  0  0  0  0  0  0  0  0  0  0  0
   11.2280   12.9135   17.5669 C   0  0  0  0  0  0  0  0  0  0  0  0
   12.3782    5.4231   20.7777 C   0  0  0  0  0  0  0  0  0  0  0  0
    7.7365    4.6508   21.6987 C   0  0  0  0  0  0  0  0  0  0  0  0
   13.0186   11.0102   18.0020 C   0  0  0  0  0  0  0  0  0  0  0  0
    8.6628    5.7088   21.8871 N   0  0  0  0  0  0  0  0  0  0  0  0
    5.6516    3.5258   21.9140 C   0  0  0  0  0  0  0  0  0  0  0  0
   11.5863    9.6815   19.4539 C   0  0  0  0  0  0  0  0  0  0  0  0
   12.9648    4.1543   20.9205 C   0  0  0  0  0  0  0  0  0  0  0  0
    8.2089    3.6265   20.8929 C   0  0  0  0  0  0  0  0  0  0  0  0
    7.3827    2.5724   20.5432 C   0  0  0  0  0  0  0  0  0  0  0  0
   11.1529    7.2750   20.8025 C   0  0  0  0  0  0  0  0  0  0  0  0
   10.2573    8.3215   20.9827 C   0  0  0  0  0  0  0  0  0  0  0  0
   11.1606    5.9378   21.2366 N   0  0  0  0  0  0  0  0  0  0  0  0
    9.8932   11.6736   19.0677 O   0  0  0  0  0  0  0  0  0  0  0  0
    6.4470    4.5850   22.2321 C   0  0  0  0  0  0  0  0  0  0  0  0
    8.4619    6.9895   22.2968 C   0  0  0  0  0  0  0  0  0  0  0  0
   12.2747    7.5102   20.0420 C   0  0  0  0  0  0  0  0  0  0  0  0
   14.2544    6.2142   19.4191 C   0  0  0  0  0  0  0  0  0  0  0  0
   13.0695    6.3705   20.0375 N   0  0  0  0  0  0  0  0  0  0  0  0
    9.1913    8.0876   21.8361 N   0  0  0  0  0  0  0  0  0  0  0  0
   10.4739    9.4813   20.2889 C   0  0  0  0  0  0  0  0  0  0  0  0
    7.5551    7.1270   23.1200 O   0  0  0  0  0  0  0  0  0  0  0  0
  1 11  4  0
  1 21  4  0
  2  4  1  0
  2  8  1  0
  2 11  1  0
  3 10  4  0
  3 14  4  0
  4  5  1  0
  4 18  2  0
  6 12  1  0
  6 17  4  0
  6 23  4  0
  7  9  1  0
  7 13  4  0
  7 19  4  0
  9 20  1  0
 10 19  4  0
 11 25  4  0
 13 14  4  0
 15 16  4  0
 15 17  4  0
 15 21  4  0
 16 24  1  0
 16 25  4  0
 20 24  1  0
 20 26  2  0
 21 23  4  0
 22 23  1  0
M  END
$$$$

 Created by Python create_sdf_string function

 26 28  0  0  0  0  0  0  0  0999 V2000
   12.4616    8.6700   19.4180 N   0  0  0  0  0  0  0  0  0  0  0  0
   11.8329   10.8148   18.6769 N   0  0  0  0  0  0  0  0  0  0  0  0
    6.1021    2.5564   21.0678 C   0  0  0  0  0  0  0  0  0  0  0  0
   10.9097   11.8051   18.4804 C   0  0  0  0  0  0  0  0  0  0  0  0
   11.2280   12.9135   17.5669 C   0  0  0  0  0  0  0  0  0  0  0  0
   12.3782    5.4231   20.7777 C   0  0  0  0  0  0  0  0  0  0  0  0
    7.7365    4.6508   21.6987 C   0  0  0  0  0  0  0  0  0  0  0  0
   13.0186   11.0102   18.0020 C   0  0  0  0  0  0  0  0  0  0  0  0
    8.6628    5.7088   21.8871 N   0  0  0  0  0  0  0  0  0  0  0  0
    5.6516    3.5258   21.9140 C   0  0  0  0  0  0  0  0  0  0  0  0
   11.5863    9.6815   19.4539 C   0  0  0  0  0  0  0  0  0  0  0  0
   12.9648    4.1543   20.9205 C   0  0  0  0  0  0  0  0  0  0  0  0
    8.2089    3.6265   20.8929 C   0  0  0  0  0  0  0  0  0  0  0  0
    7.3827    2.5724   20.5432 C   0  0  0  0  0  0  0  0  0  0  0  0
   11.1529    7.2750   20.8025 C   0  0  0  0  0  0  0  0  0  0  0  0
   10.2573    8.3215   20.9827 C   0  0  0  0  0  0  0  0  0  0  0  0
   11.1606    5.9378   21.2366 N   0  0  0  0  0  0  0  0  0  0  0  0
    9.8932   11.6736   19.0677 O   0  0  0  0  0  0  0  0  0  0  0  0
    6.4470    4.5850   22.2321 C   0  0  0  0  0  0  0  0  0  0  0  0
    8.4619    6.9895   22.2968 C   0  0  0  0  0  0  0  0  0  0  0  0
   12.2747    7.5102   20.0420 C   0  0  0  0  0  0  0  0  0  0  0  0
   14.2544    6.2142   19.4191 C   0  0  0  0  0  0  0  0  0  0  0  0
   13.0695    6.3705   20.0375 N   0  0  0  0  0  0  0  0  0  0  0  0
    9.1913    8.0876   21.8361 N   0  0  0  0  0  0  0  0  0  0  0  0
   10.4739    9.4813   20.2889 C   0  0  0  0  0  0  0  0  0  0  0  0
    7.5551    7.1270   23.1200 O   0  0  0  0  0  0  0  0  0  0  0  0
  1 11  4  0
  1 21  4  0
  2  4  1  0
  2  8  1  0
  2 11  1  0
  3 10  4  0
  3 14  4  0
  4  5  1  0
  4 18  2  0
  6 12  1  0
  6 17  4  0
  6 23  4  0
  7  9  1  0
  7 13  4  0
  7 19  4  0
  9 20  1  0
 10 19  4  0
 11 25  4  0
 13 14  4  0
 15 16  4  0
 15 17  4  0
 15 21  4  0
 16 24  1  0
 16 25  4  0
 20 24  1  0
 20 26  2  0
 21 23  4  0
 22 23  1  0
M  END
$$$$

 Created by Python create_sdf_string function

 26 28  0  0  0  0  0  0  0  0999 V2000
   12.4616    8.6700   19.4180 N   0  0  0  0  0  0  0  0  0  0  0  0
   11.8329   10.8148   18.6769 N   0  0  0  0  0  0  0  0  0  0  0  0
    6.1021    2.5564   21.0678 C   0  0  0  0  0  0  0  0  0  0  0  0
   10.9097   11.8051   18.4804 C   0  0  0  0  0  0  0  0  0  0  0  0
   11.2280   12.9135   17.5669 C   0  0  0  0  0  0  0  0  0  0  0  0
   12.3782    5.4231   20.7777 C   0  0  0  0  0  0  0  0  0  0  0  0
    7.7365    4.6508   21.6987 C   0  0  0  0  0  0  0  0  0  0  0  0
   13.0186   11.0102   18.0020 C   0  0  0  0  0  0  0  0  0  0  0  0
    8.6628    5.7088   21.8871 N   0  0  0  0  0  0  0  0  0  0  0  0
    5.6516    3.5258   21.9140 C   0  0  0  0  0  0  0  0  0  0  0  0
   11.5863    9.6815   19.4539 C   0  0  0  0  0  0  0  0  0  0  0  0
   12.9648    4.1543   20.9205 C   0  0  0  0  0  0  0  0  0  0  0  0
    8.2089    3.6265   20.8929 C   0  0  0  0  0  0  0  0  0  0  0  0
    7.3827    2.5724   20.5432 C   0  0  0  0  0  0  0  0  0  0  0  0
   11.1529    7.2750   20.8025 C   0  0  0  0  0  0  0  0  0  0  0  0
   10.2573    8.3215   20.9827 C   0  0  0  0  0  0  0  0  0  0  0  0
   11.1606    5.9378   21.2366 N   0  0  0  0  0  0  0  0  0  0  0  0
    9.8932   11.6736   19.0677 O   0  0  0  0  0  0  0  0  0  0  0  0
    6.4470    4.5850   22.2321 C   0  0  0  0  0  0  0  0  0  0  0  0
    8.4619    6.9895   22.2968 C   0  0  0  0  0  0  0  0  0  0  0  0
   12.2747    7.5102   20.0420 C   0  0  0  0  0  0  0  0  0  0  0  0
   14.2544    6.2142   19.4191 C   0  0  0  0  0  0  0  0  0  0  0  0
   13.0695    6.3705   20.0375 N   0  0  0  0  0  0  0  0  0  0  0  0
    9.1913    8.0876   21.8361 N   0  0  0  0  0  0  0  0  0  0  0  0
   10.4739    9.4813   20.2889 C   0  0  0  0  0  0  0  0  0  0  0  0
    7.5551    7.1270   23.1200 O   0  0  0  0  0  0  0  0  0  0  0  0
  1 11  4  0
  1 21  4  0
  2  4  1  0
  2  8  1  0
  2 11  1  0
  3 10  4  0
  3 14  4  0
  4  5  1  0
  4 18  2  0
  6 12  1  0
  6 17  4  0
  6 23  4  0
  7  9  1  0
  7 13  4  0
  7 19  4  0
  9 20  1  0
 10 19  4  0
 11 25  4  0
 13 14  4  0
 15 16  4  0
 15 17  4  0
 15 21  4  0
 16 24  1  0
 16 25  4  0
 20 24  1  0
 20 26  2  0
 21 23  4  0
 22 23  1  0
M  END
$$$$

 Created by Python create_sdf_string function

 26 28  0  0  0  0  0  0  0  0999 V2000
   12.4616    8.6700   19.4180 N   0  0  0  0  0  0  0  0  0  0  0  0
   11.8329   10.8148   18.6769 N   0  0  0  0  0  0  0  0  0  0  0  0
    6.1021    2.5564   21.0678 C   0  0  0  0  0  0  0  0  0  0  0  0
   10.9097   11.8051   18.4804 C   0  0  0  0  0  0  0  0  0  0  0  0
   11.2280   12.9135   17.5669 C   0  0  0  0  0  0  0  0  0  0  0  0
   12.3782    5.4231   20.7777 C   0  0  0  0  0  0  0  0  0  0  0  0
    7.7365    4.6508   21.6987 C   0  0  0  0  0  0  0  0  0  0  0  0
   13.0186   11.0102   18.0020 C   0  0  0  0  0  0  0  0  0  0  0  0
    8.6628    5.7088   21.8871 N   0  0  0  0  0  0  0  0  0  0  0  0
    5.6516    3.5258   21.9140 C   0  0  0  0  0  0  0  0  0  0  0  0
   11.5863    9.6815   19.4539 C   0  0  0  0  0  0  0  0  0  0  0  0
   12.9648    4.1543   20.9205 C   0  0  0  0  0  0  0  0  0  0  0  0
    8.2089    3.6265   20.8929 C   0  0  0  0  0  0  0  0  0  0  0  0
    7.3827    2.5724   20.5432 C   0  0  0  0  0  0  0  0  0  0  0  0
   11.1529    7.2750   20.8025 C   0  0  0  0  0  0  0  0  0  0  0  0
   10.2573    8.3215   20.9827 C   0  0  0  0  0  0  0  0  0  0  0  0
   11.1606    5.9378   21.2366 N   0  0  0  0  0  0  0  0  0  0  0  0
    9.8932   11.6736   19.0677 O   0  0  0  0  0  0  0  0  0  0  0  0
    6.4470    4.5850   22.2321 C   0  0  0  0  0  0  0  0  0  0  0  0
    8.4619    6.9895   22.2968 C   0  0  0  0  0  0  0  0  0  0  0  0
   12.2747    7.5102   20.0420 C   0  0  0  0  0  0  0  0  0  0  0  0
   14.2544    6.2142   19.4191 C   0  0  0  0  0  0  0  0  0  0  0  0
   13.0695    6.3705   20.0375 N   0  0  0  0  0  0  0  0  0  0  0  0
    9.1913    8.0876   21.8361 N   0  0  0  0  0  0  0  0  0  0  0  0
   10.4739    9.4813   20.2889 C   0  0  0  0  0  0  0  0  0  0  0  0
    7.5551    7.1270   23.1200 O   0  0  0  0  0  0  0  0  0  0  0  0
  1 11  4  0
  1 21  4  0
  2  4  1  0
  2  8  1  0
  2 11  1  0
  3 10  4  0
  3 14  4  0
  4  5  1  0
  4 18  2  0
  6 12  1  0
  6 17  4  0
  6 23  4  0
  7  9  1  0
  7 13  4  0
  7 19  4  0
  9 20  1  0
 10 19  4  0
 11 25  4  0
 13 14  4  0
 15 16  4  0
 15 17  4  0
 15 21  4  0
 16 24  1  0
 16 25  4  0
 20 24  1  0
 20 26  2  0
 21 23  4  0
 22 23  1  0
M  END
$$$$

 Created by Python create_sdf_string function

 26 28  0  0  0  0  0  0  0  0999 V2000
   12.4616    8.6700   19.4180 N   0  0  0  0  0  0  0  0  0  0  0  0
   11.8329   10.8148   18.6769 N   0  0  0  0  0  0  0  0  0  0  0  0
    6.1021    2.5564   21.0678 C   0  0  0  0  0  0  0  0  0  0  0  0
   10.9097   11.8051   18.4804 C   0  0  0  0  0  0  0  0  0  0  0  0
   11.2280   12.9135   17.5669 C   0  0  0  0  0  0  0  0  0  0  0  0
   12.3782    5.4231   20.7777 C   0  0  0  0  0  0  0  0  0  0  0  0
    7.7365    4.6508   21.6987 C   0  0  0  0  0  0  0  0  0  0  0  0
   13.0186   11.0102   18.0020 C   0  0  0  0  0  0  0  0  0  0  0  0
    8.6628    5.7088   21.8871 N   0  0  0  0  0  0  0  0  0  0  0  0
    5.6516    3.5258   21.9140 C   0  0  0  0  0  0  0  0  0  0  0  0
   11.5863    9.6815   19.4539 C   0  0  0  0  0  0  0  0  0  0  0  0
   12.9648    4.1543   20.9205 C   0  0  0  0  0  0  0  0  0  0  0  0
    8.2089    3.6265   20.8929 C   0  0  0  0  0  0  0  0  0  0  0  0
    7.3827    2.5724   20.5432 C   0  0  0  0  0  0  0  0  0  0  0  0
   11.1529    7.2750   20.8025 C   0  0  0  0  0  0  0  0  0  0  0  0
   10.2573    8.3215   20.9827 C   0  0  0  0  0  0  0  0  0  0  0  0
   11.1606    5.9378   21.2366 N   0  0  0  0  0  0  0  0  0  0  0  0
    9.8932   11.6736   19.0677 O   0  0  0  0  0  0  0  0  0  0  0  0
    6.4470    4.5850   22.2321 C   0  0  0  0  0  0  0  0  0  0  0  0
    8.4619    6.9895   22.2968 C   0  0  0  0  0  0  0  0  0  0  0  0
   12.2747    7.5102   20.0420 C   0  0  0  0  0  0  0  0  0  0  0  0
   14.2544    6.2142   19.4191 C   0  0  0  0  0  0  0  0  0  0  0  0
   13.0695    6.3705   20.0375 N   0  0  0  0  0  0  0  0  0  0  0  0
    9.1913    8.0876   21.8361 N   0  0  0  0  0  0  0  0  0  0  0  0
   10.4739    9.4813   20.2889 C   0  0  0  0  0  0  0  0  0  0  0  0
    7.5551    7.1270   23.1200 O   0  0  0  0  0  0  0  0  0  0  0  0
  1 11  4  0
  1 21  4  0
  2  4  1  0
  2  8  1  0
  2 11  1  0
  3 10  4  0
  3 14  4  0
  4  5  1  0
  4 18  2  0
  6 12  1  0
  6 17  4  0
  6 23  4  0
  7  9  1  0
  7 13  4  0
  7 19  4  0
  9 20  1  0
 10 19  4  0
 11 25  4  0
 13 14  4  0
 15 16  4  0
 15 17  4  0
 15 21  4  0
 16 24  1  0
 16 25  4  0
 20 24  1  0
 20 26  2  0
 21 23  4  0
 22 23  1  0
M  END
$$$$

 Created by Python create_sdf_string function

 26 28  0  0  0  0  0  0  0  0999 V2000
   12.4616    8.6700   19.4180 N   0  0  0  0  0  0  0  0  0  0  0  0
   11.8329   10.8148   18.6769 N   0  0  0  0  0  0  0  0  0  0  0  0
    6.1021    2.5564   21.0678 C   0  0  0  0  0  0  0  0  0  0  0  0
   10.9097   11.8051   18.4804 C   0  0  0  0  0  0  0  0  0  0  0  0
   11.2280   12.9135   17.5669 C   0  0  0  0  0  0  0  0  0  0  0  0
   12.3782    5.4231   20.7777 C   0  0  0  0  0  0  0  0  0  0  0  0
    7.7365    4.6508   21.6987 C   0  0  0  0  0  0  0  0  0  0  0  0
   13.0186   11.0102   18.0020 C   0  0  0  0  0  0  0  0  0  0  0  0
    8.6628    5.7088   21.8871 N   0  0  0  0  0  0  0  0  0  0  0  0
    5.6516    3.5258   21.9140 C   0  0  0  0  0  0  0  0  0  0  0  0
   11.5863    9.6815   19.4539 C   0  0  0  0  0  0  0  0  0  0  0  0
   12.9648    4.1543   20.9205 C   0  0  0  0  0  0  0  0  0  0  0  0
    8.2089    3.6265   20.8929 C   0  0  0  0  0  0  0  0  0  0  0  0
    7.3827    2.5724   20.5432 C   0  0  0  0  0  0  0  0  0  0  0  0
   11.1529    7.2750   20.8025 C   0  0  0  0  0  0  0  0  0  0  0  0
   10.2573    8.3215   20.9827 C   0  0  0  0  0  0  0  0  0  0  0  0
   11.1606    5.9378   21.2366 N   0  0  0  0  0  0  0  0  0  0  0  0
    9.8932   11.6736   19.0677 O   0  0  0  0  0  0  0  0  0  0  0  0
    6.4470    4.5850   22.2321 C   0  0  0  0  0  0  0  0  0  0  0  0
    8.4619    6.9895   22.2968 C   0  0  0  0  0  0  0  0  0  0  0  0
   12.2747    7.5102   20.0420 C   0  0  0  0  0  0  0  0  0  0  0  0
   14.2544    6.2142   19.4191 C   0  0  0  0  0  0  0  0  0  0  0  0
   13.0695    6.3705   20.0375 N   0  0  0  0  0  0  0  0  0  0  0  0
    9.1913    8.0876   21.8361 N   0  0  0  0  0  0  0  0  0  0  0  0
   10.4739    9.4813   20.2889 C   0  0  0  0  0  0  0  0  0  0  0  0
    7.5551    7.1270   23.1200 O   0  0  0  0  0  0  0  0  0  0  0  0
  1 11  4  0
  1 21  4  0
  2  4  1  0
  2  8  1  0
  2 11  1  0
  3 10  4  0
  3 14  4  0
  4  5  1  0
  4 18  2  0
  6 12  1  0
  6 17  4  0
  6 23  4  0
  7  9  1  0
  7 13  4  0
  7 19  4  0
  9 20  1  0
 10 19  4  0
 11 25  4  0
 13 14  4  0
 15 16  4  0
 15 17  4  0
 15 21  4  0
 16 24  1  0
 16 25  4  0
 20 24  1  0
 20 26  2  0
 21 23  4  0
 22 23  1  0
M  END
$$$$

 Created by Python create_sdf_string function

 26 28  0  0  0  0  0  0  0  0999 V2000
   12.4616    8.6700   19.4180 N   0  0  0  0  0  0  0  0  0  0  0  0
   11.8329   10.8148   18.6769 N   0  0  0  0  0  0  0  0  0  0  0  0
    6.1021    2.5564   21.0678 C   0  0  0  0  0  0  0  0  0  0  0  0
   10.9097   11.8051   18.4804 C   0  0  0  0  0  0  0  0  0  0  0  0
   11.2280   12.9135   17.5669 C   0  0  0  0  0  0  0  0  0  0  0  0
   12.3782    5.4231   20.7777 C   0  0  0  0  0  0  0  0  0  0  0  0
    7.7365    4.6508   21.6987 C   0  0  0  0  0  0  0  0  0  0  0  0
   13.0186   11.0102   18.0020 C   0  0  0  0  0  0  0  0  0  0  0  0
    8.6628    5.7088   21.8871 N   0  0  0  0  0  0  0  0  0  0  0  0
    5.6516    3.5258   21.9140 C   0  0  0  0  0  0  0  0  0  0  0  0
   11.5863    9.6815   19.4539 C   0  0  0  0  0  0  0  0  0  0  0  0
   12.9648    4.1543   20.9205 C   0  0  0  0  0  0  0  0  0  0  0  0
    8.2089    3.6265   20.8929 C   0  0  0  0  0  0  0  0  0  0  0  0
    7.3827    2.5724   20.5432 C   0  0  0  0  0  0  0  0  0  0  0  0
   11.1529    7.2750   20.8025 C   0  0  0  0  0  0  0  0  0  0  0  0
   10.2573    8.3215   20.9827 C   0  0  0  0  0  0  0  0  0  0  0  0
   11.1606    5.9378   21.2366 N   0  0  0  0  0  0  0  0  0  0  0  0
    9.8932   11.6736   19.0677 O   0  0  0  0  0  0  0  0  0  0  0  0
    6.4470    4.5850   22.2321 C   0  0  0  0  0  0  0  0  0  0  0  0
    8.4619    6.9895   22.2968 C   0  0  0  0  0  0  0  0  0  0  0  0
   12.2747    7.5102   20.0420 C   0  0  0  0  0  0  0  0  0  0  0  0
   14.2544    6.2142   19.4191 C   0  0  0  0  0  0  0  0  0  0  0  0
   13.0695    6.3705   20.0375 N   0  0  0  0  0  0  0  0  0  0  0  0
    9.1913    8.0876   21.8361 N   0  0  0  0  0  0  0  0  0  0  0  0
   10.4739    9.4813   20.2889 C   0  0  0  0  0  0  0  0  0  0  0  0
    7.5551    7.1270   23.1200 O   0  0  0  0  0  0  0  0  0  0  0  0
  1 11  4  0
  1 21  4  0
  2  4  1  0
  2  8  1  0
  2 11  1  0
  3 10  4  0
  3 14  4  0
  4  5  1  0
  4 18  2  0
  6 12  1  0
  6 17  4  0
  6 23  4  0
  7  9  1  0
  7 13  4  0
  7 19  4  0
  9 20  1  0
 10 19  4  0
 11 25  4  0
 13 14  4  0
 15 16  4  0
 15 17  4  0
 15 21  4  0
 16 24  1  0
 16 25  4  0
 20 24  1  0
 20 26  2  0
 21 23  4  0
 22 23  1  0
M  END
$$$$

 Created by Python create_sdf_string function

 26 28  0  0  0  0  0  0  0  0999 V2000
   12.4616    8.6700   19.4180 N   0  0  0  0  0  0  0  0  0  0  0  0
   11.8329   10.8148   18.6769 N   0  0  0  0  0  0  0  0  0  0  0  0
    6.1021    2.5564   21.0678 C   0  0  0  0  0  0  0  0  0  0  0  0
   10.9097   11.8051   18.4804 C   0  0  0  0  0  0  0  0  0  0  0  0
   11.2280   12.9135   17.5669 C   0  0  0  0  0  0  0  0  0  0  0  0
   12.3782    5.4231   20.7777 C   0  0  0  0  0  0  0  0  0  0  0  0
    7.7365    4.6508   21.6987 C   0  0  0  0  0  0  0  0  0  0  0  0
   13.0186   11.0102   18.0020 C   0  0  0  0  0  0  0  0  0  0  0  0
    8.6628    5.7088   21.8871 N   0  0  0  0  0  0  0  0  0  0  0  0
    5.6516    3.5258   21.9140 C   0  0  0  0  0  0  0  0  0  0  0  0
   11.5863    9.6815   19.4539 C   0  0  0  0  0  0  0  0  0  0  0  0
   12.9648    4.1543   20.9205 C   0  0  0  0  0  0  0  0  0  0  0  0
    8.2089    3.6265   20.8929 C   0  0  0  0  0  0  0  0  0  0  0  0
    7.3827    2.5724   20.5432 C   0  0  0  0  0  0  0  0  0  0  0  0
   11.1529    7.2750   20.8025 C   0  0  0  0  0  0  0  0  0  0  0  0
   10.2573    8.3215   20.9827 C   0  0  0  0  0  0  0  0  0  0  0  0
   11.1606    5.9378   21.2366 N   0  0  0  0  0  0  0  0  0  0  0  0
    9.8932   11.6736   19.0677 O   0  0  0  0  0  0  0  0  0  0  0  0
    6.4470    4.5850   22.2321 C   0  0  0  0  0  0  0  0  0  0  0  0
    8.4619    6.9895   22.2968 C   0  0  0  0  0  0  0  0  0  0  0  0
   12.2747    7.5102   20.0420 C   0  0  0  0  0  0  0  0  0  0  0  0
   14.2544    6.2142   19.4191 C   0  0  0  0  0  0  0  0  0  0  0  0
   13.0695    6.3705   20.0375 N   0  0  0  0  0  0  0  0  0  0  0  0
    9.1913    8.0876   21.8361 N   0  0  0  0  0  0  0  0  0  0  0  0
   10.4739    9.4813   20.2889 C   0  0  0  0  0  0  0  0  0  0  0  0
    7.5551    7.1270   23.1200 O   0  0  0  0  0  0  0  0  0  0  0  0
  1 11  4  0
  1 21  4  0
  2  4  1  0
  2  8  1  0
  2 11  1  0
  3 10  4  0
  3 14  4  0
  4  5  1  0
  4 18  2  0
  6 12  1  0
  6 17  4  0
  6 23  4  0
  7  9  1  0
  7 13  4  0
  7 19  4  0
  9 20  1  0
 10 19  4  0
 11 25  4  0
 13 14  4  0
 15 16  4  0
 15 17  4  0
 15 21  4  0
 16 24  1  0
 16 25  4  0
 20 24  1  0
 20 26  2  0
 21 23  4  0
 22 23  1  0
M  END
$$$$

 Created by Python create_sdf_string function

 26 28  0  0  0  0  0  0  0  0999 V2000
   12.4616    8.6700   19.4180 N   0  0  0  0  0  0  0  0  0  0  0  0
   11.8329   10.8148   18.6769 N   0  0  0  0  0  0  0  0  0  0  0  0
    6.1021    2.5564   21.0678 C   0  0  0  0  0  0  0  0  0  0  0  0
   10.9097   11.8051   18.4804 C   0  0  0  0  0  0  0  0  0  0  0  0
   11.2280   12.9135   17.5669 C   0  0  0  0  0  0  0  0  0  0  0  0
   12.3782    5.4231   20.7777 C   0  0  0  0  0  0  0  0  0  0  0  0
    7.7365    4.6508   21.6987 C   0  0  0  0  0  0  0  0  0  0  0  0
   13.0186   11.0102   18.0020 C   0  0  0  0  0  0  0  0  0  0  0  0
    8.6628    5.7088   21.8871 N   0  0  0  0  0  0  0  0  0  0  0  0
    5.6516    3.5258   21.9140 C   0  0  0  0  0  0  0  0  0  0  0  0
   11.5863    9.6815   19.4539 C   0  0  0  0  0  0  0  0  0  0  0  0
   12.9648    4.1543   20.9205 C   0  0  0  0  0  0  0  0  0  0  0  0
    8.2089    3.6265   20.8929 C   0  0  0  0  0  0  0  0  0  0  0  0
    7.3827    2.5724   20.5432 C   0  0  0  0  0  0  0  0  0  0  0  0
   11.1529    7.2750   20.8025 C   0  0  0  0  0  0  0  0  0  0  0  0
   10.2573    8.3215   20.9827 C   0  0  0  0  0  0  0  0  0  0  0  0
   11.1606    5.9378   21.2366 N   0  0  0  0  0  0  0  0  0  0  0  0
    9.8932   11.6736   19.0677 O   0  0  0  0  0  0  0  0  0  0  0  0
    6.4470    4.5850   22.2321 C   0  0  0  0  0  0  0  0  0  0  0  0
    8.4619    6.9895   22.2968 C   0  0  0  0  0  0  0  0  0  0  0  0
   12.2747    7.5102   20.0420 C   0  0  0  0  0  0  0  0  0  0  0  0
   14.2544    6.2142   19.4191 C   0  0  0  0  0  0  0  0  0  0  0  0
   13.0695    6.3705   20.0375 N   0  0  0  0  0  0  0  0  0  0  0  0
    9.1913    8.0876   21.8361 N   0  0  0  0  0  0  0  0  0  0  0  0
   10.4739    9.4813   20.2889 C   0  0  0  0  0  0  0  0  0  0  0  0
    7.5551    7.1270   23.1200 O   0  0  0  0  0  0  0  0  0  0  0  0
  1 11  4  0
  1 21  4  0
  2  4  1  0
  2  8  1  0
  2 11  1  0
  3 10  4  0
  3 14  4  0
  4  5  1  0
  4 18  2  0
  6 12  1  0
  6 17  4  0
  6 23  4  0
  7  9  1  0
  7 13  4  0
  7 19  4  0
  9 20  1  0
 10 19  4  0
 11 25  4  0
 13 14  4  0
 15 16  4  0
 15 17  4  0
 15 21  4  0
 16 24  1  0
 16 25  4  0
 20 24  1  0
 20 26  2  0
 21 23  4  0
 22 23  1  0
M  END
$$$$

 Created by Python create_sdf_string function

 26 28  0  0  0  0  0  0  0  0999 V2000
   12.4616    8.6700   19.4180 N   0  0  0  0  0  0  0  0  0  0  0  0
   11.8329   10.8148   18.6769 N   0  0  0  0  0  0  0  0  0  0  0  0
    6.1021    2.5564   21.0678 C   0  0  0  0  0  0  0  0  0  0  0  0
   10.9097   11.8051   18.4804 C   0  0  0  0  0  0  0  0  0  0  0  0
   11.2280   12.9135   17.5669 C   0  0  0  0  0  0  0  0  0  0  0  0
   12.3782    5.4231   20.7777 C   0  0  0  0  0  0  0  0  0  0  0  0
    7.7365    4.6508   21.6987 C   0  0  0  0  0  0  0  0  0  0  0  0
   13.0186   11.0102   18.0020 C   0  0  0  0  0  0  0  0  0  0  0  0
    8.6628    5.7088   21.8871 N   0  0  0  0  0  0  0  0  0  0  0  0
    5.6516    3.5258   21.9140 C   0  0  0  0  0  0  0  0  0  0  0  0
   11.5863    9.6815   19.4539 C   0  0  0  0  0  0  0  0  0  0  0  0
   12.9648    4.1543   20.9205 C   0  0  0  0  0  0  0  0  0  0  0  0
    8.2089    3.6265   20.8929 C   0  0  0  0  0  0  0  0  0  0  0  0
    7.3827    2.5724   20.5432 C   0  0  0  0  0  0  0  0  0  0  0  0
   11.1529    7.2750   20.8025 C   0  0  0  0  0  0  0  0  0  0  0  0
   10.2573    8.3215   20.9827 C   0  0  0  0  0  0  0  0  0  0  0  0
   11.1606    5.9378   21.2366 N   0  0  0  0  0  0  0  0  0  0  0  0
    9.8932   11.6736   19.0677 O   0  0  0  0  0  0  0  0  0  0  0  0
    6.4470    4.5850   22.2321 C   0  0  0  0  0  0  0  0  0  0  0  0
    8.4619    6.9895   22.2968 C   0  0  0  0  0  0  0  0  0  0  0  0
   12.2747    7.5102   20.0420 C   0  0  0  0  0  0  0  0  0  0  0  0
   14.2544    6.2142   19.4191 C   0  0  0  0  0  0  0  0  0  0  0  0
   13.0695    6.3705   20.0375 N   0  0  0  0  0  0  0  0  0  0  0  0
    9.1913    8.0876   21.8361 N   0  0  0  0  0  0  0  0  0  0  0  0
   10.4739    9.4813   20.2889 C   0  0  0  0  0  0  0  0  0  0  0  0
    7.5551    7.1270   23.1200 O   0  0  0  0  0  0  0  0  0  0  0  0
  1 11  4  0
  1 21  4  0
  2  4  1  0
  2  8  1  0
  2 11  1  0
  3 10  4  0
  3 14  4  0
  4  5  1  0
  4 18  2  0
  6 12  1  0
  6 17  4  0
  6 23  4  0
  7  9  1  0
  7 13  4  0
  7 19  4  0
  9 20  1  0
 10 19  4  0
 11 25  4  0
 13 14  4  0
 15 16  4  0
 15 17  4  0
 15 21  4  0
 16 24  1  0
 16 25  4  0
 20 24  1  0
 20 26  2  0
 21 23  4  0
 22 23  1  0
M  END
$$$$

 Created by Python create_sdf_string function

 26 28  0  0  0  0  0  0  0  0999 V2000
   12.4616    8.6700   19.4180 N   0  0  0  0  0  0  0  0  0  0  0  0
   11.8329   10.8148   18.6769 N   0  0  0  0  0  0  0  0  0  0  0  0
    6.1021    2.5564   21.0678 C   0  0  0  0  0  0  0  0  0  0  0  0
   10.9097   11.8051   18.4804 C   0  0  0  0  0  0  0  0  0  0  0  0
   11.2280   12.9135   17.5669 C   0  0  0  0  0  0  0  0  0  0  0  0
   12.3782    5.4231   20.7777 C   0  0  0  0  0  0  0  0  0  0  0  0
    7.7365    4.6508   21.6987 C   0  0  0  0  0  0  0  0  0  0  0  0
   13.0186   11.0102   18.0020 C   0  0  0  0  0  0  0  0  0  0  0  0
    8.6628    5.7088   21.8871 N   0  0  0  0  0  0  0  0  0  0  0  0
    5.6516    3.5258   21.9140 C   0  0  0  0  0  0  0  0  0  0  0  0
   11.5863    9.6815   19.4539 C   0  0  0  0  0  0  0  0  0  0  0  0
   12.9648    4.1543   20.9205 C   0  0  0  0  0  0  0  0  0  0  0  0
    8.2089    3.6265   20.8929 C   0  0  0  0  0  0  0  0  0  0  0  0
    7.3827    2.5724   20.5432 C   0  0  0  0  0  0  0  0  0  0  0  0
   11.1529    7.2750   20.8025 C   0  0  0  0  0  0  0  0  0  0  0  0
   10.2573    8.3215   20.9827 C   0  0  0  0  0  0  0  0  0  0  0  0
   11.1606    5.9378   21.2366 N   0  0  0  0  0  0  0  0  0  0  0  0
    9.8932   11.6736   19.0677 O   0  0  0  0  0  0  0  0  0  0  0  0
    6.4470    4.5850   22.2321 C   0  0  0  0  0  0  0  0  0  0  0  0
    8.4619    6.9895   22.2968 C   0  0  0  0  0  0  0  0  0  0  0  0
   12.2747    7.5102   20.0420 C   0  0  0  0  0  0  0  0  0  0  0  0
   14.2544    6.2142   19.4191 C   0  0  0  0  0  0  0  0  0  0  0  0
   13.0695    6.3705   20.0375 N   0  0  0  0  0  0  0  0  0  0  0  0
    9.1913    8.0876   21.8361 N   0  0  0  0  0  0  0  0  0  0  0  0
   10.4739    9.4813   20.2889 C   0  0  0  0  0  0  0  0  0  0  0  0
    7.5551    7.1270   23.1200 O   0  0  0  0  0  0  0  0  0  0  0  0
  1 11  4  0
  1 21  4  0
  2  4  1  0
  2  8  1  0
  2 11  1  0
  3 10  4  0
  3 14  4  0
  4  5  1  0
  4 18  2  0
  6 12  1  0
  6 17  4  0
  6 23  4  0
  7  9  1  0
  7 13  4  0
  7 19  4  0
  9 20  1  0
 10 19  4  0
 11 25  4  0
 13 14  4  0
 15 16  4  0
 15 17  4  0
 15 21  4  0
 16 24  1  0
 16 25  4  0
 20 24  1  0
 20 26  2  0
 21 23  4  0
 22 23  1  0
M  END
$$$$

 Created by Python create_sdf_string function

 26 28  0  0  0  0  0  0  0  0999 V2000
   12.4616    8.6700   19.4180 N   0  0  0  0  0  0  0  0  0  0  0  0
   11.8329   10.8148   18.6769 N   0  0  0  0  0  0  0  0  0  0  0  0
    6.1021    2.5564   21.0678 C   0  0  0  0  0  0  0  0  0  0  0  0
   10.9097   11.8051   18.4804 C   0  0  0  0  0  0  0  0  0  0  0  0
   11.2280   12.9135   17.5669 C   0  0  0  0  0  0  0  0  0  0  0  0
   12.3782    5.4231   20.7777 C   0  0  0  0  0  0  0  0  0  0  0  0
    7.7365    4.6508   21.6987 C   0  0  0  0  0  0  0  0  0  0  0  0
   13.0186   11.0102   18.0020 C   0  0  0  0  0  0  0  0  0  0  0  0
    8.6628    5.7088   21.8871 N   0  0  0  0  0  0  0  0  0  0  0  0
    5.6516    3.5258   21.9140 C   0  0  0  0  0  0  0  0  0  0  0  0
   11.5863    9.6815   19.4539 C   0  0  0  0  0  0  0  0  0  0  0  0
   12.9648    4.1543   20.9205 C   0  0  0  0  0  0  0  0  0  0  0  0
    8.2089    3.6265   20.8929 C   0  0  0  0  0  0  0  0  0  0  0  0
    7.3827    2.5724   20.5432 C   0  0  0  0  0  0  0  0  0  0  0  0
   11.1529    7.2750   20.8025 C   0  0  0  0  0  0  0  0  0  0  0  0
   10.2573    8.3215   20.9827 C   0  0  0  0  0  0  0  0  0  0  0  0
   11.1606    5.9378   21.2366 N   0  0  0  0  0  0  0  0  0  0  0  0
    9.8932   11.6736   19.0677 O   0  0  0  0  0  0  0  0  0  0  0  0
    6.4470    4.5850   22.2321 C   0  0  0  0  0  0  0  0  0  0  0  0
    8.4619    6.9895   22.2968 C   0  0  0  0  0  0  0  0  0  0  0  0
   12.2747    7.5102   20.0420 C   0  0  0  0  0  0  0  0  0  0  0  0
   14.2544    6.2142   19.4191 C   0  0  0  0  0  0  0  0  0  0  0  0
   13.0695    6.3705   20.0375 N   0  0  0  0  0  0  0  0  0  0  0  0
    9.1913    8.0876   21.8361 N   0  0  0  0  0  0  0  0  0  0  0  0
   10.4739    9.4813   20.2889 C   0  0  0  0  0  0  0  0  0  0  0  0
    7.5551    7.1270   23.1200 O   0  0  0  0  0  0  0  0  0  0  0  0
  1 11  4  0
  1 21  4  0
  2  4  1  0
  2  8  1  0
  2 11  1  0
  3 10  4  0
  3 14  4  0
  4  5  1  0
  4 18  2  0
  6 12  1  0
  6 17  4  0
  6 23  4  0
  7  9  1  0
  7 13  4  0
  7 19  4  0
  9 20  1  0
 10 19  4  0
 11 25  4  0
 13 14  4  0
 15 16  4  0
 15 17  4  0
 15 21  4  0
 16 24  1  0
 16 25  4  0
 20 24  1  0
 20 26  2  0
 21 23  4  0
 22 23  1  0
M  END
$$$$

 Created by Python create_sdf_string function

 26 28  0  0  0  0  0  0  0  0999 V2000
   12.4616    8.6700   19.4180 N   0  0  0  0  0  0  0  0  0  0  0  0
   11.8329   10.8148   18.6769 N   0  0  0  0  0  0  0  0  0  0  0  0
    6.1021    2.5564   21.0678 C   0  0  0  0  0  0  0  0  0  0  0  0
   10.9097   11.8051   18.4804 C   0  0  0  0  0  0  0  0  0  0  0  0
   11.2280   12.9135   17.5669 C   0  0  0  0  0  0  0  0  0  0  0  0
   12.3782    5.4231   20.7777 C   0  0  0  0  0  0  0  0  0  0  0  0
    7.7365    4.6508   21.6987 C   0  0  0  0  0  0  0  0  0  0  0  0
   13.0186   11.0102   18.0020 C   0  0  0  0  0  0  0  0  0  0  0  0
    8.6628    5.7088   21.8871 N   0  0  0  0  0  0  0  0  0  0  0  0
    5.6516    3.5258   21.9140 C   0  0  0  0  0  0  0  0  0  0  0  0
   11.5863    9.6815   19.4539 C   0  0  0  0  0  0  0  0  0  0  0  0
   12.9648    4.1543   20.9205 C   0  0  0  0  0  0  0  0  0  0  0  0
    8.2089    3.6265   20.8929 C   0  0  0  0  0  0  0  0  0  0  0  0
    7.3827    2.5724   20.5432 C   0  0  0  0  0  0  0  0  0  0  0  0
   11.1529    7.2750   20.8025 C   0  0  0  0  0  0  0  0  0  0  0  0
   10.2573    8.3215   20.9827 C   0  0  0  0  0  0  0  0  0  0  0  0
   11.1606    5.9378   21.2366 N   0  0  0  0  0  0  0  0  0  0  0  0
    9.8932   11.6736   19.0677 O   0  0  0  0  0  0  0  0  0  0  0  0
    6.4470    4.5850   22.2321 C   0  0  0  0  0  0  0  0  0  0  0  0
    8.4619    6.9895   22.2968 C   0  0  0  0  0  0  0  0  0  0  0  0
   12.2747    7.5102   20.0420 C   0  0  0  0  0  0  0  0  0  0  0  0
   14.2544    6.2142   19.4191 C   0  0  0  0  0  0  0  0  0  0  0  0
   13.0695    6.3705   20.0375 N   0  0  0  0  0  0  0  0  0  0  0  0
    9.1913    8.0876   21.8361 N   0  0  0  0  0  0  0  0  0  0  0  0
   10.4739    9.4813   20.2889 C   0  0  0  0  0  0  0  0  0  0  0  0
    7.5551    7.1270   23.1200 O   0  0  0  0  0  0  0  0  0  0  0  0
  1 11  4  0
  1 21  4  0
  2  4  1  0
  2  8  1  0
  2 11  1  0
  3 10  4  0
  3 14  4  0
  4  5  1  0
  4 18  2  0
  6 12  1  0
  6 17  4  0
  6 23  4  0
  7  9  1  0
  7 13  4  0
  7 19  4  0
  9 20  1  0
 10 19  4  0
 11 25  4  0
 13 14  4  0
 15 16  4  0
 15 17  4  0
 15 21  4  0
 16 24  1  0
 16 25  4  0
 20 24  1  0
 20 26  2  0
 21 23  4  0
 22 23  1  0
M  END
$$$$

 Created by Python create_sdf_string function

 26 28  0  0  0  0  0  0  0  0999 V2000
   12.4616    8.6700   19.4180 N   0  0  0  0  0  0  0  0  0  0  0  0
   11.8329   10.8148   18.6769 N   0  0  0  0  0  0  0  0  0  0  0  0
    6.1021    2.5564   21.0678 C   0  0  0  0  0  0  0  0  0  0  0  0
   10.9097   11.8051   18.4804 C   0  0  0  0  0  0  0  0  0  0  0  0
   11.2280   12.9135   17.5669 C   0  0  0  0  0  0  0  0  0  0  0  0
   12.3782    5.4231   20.7777 C   0  0  0  0  0  0  0  0  0  0  0  0
    7.7365    4.6508   21.6987 C   0  0  0  0  0  0  0  0  0  0  0  0
   13.0186   11.0102   18.0020 C   0  0  0  0  0  0  0  0  0  0  0  0
    8.6628    5.7088   21.8871 N   0  0  0  0  0  0  0  0  0  0  0  0
    5.6516    3.5258   21.9140 C   0  0  0  0  0  0  0  0  0  0  0  0
   11.5863    9.6815   19.4539 C   0  0  0  0  0  0  0  0  0  0  0  0
   12.9648    4.1543   20.9205 C   0  0  0  0  0  0  0  0  0  0  0  0
    8.2089    3.6265   20.8929 C   0  0  0  0  0  0  0  0  0  0  0  0
    7.3827    2.5724   20.5432 C   0  0  0  0  0  0  0  0  0  0  0  0
   11.1529    7.2750   20.8025 C   0  0  0  0  0  0  0  0  0  0  0  0
   10.2573    8.3215   20.9827 C   0  0  0  0  0  0  0  0  0  0  0  0
   11.1606    5.9378   21.2366 N   0  0  0  0  0  0  0  0  0  0  0  0
    9.8932   11.6736   19.0677 O   0  0  0  0  0  0  0  0  0  0  0  0
    6.4470    4.5850   22.2321 C   0  0  0  0  0  0  0  0  0  0  0  0
    8.4619    6.9895   22.2968 C   0  0  0  0  0  0  0  0  0  0  0  0
   12.2747    7.5102   20.0420 C   0  0  0  0  0  0  0  0  0  0  0  0
   14.2544    6.2142   19.4191 C   0  0  0  0  0  0  0  0  0  0  0  0
   13.0695    6.3705   20.0375 N   0  0  0  0  0  0  0  0  0  0  0  0
    9.1913    8.0876   21.8361 N   0  0  0  0  0  0  0  0  0  0  0  0
   10.4739    9.4813   20.2889 C   0  0  0  0  0  0  0  0  0  0  0  0
    7.5551    7.1270   23.1200 O   0  0  0  0  0  0  0  0  0  0  0  0
  1 11  4  0
  1 21  4  0
  2  4  1  0
  2  8  1  0
  2 11  1  0
  3 10  4  0
  3 14  4  0
  4  5  1  0
  4 18  2  0
  6 12  1  0
  6 17  4  0
  6 23  4  0
  7  9  1  0
  7 13  4  0
  7 19  4  0
  9 20  1  0
 10 19  4  0
 11 25  4  0
 13 14  4  0
 15 16  4  0
 15 17  4  0
 15 21  4  0
 16 24  1  0
 16 25  4  0
 20 24  1  0
 20 26  2  0
 21 23  4  0
 22 23  1  0
M  END
$$$$

 Created by Python create_sdf_string function

 26 28  0  0  0  0  0  0  0  0999 V2000
   12.4616    8.6700   19.4180 N   0  0  0  0  0  0  0  0  0  0  0  0
   11.8329   10.8148   18.6769 N   0  0  0  0  0  0  0  0  0  0  0  0
    6.1021    2.5564   21.0678 C   0  0  0  0  0  0  0  0  0  0  0  0
   10.9097   11.8051   18.4804 C   0  0  0  0  0  0  0  0  0  0  0  0
   11.2280   12.9135   17.5669 C   0  0  0  0  0  0  0  0  0  0  0  0
   12.3782    5.4231   20.7777 C   0  0  0  0  0  0  0  0  0  0  0  0
    7.7365    4.6508   21.6987 C   0  0  0  0  0  0  0  0  0  0  0  0
   13.0186   11.0102   18.0020 C   0  0  0  0  0  0  0  0  0  0  0  0
    8.6628    5.7088   21.8871 N   0  0  0  0  0  0  0  0  0  0  0  0
    5.6516    3.5258   21.9140 C   0  0  0  0  0  0  0  0  0  0  0  0
   11.5863    9.6815   19.4539 C   0  0  0  0  0  0  0  0  0  0  0  0
   12.9648    4.1543   20.9205 C   0  0  0  0  0  0  0  0  0  0  0  0
    8.2089    3.6265   20.8929 C   0  0  0  0  0  0  0  0  0  0  0  0
    7.3827    2.5724   20.5432 C   0  0  0  0  0  0  0  0  0  0  0  0
   11.1529    7.2750   20.8025 C   0  0  0  0  0  0  0  0  0  0  0  0
   10.2573    8.3215   20.9827 C   0  0  0  0  0  0  0  0  0  0  0  0
   11.1606    5.9378   21.2366 N   0  0  0  0  0  0  0  0  0  0  0  0
    9.8932   11.6736   19.0677 O   0  0  0  0  0  0  0  0  0  0  0  0
    6.4470    4.5850   22.2321 C   0  0  0  0  0  0  0  0  0  0  0  0
    8.4619    6.9895   22.2968 C   0  0  0  0  0  0  0  0  0  0  0  0
   12.2747    7.5102   20.0420 C   0  0  0  0  0  0  0  0  0  0  0  0
   14.2544    6.2142   19.4191 C   0  0  0  0  0  0  0  0  0  0  0  0
   13.0695    6.3705   20.0375 N   0  0  0  0  0  0  0  0  0  0  0  0
    9.1913    8.0876   21.8361 N   0  0  0  0  0  0  0  0  0  0  0  0
   10.4739    9.4813   20.2889 C   0  0  0  0  0  0  0  0  0  0  0  0
    7.5551    7.1270   23.1200 O   0  0  0  0  0  0  0  0  0  0  0  0
  1 11  4  0
  1 21  4  0
  2  4  1  0
  2  8  1  0
  2 11  1  0
  3 10  4  0
  3 14  4  0
  4  5  1  0
  4 18  2  0
  6 12  1  0
  6 17  4  0
  6 23  4  0
  7  9  1  0
  7 13  4  0
  7 19  4  0
  9 20  1  0
 10 19  4  0
 11 25  4  0
 13 14  4  0
 15 16  4  0
 15 17  4  0
 15 21  4  0
 16 24  1  0
 16 25  4  0
 20 24  1  0
 20 26  2  0
 21 23  4  0
 22 23  1  0
M  END
$$$$

 Created by Python create_sdf_string function

 26 28  0  0  0  0  0  0  0  0999 V2000
   12.4616    8.6700   19.4180 N   0  0  0  0  0  0  0  0  0  0  0  0
   11.8329   10.8148   18.6769 N   0  0  0  0  0  0  0  0  0  0  0  0
    6.1021    2.5564   21.0678 C   0  0  0  0  0  0  0  0  0  0  0  0
   10.9097   11.8051   18.4804 C   0  0  0  0  0  0  0  0  0  0  0  0
   11.2280   12.9135   17.5669 C   0  0  0  0  0  0  0  0  0  0  0  0
   12.3782    5.4231   20.7777 C   0  0  0  0  0  0  0  0  0  0  0  0
    7.7365    4.6508   21.6987 C   0  0  0  0  0  0  0  0  0  0  0  0
   13.0186   11.0102   18.0020 C   0  0  0  0  0  0  0  0  0  0  0  0
    8.6628    5.7088   21.8871 N   0  0  0  0  0  0  0  0  0  0  0  0
    5.6516    3.5258   21.9140 C   0  0  0  0  0  0  0  0  0  0  0  0
   11.5863    9.6815   19.4539 C   0  0  0  0  0  0  0  0  0  0  0  0
   12.9648    4.1543   20.9205 C   0  0  0  0  0  0  0  0  0  0  0  0
    8.2089    3.6265   20.8929 C   0  0  0  0  0  0  0  0  0  0  0  0
    7.3827    2.5724   20.5432 C   0  0  0  0  0  0  0  0  0  0  0  0
   11.1529    7.2750   20.8025 C   0  0  0  0  0  0  0  0  0  0  0  0
   10.2573    8.3215   20.9827 C   0  0  0  0  0  0  0  0  0  0  0  0
   11.1606    5.9378   21.2366 N   0  0  0  0  0  0  0  0  0  0  0  0
    9.8932   11.6736   19.0677 O   0  0  0  0  0  0  0  0  0  0  0  0
    6.4470    4.5850   22.2321 C   0  0  0  0  0  0  0  0  0  0  0  0
    8.4619    6.9895   22.2968 C   0  0  0  0  0  0  0  0  0  0  0  0
   12.2747    7.5102   20.0420 C   0  0  0  0  0  0  0  0  0  0  0  0
   14.2544    6.2142   19.4191 C   0  0  0  0  0  0  0  0  0  0  0  0
   13.0695    6.3705   20.0375 N   0  0  0  0  0  0  0  0  0  0  0  0
    9.1913    8.0876   21.8361 N   0  0  0  0  0  0  0  0  0  0  0  0
   10.4739    9.4813   20.2889 C   0  0  0  0  0  0  0  0  0  0  0  0
    7.5551    7.1270   23.1200 O   0  0  0  0  0  0  0  0  0  0  0  0
  1 11  4  0
  1 21  4  0
  2  4  1  0
  2  8  1  0
  2 11  1  0
  3 10  4  0
  3 14  4  0
  4  5  1  0
  4 18  2  0
  6 12  1  0
  6 17  4  0
  6 23  4  0
  7  9  1  0
  7 13  4  0
  7 19  4  0
  9 20  1  0
 10 19  4  0
 11 25  4  0
 13 14  4  0
 15 16  4  0
 15 17  4  0
 15 21  4  0
 16 24  1  0
 16 25  4  0
 20 24  1  0
 20 26  2  0
 21 23  4  0
 22 23  1  0
M  END
$$$$

 Created by Python create_sdf_string function

 26 28  0  0  0  0  0  0  0  0999 V2000
   12.4616    8.6700   19.4180 N   0  0  0  0  0  0  0  0  0  0  0  0
   11.8329   10.8148   18.6769 N   0  0  0  0  0  0  0  0  0  0  0  0
    6.1021    2.5564   21.0678 C   0  0  0  0  0  0  0  0  0  0  0  0
   10.9097   11.8051   18.4804 C   0  0  0  0  0  0  0  0  0  0  0  0
   11.2280   12.9135   17.5669 C   0  0  0  0  0  0  0  0  0  0  0  0
   12.3782    5.4231   20.7777 C   0  0  0  0  0  0  0  0  0  0  0  0
    7.7365    4.6508   21.6987 C   0  0  0  0  0  0  0  0  0  0  0  0
   13.0186   11.0102   18.0020 C   0  0  0  0  0  0  0  0  0  0  0  0
    8.6628    5.7088   21.8871 N   0  0  0  0  0  0  0  0  0  0  0  0
    5.6516    3.5258   21.9140 C   0  0  0  0  0  0  0  0  0  0  0  0
   11.5863    9.6815   19.4539 C   0  0  0  0  0  0  0  0  0  0  0  0
   12.9648    4.1543   20.9205 C   0  0  0  0  0  0  0  0  0  0  0  0
    8.2089    3.6265   20.8929 C   0  0  0  0  0  0  0  0  0  0  0  0
    7.3827    2.5724   20.5432 C   0  0  0  0  0  0  0  0  0  0  0  0
   11.1529    7.2750   20.8025 C   0  0  0  0  0  0  0  0  0  0  0  0
   10.2573    8.3215   20.9827 C   0  0  0  0  0  0  0  0  0  0  0  0
   11.1606    5.9378   21.2366 N   0  0  0  0  0  0  0  0  0  0  0  0
    9.8932   11.6736   19.0677 O   0  0  0  0  0  0  0  0  0  0  0  0
    6.4470    4.5850   22.2321 C   0  0  0  0  0  0  0  0  0  0  0  0
    8.4619    6.9895   22.2968 C   0  0  0  0  0  0  0  0  0  0  0  0
   12.2747    7.5102   20.0420 C   0  0  0  0  0  0  0  0  0  0  0  0
   14.2544    6.2142   19.4191 C   0  0  0  0  0  0  0  0  0  0  0  0
   13.0695    6.3705   20.0375 N   0  0  0  0  0  0  0  0  0  0  0  0
    9.1913    8.0876   21.8361 N   0  0  0  0  0  0  0  0  0  0  0  0
   10.4739    9.4813   20.2889 C   0  0  0  0  0  0  0  0  0  0  0  0
    7.5551    7.1270   23.1200 O   0  0  0  0  0  0  0  0  0  0  0  0
  1 11  4  0
  1 21  4  0
  2  4  1  0
  2  8  1  0
  2 11  1  0
  3 10  4  0
  3 14  4  0
  4  5  1  0
  4 18  2  0
  6 12  1  0
  6 17  4  0
  6 23  4  0
  7  9  1  0
  7 13  4  0
  7 19  4  0
  9 20  1  0
 10 19  4  0
 11 25  4  0
 13 14  4  0
 15 16  4  0
 15 17  4  0
 15 21  4  0
 16 24  1  0
 16 25  4  0
 20 24  1  0
 20 26  2  0
 21 23  4  0
 22 23  1  0
M  END
$$$$

 Created by Python create_sdf_string function

 26 28  0  0  0  0  0  0  0  0999 V2000
   12.4616    8.6700   19.4180 N   0  0  0  0  0  0  0  0  0  0  0  0
   11.8329   10.8148   18.6769 N   0  0  0  0  0  0  0  0  0  0  0  0
    6.1021    2.5564   21.0678 C   0  0  0  0  0  0  0  0  0  0  0  0
   10.9097   11.8051   18.4804 C   0  0  0  0  0  0  0  0  0  0  0  0
   11.2280   12.9135   17.5669 C   0  0  0  0  0  0  0  0  0  0  0  0
   12.3782    5.4231   20.7777 C   0  0  0  0  0  0  0  0  0  0  0  0
    7.7365    4.6508   21.6987 C   0  0  0  0  0  0  0  0  0  0  0  0
   13.0186   11.0102   18.0020 C   0  0  0  0  0  0  0  0  0  0  0  0
    8.6628    5.7088   21.8871 N   0  0  0  0  0  0  0  0  0  0  0  0
    5.6516    3.5258   21.9140 C   0  0  0  0  0  0  0  0  0  0  0  0
   11.5863    9.6815   19.4539 C   0  0  0  0  0  0  0  0  0  0  0  0
   12.9648    4.1543   20.9205 C   0  0  0  0  0  0  0  0  0  0  0  0
    8.2089    3.6265   20.8929 C   0  0  0  0  0  0  0  0  0  0  0  0
    7.3827    2.5724   20.5432 C   0  0  0  0  0  0  0  0  0  0  0  0
   11.1529    7.2750   20.8025 C   0  0  0  0  0  0  0  0  0  0  0  0
   10.2573    8.3215   20.9827 C   0  0  0  0  0  0  0  0  0  0  0  0
   11.1606    5.9378   21.2366 N   0  0  0  0  0  0  0  0  0  0  0  0
    9.8932   11.6736   19.0677 O   0  0  0  0  0  0  0  0  0  0  0  0
    6.4470    4.5850   22.2321 C   0  0  0  0  0  0  0  0  0  0  0  0
    8.4619    6.9895   22.2968 C   0  0  0  0  0  0  0  0  0  0  0  0
   12.2747    7.5102   20.0420 C   0  0  0  0  0  0  0  0  0  0  0  0
   14.2544    6.2142   19.4191 C   0  0  0  0  0  0  0  0  0  0  0  0
   13.0695    6.3705   20.0375 N   0  0  0  0  0  0  0  0  0  0  0  0
    9.1913    8.0876   21.8361 N   0  0  0  0  0  0  0  0  0  0  0  0
   10.4739    9.4813   20.2889 C   0  0  0  0  0  0  0  0  0  0  0  0
    7.5551    7.1270   23.1200 O   0  0  0  0  0  0  0  0  0  0  0  0
  1 11  4  0
  1 21  4  0
  2  4  1  0
  2  8  1  0
  2 11  1  0
  3 10  4  0
  3 14  4  0
  4  5  1  0
  4 18  2  0
  6 12  1  0
  6 17  4  0
  6 23  4  0
  7  9  1  0
  7 13  4  0
  7 19  4  0
  9 20  1  0
 10 19  4  0
 11 25  4  0
 13 14  4  0
 15 16  4  0
 15 17  4  0
 15 21  4  0
 16 24  1  0
 16 25  4  0
 20 24  1  0
 20 26  2  0
 21 23  4  0
 22 23  1  0
M  END
$$$$

 Created by Python create_sdf_string function

 26 28  0  0  0  0  0  0  0  0999 V2000
   12.4616    8.6700   19.4180 N   0  0  0  0  0  0  0  0  0  0  0  0
   11.8329   10.8148   18.6769 N   0  0  0  0  0  0  0  0  0  0  0  0
    6.1021    2.5564   21.0678 C   0  0  0  0  0  0  0  0  0  0  0  0
   10.9097   11.8051   18.4804 C   0  0  0  0  0  0  0  0  0  0  0  0
   11.2280   12.9135   17.5669 C   0  0  0  0  0  0  0  0  0  0  0  0
   12.3782    5.4231   20.7777 C   0  0  0  0  0  0  0  0  0  0  0  0
    7.7365    4.6508   21.6987 C   0  0  0  0  0  0  0  0  0  0  0  0
   13.0186   11.0102   18.0020 C   0  0  0  0  0  0  0  0  0  0  0  0
    8.6628    5.7088   21.8871 N   0  0  0  0  0  0  0  0  0  0  0  0
    5.6516    3.5258   21.9140 C   0  0  0  0  0  0  0  0  0  0  0  0
   11.5863    9.6815   19.4539 C   0  0  0  0  0  0  0  0  0  0  0  0
   12.9648    4.1543   20.9205 C   0  0  0  0  0  0  0  0  0  0  0  0
    8.2089    3.6265   20.8929 C   0  0  0  0  0  0  0  0  0  0  0  0
    7.3827    2.5724   20.5432 C   0  0  0  0  0  0  0  0  0  0  0  0
   11.1529    7.2750   20.8025 C   0  0  0  0  0  0  0  0  0  0  0  0
   10.2573    8.3215   20.9827 C   0  0  0  0  0  0  0  0  0  0  0  0
   11.1606    5.9378   21.2366 N   0  0  0  0  0  0  0  0  0  0  0  0
    9.8932   11.6736   19.0677 O   0  0  0  0  0  0  0  0  0  0  0  0
    6.4470    4.5850   22.2321 C   0  0  0  0  0  0  0  0  0  0  0  0
    8.4619    6.9895   22.2968 C   0  0  0  0  0  0  0  0  0  0  0  0
   12.2747    7.5102   20.0420 C   0  0  0  0  0  0  0  0  0  0  0  0
   14.2544    6.2142   19.4191 C   0  0  0  0  0  0  0  0  0  0  0  0
   13.0695    6.3705   20.0375 N   0  0  0  0  0  0  0  0  0  0  0  0
    9.1913    8.0876   21.8361 N   0  0  0  0  0  0  0  0  0  0  0  0
   10.4739    9.4813   20.2889 C   0  0  0  0  0  0  0  0  0  0  0  0
    7.5551    7.1270   23.1200 O   0  0  0  0  0  0  0  0  0  0  0  0
  1 11  4  0
  1 21  4  0
  2  4  1  0
  2  8  1  0
  2 11  1  0
  3 10  4  0
  3 14  4  0
  4  5  1  0
  4 18  2  0
  6 12  1  0
  6 17  4  0
  6 23  4  0
  7  9  1  0
  7 13  4  0
  7 19  4  0
  9 20  1  0
 10 19  4  0
 11 25  4  0
 13 14  4  0
 15 16  4  0
 15 17  4  0
 15 21  4  0
 16 24  1  0
 16 25  4  0
 20 24  1  0
 20 26  2  0
 21 23  4  0
 22 23  1  0
M  END
